data_PCOD9134564
_publ_section_title
;
Structure prediction by ZEFSAII (Michael W. Deem and Ramdas Pophale) SiO2 
 PCOD9134564
Probable space group: C C
;
_chemical_formula_sum "Si O2"
_cell_formula_units_Z 28
_cell_length_a 11.089767
_cell_length_b 9.193782
_cell_length_c 20.612277
_cell_angle_alpha 90.000000
_cell_angle_beta 142.049081
_cell_angle_gamma 90.000000
_cell_volume 1292.432820
_symmetry_space_group_name_H-M "C C"
_symmetry_group_IT_number 9
_symmetry_cell_setting 'monoclinic'
loop_
_space_group_symop_operation_xyz
x,y,z
x,-y,1/2+z
1/2+x,1/2+y,z
1/2+x,1/2-y,1/2+z
loop_
_atom_site_type_symbol
_atom_site_label
_atom_site_fract_x
_atom_site_fract_y
_atom_site_fract_z
Si Si1 0.838460 0.008303 0.000000
Si Si2 0.222236 0.965622 0.879347
Si Si3 0.488155 0.221652 0.013959
Si Si4 0.824904 0.015740 0.140082
Si Si5 0.951336 0.654857 0.356523
Si Si6 0.669433 0.291935 0.615920
Si Si7 0.265231 0.095387 0.022700
O O1 0.935174 0.889095 0.993240
O O2 0.605639 0.974622 0.903250
O O3 0.902316 0.978864 0.101419
O O4 0.944278 0.158260 0.027871
O O5 0.316506 0.127096 0.907600
O O6 0.239524 0.955190 0.965270
O O7 0.998350 0.960622 0.763525
O O8 0.339727 0.872599 0.876500
O O9 0.464115 0.165636 0.078357
O O10 0.692171 0.159352 0.076480
O O11 0.698394 0.876432 0.108922
O O12 0.794098 0.679904 0.233572
O O13 0.090929 0.794435 0.426548
O O14 0.760435 0.393197 0.597369
#
# Coordination Sequence:
#
# PCOD9134564 Si02
#       7
#     4   4   4   4   4   4   4
#     4  11  22  41  63  93 127 161 211 263 310 374
#     4  10  19  37  66  87 119 174 202 250 321 367
#     4   9  20  40  61  86 124 165 203 253 317 368
#     4  12  19  40  67  87 127 166 203 259 316 371
#     4  11  20  40  68  89 126 173 210 254 322 372
#     4  12  22  39  67  96 124 169 213 260 317 373
#     4   9  20  39  58  90 129 158 202 263 307 365
#
# _framework density 21.664570000000001
#
# number of rings (size 3 to 8) (size 9 to 14) (size 15 to 20)
#    0.857    0.571    7.143    0.000    0.000    0.000 
#    5.143    2.857    0.000    0.000    0.000    0.000 
#    0.000    0.000    0.000    0.000    0.000    0.000 
#
# Total GULP energy -77947.282463 kJ/mol
# GULP energy per Si atom -5567.663033 kJ/mol
# Density = 2.161526 g / cm^3
# Si number density = 21.664570 Si / 1000 Ang^3
#
#
#
# Elastic Constant Matrix: (Units=GPa)
#
#
# Indices 1 2 3 4 5 6 
#
# 1 67.9890 36.7126 21.1020 0.0000 -11.2904 0.0000
# 2 36.7126 62.6700 17.4393 0.0000 2.1286 0.0000
# 3 21.1020 17.4393 71.0308 0.0000 -9.0962 0.0000
# 4 0.0000 0.0000 0.0000 7.7953 0.0000 3.5152
# 5 -11.2904 2.1286 -9.0962 0.0000 40.1861 0.0000
# 6 0.0000 0.0000 0.0000 3.5152 0.0000 46.5407
#
#
#
# Elastic Compliance Matrix: (Units=1/GPa)
#
#
# Indices 1 2 3 4 5 6 
#
# 1 0.024040 -0.013491 -0.002959 0.000000 0.006799 0.000000
# 2 -0.013491 0.024841 -0.002827 0.000000 -0.005746 0.000000
# 3 -0.002959 -0.002827 0.016029 0.000000 0.002947 0.000000
# 4 0.000000 0.000000 0.000000 0.132806 0.000000 -0.010031
# 5 0.006799 -0.005746 0.002947 0.000000 0.027766 0.000000
# 6 0.000000 0.000000 0.000000 -0.010031 0.000000 0.022244
#
#
# Mechanical properties :
#
#
# Convention : Reuss Voigt Hill
#
# Bulk Modulus (GPa) = 37.94020 39.13307 38.53663
# Shear Modulus (GPa) = 16.94540 27.33349 22.13944
#
# Velocity S-wave (km/s) = 2.79977 3.55585 3.20022
# Velocity P-wave (km/s) = 5.29171 5.91279 5.61085
#
# Compressibility (1/GPa) = 0.02635727
#
# Stress axis : x y z
#
# Youngs Moduli (GPa) = 41.59667 40.25553 62.38727
#
# Poissons Ratio (x) = 0.54307 0.18461
# Poissons Ratio (y) = 0.56116 0.17637
# Poissons Ratio (z) = 0.12309 0.11380
#
# Static dielectric constant tensor:
#      x y z
#    x 1.826940 0.000000 -0.001160 
#    y 0.000000 1.844030 0.000000 
#    z -0.001160 0.000000 1.769020 
# 
# From -- ./inp_files/33114.got.cif
#   From: 2010.05.17/outbox.cif.g08.bks.cpg/sg9_17_cif.got.tgz:33114.got - 2010.06.03 20:04:27.
