data_PCOD9134754
_publ_section_title
;
Structure prediction by ZEFSAII (Michael W. Deem and Ramdas Pophale) SiO2 
 PCOD9134754
Probable space group: C C
;
_chemical_formula_sum "Si O2"
_cell_formula_units_Z 32
_cell_length_a 8.170770
_cell_length_b 11.525842
_cell_length_c 23.068432
_cell_angle_alpha 90.000000
_cell_angle_beta 144.514219
_cell_angle_gamma 90.000000
_cell_volume 1261.120603
_symmetry_space_group_name_H-M "C C"
_symmetry_group_IT_number 9
_symmetry_cell_setting 'monoclinic'
loop_
_space_group_symop_operation_xyz
x,y,z
x,-y,1/2+z
1/2+x,1/2+y,z
1/2+x,1/2-y,1/2+z
loop_
_atom_site_type_symbol
_atom_site_label
_atom_site_fract_x
_atom_site_fract_y
_atom_site_fract_z
Si Si1 0.577400 0.835102 0.472540
Si Si2 0.641611 0.624731 0.309875
Si Si3 0.906522 0.810135 0.307758
Si Si4 0.123757 0.904853 0.942802
Si Si5 0.883762 0.408269 0.306601
Si Si6 0.155489 0.479727 0.602904
Si Si7 0.868121 0.754594 0.172465
Si Si8 0.540915 0.018232 0.237259
O O1 0.240934 0.831182 0.393693
O O2 0.680262 0.703371 0.500957
O O3 0.635729 0.873324 0.422646
O O4 0.710773 0.920802 0.556820
O O5 0.676520 0.615336 0.388921
O O6 0.769866 0.515966 0.311514
O O7 0.321859 0.604449 0.195128
O O8 0.804520 0.738389 0.333970
O O9 0.810562 0.739966 0.224063
O O10 0.725497 0.928341 0.252844
O O11 0.321046 0.011365 0.017264
O O12 0.791275 0.927487 0.849434
O O13 0.690314 0.294297 0.255005
O O14 0.881257 0.443491 0.239410
O O15 0.229808 0.618742 0.618219
O O16 0.864535 0.618673 0.154571
#
# Coordination Sequence:
#
# PCOD9134754 Si02
#       8
#     4   4   4   4   4   4   4   4
#     4  11  22  43  72 106 142 187 245 299 358 429
#     4  11  23  44  72 105 150 190 238 301 366 424
#     4  11  22  42  74 100 141 191 233 294 358 432
#     4  12  23  44  76 102 146 194 238 299 364 430
#     4  10  19  40  70  97 136 185 232 285 352 423
#     4  11  25  43  73 107 149 184 247 304 358 425
#     4  10  23  42  65 104 141 181 235 291 354 420
#     4  12  21  40  76 101 137 192 236 283 362 431
#
# _framework density 25.374258999999999
#
# number of rings (size 3 to 8) (size 9 to 14) (size 15 to 20)
#    0.000    1.000    6.250    2.250    1.750    0.000 
#    0.000    2.500   13.750    0.000    0.000    0.000 
#    0.000    0.000    0.000    0.000    0.000    0.000 
#
# Total GULP energy -89153.051828 kJ/mol
# GULP energy per Si atom -5572.065739 kJ/mol
# Density = 2.531651 g / cm^3
# Si number density = 25.374259 Si / 1000 Ang^3
#
#
#
# Elastic Constant Matrix: (Units=GPa)
#
#
# Indices 1 2 3 4 5 6 
#
# 1 88.7986 39.7303 25.9919 0.0000 -13.3766 0.0000
# 2 39.7303 117.4833 18.3730 0.0000 -0.8195 0.0000
# 3 25.9919 18.3730 79.2625 0.0000 -1.6275 0.0000
# 4 0.0000 0.0000 0.0000 29.3534 0.0000 -5.5806
# 5 -13.3766 -0.8195 -1.6275 0.0000 27.1022 0.0000
# 6 0.0000 0.0000 0.0000 -5.5806 0.0000 65.8863
#
#
#
# Elastic Compliance Matrix: (Units=1/GPa)
#
#
# Indices 1 2 3 4 5 6 
#
# 1 0.015559 -0.004603 -0.003885 0.000000 0.007307 0.000000
# 2 -0.004603 0.010194 -0.000895 0.000000 -0.002017 0.000000
# 3 -0.003885 -0.000895 0.014075 0.000000 -0.001099 0.000000
# 4 0.000000 0.000000 0.000000 0.034625 0.000000 0.002933
# 5 0.007307 -0.002017 -0.001099 0.000000 0.040377 0.000000
# 6 0.000000 0.000000 0.000000 0.002933 0.000000 0.015426
#
#
# Mechanical properties :
#
#
# Convention : Reuss Voigt Hill
#
# Bulk Modulus (GPa) = 47.47873 50.41498 48.94686
# Shear Modulus (GPa) = 32.04235 37.89831 34.97033
#
# Velocity S-wave (km/s) = 3.55743 3.86887 3.71641
# Velocity P-wave (km/s) = 5.96873 6.31421 6.14390
#
# Compressibility (1/GPa) = 0.02106206
#
# Stress axis : x y z
#
# Youngs Moduli (GPa) = 64.27222 98.09285 71.04697
#
# Poissons Ratio (x) = 0.45153 0.27602
# Poissons Ratio (y) = 0.29585 0.06359
# Poissons Ratio (z) = 0.24970 0.08780
#
# Static dielectric constant tensor:
#      x y z
#    x 2.035750 0.000000 0.071430 
#    y 0.000000 2.040460 0.000000 
#    z 0.071430 0.000000 2.158070 
# 
# From -- ./inp_files/35019.got.cif
#   From: 2010.05.17/outbox.cif.g08.bks.cpg/sg9_18_cif.got.tgz:35019.got - 2010.06.03 20:04:27.
