data_PCOD9134149
_publ_section_title
;
Structure prediction by ZEFSAII (Michael W. Deem and Ramdas Pophale) SiO2 
 PCOD9134149
Probable space group: C C
;
_chemical_formula_sum "Si O2"
_cell_formula_units_Z 28
_cell_length_a 16.331264
_cell_length_b 10.414126
_cell_length_c 9.538275
_cell_angle_alpha 90.000000
_cell_angle_beta 45.836328
_cell_angle_gamma 90.000000
_cell_volume 1163.710842
_symmetry_space_group_name_H-M "C C"
_symmetry_group_IT_number 9
_symmetry_cell_setting 'monoclinic'
loop_
_space_group_symop_operation_xyz
x,y,z
x,-y,1/2+z
1/2+x,1/2+y,z
1/2+x,1/2-y,1/2+z
loop_
_atom_site_type_symbol
_atom_site_label
_atom_site_fract_x
_atom_site_fract_y
_atom_site_fract_z
Si Si1 0.591620 0.670096 0.007410
Si Si2 0.650537 0.480835 0.714036
Si Si3 0.322139 0.208529 0.140202
Si Si4 0.513722 0.085810 0.728610
Si Si5 0.275026 0.552040 0.503016
Si Si6 0.322296 0.673121 0.161763
Si Si7 0.372218 0.149599 0.375088
O O1 0.593860 0.589972 0.149877
O O2 0.512859 0.794323 0.123018
O O3 0.573426 0.575440 0.898454
O O4 0.717599 0.732933 0.834414
O O5 0.708075 0.374951 0.747412
O O6 0.756821 0.565912 0.532800
O O7 0.311839 0.335443 0.063127
O O8 0.346746 0.236313 0.271554
O O9 0.426323 0.125217 0.954498
O O10 0.641313 0.067979 0.629107
O O11 0.469216 0.952565 0.721566
O O12 0.339206 0.584333 0.279621
O O13 0.289401 0.422828 0.574301
O O14 0.401316 0.772914 0.980760
#
# Coordination Sequence:
#
# PCOD9134149 Si02
#       7
#     4   4   4   4   4   4   4
#     4  10  20  40  65 101 137 179 234 287 355 416
#     4  10  18  37  69  93 133 186 226 283 350 425
#     4  11  21  39  69  98 141 185 240 291 362 423
#     4  10  24  38  69 107 140 183 239 303 349 433
#     4  11  23  44  70 100 152 186 235 299 366 417
#     4  10  22  41  68  98 137 192 233 287 358 427
#     4  10  22  39  68 103 134 187 241 290 354 429
#
# _framework density 24.060960999999999
#
# number of rings (size 3 to 8) (size 9 to 14) (size 15 to 20)
#    0.000    1.714    4.286    0.857    4.000    0.000 
#    0.000    2.857    3.143    1.714    0.000    0.000 
#    0.000    0.000    0.000    0.000    0.000    0.000 
#
# Total GULP energy -78279.888408 kJ/mol
# GULP energy per Si atom -5591.420601 kJ/mol
# Density = 2.400620 g / cm^3
# Si number density = 24.060961 Si / 1000 Ang^3
#
#
#
# Elastic Constant Matrix: (Units=GPa)
#
#
# Indices 1 2 3 4 5 6 
#
# 1 104.6033 54.5513 62.6480 0.0000 33.9583 0.0000
# 2 54.5513 119.7337 62.5342 0.0000 28.8027 0.0000
# 3 62.6480 62.5342 102.9910 0.0000 36.4337 0.0000
# 4 0.0000 0.0000 0.0000 35.6274 0.0000 7.3151
# 5 33.9583 28.8027 36.4337 0.0000 51.5892 0.0000
# 6 0.0000 0.0000 0.0000 7.3151 0.0000 42.4679
#
#
#
# Elastic Compliance Matrix: (Units=1/GPa)
#
#
# Indices 1 2 3 4 5 6 
#
# 1 0.016584 -0.002978 -0.006673 0.000000 -0.004541 0.000000
# 2 -0.002978 0.012940 -0.005576 0.000000 -0.001326 0.000000
# 3 -0.006673 -0.005576 0.019328 0.000000 -0.006144 0.000000
# 4 0.000000 0.000000 0.000000 0.029097 0.000000 -0.005012
# 5 -0.004541 -0.001326 -0.006144 0.000000 0.027452 0.000000
# 6 0.000000 0.000000 0.000000 -0.005012 0.000000 0.024411
#
#
# Mechanical properties :
#
#
# Convention : Reuss Voigt Hill
#
# Bulk Modulus (GPa) = 54.35707 76.31056 65.33381
# Shear Modulus (GPa) = 30.04817 35.77655 32.91236
#
# Velocity S-wave (km/s) = 3.53772 3.86023 3.70249
# Velocity P-wave (km/s) = 6.27118 7.18700 6.74465
#
# Compressibility (1/GPa) = 0.01839687
#
# Stress axis : x y z
#
# Youngs Moduli (GPa) = 60.30020 77.27912 51.73814
#
# Poissons Ratio (x) = 0.23015 0.34525
# Poissons Ratio (y) = 0.17958 0.28851
# Poissons Ratio (z) = 0.40239 0.43093
#
# Static dielectric constant tensor:
#      x y z
#    x 2.008990 0.000000 -0.067180 
#    y 0.000000 1.935100 0.000000 
#    z -0.067180 0.000000 1.908760 
# 
# From -- ./inp_files/10608.got.cif
#   From: 2010.05.17/outbox.cif.g08.bks.cpg/sg9_6_cif.got.tgz:10608.got - 2010.06.03 20:04:27.
