data_PCOD9134371
_publ_section_title
;
Structure prediction by ZEFSAII (Michael W. Deem and Ramdas Pophale) SiO2 
 PCOD9134371
Probable space group: C C
;
_chemical_formula_sum "Si O2"
_cell_formula_units_Z 28
_cell_length_a 11.875875
_cell_length_b 7.240291
_cell_length_c 30.056414
_cell_angle_alpha 90.000000
_cell_angle_beta 154.863597
_cell_angle_gamma 90.000000
_cell_volume 1097.785367
_symmetry_space_group_name_H-M "C C"
_symmetry_group_IT_number 9
_symmetry_cell_setting 'monoclinic'
loop_
_space_group_symop_operation_xyz
x,y,z
x,-y,1/2+z
1/2+x,1/2+y,z
1/2+x,1/2-y,1/2+z
loop_
_atom_site_type_symbol
_atom_site_label
_atom_site_fract_x
_atom_site_fract_y
_atom_site_fract_z
Si Si1 0.750000 0.181173 0.396810
Si Si2 0.360380 0.939201 0.971002
Si Si3 0.867389 0.755304 0.138045
Si Si4 0.546163 0.405056 0.440705
Si Si5 0.253850 0.138335 0.629730
Si Si6 0.227768 0.286752 0.246856
Si Si7 0.353286 0.288236 0.762928
O O1 0.812396 0.400469 0.417449
O O2 0.659013 0.314877 0.228162
O O3 0.435241 0.165812 0.292669
O O4 0.870504 0.063222 0.400521
O O5 0.441815 0.369623 0.007084
O O6 0.243604 0.003771 0.976030
O O7 0.164767 0.774479 0.885748
O O8 0.859999 0.570982 0.164788
O O9 0.666039 0.897844 0.087259
O O10 0.713327 0.701354 0.037303
O O11 0.355959 0.282828 0.342072
O O12 0.417333 0.234338 0.646949
O O13 0.301032 0.228537 0.694109
O O14 0.270190 0.496400 0.242815
#
# Coordination Sequence:
#
# PCOD9134371 Si02
#       7
#     4   4   4   4   4   4   4
#     4   9  19  36  57  81 109 142 180 220 267 318
#     4  10  21  37  56  80 109 142 178 222 270 317
#     4  10  20  35  56  79 109 144 177 219 267 316
#     4   9  18  36  56  78 111 145 178 217 262 317
#     4  10  19  35  58  81 106 143 182 219 268 320
#     4   9  19  35  55  79 111 144 176 221 269 313
#     4   9  18  34  54  78 107 140 177 216 265 317
#
# _framework density 25.505896
#
# number of rings (size 3 to 8) (size 9 to 14) (size 15 to 20)
#    0.000    2.857    0.000    2.571    0.000    1.143 
#    0.000   34.286    0.000    0.000    0.000    0.000 
#    0.000    0.000    0.000    0.000    0.000    0.000 
#
# Total GULP energy -78271.083564 kJ/mol
# GULP energy per Si atom -5590.791683 kJ/mol
# Density = 2.544784 g / cm^3
# Si number density = 25.505896 Si / 1000 Ang^3
#
#
#
# Elastic Constant Matrix: (Units=GPa)
#
#
# Indices 1 2 3 4 5 6 
#
# 1 119.3686 40.9786 19.3556 -0.0009 25.1379 0.0007
# 2 40.9786 43.9410 21.9452 -0.0016 22.7652 0.0005
# 3 19.3556 21.9452 76.2125 -0.0010 10.1378 0.0006
# 4 -0.0009 -0.0016 -0.0010 38.9697 0.0007 6.8170
# 5 25.1379 22.7652 10.1378 0.0007 65.8053 -0.0006
# 6 0.0007 0.0005 0.0006 6.8170 -0.0006 46.9021
#
#
#
# Elastic Compliance Matrix: (Units=1/GPa)
#
#
# Indices 1 2 3 4 5 6 
#
# 1 0.012368 -0.011170 0.000194 0.000000 -0.000890 0.000000
# 2 -0.011170 0.041822 -0.008013 0.000002 -0.008967 -0.000001
# 3 0.000194 -0.008013 0.015335 0.000000 0.000336 0.000000
# 4 0.000000 0.000002 0.000000 0.026330 -0.000001 -0.003827
# 5 -0.000890 -0.008967 0.000336 -0.000001 0.018587 0.000000
# 6 0.000000 -0.000001 0.000000 -0.003827 0.000000 0.021877
#
#
# Mechanical properties :
#
#
# Convention : Reuss Voigt Hill
#
# Bulk Modulus (GPa) = 31.69917 44.89788 38.29853
# Shear Modulus (GPa) = 27.05450 40.81828 33.93639
#
# Velocity S-wave (km/s) = 3.26040 4.00477 3.65160
# Velocity P-wave (km/s) = 5.16030 6.24703 5.72949
#
# Compressibility (1/GPa) = 0.03154657
#
# Stress axis : x y z
#
# Youngs Moduli (GPa) = 80.85407 23.91103 65.21163
#
# Poissons Ratio (x) = 0.26707 -0.01262
# Poissons Ratio (y) = 0.90310 0.52254
# Poissons Ratio (z) = -0.01565 0.19160
#
# Static dielectric constant tensor:
#      x y z
#    x 2.000960 0.000000 0.073160 
#    y 0.000000 2.138010 0.000000 
#    z 0.073160 0.000000 2.063600 
# 
# From -- ./inp_files/37268.got.cif
#   From: 2010.05.17/outbox.cif.g08.bks.cpg/sg9_19_cif.got.tgz:37268.got - 2010.06.03 20:04:27.
