data_PCOD9134246
_publ_section_title
;
Structure prediction by ZEFSAII (Michael W. Deem and Ramdas Pophale) SiO2 
 PCOD9134246
Probable space group: C C
;
_chemical_formula_sum "Si O2"
_cell_formula_units_Z 32
_cell_length_a 5.311483
_cell_length_b 13.858394
_cell_length_c 17.270814
_cell_angle_alpha 90.000000
_cell_angle_beta 56.954062
_cell_angle_gamma 90.000000
_cell_volume 1065.630359
_symmetry_space_group_name_H-M "C C"
_symmetry_group_IT_number 9
_symmetry_cell_setting 'monoclinic'
loop_
_space_group_symop_operation_xyz
x,y,z
x,-y,1/2+z
1/2+x,1/2+y,z
1/2+x,1/2-y,1/2+z
loop_
_atom_site_type_symbol
_atom_site_label
_atom_site_fract_x
_atom_site_fract_y
_atom_site_fract_z
Si Si1 0.792560 0.966626 0.506360
Si Si2 0.635020 0.130265 0.659213
Si Si3 0.228069 0.893973 0.884140
Si Si4 0.173971 0.036670 0.140939
Si Si5 0.270631 0.794405 0.412587
Si Si6 0.203245 0.552586 0.814654
Si Si7 0.229381 0.290597 0.742466
Si Si8 0.750806 0.669598 0.546423
O O1 0.728750 0.043325 0.586605
O O2 0.482864 0.910280 0.568529
O O3 0.938582 0.039527 0.418221
O O4 0.043957 0.884726 0.460946
O O5 0.582961 0.077017 0.748514
O O6 0.355897 0.195555 0.679408
O O7 0.918166 0.199830 0.631209
O O8 0.390549 0.830715 0.792028
O O9 0.179881 0.826644 0.965870
O O10 0.492275 0.963780 0.870992
O O11 0.042506 0.983203 0.240532
O O12 0.241177 0.943348 0.074628
O O13 0.926060 0.120421 0.177325
O O14 0.590689 0.850177 0.376616
O O15 0.279525 0.743461 0.324906
O O16 0.080633 0.717299 0.495351
#
# Coordination Sequence:
#
# PCOD9134246 Si02
#       8
#     4   4   4   4   4   4   4   4
#     4  10  19  32  51  79 106 130 169 217 256 300
#     4   9  17  31  52  76 101 136 175 209 249 300
#     4   8  16  32  51  71  98 133 167 204 251 303
#     4  10  19  32  51  79 106 130 169 217 256 300
#     4   9  17  33  55  74  98 139 178 204 246 315
#     4   8  16  32  51  71  98 133 167 204 251 303
#     4   9  17  33  55  74  98 139 178 204 246 315
#     4   9  17  31  52  76 101 136 175 209 249 300
#
# _framework density 30.029176
#
# number of rings (size 3 to 8) (size 9 to 14) (size 15 to 20)
#    0.000    3.000    0.000    0.750    0.000    0.000 
#    0.000   18.750    0.000    0.000    0.000    0.000 
#    0.000    0.000    0.000    0.000    0.000    0.000 
#
# Total GULP energy -89084.406690 kJ/mol
# GULP energy per Si atom -5567.775418 kJ/mol
# Density = 2.996083 g / cm^3
# Si number density = 30.029176 Si / 1000 Ang^3
#
#
#
# Elastic Constant Matrix: (Units=GPa)
#
#
# Indices 1 2 3 4 5 6 
#
# 1 52.3030 14.1675 32.9175 0.0000 -11.5550 0.0000
# 2 14.1675 208.9929 63.8010 0.0000 -5.7248 0.0000
# 3 32.9175 63.8010 201.5730 0.0000 -2.0023 0.0000
# 4 0.0000 0.0000 0.0000 77.7827 0.0000 -18.9622
# 5 -11.5550 -5.7248 -2.0023 0.0000 52.1593 0.0000
# 6 0.0000 0.0000 0.0000 -18.9622 0.0000 21.4991
#
#
#
# Elastic Compliance Matrix: (Units=1/GPa)
#
#
# Indices 1 2 3 4 5 6 
#
# 1 0.022486 -0.000317 -0.003524 0.000000 0.004811 0.000000
# 2 -0.000317 0.005315 -0.001626 0.000000 0.000451 0.000000
# 3 -0.003524 -0.001626 0.006044 0.000000 -0.000727 0.000000
# 4 0.000000 0.000000 0.000000 0.016378 0.000000 0.014445
# 5 0.004811 0.000451 -0.000727 0.000000 0.020259 0.000000
# 6 0.000000 0.000000 0.000000 0.014445 0.000000 0.059254
#
#
# Mechanical properties :
#
#
# Convention : Reuss Voigt Hill
#
# Bulk Modulus (GPa) = 43.64650 76.07120 59.85885
# Shear Modulus (GPa) = 33.71374 53.75374 43.73374
#
# Velocity S-wave (km/s) = 3.35431 4.23549 3.82039
# Velocity P-wave (km/s) = 5.43765 7.02186 6.27991
#
# Compressibility (1/GPa) = 0.02291134
#
# Stress axis : x y z
#
# Youngs Moduli (GPa) = 44.47219 188.14372 165.45536
#
# Poissons Ratio (x) = 0.05959 0.58306
# Poissons Ratio (y) = 0.01409 0.26905
# Poissons Ratio (z) = 0.15672 0.30594
#
# Static dielectric constant tensor:
#      x y z
#    x 3.089520 0.000000 -0.179790 
#    y 0.000000 2.309670 0.000000 
#    z -0.179790 0.000000 2.439250 
# 
# From -- ./inp_files/23080.got.cif
#   From: 2010.05.17/outbox.cif.g08.bks.cpg/sg9_12_cif.got.tgz:23080.got - 2010.06.03 20:04:27.
