data_PCOD9134401
_publ_section_title
;
Structure prediction by ZEFSAII (Michael W. Deem and Ramdas Pophale) SiO2 
 PCOD9134401
Probable space group: C C
;
_chemical_formula_sum "Si O2"
_cell_formula_units_Z 32
_cell_length_a 5.326006
_cell_length_b 22.586642
_cell_length_c 13.390274
_cell_angle_alpha 90.000000
_cell_angle_beta 92.971369
_cell_angle_gamma 90.000000
_cell_volume 1608.638687
_symmetry_space_group_name_H-M "C C"
_symmetry_group_IT_number 9
_symmetry_cell_setting 'monoclinic'
loop_
_space_group_symop_operation_xyz
x,y,z
x,-y,1/2+z
1/2+x,1/2+y,z
1/2+x,1/2-y,1/2+z
loop_
_atom_site_type_symbol
_atom_site_label
_atom_site_fract_x
_atom_site_fract_y
_atom_site_fract_z
Si Si1 0.567680 0.296629 0.842010
Si Si2 0.144103 0.113350 0.948988
Si Si3 0.534604 0.426871 0.894316
Si Si4 0.036019 0.682767 0.219681
Si Si5 0.965116 0.993973 0.573570
Si Si6 0.644433 0.187630 0.992188
Si Si7 0.122231 0.549509 0.217637
Si Si8 0.249992 0.028510 0.781122
O O1 0.619716 0.359578 0.897470
O O2 0.282474 0.301885 0.792465
O O3 0.603840 0.244699 0.922004
O O4 0.780882 0.289938 0.760245
O O5 0.407582 0.145560 0.966180
O O6 0.152564 0.084815 0.838171
O O7 0.907693 0.155799 0.968621
O O8 0.120628 0.057653 0.023004
O O9 0.333713 0.433475 0.801789
O O10 0.739301 0.473443 0.859148
O O11 0.430636 0.453068 0.995130
O O12 0.972554 0.611690 0.213687
O O13 0.118917 0.700998 0.109836
O O14 0.095635 0.016399 0.677227
O O15 0.718237 0.961091 0.607849
O O16 0.029526 0.484040 0.248509
#
# Coordination Sequence:
#
# PCOD9134401 Si02
#       8
#     4   4   4   4   4   4   4   4
#     4  11  24  45  66  93 128 167 222 273 314 379
#     4  11  25  40  67  97 130 171 216 268 322 390
#     4   9  21  37  58  90 123 163 206 263 314 383
#     4  11  22  42  70  93 121 172 223 259 320 393
#     4  10  21  37  61  94 127 164 208 257 328 386
#     4  12  25  45  68  95 130 173 222 271 324 384
#     4  10  19  35  64  90 125 163 210 258 311 393
#     4  10  21  37  62  92 130 163 205 265 325 384
#
# _framework density 19.892595
#
# number of rings (size 3 to 8) (size 9 to 14) (size 15 to 20)
#    0.000    1.500    2.500    2.250    7.000    1.000 
#    4.500    0.000    0.000    0.000    0.000    0.000 
#    0.000    0.000    0.000    0.000    0.000    0.000 
#
# Total GULP energy -89116.485605 kJ/mol
# GULP energy per Si atom -5569.780350 kJ/mol
# Density = 1.984732 g / cm^3
# Si number density = 19.892595 Si / 1000 Ang^3
#
#
#
# Elastic Constant Matrix: (Units=GPa)
#
#
# Indices 1 2 3 4 5 6 
#
# 1 65.2367 8.2376 5.2785 0.0000 -8.3976 0.0000
# 2 8.2376 58.9916 47.8092 0.0000 -0.6554 0.0000
# 3 5.2785 47.8092 105.2499 0.0000 -13.9012 0.0000
# 4 0.0000 0.0000 0.0000 35.1814 0.0000 -4.6789
# 5 -8.3976 -0.6554 -13.9012 0.0000 22.2043 0.0000
# 6 0.0000 0.0000 0.0000 -4.6789 0.0000 25.4743
#
#
#
# Elastic Compliance Matrix: (Units=1/GPa)
#
#
# Indices 1 2 3 4 5 6 
#
# 1 0.016590 -0.003708 0.001817 0.000000 0.007302 0.000000
# 2 -0.003708 0.028838 -0.014157 0.000000 -0.009414 0.000000
# 3 0.001817 -0.014157 0.017308 0.000000 0.011105 0.000000
# 4 0.000000 0.000000 0.000000 0.029136 0.000000 0.005351
# 5 0.007302 -0.009414 0.011105 0.000000 0.054472 0.000000
# 6 0.000000 0.000000 0.000000 0.005351 0.000000 0.040238
#
#
# Mechanical properties :
#
#
# Convention : Reuss Voigt Hill
#
# Bulk Modulus (GPa) = 32.63778 39.12543 35.88160
# Shear Modulus (GPa) = 21.84445 27.78221 24.81333
#
# Velocity S-wave (km/s) = 3.31738 3.74118 3.53564
# Velocity P-wave (km/s) = 5.57817 6.19459 5.89444
#
# Compressibility (1/GPa) = 0.03063934
#
# Stress axis : x y z
#
# Youngs Moduli (GPa) = 60.27745 34.67633 57.77841
#
# Poissons Ratio (x) = 0.12857 -0.10496
# Poissons Ratio (y) = 0.22350 0.81797
# Poissons Ratio (z) = -0.10950 0.49091
#
# Static dielectric constant tensor:
#      x y z
#    x 1.818840 0.000000 -0.029420 
#    y 0.000000 1.716860 0.000000 
#    z -0.029420 0.000000 1.717790 
# 
# From -- ./inp_files/13369.got.cif
#   From: 2010.05.17/outbox.cif.g08.bks.cpg/sg9_7_cif.got.tgz:13369.got - 2010.06.03 20:04:27.
