data_PCOD9134196
_publ_section_title
;
Structure prediction by ZEFSAII (Michael W. Deem and Ramdas Pophale) SiO2 
 PCOD9134196
Probable space group: C C
;
_chemical_formula_sum "Si O2"
_cell_formula_units_Z 32
_cell_length_a 24.621221
_cell_length_b 9.415458
_cell_length_c 14.973092
_cell_angle_alpha 90.000000
_cell_angle_beta 155.196738
_cell_angle_gamma 90.000000
_cell_volume 1456.124106
_symmetry_space_group_name_H-M "C C"
_symmetry_group_IT_number 9
_symmetry_cell_setting 'monoclinic'
loop_
_space_group_symop_operation_xyz
x,y,z
x,-y,1/2+z
1/2+x,1/2+y,z
1/2+x,1/2-y,1/2+z
loop_
_atom_site_type_symbol
_atom_site_label
_atom_site_fract_x
_atom_site_fract_y
_atom_site_fract_z
Si Si1 0.980630 0.453664 0.411730
Si Si2 0.890677 0.356780 0.926836
Si Si3 0.250558 0.693239 0.362238
Si Si4 0.455426 0.469102 0.719573
Si Si5 0.321401 0.289011 0.771082
Si Si6 0.971050 0.942660 0.539205
Si Si7 0.019779 0.659982 0.790891
Si Si8 0.657703 0.502968 0.683742
O O1 0.928811 0.588835 0.386768
O O2 0.888932 0.329822 0.313672
O O3 0.126609 0.406225 0.655161
O O4 0.979567 0.457013 0.303236
O O5 0.776706 0.436383 0.808033
O O6 0.873280 0.188607 0.898797
O O7 0.007269 0.383230 0.170115
O O8 0.344351 0.590956 0.560590
O O9 0.329607 0.731747 0.389971
O O10 0.190793 0.851023 0.288120
O O11 0.507260 0.487095 0.694337
O O12 0.429846 0.298225 0.677834
O O13 0.555644 0.479514 0.950202
O O14 0.168830 0.297763 0.526594
O O15 0.397698 0.435425 0.875091
O O16 0.095607 0.903178 0.666734
#
# Coordination Sequence:
#
# PCOD9134196 Si02
#       8
#     4   4   4   4   4   4   4   4
#     4  11  20  40  70  94 131 183 229 285 351 411
#     4  11  26  41  62 101 136 171 234 297 339 425
#     4  10  21  38  69 101 129 179 240 281 338 433
#     4  10  21  43  70  98 133 186 231 281 357 411
#     4  10  18  40  69  91 131 181 233 275 345 422
#     4  10  24  42  66  99 137 185 227 292 355 416
#     4  10  22  40  67  95 129 183 230 281 352 420
#     4  12  22  46  65  99 146 178 232 300 349 418
#
# _framework density 21.976148999999999
#
# number of rings (size 3 to 8) (size 9 to 14) (size 15 to 20)
#    0.000    1.500    5.000    0.000    0.000    9.000 
#    6.750    0.000    0.000    0.000    0.000    0.000 
#    0.000    0.000    0.000    0.000    0.000    0.000 
#
# Total GULP energy -89107.154207 kJ/mol
# GULP energy per Si atom -5569.197138 kJ/mol
# Density = 2.192613 g / cm^3
# Si number density = 21.976149 Si / 1000 Ang^3
#
#
#
# Elastic Constant Matrix: (Units=GPa)
#
#
# Indices 1 2 3 4 5 6 
#
# 1 58.0936 16.6816 16.3617 0.0000 -4.4844 0.0000
# 2 16.6816 37.5178 30.7831 0.0000 3.2440 0.0000
# 3 16.3617 30.7831 61.8497 0.0000 -4.5643 0.0000
# 4 0.0000 0.0000 0.0000 4.1218 0.0000 -7.8384
# 5 -4.4844 3.2440 -4.5643 0.0000 22.7157 0.0000
# 6 0.0000 0.0000 0.0000 -7.8384 0.0000 23.9059
#
#
#
# Elastic Compliance Matrix: (Units=1/GPa)
#
#
# Indices 1 2 3 4 5 6 
#
# 1 0.020369 -0.009136 -0.000455 0.000000 0.005234 0.000000
# 2 -0.009136 0.052088 -0.024554 0.000000 -0.014176 0.000000
# 3 -0.000455 -0.024554 0.029194 0.000000 0.009283 0.000000
# 4 0.000000 0.000000 0.000000 0.644467 0.000000 0.211312
# 5 0.005234 -0.014176 0.009283 0.000000 0.048945 0.000000
# 6 0.000000 0.000000 0.000000 0.211312 0.000000 0.111117
#
#
# Mechanical properties :
#
#
# Convention : Reuss Voigt Hill
#
# Bulk Modulus (GPa) = 29.97455 31.67931 30.82693
# Shear Modulus (GPa) = 5.07309 16.39101 10.73205
#
# Velocity S-wave (km/s) = 1.52101 2.73400 2.21226
# Velocity P-wave (km/s) = 4.09314 4.94094 4.53689
#
# Compressibility (1/GPa) = 0.03336164
#
# Stress axis : x y z
#
# Youngs Moduli (GPa) = 49.09364 19.19811 34.25303
#
# Poissons Ratio (x) = 0.17539 0.01559
# Poissons Ratio (y) = 0.44852 0.84106
# Poissons Ratio (z) = 0.02235 0.47139
#
# Static dielectric constant tensor:
#      x y z
#    x 1.835790 0.000000 0.001950 
#    y 0.000000 1.892390 0.000000 
#    z 0.001950 0.000000 1.860940 
# 
# From -- ./inp_files/27719.got.cif
#   From: 2010.05.17/outbox.cif.g08.bks.cpg/sg9_14_cif.got.tgz:27719.got - 2010.06.03 20:04:27.
