data_PCOD9134156
_publ_section_title
;
Structure prediction by ZEFSAII (Michael W. Deem and Ramdas Pophale) SiO2 
 PCOD9134156
Probable space group: C C
;
_chemical_formula_sum "Si O2"
_cell_formula_units_Z 28
_cell_length_a 9.572731
_cell_length_b 16.276029
_cell_length_c 13.573560
_cell_angle_alpha 90.000000
_cell_angle_beta 133.549818
_cell_angle_gamma 90.000000
_cell_volume 1532.786370
_symmetry_space_group_name_H-M "C C"
_symmetry_group_IT_number 9
_symmetry_cell_setting 'monoclinic'
loop_
_space_group_symop_operation_xyz
x,y,z
x,-y,1/2+z
1/2+x,1/2+y,z
1/2+x,1/2-y,1/2+z
loop_
_atom_site_type_symbol
_atom_site_label
_atom_site_fract_x
_atom_site_fract_y
_atom_site_fract_z
Si Si1 0.232070 0.918779 0.568480
Si Si2 0.840125 0.925526 0.157473
Si Si3 0.354967 0.477229 0.857306
Si Si4 0.321945 0.251271 0.136913
Si Si5 0.051292 0.497869 0.860524
Si Si6 0.260680 0.294037 0.881564
Si Si7 0.789070 0.389637 0.366098
O O1 0.176097 0.825076 0.570461
O O2 0.310169 0.908815 0.493809
O O3 0.388930 0.949296 0.721745
O O4 0.061486 0.984556 0.484404
O O5 0.789751 0.835966 0.179147
O O6 0.065897 0.915979 0.236464
O O7 0.825040 0.997951 0.229608
O O8 0.688801 0.944839 0.998577
O O9 0.198533 0.525424 0.847275
O O10 0.330003 0.379904 0.868067
O O11 0.528824 0.213813 0.265339
O O12 0.327997 0.282819 0.026916
O O13 0.939660 0.561797 0.873810
O O14 0.319889 0.207247 0.861703
#
# Coordination Sequence:
#
# PCOD9134156 Si02
#       7
#     4   4   4   4   4   4   4
#     4  10  21  36  61  86 114 151 200 237 284 347
#     4  10  21  36  61  86 114 151 200 237 284 347
#     4  11  22  37  60  89 117 149 194 247 288 349
#     4  10  18  38  60  86 110 156 196 240 276 350
#     4  12  20  35  58  88 115 151 186 248 294 333
#     4  10  20  36  61  87 112 148 203 239 282 341
#     4   9  22  38  59  84 116 152 197 236 288 353
#
# _framework density 18.267385999999998
#
# number of rings (size 3 to 8) (size 9 to 14) (size 15 to 20)
#    0.000    1.714    2.857    2.571    4.000    0.000 
#    0.000    0.000   18.857    0.000    0.000    0.000 
#    0.000    0.000    0.000    0.000    0.000    0.000 
#
# Total GULP energy -77952.849958 kJ/mol
# GULP energy per Si atom -5568.060711 kJ/mol
# Density = 1.822581 g / cm^3
# Si number density = 18.267386 Si / 1000 Ang^3
#
#
#
# Elastic Constant Matrix: (Units=GPa)
#
#
# Indices 1 2 3 4 5 6 
#
# 1 64.9645 48.6286 8.7978 0.0000 5.7480 0.0000
# 2 48.6286 121.1865 21.1258 0.0000 7.8673 0.0000
# 3 8.7978 21.1258 98.2898 0.0001 7.4440 0.0000
# 4 0.0000 0.0000 0.0001 22.8935 0.0000 4.4252
# 5 5.7480 7.8673 7.4440 0.0000 8.8941 0.0000
# 6 0.0000 0.0000 0.0000 4.4252 0.0000 38.6920
#
#
#
# Elastic Compliance Matrix: (Units=1/GPa)
#
#
# Indices 1 2 3 4 5 6 
#
# 1 0.022410 -0.008592 0.000387 0.000000 -0.007206 0.000000
# 2 -0.008592 0.012228 -0.001559 0.000000 -0.003959 0.000000
# 3 0.000387 -0.001559 0.011092 0.000000 -0.008154 0.000000
# 4 0.000000 0.000000 0.000000 0.044668 0.000000 -0.005109
# 5 -0.007206 -0.003959 -0.008154 0.000000 0.127418 0.000000
# 6 0.000000 0.000000 0.000000 -0.005109 0.000000 0.026429
#
#
# Mechanical properties :
#
#
# Convention : Reuss Voigt Hill
#
# Bulk Modulus (GPa) = 38.16701 49.06058 43.61380
# Shear Modulus (GPa) = 18.34802 27.82182 23.08492
#
# Velocity S-wave (km/s) = 3.17269 3.90684 3.55875
# Velocity P-wave (km/s) = 5.86175 6.87506 6.38853
#
# Compressibility (1/GPa) = 0.02620064
#
# Stress axis : x y z
#
# Youngs Moduli (GPa) = 44.62352 81.77768 90.15409
#
# Poissons Ratio (x) = 0.70263 -0.03485
# Poissons Ratio (y) = 0.38340 0.14059
# Poissons Ratio (z) = -0.01725 0.12752
#
# Static dielectric constant tensor:
#      x y z
#    x 1.612980 0.000000 -0.001180 
#    y 0.000000 1.686820 0.000000 
#    z -0.001180 0.000000 1.693360 
# 
# From -- ./inp_files/23335.got.cif
#   From: 2010.05.17/outbox.cif.g08.bks.cpg/sg9_12_cif.got.tgz:23335.got - 2010.06.03 20:04:27.
