data_PCOD9134220
_publ_section_title
;
Structure prediction by ZEFSAII (Michael W. Deem and Ramdas Pophale) SiO2 
 PCOD9134220
Probable space group: C C
;
_chemical_formula_sum "Si O2"
_cell_formula_units_Z 24
_cell_length_a 10.561729
_cell_length_b 15.034840
_cell_length_c 5.647494
_cell_angle_alpha 90.000000
_cell_angle_beta 103.713419
_cell_angle_gamma 90.000000
_cell_volume 871.223464
_symmetry_space_group_name_H-M "C C"
_symmetry_group_IT_number 9
_symmetry_cell_setting 'monoclinic'
loop_
_space_group_symop_operation_xyz
x,y,z
x,-y,1/2+z
1/2+x,1/2+y,z
1/2+x,1/2-y,1/2+z
loop_
_atom_site_type_symbol
_atom_site_label
_atom_site_fract_x
_atom_site_fract_y
_atom_site_fract_z
Si Si1 0.802110 0.233987 0.766230
Si Si2 0.328918 0.530015 0.767743
Si Si3 0.026729 0.384174 0.868853
Si Si4 0.733187 0.300287 0.234580
Si Si5 0.505951 0.091220 0.860322
Si Si6 0.619242 0.474300 0.315895
O O1 0.851627 0.134037 0.819446
O O2 0.919715 0.306036 0.818177
O O3 0.738668 0.241335 0.475338
O O4 0.722652 0.262514 0.965794
O O5 0.268113 0.511199 0.480392
O O6 0.474076 0.488712 0.796302
O O7 0.973159 0.486446 0.848064
O O8 0.082480 0.381799 0.629800
O O9 0.084300 0.383163 0.158709
O O10 0.870148 0.355373 0.297026
O O11 0.622616 0.372774 0.233565
O O12 0.678756 0.477434 0.608885
#
# Coordination Sequence:
#
# PCOD9134220 Si02
#       6
#     4   4   4   4   4   4
#     4  10  19  31  48  72 102 128 179 222 247 302
#     4  10  21  38  53  71 106 146 181 212 263 320
#     4   8  14  22  34  58  86 121 140 186 231 282
#     4  10  19  28  48  77 106 131 165 214 259 314
#     4   8  14  21  34  57  94 119 137 175 238 300
#     4  10  21  32  51  77 112 149 164 201 270 338
#
# _framework density 27.547469
#
# number of rings (size 3 to 8) (size 9 to 14) (size 15 to 20)
#    0.000    2.667    0.000    2.000    9.333    0.000 
#    0.000    0.000    0.000    0.000    0.000    0.000 
#   60.000    0.000    0.000    0.000    0.000    0.000 
#
# Total GULP energy -67095.089674 kJ/mol
# GULP energy per Si atom -5591.257473 kJ/mol
# Density = 2.748477 g / cm^3
# Si number density = 27.547469 Si / 1000 Ang^3
#
#
#
# Elastic Constant Matrix: (Units=GPa)
#
#
# Indices 1 2 3 4 5 6 
#
# 1 85.1498 15.1922 50.5576 0.0000 -10.4315 0.0000
# 2 15.1922 139.3566 81.9143 0.0000 -25.6529 0.0000
# 3 50.5576 81.9143 316.2376 0.0000 -43.5756 0.0000
# 4 0.0000 0.0000 0.0000 68.4762 0.0000 -8.2184
# 5 -10.4315 -25.6529 -43.5756 0.0000 53.7184 0.0000
# 6 0.0000 0.0000 0.0000 -8.2184 0.0000 35.1018
#
#
#
# Elastic Compliance Matrix: (Units=1/GPa)
#
#
# Indices 1 2 3 4 5 6 
#
# 1 0.013020 -0.000120 -0.001925 0.000000 0.000909 0.000000
# 2 -0.000120 0.008787 -0.001894 0.000000 0.002637 0.000000
# 3 -0.001925 -0.001894 0.004261 0.000000 0.002178 0.000000
# 4 0.000000 0.000000 0.000000 0.015026 0.000000 0.003518
# 5 0.000909 0.002637 0.002178 0.000000 0.021818 0.000000
# 6 0.000000 0.000000 0.000000 0.003518 0.000000 0.029312
#
#
# Mechanical properties :
#
#
# Convention : Reuss Voigt Hill
#
# Bulk Modulus (GPa) = 54.97621 92.89692 73.93656
# Shear Modulus (GPa) = 47.09627 57.66460 52.38043
#
# Velocity S-wave (km/s) = 4.13927 4.58020 4.36530
# Velocity P-wave (km/s) = 6.54560 7.85918 7.23228
#
# Compressibility (1/GPa) = 0.01818969
#
# Stress axis : x y z
#
# Youngs Moduli (GPa) = 76.80573 113.79895 234.71203
#
# Poissons Ratio (x) = 0.01371 0.45183
# Poissons Ratio (y) = 0.00925 0.44444
# Poissons Ratio (z) = 0.14785 0.21549
#
# Static dielectric constant tensor:
#      x y z
#    x 2.179240 0.000000 0.047510 
#    y 0.000000 2.102820 0.000000 
#    z 0.047510 0.000000 2.224850 
# 
# From -- ./inp_files/1516.got.cif
#   From: 2010.05.17/outbox.cif.g08.bks.cpg/sg9_1_cif.got.tgz:1516.got - 2010.06.03 20:04:27.
