data_PCOD9134829
_publ_section_title
;
Structure prediction by ZEFSAII (Michael W. Deem and Ramdas Pophale) SiO2 
 PCOD9134829
Probable space group: C C
;
_chemical_formula_sum "Si O2"
_cell_formula_units_Z 32
_cell_length_a 27.832081
_cell_length_b 5.462563
_cell_length_c 8.675460
_cell_angle_alpha 90.000000
_cell_angle_beta 117.597363
_cell_angle_gamma 90.000000
_cell_volume 1168.903338
_symmetry_space_group_name_H-M "C C"
_symmetry_group_IT_number 9
_symmetry_cell_setting 'monoclinic'
loop_
_space_group_symop_operation_xyz
x,y,z
x,-y,1/2+z
1/2+x,1/2+y,z
1/2+x,1/2-y,1/2+z
loop_
_atom_site_type_symbol
_atom_site_label
_atom_site_fract_x
_atom_site_fract_y
_atom_site_fract_z
Si Si1 0.758260 0.208968 0.727480
Si Si2 0.940126 0.304993 0.751398
Si Si3 0.343576 0.850527 0.065745
Si Si4 0.365838 0.504040 0.336988
Si Si5 0.103138 0.338526 0.252063
Si Si6 0.600897 0.527457 0.529134
Si Si7 0.696508 0.184805 0.343268
Si Si8 0.507776 0.816220 0.559933
O O1 0.719584 0.305370 0.535093
O O2 0.811099 0.139785 0.704587
O O3 0.735693 0.969298 0.785323
O O4 0.784146 0.379849 0.900754
O O5 0.886344 0.436745 0.605554
O O6 0.973546 0.216394 0.653143
O O7 0.971658 0.514069 0.894369
O O8 0.920107 0.097854 0.839283
O O9 0.349890 0.772452 0.253115
O O10 0.365184 0.604211 0.008782
O O11 0.100148 0.100057 0.351907
O O12 0.158775 0.473024 0.359699
O O13 0.102503 0.255494 0.073487
O O14 0.051560 0.502733 0.202243
O O15 0.654578 0.649113 0.684690
O O16 0.545070 0.632478 0.518081
#
# Coordination Sequence:
#
# PCOD9134829 Si02
#       8
#     4   4   4   4   4   4   4   4
#     4  10  19  44  64  92 128 181 212 263 330 376
#     4  12  24  45  64  99 129 178 219 274 333 390
#     4  10  23  41  63  95 129 171 225 268 320 393
#     4  10  23  41  63  94 130 171 222 270 320 390
#     4  11  26  43  67 104 128 170 228 270 331 413
#     4  11  26  43  68 102 130 171 222 277 328 410
#     4  11  22  44  69  92 140 174 216 270 339 393
#     4  11  25  45  68  90 138 174 214 276 341 391
#
# _framework density 27.376083999999999
#
# number of rings (size 3 to 8) (size 9 to 14) (size 15 to 20)
#    0.750    0.500    5.000    0.000    5.250    2.000 
#    2.250    2.500    0.000    0.000    0.000    0.000 
#    0.000    0.000    0.000    0.000    0.000    0.000 
#
# Total GULP energy -89506.841100 kJ/mol
# GULP energy per Si atom -5594.177569 kJ/mol
# Density = 2.731377 g / cm^3
# Si number density = 27.376084 Si / 1000 Ang^3
#
#
#
# Elastic Constant Matrix: (Units=GPa)
#
#
# Indices 1 2 3 4 5 6 
#
# 1 134.8276 24.1630 44.5083 0.0000 -6.7178 0.0000
# 2 24.1630 33.5387 26.3709 0.0000 -2.5946 0.0000
# 3 44.5083 26.3709 147.8848 0.0000 -2.7236 0.0000
# 4 0.0000 0.0000 0.0000 47.1371 0.0000 -11.3406
# 5 -6.7178 -2.5946 -2.7236 0.0000 37.3560 0.0000
# 6 0.0000 0.0000 0.0000 -11.3406 0.0000 35.4442
#
#
#
# Elastic Compliance Matrix: (Units=1/GPa)
#
#
# Indices 1 2 3 4 5 6 
#
# 1 0.008952 -0.004954 -0.001790 0.000000 0.001135 0.000000
# 2 -0.004954 0.037565 -0.005183 0.000000 0.001340 0.000000
# 3 -0.001790 -0.005183 0.008223 0.000000 -0.000082 0.000000
# 4 0.000000 0.000000 0.000000 0.022984 0.000000 0.007354
# 5 0.001135 0.001340 -0.000082 0.000000 0.027061 0.000000
# 6 0.000000 0.000000 0.000000 0.007354 0.000000 0.030566
#
#
# Mechanical properties :
#
#
# Convention : Reuss Voigt Hill
#
# Bulk Modulus (GPa) = 32.37718 56.25950 44.31834
# Shear Modulus (GPa) = 29.49841 38.73470 34.11655
#
# Velocity S-wave (km/s) = 3.28613 3.76561 3.53401
# Velocity P-wave (km/s) = 5.12354 6.28503 5.73377
#
# Compressibility (1/GPa) = 0.03088595
#
# Stress axis : x y z
#
# Youngs Moduli (GPa) = 111.70398 26.62087 121.60417
#
# Poissons Ratio (x) = 0.13189 0.21766
# Poissons Ratio (y) = 0.55343 0.63024
# Poissons Ratio (z) = 0.19994 0.13797
#
# Static dielectric constant tensor:
#      x y z
#    x 2.133150 0.000000 0.038810 
#    y 0.000000 2.094850 0.000000 
#    z 0.038810 0.000000 2.135470 
# 
# From -- ./inp_files/12598.got.cif
#   From: 2010.05.17/outbox.cif.g08.bks.cpg/sg9_7_cif.got.tgz:12598.got - 2010.06.03 20:04:27.
