data_PCOD9134433
_publ_section_title
;
Structure prediction by ZEFSAII (Michael W. Deem and Ramdas Pophale) SiO2 
 PCOD9134433
Probable space group: C C
;
_chemical_formula_sum "Si O2"
_cell_formula_units_Z 32
_cell_length_a 8.154643
_cell_length_b 13.766886
_cell_length_c 14.238979
_cell_angle_alpha 90.000000
_cell_angle_beta 71.250571
_cell_angle_gamma 90.000000
_cell_volume 1513.696905
_symmetry_space_group_name_H-M "C C"
_symmetry_group_IT_number 9
_symmetry_cell_setting 'monoclinic'
loop_
_space_group_symop_operation_xyz
x,y,z
x,-y,1/2+z
1/2+x,1/2+y,z
1/2+x,1/2-y,1/2+z
loop_
_atom_site_type_symbol
_atom_site_label
_atom_site_fract_x
_atom_site_fract_y
_atom_site_fract_z
Si Si1 0.808200 0.787928 0.065310
Si Si2 0.981493 0.601941 0.576315
Si Si3 0.952340 0.194702 0.741403
Si Si4 0.575836 0.400656 0.647201
Si Si5 0.711127 0.469243 0.269064
Si Si6 0.265777 0.033987 0.463612
Si Si7 0.757858 0.803998 0.621857
Si Si8 0.661316 0.244519 0.937960
O O1 0.679614 0.870169 0.052386
O O2 0.902952 0.824760 0.142339
O O3 0.689047 0.695916 0.112158
O O4 0.954465 0.748792 0.967558
O O5 0.889293 0.543994 0.677775
O O6 0.945995 0.546108 0.485853
O O7 0.868833 0.702707 0.597714
O O8 0.778057 0.209939 0.831056
O O9 0.075255 0.115451 0.767706
O O10 0.078785 0.287818 0.709940
O O11 0.614225 0.436501 0.745100
O O12 0.645448 0.483049 0.563487
O O13 0.380836 0.378357 0.652384
O O14 0.754688 0.474903 0.369939
O O15 0.209884 0.143373 0.449577
O O16 0.710137 0.819152 0.521447
#
# Coordination Sequence:
#
# PCOD9134433 Si02
#       8
#     4   4   4   4   4   4   4   4
#     4  10  20  37  58  82 116 158 198 241 294 358
#     4   8  18  36  57  78 113 155 190 235 294 348
#     4  10  20  37  60  85 118 161 199 236 292 362
#     4  10  19  36  59  85 115 148 195 255 300 338
#     4  10  20  37  60  87 119 152 195 252 298 345
#     4  10  20  37  57  83 117 151 193 247 297 345
#     4   8  17  35  58  80 109 153 192 234 292 348
#     4  10  20  37  57  82 117 156 196 236 289 362
#
# _framework density 21.140295999999999
#
# number of rings (size 3 to 8) (size 9 to 14) (size 15 to 20)
#    0.000    2.500    0.000    3.750    0.000    1.000 
#    0.000   28.750    0.000    0.000    0.000    0.000 
#    0.000    0.000    0.000    0.000    0.000    0.000 
#
# Total GULP energy -89264.521177 kJ/mol
# GULP energy per Si atom -5579.032574 kJ/mol
# Density = 2.109218 g / cm^3
# Si number density = 21.140296 Si / 1000 Ang^3
#
#
#
# Elastic Constant Matrix: (Units=GPa)
#
#
# Indices 1 2 3 4 5 6 
#
# 1 145.4377 23.0302 57.9827 0.0000 -7.7991 0.0000
# 2 23.0302 34.7302 12.9069 0.0000 10.5797 0.0000
# 3 57.9827 12.9069 103.6700 0.0000 -2.3184 0.0000
# 4 0.0000 0.0000 0.0000 17.7255 0.0000 6.4411
# 5 -7.7991 10.5797 -2.3184 0.0000 26.7103 0.0000
# 6 0.0000 0.0000 0.0000 6.4411 0.0000 36.1759
#
#
#
# Elastic Compliance Matrix: (Units=1/GPa)
#
#
# Indices 1 2 3 4 5 6 
#
# 1 0.010046 -0.006464 -0.004700 0.000000 0.005086 0.000000
# 2 -0.006464 0.039012 -0.001632 0.000000 -0.017481 0.000000
# 3 -0.004700 -0.001632 0.012486 0.000000 0.000358 0.000000
# 4 0.000000 0.000000 0.000000 0.060319 0.000000 -0.010740
# 5 0.005086 -0.017481 0.000358 0.000000 0.045879 0.000000
# 6 0.000000 0.000000 0.000000 -0.010740 0.000000 0.029555
#
#
# Mechanical properties :
#
#
# Convention : Reuss Voigt Hill
#
# Bulk Modulus (GPa) = 27.81627 52.40859 40.11243
# Shear Modulus (GPa) = 21.28805 28.78354 25.03580
#
# Velocity S-wave (km/s) = 3.17675 3.69392 3.44505
# Velocity P-wave (km/s) = 5.16161 6.56034 5.90255
#
# Compressibility (1/GPa) = 0.03595018
#
# Stress axis : x y z
#
# Youngs Moduli (GPa) = 99.54220 25.63324 80.08927
#
# Poissons Ratio (x) = 0.16570 0.37644
# Poissons Ratio (y) = 0.64346 0.13075
# Poissons Ratio (z) = 0.46787 0.04185
#
# Static dielectric constant tensor:
#      x y z
#    x 1.768570 0.000000 0.000290 
#    y 0.000000 1.805330 0.000000 
#    z 0.000290 0.000000 1.746510 
# 
# From -- ./inp_files/23199.got.cif
#   From: 2010.05.17/outbox.cif.g08.bks.cpg/sg9_12_cif.got.tgz:23199.got - 2010.06.03 20:04:27.
