data_PCOD9134001
_publ_section_title
;
Structure prediction by ZEFSAII (Michael W. Deem and Ramdas Pophale) SiO2 
 PCOD9134001
Probable space group: C C
;
_chemical_formula_sum "Si O2"
_cell_formula_units_Z 32
_cell_length_a 20.016319
_cell_length_b 7.329005
_cell_length_c 8.990344
_cell_angle_alpha 90.000000
_cell_angle_beta 71.183066
_cell_angle_gamma 90.000000
_cell_volume 1248.391846
_symmetry_space_group_name_H-M "C C"
_symmetry_group_IT_number 9
_symmetry_cell_setting 'monoclinic'
loop_
_space_group_symop_operation_xyz
x,y,z
x,-y,1/2+z
1/2+x,1/2+y,z
1/2+x,1/2-y,1/2+z
loop_
_atom_site_type_symbol
_atom_site_label
_atom_site_fract_x
_atom_site_fract_y
_atom_site_fract_z
Si Si1 0.788390 0.704839 0.574420
Si Si2 0.195163 0.171896 0.920377
Si Si3 0.692818 0.105867 0.895017
Si Si4 0.890401 0.831295 0.727828
Si Si5 0.896447 0.450506 0.601973
Si Si6 0.792937 0.797802 0.072644
Si Si7 0.045538 0.417290 0.386927
Si Si8 0.043854 0.222829 0.068831
O O1 0.734947 0.628504 0.739798
O O2 0.739274 0.784162 0.480635
O O3 0.833694 0.860933 0.636295
O O4 0.856366 0.573915 0.505209
O O5 0.190671 0.392200 0.932078
O O6 0.250505 0.137987 0.010713
O O7 0.115612 0.106938 0.999052
O O8 0.729029 0.115716 0.708719
O O9 0.611768 0.161551 0.930305
O O10 0.904037 0.610854 0.715599
O O11 0.970870 0.891201 0.639279
O O12 0.846897 0.874099 0.907897
O O13 0.842574 0.288170 0.664439
O O14 0.969619 0.363269 0.503674
O O15 0.051853 0.347548 0.213002
O O16 0.042964 0.636622 0.427525
#
# Coordination Sequence:
#
# PCOD9134001 Si02
#       8
#     4   4   4   4   4   4   4   4
#     4   9  21  36  53  85 122 152 198 249 292 362
#     4  10  21  36  53  84 117 157 189 243 304 352
#     4  11  22  33  56  90 117 155 203 243 298 359
#     4   8  19  35  53  82 114 148 189 240 298 350
#     4   9  20  35  58  85 114 152 197 245 302 340
#     4  11  19  33  58  82 114 156 189 253 293 355
#     4  10  20  32  55  85 118 144 196 254 294 344
#     4  10  18  34  52  83 114 150 187 247 305 344
#
# _framework density 25.632978000000001
#
# number of rings (size 3 to 8) (size 9 to 14) (size 15 to 20)
#    0.750    1.500    2.500    0.750    7.000    0.000 
#    0.000    0.000    0.000    0.000   35.750    0.000 
#    0.000    0.000    0.000    0.000    0.000    0.000 
#
# Total GULP energy -89137.532481 kJ/mol
# GULP energy per Si atom -5571.095780 kJ/mol
# Density = 2.557464 g / cm^3
# Si number density = 25.632978 Si / 1000 Ang^3
#
#
#
# Elastic Constant Matrix: (Units=GPa)
#
#
# Indices 1 2 3 4 5 6 
#
# 1 225.7474 15.9656 78.5351 0.0000 -36.0976 0.0000
# 2 15.9656 24.6035 26.2775 0.0000 -7.3731 0.0000
# 3 78.5351 26.2775 146.5909 0.0000 -16.4240 0.0000
# 4 0.0000 0.0000 0.0000 37.5282 0.0000 2.0239
# 5 -36.0976 -7.3731 -16.4240 0.0000 51.4015 0.0000
# 6 0.0000 0.0000 0.0000 2.0239 0.0000 30.0698
#
#
#
# Elastic Compliance Matrix: (Units=1/GPa)
#
#
# Indices 1 2 3 4 5 6 
#
# 1 0.005930 0.000168 -0.002840 0.000000 0.003282 0.000000
# 2 0.000168 0.051294 -0.008761 0.000000 0.004676 0.000000
# 3 -0.002840 -0.008761 0.009904 0.000000 -0.000086 0.000000
# 4 0.000000 0.000000 0.000000 0.026744 0.000000 -0.001800
# 5 0.003282 0.004676 -0.000086 0.000000 0.022402 0.000000
# 6 0.000000 0.000000 0.000000 -0.001800 0.000000 0.033377
#
#
# Mechanical properties :
#
#
# Convention : Reuss Voigt Hill
#
# Bulk Modulus (GPa) = 22.59216 70.94423 46.76820
# Shear Modulus (GPa) = 26.69925 42.21079 34.45502
#
# Velocity S-wave (km/s) = 3.23088 4.06240 3.67027
# Velocity P-wave (km/s) = 4.76980 7.05274 6.02047
#
# Compressibility (1/GPa) = 0.04426314
#
# Stress axis : x y z
#
# Youngs Moduli (GPa) = 168.62101 19.49542 100.97138
#
# Poissons Ratio (x) = -0.00327 0.28672
# Poissons Ratio (y) = -0.02831 0.88460
# Poissons Ratio (z) = 0.47882 0.17080
#
# Static dielectric constant tensor:
#      x y z
#    x 2.121940 0.000000 0.051010 
#    y 0.000000 2.191220 0.000000 
#    z 0.051010 0.000000 1.974430 
# 
# From -- ./inp_files/11493.got.cif
#   From: 2010.05.17/outbox.cif.g08.bks.cpg/sg9_6_cif.got.tgz:11493.got - 2010.06.03 20:04:27.
