data_PCOD9134059
_publ_section_title
;
Structure prediction by ZEFSAII (Michael W. Deem and Ramdas Pophale) SiO2 
 PCOD9134059
Probable space group: C C
;
_chemical_formula_sum "Si O2"
_cell_formula_units_Z 32
_cell_length_a 9.112368
_cell_length_b 16.526009
_cell_length_c 17.466045
_cell_angle_alpha 90.000000
_cell_angle_beta 152.244714
_cell_angle_gamma 90.000000
_cell_volume 1224.888260
_symmetry_space_group_name_H-M "C C"
_symmetry_group_IT_number 9
_symmetry_cell_setting 'monoclinic'
loop_
_space_group_symop_operation_xyz
x,y,z
x,-y,1/2+z
1/2+x,1/2+y,z
1/2+x,1/2-y,1/2+z
loop_
_atom_site_type_symbol
_atom_site_label
_atom_site_fract_x
_atom_site_fract_y
_atom_site_fract_z
Si Si1 0.639970 0.713816 0.160270
Si Si2 0.046535 0.751358 0.992198
Si Si3 0.678442 0.113761 0.631423
Si Si4 0.338875 0.592804 0.920029
Si Si5 0.070261 0.035110 0.302543
Si Si6 0.030367 0.415140 0.442799
Si Si7 0.301171 0.657305 0.512265
Si Si8 0.646672 0.426204 0.048559
O O1 0.383258 0.726284 0.109626
O O2 0.762537 0.804151 0.210793
O O3 0.494233 0.680098 0.012426
O O4 0.942022 0.659185 0.315141
O O5 0.865586 0.672974 0.876335
O O6 0.983341 0.844685 0.936563
O O7 0.977420 0.765013 0.051434
O O8 0.310869 0.086499 0.464512
O O9 0.739757 0.136364 0.571311
O O10 0.892741 0.040484 0.757983
O O11 0.211229 0.576260 0.947291
O O12 0.561948 0.519574 0.995397
O O13 0.018226 0.591289 0.723216
O O14 0.787154 0.080112 0.129924
O O15 0.300992 0.989812 0.349983
O O16 0.511583 0.587035 0.572369
#
# Coordination Sequence:
#
# PCOD9134059 Si02
#       8
#     4   4   4   4   4   4   4   4
#     4  11  24  41  68  97 135 182 223 280 352 414
#     4   9  23  40  61  91 138 165 215 282 339 406
#     4  11  22  40  67  94 127 174 228 278 341 404
#     4  11  20  34  63  93 125 169 223 267 331 396
#     4  10  21  34  61  93 122 160 222 276 323 388
#     4  10  18  35  58  90 125 159 206 274 319 385
#     4  10  22  40  65  96 133 170 225 280 333 406
#     4  10  22  38  61  96 129 169 216 281 326 397
#
# _framework density 26.124832000000001
#
# number of rings (size 3 to 8) (size 9 to 14) (size 15 to 20)
#    0.750    1.000    0.000    6.000    3.500    1.000 
#    0.000    1.250    5.500    0.000    0.000    0.000 
#    0.000    0.000    0.000    0.000    0.000    0.000 
#
# Total GULP energy -89176.095044 kJ/mol
# GULP energy per Si atom -5573.505940 kJ/mol
# Density = 2.606537 g / cm^3
# Si number density = 26.124832 Si / 1000 Ang^3
#
#
#
# Elastic Constant Matrix: (Units=GPa)
#
#
# Indices 1 2 3 4 5 6 
#
# 1 87.3002 34.2238 15.4434 0.0006 4.8764 0.0008
# 2 34.2238 131.9169 9.6600 0.0049 -0.4024 -0.0061
# 3 15.4434 9.6600 123.4081 0.0563 0.9101 -0.0134
# 4 0.0006 0.0049 0.0563 33.6865 -0.0029 18.9177
# 5 4.8764 -0.4024 0.9101 -0.0029 30.6288 0.0015
# 6 0.0008 -0.0061 -0.0134 18.9177 0.0015 40.8884
#
#
#
# Elastic Compliance Matrix: (Units=1/GPa)
#
#
# Indices 1 2 3 4 5 6 
#
# 1 0.013110 -0.003307 -0.001366 0.000004 -0.002090 -0.000003
# 2 -0.003307 0.008459 -0.000253 -0.000002 0.000645 0.000002
# 3 -0.001366 -0.000253 0.008294 -0.000021 -0.000032 0.000012
# 4 0.000004 -0.000002 -0.000021 0.040106 0.000005 -0.018556
# 5 -0.002090 0.000645 -0.000032 0.000005 0.032991 -0.000003
# 6 -0.000003 0.000002 0.000012 -0.018556 -0.000003 0.033042
#
#
# Mechanical properties :
#
#
# Convention : Reuss Voigt Hill
#
# Bulk Modulus (GPa) = 49.97592 51.25329 50.61460
# Shear Modulus (GPa) = 32.78137 39.92728 36.35432
#
# Velocity S-wave (km/s) = 3.54615 3.91362 3.73441
# Velocity P-wave (km/s) = 5.99484 6.33112 6.16528
#
# Compressibility (1/GPa) = 0.02000964
#
# Stress axis : x y z
#
# Youngs Moduli (GPa) = 76.27896 118.21600 120.56585
#
# Poissons Ratio (x) = 0.39099 0.16472
# Poissons Ratio (y) = 0.25229 0.03050
# Poissons Ratio (z) = 0.10422 0.02991
#
# Static dielectric constant tensor:
#      x y z
#    x 2.227310 0.000010 -0.004590 
#    y 0.000010 2.059410 0.000000 
#    z -0.004590 0.000000 2.075330 
# 
# From -- ./inp_files/36597.got.cif
#   From: 2010.05.17/outbox.cif.g08.bks.cpg/sg9_19_cif.got.tgz:36597.got - 2010.06.03 20:04:27.
