data_PCOD9134602
_publ_section_title
;
Structure prediction by ZEFSAII (Michael W. Deem and Ramdas Pophale) SiO2 
 PCOD9134602
Probable space group: C C
;
_chemical_formula_sum "Si O2"
_cell_formula_units_Z 24
_cell_length_a 12.320935
_cell_length_b 16.874649
_cell_length_c 7.820878
_cell_angle_alpha 90.000000
_cell_angle_beta 35.726741
_cell_angle_gamma 90.000000
_cell_volume 949.483445
_symmetry_space_group_name_H-M "C C"
_symmetry_group_IT_number 9
_symmetry_cell_setting 'monoclinic'
loop_
_space_group_symop_operation_xyz
x,y,z
x,-y,1/2+z
1/2+x,1/2+y,z
1/2+x,1/2-y,1/2+z
loop_
_atom_site_type_symbol
_atom_site_label
_atom_site_fract_x
_atom_site_fract_y
_atom_site_fract_z
Si Si1 0.456260 0.373519 0.288570
Si Si2 0.273527 0.215702 0.222303
Si Si3 0.947714 0.028331 0.452537
Si Si4 0.590845 0.183078 0.423690
Si Si5 0.654056 0.132233 0.730887
Si Si6 0.681794 0.653957 0.958494
O O1 0.498734 0.436284 0.383874
O O2 0.257467 0.335936 0.582922
O O3 0.607882 0.306692 0.059819
O O4 0.466626 0.431885 0.112446
O O5 0.292961 0.308948 0.158646
O O6 0.452896 0.164704 0.044483
O O7 0.221251 0.189761 0.097322
O O8 0.732866 0.045731 0.671988
O O9 0.073215 0.075848 0.154437
O O10 0.647444 0.144960 0.535427
O O11 0.577613 0.277280 0.484597
O O12 0.392455 0.148705 0.617988
#
# Coordination Sequence:
#
# PCOD9134602 Si02
#       6
#     4   4   4   4   4   4
#     4  11  24  40  59  88 122 157 197 244 297 350
#     4   9  19  36  61  89 117 153 196 240 290 348
#     4  11  23  41  60  86 122 159 195 244 298 350
#     4  10  20  37  62  91 118 154 198 242 291 350
#     4  10  19  38  63  87 118 156 196 243 292 348
#     4   9  19  36  61  87 117 153 196 241 290 346
#
# _framework density 25.276899
#
# number of rings (size 3 to 8) (size 9 to 14) (size 15 to 20)
#    0.000    2.000    0.000    6.000    0.000    4.000 
#    0.000    6.667    0.000    0.000    0.000    0.000 
#    0.000    0.000    0.000    0.000    0.000    0.000 
#
# Total GULP energy -67097.391918 kJ/mol
# GULP energy per Si atom -5591.449326 kJ/mol
# Density = 2.521937 g / cm^3
# Si number density = 25.276899 Si / 1000 Ang^3
#
#
#
# Elastic Constant Matrix: (Units=GPa)
#
#
# Indices 1 2 3 4 5 6 
#
# 1 56.4507 -3.3807 19.6013 -0.0005 8.7138 0.0003
# 2 -3.3807 86.9036 22.4863 -0.0002 8.5047 0.0002
# 3 19.6013 22.4863 189.5382 -0.0013 -17.5931 0.0008
# 4 -0.0005 -0.0002 -0.0013 28.5194 0.0007 7.2862
# 5 8.7138 8.5047 -17.5931 0.0007 42.9911 -0.0004
# 6 0.0003 0.0002 0.0008 7.2862 -0.0004 33.0985
#
#
#
# Elastic Compliance Matrix: (Units=1/GPa)
#
#
# Indices 1 2 3 4 5 6 
#
# 1 0.019656 0.002026 -0.002786 0.000000 -0.005525 0.000000
# 2 0.002026 0.012475 -0.002034 0.000000 -0.003711 0.000000
# 3 -0.002786 -0.002034 0.006128 0.000000 0.003475 0.000000
# 4 0.000000 0.000000 0.000000 0.037153 -0.000001 -0.008179
# 5 -0.005525 -0.003711 0.003475 -0.000001 0.026537 0.000000
# 6 0.000000 0.000000 0.000000 -0.008179 0.000000 0.032013
#
#
# Mechanical properties :
#
#
# Convention : Reuss Voigt Hill
#
# Bulk Modulus (GPa) = 30.60744 45.58958 38.09851
# Shear Modulus (GPa) = 33.23563 40.53416 36.88489
#
# Velocity S-wave (km/s) = 3.63004 4.00885 3.82414
# Velocity P-wave (km/s) = 5.45020 6.28514 5.88251
#
# Compressibility (1/GPa) = 0.03267180
#
# Stress axis : x y z
#
# Youngs Moduli (GPa) = 50.87471 80.15834 163.18689
#
# Poissons Ratio (x) = -0.16242 0.45464
# Poissons Ratio (y) = -0.10308 0.33193
# Poissons Ratio (z) = 0.14174 0.16305
#
# Static dielectric constant tensor:
#      x y z
#    x 2.054040 0.000000 -0.006510 
#    y 0.000000 2.003910 0.000000 
#    z -0.006510 0.000000 2.026350 
# 
# From -- ./inp_files/5191.got.cif
#   From: 2010.05.17/outbox.cif.g08.bks.cpg/sg9_3_cif.got.tgz:5191.got - 2010.06.03 20:04:27.
