data_PCOD9134998
_publ_section_title
;
Structure prediction by ZEFSAII (Michael W. Deem and Ramdas Pophale) SiO2 
 PCOD9134998
Probable space group: C C
;
_chemical_formula_sum "Si O2"
_cell_formula_units_Z 32
_cell_length_a 6.845873
_cell_length_b 19.780248
_cell_length_c 11.031822
_cell_angle_alpha 90.000000
_cell_angle_beta 116.322096
_cell_angle_gamma 90.000000
_cell_volume 1338.963444
_symmetry_space_group_name_H-M "C C"
_symmetry_group_IT_number 9
_symmetry_cell_setting 'monoclinic'
loop_
_space_group_symop_operation_xyz
x,y,z
x,-y,1/2+z
1/2+x,1/2+y,z
1/2+x,1/2-y,1/2+z
loop_
_atom_site_type_symbol
_atom_site_label
_atom_site_fract_x
_atom_site_fract_y
_atom_site_fract_z
Si Si1 0.202990 0.029456 0.288960
Si Si2 0.395225 0.271088 0.340544
Si Si3 0.077775 0.124448 0.721606
Si Si4 0.952388 0.923070 0.929504
Si Si5 0.791776 0.949026 0.529400
Si Si6 0.338258 0.196556 0.086707
Si Si7 0.536541 0.062703 0.182997
Si Si8 0.537870 0.188174 0.903797
O O1 0.418274 0.029826 0.265942
O O2 0.170374 0.063743 0.410802
O O3 0.018348 0.066675 0.158489
O O4 0.129435 0.951706 0.277041
O O5 0.407674 0.339782 0.263984
O O6 0.406027 0.214792 0.240353
O O7 0.601338 0.275472 0.486891
O O8 0.173571 0.264837 0.352866
O O9 0.298889 0.167734 0.792254
O O10 0.995264 0.118561 0.561871
O O11 0.750620 0.898276 0.792526
O O12 0.862056 0.996170 0.950086
O O13 0.632259 0.977701 0.593390
O O14 0.677948 0.881168 0.452354
O O15 0.363373 0.115864 0.082118
O O16 0.502417 0.220256 0.026455
#
# Coordination Sequence:
#
# PCOD9134998 Si02
#       8
#     4   4   4   4   4   4   4   4
#     4  10  20  36  58  93 127 162 208 254 316 377
#     4  11  24  44  66  92 123 165 213 266 316 370
#     4  10  23  37  58  93 126 163 211 256 308 383
#     4  10  21  35  58  95 129 162 203 259 305 378
#     4   9  19  36  59  87 124 165 206 251 308 380
#     4  10  25  44  66  94 120 164 219 263 309 382
#     4  10  21  38  61  89 125 170 207 256 317 372
#     4  10  21  42  66  87 124 169 207 257 321 366
#
# _framework density 23.899083000000001
#
# number of rings (size 3 to 8) (size 9 to 14) (size 15 to 20)
#    0.000    2.000    0.000    2.250    1.750   12.000 
#    2.250    0.000    0.000    0.000    0.000    0.000 
#    0.000    0.000    0.000    0.000    0.000    0.000 
#
# Total GULP energy -89385.378806 kJ/mol
# GULP energy per Si atom -5586.586175 kJ/mol
# Density = 2.384469 g / cm^3
# Si number density = 23.899083 Si / 1000 Ang^3
#
#
#
# Elastic Constant Matrix: (Units=GPa)
#
#
# Indices 1 2 3 4 5 6 
#
# 1 136.6947 1.5117 18.5223 0.0000 -39.6317 0.0000
# 2 1.5117 22.3904 -3.7817 0.0000 -7.7201 0.0000
# 3 18.5223 -3.7817 66.1625 0.0000 -2.8058 0.0000
# 4 0.0000 0.0000 0.0000 29.6747 0.0000 -8.0552
# 5 -39.6317 -7.7201 -2.8058 0.0000 40.2647 0.0000
# 6 0.0000 0.0000 0.0000 -8.0552 0.0000 16.2545
#
#
#
# Elastic Compliance Matrix: (Units=1/GPa)
#
#
# Indices 1 2 3 4 5 6 
#
# 1 0.010790 0.002644 -0.002405 0.000000 0.010959 0.000000
# 2 0.002644 0.049127 0.002585 0.000000 0.012202 0.000000
# 3 -0.002405 0.002585 0.015903 0.000000 -0.000763 0.000000
# 4 0.000000 0.000000 0.000000 0.038937 0.000000 0.019296
# 5 0.010959 0.012202 -0.000763 0.000000 0.037909 0.000000
# 6 0.000000 0.000000 0.000000 0.019296 0.000000 0.071084
#
#
# Mechanical properties :
#
#
# Convention : Reuss Voigt Hill
#
# Bulk Modulus (GPa) = 12.27454 28.63914 20.45684
# Shear Modulus (GPa) = 20.38680 31.17180 25.77930
#
# Velocity S-wave (km/s) = 2.92385 3.61544 3.28788
# Velocity P-wave (km/s) = 4.06763 5.42567 4.79498
#
# Compressibility (1/GPa) = 0.08146947
#
# Stress axis : x y z
#
# Youngs Moduli (GPa) = 92.68176 20.35521 62.88165
#
# Poissons Ratio (x) = -0.05382 0.15121
# Poissons Ratio (y) = -0.24506 -0.16257
# Poissons Ratio (z) = 0.22287 -0.05262
#
# Static dielectric constant tensor:
#      x y z
#    x 1.927010 0.000000 -0.017970 
#    y 0.000000 1.933600 0.000000 
#    z -0.017970 0.000000 1.962490 
# 
# From -- ./inp_files/13473.got.cif
#   From: 2010.05.17/outbox.cif.g08.bks.cpg/sg9_7_cif.got.tgz:13473.got - 2010.06.03 20:04:27.
