data_PCOD9134832
_publ_section_title
;
Structure prediction by ZEFSAII (Michael W. Deem and Ramdas Pophale) SiO2 
 PCOD9134832
Probable space group: C C
;
_chemical_formula_sum "Si O2"
_cell_formula_units_Z 32
_cell_length_a 11.598498
_cell_length_b 9.792125
_cell_length_c 13.520337
_cell_angle_alpha 90.000000
_cell_angle_beta 128.249902
_cell_angle_gamma 90.000000
_cell_volume 1205.901301
_symmetry_space_group_name_H-M "C C"
_symmetry_group_IT_number 9
_symmetry_cell_setting 'monoclinic'
loop_
_space_group_symop_operation_xyz
x,y,z
x,-y,1/2+z
1/2+x,1/2+y,z
1/2+x,1/2-y,1/2+z
loop_
_atom_site_type_symbol
_atom_site_label
_atom_site_fract_x
_atom_site_fract_y
_atom_site_fract_z
Si Si1 0.133180 0.514748 0.861290
Si Si2 0.801648 0.491837 0.520950
Si Si3 0.556312 0.706835 0.828418
Si Si4 0.831935 0.071234 0.609046
Si Si5 0.813358 0.833954 0.728877
Si Si6 0.258321 0.180577 0.170263
Si Si7 0.502866 0.822652 0.479079
Si Si8 0.495522 0.225683 0.648044
O O1 0.117368 0.354343 0.829921
O O2 0.044470 0.573325 0.910408
O O3 0.094405 0.603053 0.746605
O O4 0.295340 0.518551 0.995225
O O5 0.644496 0.424565 0.414413
O O6 0.810735 0.456730 0.643109
O O7 0.912211 0.402414 0.513906
O O8 0.853803 0.645903 0.527570
O O9 0.489670 0.637700 0.693292
O O10 0.402803 0.756084 0.800002
O O11 0.730312 0.207299 0.566755
O O12 0.797010 0.992594 0.692512
O O13 0.657119 0.773426 0.608597
O O14 0.891342 0.785942 0.870305
O O15 0.935409 0.799404 0.711767
O O16 0.107930 0.180817 0.148236
#
# Coordination Sequence:
#
# PCOD9134832 Si02
#       8
#     4   4   4   4   4   4   4   4
#     4  10  19  44  66  94 137 190 232 297 373 419
#     4  12  24  42  71  99 138 186 239 300 361 441
#     4  10  21  40  65  99 133 176 244 292 344 446
#     4   9  20  41  62  95 139 171 233 287 354 432
#     4  10  23  44  69 103 139 193 238 293 373 442
#     4  10  23  43  66 103 136 181 234 295 363 430
#     4  10  25  43  72  96 143 192 243 298 368 443
#     4  11  23  43  71 101 145 187 233 308 368 431
#
# _framework density 26.536168
#
# number of rings (size 3 to 8) (size 9 to 14) (size 15 to 20)
#    0.750    1.000    2.500    1.500    3.500    1.000 
#    9.000    1.250    0.000    0.000    0.000    0.000 
#    0.000    0.000    0.000    0.000    0.000    0.000 
#
# Total GULP energy -89153.726791 kJ/mol
# GULP energy per Si atom -5572.107924 kJ/mol
# Density = 2.647577 g / cm^3
# Si number density = 26.536168 Si / 1000 Ang^3
#
#
#
# Elastic Constant Matrix: (Units=GPa)
#
#
# Indices 1 2 3 4 5 6 
#
# 1 149.1152 21.1840 11.3103 0.0000 3.9302 0.0000
# 2 21.1840 68.0586 11.3034 0.0000 -2.5578 0.0000
# 3 11.3103 11.3034 61.2428 0.0000 13.2078 0.0000
# 4 0.0000 0.0000 0.0000 31.0340 0.0000 -9.7260
# 5 3.9302 -2.5578 13.2078 0.0000 26.3469 0.0000
# 6 0.0000 0.0000 0.0000 -9.7260 0.0000 26.7181
#
#
#
# Elastic Compliance Matrix: (Units=1/GPa)
#
#
# Indices 1 2 3 4 5 6 
#
# 1 0.007086 -0.002119 -0.000723 0.000000 -0.000900 0.000000
# 2 -0.002119 0.016040 -0.003333 0.000000 0.003544 0.000000
# 3 -0.000723 -0.003333 0.019199 0.000000 -0.009840 0.000000
# 4 0.000000 0.000000 0.000000 0.036372 0.000000 0.013240
# 5 -0.000900 0.003544 -0.009840 0.000000 0.043367 0.000000
# 6 0.000000 0.000000 0.000000 0.013240 0.000000 0.042248
#
#
# Mechanical properties :
#
#
# Convention : Reuss Voigt Hill
#
# Bulk Modulus (GPa) = 33.36328 40.66801 37.01564
# Shear Modulus (GPa) = 26.78748 32.46106 29.62427
#
# Velocity S-wave (km/s) = 3.18066 3.50133 3.34484
# Velocity P-wave (km/s) = 5.10773 5.63068 5.37557
#
# Compressibility (1/GPa) = 0.02997307
#
# Stress axis : x y z
#
# Youngs Moduli (GPa) = 141.12563 62.34538 52.08475
#
# Poissons Ratio (x) = 0.13213 0.03768
# Poissons Ratio (y) = 0.29908 0.17362
# Poissons Ratio (z) = 0.10208 0.20782
#
# Static dielectric constant tensor:
#      x y z
#    x 2.053920 0.000000 0.044790 
#    y 0.000000 2.235730 0.000000 
#    z 0.044790 0.000000 2.337540 
# 
# From -- ./inp_files/24733.got.cif
#   From: 2010.05.17/outbox.cif.g08.bks.cpg/sg9_13_cif.got.tgz:24733.got - 2010.06.03 20:04:27.
