data_PCOD9134553
_publ_section_title
;
Structure prediction by ZEFSAII (Michael W. Deem and Ramdas Pophale) SiO2 
 PCOD9134553
Probable space group: C C
;
_chemical_formula_sum "Si O2"
_cell_formula_units_Z 32
_cell_length_a 31.267960
_cell_length_b 7.361248
_cell_length_c 21.293303
_cell_angle_alpha 90.000000
_cell_angle_beta 160.040165
_cell_angle_gamma 90.000000
_cell_volume 1673.047786
_symmetry_space_group_name_H-M "C C"
_symmetry_group_IT_number 9
_symmetry_cell_setting 'monoclinic'
loop_
_space_group_symop_operation_xyz
x,y,z
x,-y,1/2+z
1/2+x,1/2+y,z
1/2+x,1/2-y,1/2+z
loop_
_atom_site_type_symbol
_atom_site_label
_atom_site_fract_x
_atom_site_fract_y
_atom_site_fract_z
Si Si1 0.842840 0.692271 0.681210
Si Si2 0.113000 0.592533 0.008891
Si Si3 0.376684 0.718043 0.372872
Si Si4 0.473938 0.347090 0.455115
Si Si5 0.136904 0.533915 0.893778
Si Si6 0.722508 0.662164 0.051563
Si Si7 0.664913 0.325620 0.611469
Si Si8 0.453812 0.080301 0.532672
O O1 0.866045 0.707015 0.787637
O O2 0.765475 0.866057 0.551370
O O3 0.759494 0.510219 0.561173
O O4 0.978620 0.669812 0.839653
O O5 0.122066 0.586140 0.946129
O O6 0.234234 0.700345 0.200813
O O7 0.129678 0.387498 0.057127
O O8 0.434797 0.519406 0.443246
O O9 0.451855 0.866095 0.515128
O O10 0.349780 0.265161 0.250265
O O11 0.571043 0.400479 0.534672
O O12 0.517983 0.190982 0.564068
O O13 0.026453 0.604923 0.697544
O O14 0.147957 0.315993 0.911027
O O15 0.657553 0.606929 0.028506
O O16 0.808608 0.355678 0.831056
#
# Coordination Sequence:
#
# PCOD9134553 Si02
#       8
#     4   4   4   4   4   4   4   4
#     4  11  20  37  65  86 113 153 199 247 291 345
#     4  10  20  38  63  89 111 150 210 241 288 356
#     4  11  21  36  62  92 112 154 197 246 290 350
#     4  11  20  37  64  87 113 152 202 244 289 345
#     4  10  24  39  55  85 126 153 192 241 297 351
#     4  10  19  38  59  89 111 150 195 248 287 346
#     4  10  19  37  65  83 118 150 197 248 291 339
#     4  11  23  40  55  85 128 156 188 245 299 352
#
# _framework density 19.126768999999999
#
# number of rings (size 3 to 8) (size 9 to 14) (size 15 to 20)
#    0.000    1.500    8.750    0.000    1.750    2.000 
#    0.000    0.000    0.000    0.000    0.000    0.000 
#    0.000    0.000    0.000    0.000    0.000    0.000 
#
# Total GULP energy -89247.189510 kJ/mol
# GULP energy per Si atom -5577.949344 kJ/mol
# Density = 1.908324 g / cm^3
# Si number density = 19.126769 Si / 1000 Ang^3
#
#
#
# Elastic Constant Matrix: (Units=GPa)
#
#
# Indices 1 2 3 4 5 6 
#
# 1 56.6357 23.3201 35.4868 0.0000 22.3777 0.0000
# 2 23.3201 79.9452 14.7826 0.0000 3.9014 0.0000
# 3 35.4868 14.7826 57.0617 0.0000 -0.6889 0.0000
# 4 0.0000 0.0000 0.0000 22.4432 0.0000 -1.4508
# 5 22.3777 3.9014 -0.6889 0.0000 36.6263 0.0000
# 6 0.0000 0.0000 0.0000 -1.4508 0.0000 16.9911
#
#
#
# Elastic Compliance Matrix: (Units=1/GPa)
#
#
# Indices 1 2 3 4 5 6 
#
# 1 0.053797 -0.008238 -0.031716 0.000000 -0.032588 0.000000
# 2 -0.008238 0.014478 0.001415 0.000000 0.003518 0.000000
# 3 -0.031716 0.001415 0.037123 0.000000 0.019925 0.000000
# 4 0.000000 0.000000 0.000000 0.044804 0.000000 0.003826
# 5 -0.032588 0.003518 0.019925 0.000000 0.047213 0.000000
# 6 0.000000 0.000000 0.000000 0.003826 0.000000 0.059181
#
#
# Mechanical properties :
#
#
# Convention : Reuss Voigt Hill
#
# Bulk Modulus (GPa) = 35.30982 37.86906 36.58944
# Shear Modulus (GPa) = 14.57232 23.21564 18.89398
#
# Velocity S-wave (km/s) = 2.76321 3.48771 3.14638
# Velocity P-wave (km/s) = 5.35551 6.00506 5.68956
#
# Compressibility (1/GPa) = 0.02832073
#
# Stress axis : x y z
#
# Youngs Moduli (GPa) = 18.58823 69.06889 26.93727
#
# Poissons Ratio (x) = 0.56898 0.85435
# Poissons Ratio (y) = 0.15313 -0.03811
# Poissons Ratio (z) = 0.58955 -0.09772
#
# Static dielectric constant tensor:
#      x y z
#    x 1.663020 0.000000 0.038910 
#    y 0.000000 1.754510 0.000000 
#    z 0.038910 0.000000 1.651310 
# 
# From -- ./inp_files/34690.got.cif
#   From: 2010.05.17/outbox.cif.g08.bks.cpg/sg9_18_cif.got.tgz:34690.got - 2010.06.03 20:04:27.
