data_PCOD9134157
_publ_section_title
;
Structure prediction by ZEFSAII (Michael W. Deem and Ramdas Pophale) SiO2 
 PCOD9134157
Probable space group: C C
;
_chemical_formula_sum "Si O2"
_cell_formula_units_Z 32
_cell_length_a 10.378449
_cell_length_b 12.788418
_cell_length_c 15.794888
_cell_angle_alpha 90.000000
_cell_angle_beta 38.222696
_cell_angle_gamma 90.000000
_cell_volume 1297.059000
_symmetry_space_group_name_H-M "C C"
_symmetry_group_IT_number 9
_symmetry_cell_setting 'monoclinic'
loop_
_space_group_symop_operation_xyz
x,y,z
x,-y,1/2+z
1/2+x,1/2+y,z
1/2+x,1/2-y,1/2+z
loop_
_atom_site_type_symbol
_atom_site_label
_atom_site_fract_x
_atom_site_fract_y
_atom_site_fract_z
Si Si1 0.321100 0.955199 0.297120
Si Si2 0.508993 0.415699 0.788533
Si Si3 0.983512 0.131704 0.841511
Si Si4 0.762123 0.201926 0.125242
Si Si5 0.416935 0.854526 0.490827
Si Si6 0.190864 0.467732 0.208240
Si Si7 0.582221 0.649192 0.445767
Si Si8 0.692818 0.253606 0.462686
O O1 0.185453 0.921929 0.285817
O O2 0.568357 0.945838 0.181874
O O3 0.229176 0.868977 0.407244
O O4 0.278286 0.072034 0.355331
O O5 0.401107 0.528639 0.837419
O O6 0.741847 0.417837 0.630820
O O7 0.540282 0.377608 0.868761
O O8 0.347290 0.328380 0.838477
O O9 0.064674 0.223812 0.740117
O O10 0.833907 0.174587 0.992744
O O11 0.736072 0.090946 0.186063
O O12 0.953761 0.265786 0.067978
O O13 0.550220 0.923560 0.357005
O O14 0.569292 0.774234 0.461980
O O15 0.263097 0.772704 0.521839
O O16 0.402104 0.402317 0.095103
#
# Coordination Sequence:
#
# PCOD9134157 Si02
#       8
#     4   4   4   4   4   4   4   4
#     4   9  19  37  62  89 119 165 201 252 316 369
#     4  10  20  37  58  92 125 154 212 260 306 369
#     4  10  23  39  61  89 124 164 209 259 322 378
#     4  11  23  39  64  88 128 165 205 263 325 375
#     4  10  21  32  65  93 121 160 210 260 301 372
#     4  11  21  39  64  88 128 165 207 259 313 374
#     4  10  18  38  60  91 126 160 205 252 320 365
#     4   9  19  35  60  96 117 159 209 257 305 370
#
# _framework density 24.671199000000001
#
# number of rings (size 3 to 8) (size 9 to 14) (size 15 to 20)
#    0.000    2.000    3.750    2.250    8.750    0.000 
#    0.000    0.000   13.750    0.000    0.000    0.000 
#    0.000    0.000    0.000    0.000    0.000    0.000 
#
# Total GULP energy -89224.951975 kJ/mol
# GULP energy per Si atom -5576.559498 kJ/mol
# Density = 2.461505 g / cm^3
# Si number density = 24.671199 Si / 1000 Ang^3
#
#
#
# Elastic Constant Matrix: (Units=GPa)
#
#
# Indices 1 2 3 4 5 6 
#
# 1 33.3559 20.9103 14.4576 -0.0002 -5.2568 0.0001
# 2 20.9103 96.5425 56.9227 0.0000 1.9032 0.0001
# 3 14.4576 56.9227 150.9405 -0.0009 9.4837 0.0004
# 4 -0.0002 0.0000 -0.0009 43.6062 0.0004 -5.5000
# 5 -5.2568 1.9032 9.4837 0.0004 18.1285 -0.0002
# 6 0.0001 0.0001 0.0004 -5.5000 -0.0002 18.9009
#
#
#
# Elastic Compliance Matrix: (Units=1/GPa)
#
#
# Indices 1 2 3 4 5 6 
#
# 1 0.037242 -0.007392 -0.001558 0.000000 0.012390 0.000000
# 2 -0.007392 0.014815 -0.004805 0.000000 -0.001185 0.000000
# 3 -0.001558 -0.004805 0.008875 0.000000 -0.004590 0.000000
# 4 0.000000 0.000000 0.000000 0.023806 -0.000001 0.006927
# 5 0.012390 -0.001185 -0.004590 -0.000001 0.061280 0.000000
# 6 0.000000 0.000000 0.000000 0.006927 0.000000 0.054923
#
#
# Mechanical properties :
#
#
# Convention : Reuss Voigt Hill
#
# Bulk Modulus (GPa) = 29.91991 51.71335 40.81663
# Shear Modulus (GPa) = 20.86887 28.69701 24.78294
#
# Velocity S-wave (km/s) = 2.91156 3.41424 3.17287
# Velocity P-wave (km/s) = 4.84321 6.04560 5.47750
#
# Compressibility (1/GPa) = 0.03342256
#
# Stress axis : x y z
#
# Youngs Moduli (GPa) = 26.85176 67.49721 112.67971
#
# Poissons Ratio (x) = 0.49893 0.17555
# Poissons Ratio (y) = 0.19848 0.54139
# Poissons Ratio (z) = 0.04183 0.32430
#
# Static dielectric constant tensor:
#      x y z
#    x 2.191930 0.000000 -0.079770 
#    y 0.000000 2.051720 0.000000 
#    z -0.079770 0.000000 1.969910 
# 
# From -- ./inp_files/25860.got.cif
#   From: 2010.05.17/outbox.cif.g08.bks.cpg/sg9_13_cif.got.tgz:25860.got - 2010.06.03 20:04:27.
