data_PCOD9134914
_publ_section_title
;
Structure prediction by ZEFSAII (Michael W. Deem and Ramdas Pophale) SiO2 
 PCOD9134914
Probable space group: C C
;
_chemical_formula_sum "Si O2"
_cell_formula_units_Z 28
_cell_length_a 17.814671
_cell_length_b 13.005767
_cell_length_c 9.013935
_cell_angle_alpha 90.000000
_cell_angle_beta 34.444309
_cell_angle_gamma 90.000000
_cell_volume 1181.248801
_symmetry_space_group_name_H-M "C C"
_symmetry_group_IT_number 9
_symmetry_cell_setting 'monoclinic'
loop_
_space_group_symop_operation_xyz
x,y,z
x,-y,1/2+z
1/2+x,1/2+y,z
1/2+x,1/2-y,1/2+z
loop_
_atom_site_type_symbol
_atom_site_label
_atom_site_fract_x
_atom_site_fract_y
_atom_site_fract_z
Si Si1 0.815030 0.792551 0.944770
Si Si2 0.016199 0.645461 0.457965
Si Si3 0.741341 0.941852 0.796519
Si Si4 0.867252 0.434542 0.718117
Si Si5 0.183174 0.969071 0.769863
Si Si6 0.094363 0.335708 0.515256
Si Si7 0.498452 0.436495 0.812445
O O1 0.890533 0.703966 0.733296
O O2 0.768519 0.882133 0.905542
O O3 0.924229 0.836713 0.878124
O O4 0.689259 0.773736 0.252485
O O5 0.959364 0.531206 0.520203
O O6 0.144282 0.628537 0.354360
O O7 0.060229 0.702024 0.235400
O O8 0.887067 0.973004 0.497622
O O9 0.665461 0.052256 0.929505
O O10 0.785341 0.406701 0.706131
O O11 0.961619 0.351905 0.637980
O O12 0.770197 0.469661 0.008191
O O13 0.065219 0.923900 0.862882
O O14 0.110434 0.040235 0.008857
#
# Coordination Sequence:
#
# PCOD9134914 Si02
#       7
#     4   4   4   4   4   4   4
#     4  11  24  42  66 100 132 175 222 286 347 393
#     4  11  24  42  66  99 135 170 222 292 340 397
#     4  10  21  41  70  96 131 177 229 273 333 417
#     4  10  20  39  67 102 130 177 221 275 327 409
#     4  10  20  34  66 102 131 165 222 272 322 392
#     4  10  21  43  72  94 128 181 233 271 334 415
#     4  10  20  39  65  99 133 177 223 271 321 411
#
# _framework density 23.703728999999999
#
# number of rings (size 3 to 8) (size 9 to 14) (size 15 to 20)
#    0.000    1.714    2.857    2.571    4.000    2.286 
#    2.571    1.429    0.000    0.000    0.000    0.000 
#    0.000    0.000    0.000    0.000    0.000    0.000 
#
# Total GULP energy -78285.381655 kJ/mol
# GULP energy per Si atom -5591.812975 kJ/mol
# Density = 2.364978 g / cm^3
# Si number density = 23.703729 Si / 1000 Ang^3
#
#
#
# Elastic Constant Matrix: (Units=GPa)
#
#
# Indices 1 2 3 4 5 6 
#
# 1 182.3591 25.3208 43.9449 0.0000 -6.2420 0.0000
# 2 25.3208 36.0473 21.4730 0.0000 -3.6826 0.0000
# 3 43.9449 21.4730 167.5543 0.0000 13.1555 0.0000
# 4 0.0000 0.0000 0.0000 12.5983 0.0000 -4.9974
# 5 -6.2420 -3.6826 13.1555 0.0000 39.5515 0.0000
# 6 0.0000 0.0000 0.0000 -4.9974 0.0000 19.2392
#
#
#
# Elastic Compliance Matrix: (Units=1/GPa)
#
#
# Indices 1 2 3 4 5 6 
#
# 1 0.006327 -0.003565 -0.001288 0.000000 0.001095 0.000000
# 2 -0.003565 0.032733 -0.003548 0.000000 0.003665 0.000000
# 3 -0.001288 -0.003548 0.006985 0.000000 -0.002857 0.000000
# 4 0.000000 0.000000 0.000000 0.088494 0.000000 0.022986
# 5 0.001095 0.003665 -0.002857 0.000000 0.026748 0.000000
# 6 0.000000 0.000000 0.000000 0.022986 0.000000 0.057948
#
#
# Mechanical properties :
#
#
# Convention : Reuss Voigt Hill
#
# Bulk Modulus (GPa) = 34.19614 63.04869 48.62241
# Shear Modulus (GPa) = 20.34308 33.95926 27.15117
#
# Velocity S-wave (km/s) = 2.93272 3.78915 3.38810
# Velocity P-wave (km/s) = 5.09172 6.76756 5.98855
#
# Compressibility (1/GPa) = 0.02924307
#
# Stress axis : x y z
#
# Youngs Moduli (GPa) = 158.06246 30.55014 143.16114
#
# Poissons Ratio (x) = 0.10890 0.18446
# Poissons Ratio (y) = 0.56343 0.50791
# Poissons Ratio (z) = 0.20366 0.10839
#
# Static dielectric constant tensor:
#      x y z
#    x 1.869350 0.000000 -0.023500 
#    y 0.000000 1.918500 0.000000 
#    z -0.023500 0.000000 1.913010 
# 
# From -- ./inp_files/10879.got.cif
#   From: 2010.05.17/outbox.cif.g08.bks.cpg/sg9_6_cif.got.tgz:10879.got - 2010.06.03 20:04:27.
