data_PCOD9134212
_publ_section_title
;
Structure prediction by ZEFSAII (Michael W. Deem and Ramdas Pophale) SiO2 
 PCOD9134212
Probable space group: C C
;
_chemical_formula_sum "Si O2"
_cell_formula_units_Z 32
_cell_length_a 10.025386
_cell_length_b 14.360063
_cell_length_c 15.381505
_cell_angle_alpha 90.000000
_cell_angle_beta 38.277456
_cell_angle_gamma 90.000000
_cell_volume 1371.755463
_symmetry_space_group_name_H-M "C C"
_symmetry_group_IT_number 9
_symmetry_cell_setting 'monoclinic'
loop_
_space_group_symop_operation_xyz
x,y,z
x,-y,1/2+z
1/2+x,1/2+y,z
1/2+x,1/2-y,1/2+z
loop_
_atom_site_type_symbol
_atom_site_label
_atom_site_fract_x
_atom_site_fract_y
_atom_site_fract_z
Si Si1 0.411750 0.054318 0.661090
Si Si2 0.978823 0.831136 0.338050
Si Si3 0.233177 0.332341 0.646121
Si Si4 0.003333 0.817023 0.675094
Si Si5 0.475668 0.212745 0.870183
Si Si6 0.208702 0.552572 0.670067
Si Si7 0.317602 0.485732 0.857790
Si Si8 0.099750 0.902018 0.872270
O O1 0.206746 0.118774 0.747209
O O2 0.570493 0.086794 0.656356
O O3 0.567228 0.038947 0.499233
O O4 0.318162 0.957015 0.745604
O O5 0.029533 0.733630 0.266761
O O6 0.840882 0.820984 0.496709
O O7 0.859836 0.905097 0.337378
O O8 0.398840 0.296896 0.635501
O O9 0.188732 0.441591 0.684228
O O10 0.256419 0.802703 0.534789
O O11 0.926158 0.758935 0.799542
O O12 0.932920 0.923962 0.726960
O O13 0.599181 0.115654 0.798646
O O14 0.610744 0.293604 0.847394
O O15 0.460442 0.577459 0.529240
O O16 0.444347 0.449136 0.878854
#
# Coordination Sequence:
#
# PCOD9134212 Si02
#       8
#     4   4   4   4   4   4   4   4
#     4  10  18  41  69  83 124 173 206 258 330 372
#     4  11  24  41  67  91 131 168 220 258 327 379
#     4  12  24  40  61 100 127 170 211 269 312 390
#     4  11  23  39  65 100 126 163 222 263 330 370
#     4  11  22  40  65  95 130 166 209 280 314 388
#     4  11  21  40  62  93 128 165 217 262 317 386
#     4   9  21  41  63  89 125 171 211 264 313 387
#     4   9  19  38  64  91 121 164 214 250 329 376
#
# _framework density 23.327772
#
# number of rings (size 3 to 8) (size 9 to 14) (size 15 to 20)
#    0.000    1.500    5.000    2.250    5.250    1.000 
#    4.500    2.500    0.000    0.000    0.000    0.000 
#    0.000    0.000    0.000    0.000    0.000    0.000 
#
# Total GULP energy -89377.412779 kJ/mol
# GULP energy per Si atom -5586.088299 kJ/mol
# Density = 2.327468 g / cm^3
# Si number density = 23.327772 Si / 1000 Ang^3
#
#
#
# Elastic Constant Matrix: (Units=GPa)
#
#
# Indices 1 2 3 4 5 6 
#
# 1 51.6321 -6.4142 11.4308 -0.0003 5.1623 -0.0001
# 2 -6.4142 170.1657 70.7115 -0.0028 12.1607 0.0010
# 3 11.4308 70.7115 106.8878 -0.0068 8.5027 0.0024
# 4 -0.0003 -0.0028 -0.0068 39.7636 0.0021 2.4685
# 5 5.1623 12.1607 8.5027 0.0021 15.3043 -0.0003
# 6 -0.0001 0.0010 0.0024 2.4685 -0.0003 13.5341
#
#
#
# Elastic Compliance Matrix: (Units=1/GPa)
#
#
# Indices 1 2 3 4 5 6 
#
# 1 0.021240 0.002799 -0.003533 0.000000 -0.007426 0.000000
# 2 0.002799 0.008670 -0.005662 0.000000 -0.004688 0.000000
# 3 -0.003533 -0.005662 0.013629 0.000002 -0.001881 -0.000002
# 4 0.000000 0.000000 0.000002 0.025437 -0.000005 -0.004640
# 5 -0.007426 -0.004688 -0.001881 -0.000005 0.072616 0.000003
# 6 0.000000 0.000000 -0.000002 -0.004640 0.000003 0.074734
#
#
# Mechanical properties :
#
#
# Convention : Reuss Voigt Hill
#
# Bulk Modulus (GPa) = 32.52232 53.34909 42.93570
# Shear Modulus (GPa) = 20.88855 30.58422 25.73639
#
# Velocity S-wave (km/s) = 2.99563 3.62479 3.32513
# Velocity P-wave (km/s) = 5.09282 6.35907 5.76084
#
# Compressibility (1/GPa) = 0.03074812
#
# Stress axis : x y z
#
# Youngs Moduli (GPa) = 47.08067 115.34046 73.37417
#
# Poissons Ratio (x) = -0.32287 0.25920
# Poissons Ratio (y) = -0.13179 0.41545
# Poissons Ratio (z) = 0.16632 0.65307
#
# Static dielectric constant tensor:
#      x y z
#    x 1.935240 0.000000 0.034520 
#    y 0.000000 1.916100 0.000000 
#    z 0.034520 0.000000 1.880650 
# 
# From -- ./inp_files/7490.got.cif
#   From: 2010.05.17/outbox.cif.g08.bks.cpg/sg9_4_cif.got.tgz:7490.got - 2010.06.03 20:04:27.
