data_PCOD9134651
_publ_section_title
;
Structure prediction by ZEFSAII (Michael W. Deem and Ramdas Pophale) SiO2 
 PCOD9134651
Probable space group: C C
;
_chemical_formula_sum "Si O2"
_cell_formula_units_Z 28
_cell_length_a 5.199195
_cell_length_b 18.096240
_cell_length_c 11.702386
_cell_angle_alpha 90.000000
_cell_angle_beta 78.055228
_cell_angle_gamma 90.000000
_cell_volume 1077.189314
_symmetry_space_group_name_H-M "C C"
_symmetry_group_IT_number 9
_symmetry_cell_setting 'monoclinic'
loop_
_space_group_symop_operation_xyz
x,y,z
x,-y,1/2+z
1/2+x,1/2+y,z
1/2+x,1/2-y,1/2+z
loop_
_atom_site_type_symbol
_atom_site_label
_atom_site_fract_x
_atom_site_fract_y
_atom_site_fract_z
Si Si1 0.371340 0.544564 0.279700
Si Si2 0.439407 0.152067 0.566340
Si Si3 0.297266 0.215496 0.986213
Si Si4 0.066943 0.417243 0.401034
Si Si5 0.989380 0.803084 0.273482
Si Si6 0.709026 0.328341 0.856418
Si Si7 0.910777 0.486597 0.201140
O O1 0.261519 0.488105 0.388165
O O2 0.498915 0.617539 0.320540
O O3 0.624139 0.511024 0.189371
O O4 0.128031 0.547991 0.213430
O O5 0.601915 0.227918 0.568408
O O6 0.169955 0.165896 0.658164
O O7 0.390018 0.136185 0.437385
O O8 0.541320 0.076515 0.612411
O O9 0.409176 0.133528 0.006020
O O10 0.151825 0.204177 0.876851
O O11 0.548177 0.266781 0.941281
O O12 0.250261 0.358311 0.318379
O O13 0.859088 0.449125 0.329641
O O14 0.884310 0.720813 0.256028
#
# Coordination Sequence:
#
# PCOD9134651 Si02
#       7
#     4   4   4   4   4   4   4
#     4  10  21  40  65  97 133 190 230 275 365 419
#     4  11  21  37  67 105 133 186 245 291 354 425
#     4  10  21  35  62 103 135 172 236 295 343 420
#     4   9  18  36  65  93 129 182 231 267 351 415
#     4  10  19  39  60 101 133 181 225 290 359 407
#     4  10  25  36  66 104 139 177 237 297 344 423
#     4  10  21  37  71  91 132 184 238 265 356 423
#
# _framework density 25.993576000000001
#
# number of rings (size 3 to 8) (size 9 to 14) (size 15 to 20)
#    0.857    1.143    2.857    0.000    8.000    0.000 
#    0.000    0.000    0.000   22.286    0.000    0.000 
#    0.000    0.000    0.000    0.000    0.000    0.000 
#
# Total GULP energy -78111.741082 kJ/mol
# GULP energy per Si atom -5579.410077 kJ/mol
# Density = 2.593441 g / cm^3
# Si number density = 25.993576 Si / 1000 Ang^3
#
#
#
# Elastic Constant Matrix: (Units=GPa)
#
#
# Indices 1 2 3 4 5 6 
#
# 1 102.7705 33.4421 21.7902 0.0000 -0.9836 0.0000
# 2 33.4421 125.3595 38.6552 0.0000 -5.5856 0.0000
# 3 21.7902 38.6552 55.2781 0.0000 -0.9388 0.0000
# 4 0.0000 0.0000 0.0000 49.1563 0.0000 -6.0125
# 5 -0.9836 -5.5856 -0.9388 0.0000 34.6029 0.0000
# 6 0.0000 0.0000 0.0000 -6.0125 0.0000 59.3540
#
#
#
# Elastic Compliance Matrix: (Units=1/GPa)
#
#
# Indices 1 2 3 4 5 6 
#
# 1 0.011012 -0.002044 -0.002914 0.000000 -0.000096 0.000000
# 2 -0.002044 0.010622 -0.006597 0.000000 0.001478 0.000000
# 3 -0.002914 -0.006597 0.023844 0.000000 -0.000501 0.000000
# 4 0.000000 0.000000 0.000000 0.020598 0.000000 0.002087
# 5 -0.000096 0.001478 -0.000501 0.000000 0.029121 0.000000
# 6 0.000000 0.000000 0.000000 0.002087 0.000000 0.017059
#
#
# Mechanical properties :
#
#
# Convention : Reuss Voigt Hill
#
# Bulk Modulus (GPa) = 44.70399 52.35369 48.52884
# Shear Modulus (GPa) = 35.00826 41.25734 38.13280
#
# Velocity S-wave (km/s) = 3.67386 3.98831 3.83431
# Velocity P-wave (km/s) = 5.93564 6.43378 6.18972
#
# Compressibility (1/GPa) = 0.02236937
#
# Stress axis : x y z
#
# Youngs Moduli (GPa) = 90.80790 94.14053 41.93964
#
# Poissons Ratio (x) = 0.19239 0.12219
# Poissons Ratio (y) = 0.18558 0.27669
# Poissons Ratio (z) = 0.26457 0.62108
#
# Static dielectric constant tensor:
#      x y z
#    x 2.047260 0.000000 0.021270 
#    y 0.000000 2.138850 0.000000 
#    z 0.021270 0.000000 2.079980 
# 
# From -- ./inp_files/21918.got.cif
#   From: 2010.05.17/outbox.cif.g08.bks.cpg/sg9_11_cif.got.tgz:21918.got - 2010.06.03 20:04:27.
