data_PCOD9134397
_publ_section_title
;
Structure prediction by ZEFSAII (Michael W. Deem and Ramdas Pophale) SiO2 
 PCOD9134397
Probable space group: C C
;
_chemical_formula_sum "Si O2"
_cell_formula_units_Z 32
_cell_length_a 8.630652
_cell_length_b 29.616077
_cell_length_c 5.411152
_cell_angle_alpha 90.000000
_cell_angle_beta 84.516301
_cell_angle_gamma 90.000000
_cell_volume 1376.793247
_symmetry_space_group_name_H-M "C C"
_symmetry_group_IT_number 9
_symmetry_cell_setting 'monoclinic'
loop_
_space_group_symop_operation_xyz
x,y,z
x,-y,1/2+z
1/2+x,1/2+y,z
1/2+x,1/2-y,1/2+z
loop_
_atom_site_type_symbol
_atom_site_label
_atom_site_fract_x
_atom_site_fract_y
_atom_site_fract_z
Si Si1 0.415080 0.885464 0.773550
Si Si2 0.919011 0.514045 0.480410
Si Si3 0.612876 0.648903 0.515671
Si Si4 0.535192 0.152993 0.761851
Si Si5 0.474827 0.293794 0.660810
Si Si6 0.274145 0.478194 0.488914
Si Si7 0.282041 0.216832 0.831921
Si Si8 0.361000 0.621828 0.866848
O O1 0.431901 0.934851 0.887119
O O2 0.234014 0.870682 0.801426
O O3 0.474258 0.882046 0.483707
O O4 0.499217 0.855300 0.975261
O O5 0.841275 0.511468 0.761404
O O6 0.090119 0.491845 0.500652
O O7 0.511323 0.690666 0.432408
O O8 0.720901 0.672532 0.701578
O O9 0.497599 0.612836 0.648987
O O10 0.453553 0.198487 0.882031
O O11 0.718523 0.147170 0.757892
O O12 0.330865 0.259892 0.665145
O O13 0.637966 0.273621 0.533762
O O14 0.431553 0.341209 0.540585
O O15 0.338859 0.501736 0.723755
O O16 0.302515 0.424724 0.492583
#
# Coordination Sequence:
#
# PCOD9134397 Si02
#       8
#     4   4   4   4   4   4   4   4
#     4  11  22  44  70  97 141 181 234 286 354 415
#     4  10  19  35  62  98 127 172 224 290 335 407
#     4  10  25  45  65  97 144 187 232 292 355 428
#     4  11  23  41  70 103 132 185 232 287 345 421
#     4  11  25  45  67  97 144 186 236 292 352 427
#     4  10  21  39  65  98 137 174 232 292 341 414
#     4  10  25  43  67 100 135 187 237 290 349 416
#     4  11  26  42  68 106 138 190 235 293 365 416
#
# _framework density 23.242417
#
# number of rings (size 3 to 8) (size 9 to 14) (size 15 to 20)
#    0.000    1.500    1.250    3.750    7.000    2.000 
#    0.000    1.250    0.000    0.000    0.000    0.000 
#    0.000    0.000    0.000    0.000    0.000    0.000 
#
# Total GULP energy -89186.639319 kJ/mol
# GULP energy per Si atom -5574.164957 kJ/mol
# Density = 2.318952 g / cm^3
# Si number density = 23.242417 Si / 1000 Ang^3
#
#
#
# Elastic Constant Matrix: (Units=GPa)
#
#
# Indices 1 2 3 4 5 6 
#
# 1 73.1457 33.3545 3.9497 0.0000 -3.7485 0.0000
# 2 33.3545 83.4771 3.8976 0.0000 -12.1999 0.0000
# 3 3.9497 3.8976 83.6676 0.0000 4.6507 0.0000
# 4 0.0000 0.0000 0.0000 8.5983 0.0000 -15.5527
# 5 -3.7485 -12.1999 4.6507 0.0000 20.4548 0.0000
# 6 0.0000 0.0000 0.0000 -15.5527 0.0000 16.5654
#
#
#
# Elastic Compliance Matrix: (Units=1/GPa)
#
#
# Indices 1 2 3 4 5 6 
#
# 1 0.016751 -0.006804 -0.000424 0.000000 -0.000892 0.000000
# 2 -0.006804 0.015980 -0.000895 0.000000 0.008488 0.000000
# 3 -0.000424 -0.000895 0.012202 0.000000 -0.003386 0.000000
# 4 0.000000 0.000000 0.000000 -0.166567 0.000000 -0.156384
# 5 -0.000892 0.008488 -0.003386 0.000000 0.054557 0.000000
# 6 0.000000 0.000000 0.000000 -0.156384 0.000000 -0.086457
#
#
# Mechanical properties :
#
#
# Convention : Reuss Voigt Hill
#
# Bulk Modulus (GPa) = 34.85874 35.85490 35.35682
# Shear Modulus (GPa) = -39.14635 22.39629 -8.37503
#
# Velocity S-wave (km/s) = -4.10843 3.10755 -1.90031
# Velocity P-wave (km/s) = 2.73407 5.32314 3.22960
#
# Compressibility (1/GPa) = 0.02868721
#
# Stress axis : x y z
#
# Youngs Moduli (GPa) = 59.69792 62.57806 81.95391
#
# Poissons Ratio (x) = 0.42576 0.03477
# Poissons Ratio (y) = 0.40616 0.07335
# Poissons Ratio (z) = 0.02533 0.05601
#
# Static dielectric constant tensor:
#      x y z
#    x 1.920600 0.000000 -0.013280 
#    y 0.000000 2.066530 0.000000 
#    z -0.013280 0.000000 1.989760 
# 
# From -- ./inp_files/1274.got.cif
#   From: 2010.05.17/outbox.cif.g08.bks.cpg/sg9_1_cif.got.tgz:1274.got - 2010.06.03 20:04:27.
