data_PCOD9134019
_publ_section_title
;
Structure prediction by ZEFSAII (Michael W. Deem and Ramdas Pophale) SiO2 
 PCOD9134019
Probable space group: C C
;
_chemical_formula_sum "Si O2"
_cell_formula_units_Z 32
_cell_length_a 10.884422
_cell_length_b 8.059999
_cell_length_c 13.643784
_cell_angle_alpha 90.000000
_cell_angle_beta 75.315236
_cell_angle_gamma 90.000000
_cell_volume 1157.849693
_symmetry_space_group_name_H-M "C C"
_symmetry_group_IT_number 9
_symmetry_cell_setting 'monoclinic'
loop_
_space_group_symop_operation_xyz
x,y,z
x,-y,1/2+z
1/2+x,1/2+y,z
1/2+x,1/2-y,1/2+z
loop_
_atom_site_type_symbol
_atom_site_label
_atom_site_fract_x
_atom_site_fract_y
_atom_site_fract_z
Si Si1 0.664900 0.556306 0.612680
Si Si2 0.337112 0.599548 0.538129
Si Si3 0.116133 0.189893 0.976076
Si Si4 0.352029 0.861566 0.313468
Si Si5 0.547766 0.976480 0.419422
Si Si6 0.346288 0.165040 0.204101
Si Si7 0.789211 0.202559 0.935881
Si Si8 0.210841 0.634148 0.218917
O O1 0.573608 0.451052 0.560067
O O2 0.724462 0.417711 0.673550
O O3 0.766096 0.642275 0.515597
O O4 0.634166 0.711584 0.688055
O O5 0.231898 0.706551 0.501888
O O6 0.402789 0.723894 0.604719
O O7 0.379115 0.453272 0.452311
O O8 0.257492 0.484079 0.626505
O O9 0.202350 0.106331 0.872639
O O10 0.021693 0.339850 0.968910
O O11 0.334391 0.698087 0.253674
O O12 0.436407 0.869302 0.393739
O O13 0.411834 0.995497 0.226797
O O14 0.630265 0.033347 0.310755
O O15 0.645078 0.868964 0.461528
O O16 0.322618 0.247989 0.316180
#
# Coordination Sequence:
#
# PCOD9134019 Si02
#       8
#     4   4   4   4   4   4   4   4
#     4   9  18  33  59  84 109 156 203 230 293 373
#     4   9  18  33  59  84 109 156 203 230 293 373
#     4   9  18  35  59  83 114 156 196 243 304 359
#     4  10  20  35  59  85 113 153 202 245 300 361
#     4  10  20  35  59  85 113 153 202 245 300 361
#     4  10  18  34  59  82 112 156 188 241 300 351
#     4  10  18  34  59  82 112 156 188 241 300 351
#     4   9  18  35  59  83 114 156 196 243 304 359
#
# _framework density 27.637438
#
# number of rings (size 3 to 8) (size 9 to 14) (size 15 to 20)
#    0.000    2.500    2.500    0.000    0.000    0.000 
#    0.000   12.500    5.500    0.000    0.000    0.000 
#    0.000    0.000    0.000    0.000    0.000    0.000 
#
# Total GULP energy -89226.701560 kJ/mol
# GULP energy per Si atom -5576.668848 kJ/mol
# Density = 2.757453 g / cm^3
# Si number density = 27.637438 Si / 1000 Ang^3
#
#
#
# Elastic Constant Matrix: (Units=GPa)
#
#
# Indices 1 2 3 4 5 6 
#
# 1 80.3002 30.1251 31.0799 0.0000 15.3162 0.0000
# 2 30.1251 61.6397 39.9117 0.0000 -11.8398 0.0000
# 3 31.0799 39.9117 163.0083 0.0000 20.4863 0.0000
# 4 0.0000 0.0000 0.0000 86.6696 0.0000 12.3474
# 5 15.3162 -11.8398 20.4863 0.0000 34.3358 0.0000
# 6 0.0000 0.0000 0.0000 12.3474 0.0000 30.3221
#
#
#
# Elastic Compliance Matrix: (Units=1/GPa)
#
#
# Indices 1 2 3 4 5 6 
#
# 1 0.019509 -0.012986 0.001207 0.000000 -0.013901 0.000000
# 2 -0.012986 0.031942 -0.008062 0.000000 0.021617 0.000000
# 3 0.001207 -0.008062 0.008968 0.000000 -0.008669 0.000000
# 4 0.000000 0.000000 0.000000 0.012249 0.000000 -0.004988
# 5 -0.013901 0.021617 -0.008669 0.000000 0.047951 0.000000
# 6 0.000000 0.000000 0.000000 -0.004988 0.000000 0.035010
#
#
# Mechanical properties :
#
#
# Convention : Reuss Voigt Hill
#
# Bulk Modulus (GPa) = 48.22211 56.35351 52.28781
# Shear Modulus (GPa) = 24.72504 43.85426 34.28965
#
# Velocity S-wave (km/s) = 2.99427 3.98775 3.52617
# Velocity P-wave (km/s) = 5.42588 6.45271 5.96144
#
# Compressibility (1/GPa) = 0.02073737
#
# Stress axis : x y z
#
# Youngs Moduli (GPa) = 51.25736 31.30654 111.50930
#
# Poissons Ratio (x) = 0.40656 -0.13457
# Poissons Ratio (y) = 0.66564 0.89895
# Poissons Ratio (z) = -0.06186 0.25238
#
# Static dielectric constant tensor:
#      x y z
#    x 2.244010 0.000000 0.122770 
#    y 0.000000 2.230790 0.000000 
#    z 0.122770 0.000000 2.234780 
# 
# From -- ./inp_files/24388.got.cif
#   From: 2010.05.17/outbox.cif.g08.bks.cpg/sg9_13_cif.got.tgz:24388.got - 2010.06.03 20:04:27.
