data_PCOD9134030
_publ_section_title
;
Structure prediction by ZEFSAII (Michael W. Deem and Ramdas Pophale) SiO2 
 PCOD9134030
Probable space group: C C
;
_chemical_formula_sum "Si O2"
_cell_formula_units_Z 32
_cell_length_a 13.473181
_cell_length_b 17.858147
_cell_length_c 5.512554
_cell_angle_alpha 90.000000
_cell_angle_beta 91.361820
_cell_angle_gamma 90.000000
_cell_volume 1325.979196
_symmetry_space_group_name_H-M "C C"
_symmetry_group_IT_number 9
_symmetry_cell_setting 'monoclinic'
loop_
_space_group_symop_operation_xyz
x,y,z
x,-y,1/2+z
1/2+x,1/2+y,z
1/2+x,1/2-y,1/2+z
loop_
_atom_site_type_symbol
_atom_site_label
_atom_site_fract_x
_atom_site_fract_y
_atom_site_fract_z
Si Si1 0.457330 0.464246 0.573740
Si Si2 0.013834 0.819979 0.884171
Si Si3 0.395011 0.812558 0.254819
Si Si4 0.451056 0.025976 0.808260
Si Si5 0.233400 0.477111 0.031835
Si Si6 0.233463 0.813768 0.874018
Si Si7 0.726892 0.531260 0.210864
Si Si8 0.311019 0.688677 0.573740
O O1 0.487970 0.480161 0.297920
O O2 0.490436 0.386069 0.692690
O O3 0.337477 0.475175 0.554849
O O4 0.125132 0.816520 0.987044
O O5 0.987803 0.743330 0.738728
O O6 0.929856 0.826243 0.089479
O O7 0.436032 0.887174 0.380565
O O8 0.315889 0.756421 0.379153
O O9 0.331431 0.838939 0.023225
O O10 0.495083 0.018236 0.539717
O O11 0.340168 0.994382 0.750165
O O12 0.184093 0.492624 0.286614
O O13 0.259983 0.389357 0.010316
O O14 0.221756 0.879701 0.673275
O O15 0.259505 0.730001 0.793063
O O16 0.683783 0.510438 0.473934
#
# Coordination Sequence:
#
# PCOD9134030 Si02
#       8
#     4   4   4   4   4   4   4   4
#     4  10  19  38  60  96 131 171 206 272 333 412
#     4  10  25  42  61 102 129 173 228 265 332 412
#     4  10  22  41  62  89 135 170 214 272 325 391
#     4  10  18  34  61  90 119 173 213 266 327 393
#     4  10  19  36  65  95 125 176 215 268 332 402
#     4  12  24  41  67  94 136 179 219 273 338 401
#     4  10  20  37  60  98 131 173 211 273 333 415
#     4  10  23  41  64  92 134 175 216 269 334 392
#
# _framework density 24.133109000000001
#
# number of rings (size 3 to 8) (size 9 to 14) (size 15 to 20)
#    0.750    1.000    5.000    1.500    5.250    1.000 
#    4.500    0.000    0.000    1.500    0.000    0.000 
#    0.000    0.000    0.000    0.000    0.000    0.000 
#
# Total GULP energy -89141.898735 kJ/mol
# GULP energy per Si atom -5571.368671 kJ/mol
# Density = 2.407818 g / cm^3
# Si number density = 24.133109 Si / 1000 Ang^3
#
#
#
# Elastic Constant Matrix: (Units=GPa)
#
#
# Indices 1 2 3 4 5 6 
#
# 1 62.5502 13.3666 13.5487 0.0000 13.5479 0.0000
# 2 13.3666 159.7778 25.0487 0.0000 -6.5169 0.0000
# 3 13.5487 25.0487 123.4526 0.0000 -3.8316 0.0000
# 4 0.0000 0.0000 0.0000 31.1320 0.0000 -2.5201
# 5 13.5479 -6.5169 -3.8316 0.0000 30.6715 0.0000
# 6 0.0000 0.0000 0.0000 -2.5201 0.0000 -7.9206
#
#
#
# Elastic Compliance Matrix: (Units=1/GPa)
#
#
# Indices 1 2 3 4 5 6 
#
# 1 0.018679 -0.001610 -0.001998 0.000000 -0.008842 0.000000
# 2 -0.001610 0.006648 -0.001111 0.000000 0.001985 0.000000
# 3 -0.001998 -0.001111 0.008598 0.000000 0.001721 0.000000
# 4 0.000000 0.000000 0.000000 0.031315 0.000000 -0.009963
# 5 -0.008842 0.001985 0.001721 0.000000 0.037146 0.000000
# 6 0.000000 0.000000 0.000000 -0.009963 0.000000 -0.123083
#
#
# Mechanical properties :
#
#
# Convention : Reuss Voigt Hill
#
# Bulk Modulus (GPa) = 40.83493 49.96763 45.40128
# Shear Modulus (GPa) = -1614.83734 30.36434 -792.23650
#
# Velocity S-wave (km/s) = -25.89576 3.55096 -18.13810
# Velocity P-wave (km/s) = 29.61694 6.12882 20.48903
#
# Compressibility (1/GPa) = 0.02448884
#
# Stress axis : x y z
#
# Youngs Moduli (GPa) = 53.53559 150.41038 116.30223
#
# Poissons Ratio (x) = 0.24218 0.23234
# Poissons Ratio (y) = 0.08620 0.12917
# Poissons Ratio (z) = 0.10695 0.16706
#
# Static dielectric constant tensor:
#      x y z
#    x 1.970320 0.000000 -0.081350 
#    y 0.000000 1.934420 0.000000 
#    z -0.081350 0.000000 2.046290 
# 
# From -- ./inp_files/2537.got.cif
#   From: 2010.05.17/outbox.cif.g08.bks.cpg/sg9_2_cif.got.tgz:2537.got - 2010.06.03 20:04:27.
