data_PCOD9134833
_publ_section_title
;
Structure prediction by ZEFSAII (Michael W. Deem and Ramdas Pophale) SiO2 
 PCOD9134833
Probable space group: C C
;
_chemical_formula_sum "Si O2"
_cell_formula_units_Z 28
_cell_length_a 14.184243
_cell_length_b 7.462229
_cell_length_c 11.396244
_cell_angle_alpha 90.000000
_cell_angle_beta 109.445544
_cell_angle_gamma 90.000000
_cell_volume 1137.441251
_symmetry_space_group_name_H-M "C C"
_symmetry_group_IT_number 9
_symmetry_cell_setting 'monoclinic'
loop_
_space_group_symop_operation_xyz
x,y,z
x,-y,1/2+z
1/2+x,1/2+y,z
1/2+x,1/2-y,1/2+z
loop_
_atom_site_type_symbol
_atom_site_label
_atom_site_fract_x
_atom_site_fract_y
_atom_site_fract_z
Si Si1 0.774510 0.458811 0.834320
Si Si2 0.920612 0.881854 0.868874
Si Si3 0.738146 0.963781 0.634593
Si Si4 0.554931 0.439758 0.723081
Si Si5 0.314045 0.862066 0.599004
Si Si6 0.027885 0.684785 0.089629
Si Si7 0.877783 0.815909 0.517636
O O1 0.664973 0.369157 0.789905
O O2 0.790865 0.491266 0.701187
O O3 0.773477 0.588079 0.950436
O O4 0.861798 0.322453 0.908259
O O5 0.813721 0.886872 0.763814
O O6 0.998198 0.987625 0.819647
O O7 0.977660 0.707688 0.939156
O O8 0.899281 0.989332 0.977005
O O9 0.623702 0.941097 0.620816
O O10 0.773304 0.838604 0.541229
O O11 0.770699 0.167709 0.618550
O O12 0.568007 0.621760 0.653047
O O13 0.476405 0.295144 0.637587
O O14 0.433845 0.863839 0.631851
#
# Coordination Sequence:
#
# PCOD9134833 Si02
#       7
#     4   4   4   4   4   4   4
#     4  12  28  47  78 113 163 208 271 340 413 483
#     4  10  19  44  73 108 157 200 264 325 402 490
#     4  11  23  46  79 108 160 213 267 333 415 483
#     4  10  23  41  76 105 156 209 260 327 419 472
#     4  12  28  53  72 122 162 209 279 348 397 505
#     4  11  24  45  76 113 149 219 264 338 410 486
#     4  10  21  44  74 109 151 212 257 329 400 489
#
# _framework density 24.616655000000002
#
# number of rings (size 3 to 8) (size 9 to 14) (size 15 to 20)
#    0.000    1.143    5.714    0.857    8.000    2.286 
#    5.143    0.000    0.000    0.000    0.000    0.000 
#    0.000    0.000    0.000    0.000    0.000    0.000 
#
# Total GULP energy -78068.641711 kJ/mol
# GULP energy per Si atom -5576.331551 kJ/mol
# Density = 2.456063 g / cm^3
# Si number density = 24.616655 Si / 1000 Ang^3
#
#
#
# Elastic Constant Matrix: (Units=GPa)
#
#
# Indices 1 2 3 4 5 6 
#
# 1 194.1696 50.0226 68.4639 0.0000 20.6741 0.0000
# 2 50.0226 94.1269 38.7161 0.0000 2.0031 0.0000
# 3 68.4639 38.7161 103.8953 0.0000 -12.1078 0.0000
# 4 0.0000 0.0000 0.0000 26.7657 0.0000 0.0484
# 5 20.6741 2.0031 -12.1078 0.0000 35.5652 0.0000
# 6 0.0000 0.0000 0.0000 0.0484 0.0000 35.5068
#
#
#
# Elastic Compliance Matrix: (Units=1/GPa)
#
#
# Indices 1 2 3 4 5 6 
#
# 1 0.008306 -0.002016 -0.005489 0.000000 -0.006584 0.000000
# 2 -0.002016 0.013235 -0.003701 0.000000 -0.000833 0.000000
# 3 -0.005489 -0.003701 0.015638 0.000000 0.008723 0.000000
# 4 0.000000 0.000000 0.000000 0.037361 0.000000 -0.000051
# 5 -0.006584 -0.000833 0.008723 0.000000 0.034961 0.000000
# 6 0.000000 0.000000 0.000000 -0.000051 0.000000 0.028164
#
#
# Mechanical properties :
#
#
# Convention : Reuss Voigt Hill
#
# Bulk Modulus (GPa) = 67.71807 78.51076 73.11442
# Shear Modulus (GPa) = 30.30300 35.23349 32.76824
#
# Velocity S-wave (km/s) = 3.51236 3.78734 3.65244
# Velocity P-wave (km/s) = 6.63458 7.14758 6.89585
#
# Compressibility (1/GPa) = 0.01476711
#
# Stress axis : x y z
#
# Youngs Moduli (GPa) = 120.39358 75.55568 63.94676
#
# Poissons Ratio (x) = 0.15233 0.35103
# Poissons Ratio (y) = 0.24274 0.23664
# Poissons Ratio (z) = 0.66089 0.27960
#
# Static dielectric constant tensor:
#      x y z
#    x 1.912720 0.000000 -0.024130 
#    y 0.000000 2.058370 0.000000 
#    z -0.024130 0.000000 2.033640 
# 
# From -- ./inp_files/17972.got.cif
#   From: 2010.05.17/outbox.cif.g08.bks.cpg/sg9_9_cif.got.tgz:17972.got - 2010.06.03 20:04:27.
