data_PCOD9134317
_publ_section_title
;
Structure prediction by ZEFSAII (Michael W. Deem and Ramdas Pophale) SiO2 
 PCOD9134317
Probable space group: C C
;
_chemical_formula_sum "Si O2"
_cell_formula_units_Z 32
_cell_length_a 7.561613
_cell_length_b 18.841762
_cell_length_c 9.711261
_cell_angle_alpha 90.000000
_cell_angle_beta 109.682329
_cell_angle_gamma 90.000000
_cell_volume 1302.765531
_symmetry_space_group_name_H-M "C C"
_symmetry_group_IT_number 9
_symmetry_cell_setting 'monoclinic'
loop_
_space_group_symop_operation_xyz
x,y,z
x,-y,1/2+z
1/2+x,1/2+y,z
1/2+x,1/2-y,1/2+z
loop_
_atom_site_type_symbol
_atom_site_label
_atom_site_fract_x
_atom_site_fract_y
_atom_site_fract_z
Si Si1 0.694210 0.729913 0.463180
Si Si2 0.742652 0.063171 0.174563
Si Si3 0.765741 0.099109 0.731994
Si Si4 0.177753 0.012926 0.756132
Si Si5 0.077433 0.896188 0.545033
Si Si6 0.633642 0.245686 0.634439
Si Si7 0.481861 0.130306 0.909985
Si Si8 0.017767 0.919106 0.963167
O O1 0.715743 0.732247 0.304233
O O2 0.525394 0.786256 0.443065
O O3 0.621244 0.654637 0.491120
O O4 0.903864 0.740518 0.579645
O O5 0.908529 0.094210 0.116233
O O6 0.811824 0.083172 0.344309
O O7 0.713420 0.978794 0.164598
O O8 0.560331 0.099017 0.071148
O O9 0.730456 0.169451 0.628816
O O10 0.617797 0.114525 0.816218
O O11 0.960153 0.094274 0.871777
O O12 0.310158 0.078890 0.827122
O O13 0.021907 0.050192 0.616520
O O14 0.126677 0.969510 0.880980
O O15 0.225812 0.950346 0.656290
O O16 0.160379 0.817178 0.553312
#
# Coordination Sequence:
#
# PCOD9134317 Si02
#       8
#     4   4   4   4   4   4   4   4
#     4  11  19  35  57  89 118 151 205 258 298 352
#     4  10  19  34  55  84 118 157 191 256 306 357
#     4  10  20  34  57  84 119 151 201 252 306 355
#     4  11  23  37  60  96 121 163 203 258 307 367
#     4  10  19  37  54  88 116 153 200 250 301 362
#     4  11  18  32  56  85 118 147 201 258 296 344
#     4  10  22  35  55  92 123 148 210 264 301 359
#     4  11  22  38  64  88 121 164 209 248 313 368
#
# _framework density 24.563130000000001
#
# number of rings (size 3 to 8) (size 9 to 14) (size 15 to 20)
#    0.000    1.500    7.500    1.500    3.500    0.000 
#    0.000    0.000    0.000    3.000    9.750    0.000 
#    0.000    0.000    0.000    0.000    0.000    0.000 
#
# Total GULP energy -89105.636948 kJ/mol
# GULP energy per Si atom -5569.102309 kJ/mol
# Density = 2.450722 g / cm^3
# Si number density = 24.563130 Si / 1000 Ang^3
#
#
#
# Elastic Constant Matrix: (Units=GPa)
#
#
# Indices 1 2 3 4 5 6 
#
# 1 45.7237 8.8816 6.2706 0.0000 6.9981 0.0000
# 2 8.8816 170.3145 27.0685 0.0000 10.7333 0.0000
# 3 6.2706 27.0685 132.2602 0.0000 9.0876 0.0000
# 4 0.0000 0.0000 0.0000 41.1169 0.0000 5.1166
# 5 6.9981 10.7333 9.0876 0.0000 30.8604 0.0000
# 6 0.0000 0.0000 0.0000 5.1166 0.0000 32.2976
#
#
#
# Elastic Compliance Matrix: (Units=1/GPa)
#
#
# Indices 1 2 3 4 5 6 
#
# 1 0.022830 -0.000798 -0.000594 0.000000 -0.004724 0.000000
# 2 -0.000798 0.006194 -0.001117 0.000000 -0.001644 0.000000
# 3 -0.000594 -0.001117 0.007942 0.000000 -0.001816 0.000000
# 4 0.000000 0.000000 0.000000 0.024810 0.000000 -0.003930
# 5 -0.004724 -0.001644 -0.001816 0.000000 0.034582 0.000000
# 6 0.000000 0.000000 0.000000 -0.003930 0.000000 0.031585
#
#
# Mechanical properties :
#
#
# Convention : Reuss Voigt Hill
#
# Bulk Modulus (GPa) = 31.30130 48.08221 39.69175
# Shear Modulus (GPa) = 34.81605 41.26015 38.03810
#
# Velocity S-wave (km/s) = 3.76894 4.10293 3.93948
# Velocity P-wave (km/s) = 5.63123 6.48559 6.07345
#
# Compressibility (1/GPa) = 0.03194756
#
# Stress axis : x y z
#
# Youngs Moduli (GPa) = 43.80164 161.43964 125.90711
#
# Poissons Ratio (x) = 0.12889 0.07484
# Poissons Ratio (y) = 0.03497 0.14062
# Poissons Ratio (z) = 0.02604 0.18031
#
# Static dielectric constant tensor:
#      x y z
#    x 2.071960 0.000000 0.007790 
#    y 0.000000 2.123550 0.000000 
#    z 0.007790 0.000000 1.948700 
# 
# From -- ./inp_files/17008.got.cif
#   From: 2010.05.17/outbox.cif.g08.bks.cpg/sg9_9_cif.got.tgz:17008.got - 2010.06.03 20:04:27.
