data_PCOD9134412
_publ_section_title
;
Structure prediction by ZEFSAII (Michael W. Deem and Ramdas Pophale) SiO2 
 PCOD9134412
Probable space group: C C
;
_chemical_formula_sum "Si O2"
_cell_formula_units_Z 32
_cell_length_a 12.541718
_cell_length_b 10.060815
_cell_length_c 14.758366
_cell_angle_alpha 90.000000
_cell_angle_beta 139.670290
_cell_angle_gamma 90.000000
_cell_volume 1205.194176
_symmetry_space_group_name_H-M "C C"
_symmetry_group_IT_number 9
_symmetry_cell_setting 'monoclinic'
loop_
_space_group_symop_operation_xyz
x,y,z
x,-y,1/2+z
1/2+x,1/2+y,z
1/2+x,1/2-y,1/2+z
loop_
_atom_site_type_symbol
_atom_site_label
_atom_site_fract_x
_atom_site_fract_y
_atom_site_fract_z
Si Si1 0.185710 0.218227 0.642960
Si Si2 0.440541 0.593029 0.595036
Si Si3 0.121819 0.563316 0.298578
Si Si4 0.170273 0.938806 0.531062
Si Si5 0.408487 0.280458 0.249934
Si Si6 0.553460 0.824156 0.389674
Si Si7 0.134757 0.833353 0.769368
Si Si8 0.424212 0.084817 0.552867
O O1 0.369041 0.211567 0.799522
O O2 0.167438 0.324034 0.551065
O O3 0.047921 0.215532 0.629353
O O4 0.151478 0.075313 0.572942
O O5 0.314736 0.556249 0.435970
O O6 0.348480 0.627470 0.628362
O O7 0.554039 0.470760 0.692479
O O8 0.059159 0.696819 0.304718
O O9 0.053304 0.452535 0.326047
O O10 0.077332 0.514199 0.168883
O O11 0.262153 0.830478 0.656877
O O12 0.001457 0.871310 0.384665
O O13 0.294295 0.989902 0.529223
O O14 0.617456 0.711147 0.363177
O O15 0.018035 0.720567 0.647527
O O16 0.331726 0.869497 0.901457
#
# Coordination Sequence:
#
# PCOD9134412 Si02
#       8
#     4   4   4   4   4   4   4   4
#     4  12  25  40  62 101 132 160 209 281 328 376
#     4  12  25  36  63  96 135 161 211 276 340 356
#     4  10  21  39  64  91 119 172 223 255 304 402
#     4  11  21  42  63  93 119 170 220 261 310 398
#     4  11  21  39  65  87 122 171 220 254 311 397
#     4  11  20  43  68  86 125 173 222 253 311 394
#     4  11  18  38  65  95 114 172 214 263 298 394
#     4  10  19  35  68  91 118 157 231 253 296 377
#
# _framework density 26.551735999999998
#
# number of rings (size 3 to 8) (size 9 to 14) (size 15 to 20)
#    0.000    1.000    7.500    2.250    1.750    0.000 
#    0.000    3.750    0.000    0.000    0.000    0.000 
#    0.000    0.000    0.000    0.000    0.000    0.000 
#
# Total GULP energy -89203.211919 kJ/mol
# GULP energy per Si atom -5575.200745 kJ/mol
# Density = 2.649130 g / cm^3
# Si number density = 26.551736 Si / 1000 Ang^3
#
#
#
# Elastic Constant Matrix: (Units=GPa)
#
#
# Indices 1 2 3 4 5 6 
#
# 1 54.8739 8.6217 -97.9487 0.0000 12.9620 0.0000
# 2 8.6217 120.2536 -35.6107 0.0000 -5.2312 0.0000
# 3 -97.9487 -35.6107 493.2904 0.0000 -46.1118 0.0000
# 4 0.0000 0.0000 0.0000 41.8419 0.0000 -3.9061
# 5 12.9620 -5.2312 -46.1118 0.0000 41.8667 0.0000
# 6 0.0000 0.0000 0.0000 -3.9061 0.0000 1.7887
#
#
#
# Elastic Compliance Matrix: (Units=1/GPa)
#
#
# Indices 1 2 3 4 5 6 
#
# 1 0.028581 -0.000597 0.005348 0.000000 -0.003032 0.000000
# 2 -0.000597 0.008653 0.000696 0.000000 0.002033 0.000000
# 3 0.005348 0.000696 0.003336 0.000000 0.002106 0.000000
# 4 0.000000 0.000000 0.000000 0.030019 0.000000 0.065556
# 5 -0.003032 0.002033 0.002106 0.000000 0.027397 0.000000
# 6 0.000000 0.000000 0.000000 0.065556 0.000000 0.702224
#
#
# Mechanical properties :
#
#
# Convention : Reuss Voigt Hill
#
# Bulk Modulus (GPa) = 19.43079 46.50473 32.96776
# Shear Modulus (GPa) = 6.19985 69.98984 38.09484
#
# Velocity S-wave (km/s) = 1.52973 5.13975 3.79191
# Velocity P-wave (km/s) = 3.23328 7.26467 5.62270
#
# Compressibility (1/GPa) = 0.05146470
#
# Stress axis : x y z
#
# Youngs Moduli (GPa) = 34.98879 115.56497 299.73475
#
# Poissons Ratio (x) = 0.06901 -1.60311
# Poissons Ratio (y) = 0.02090 -0.20865
# Poissons Ratio (z) = -0.18714 -0.08045
#
# Static dielectric constant tensor:
#      x y z
#    x 2.163150 0.000000 0.001740 
#    y 0.000000 2.091590 0.000000 
#    z 0.001740 0.000000 2.038680 
# 
# From -- ./inp_files/25858.got.cif
#   From: 2010.05.17/outbox.cif.g08.bks.cpg/sg9_13_cif.got.tgz:25858.got - 2010.06.03 20:04:27.
