data_PCOD9134696
_publ_section_title
;
Structure prediction by ZEFSAII (Michael W. Deem and Ramdas Pophale) SiO2 
 PCOD9134696
Probable space group: C C
;
_chemical_formula_sum "Si O2"
_cell_formula_units_Z 32
_cell_length_a 12.957409
_cell_length_b 17.895886
_cell_length_c 10.398760
_cell_angle_alpha 90.000000
_cell_angle_beta 142.062137
_cell_angle_gamma 90.000000
_cell_volume 1482.488698
_symmetry_space_group_name_H-M "C C"
_symmetry_group_IT_number 9
_symmetry_cell_setting 'monoclinic'
loop_
_space_group_symop_operation_xyz
x,y,z
x,-y,1/2+z
1/2+x,1/2+y,z
1/2+x,1/2-y,1/2+z
loop_
_atom_site_type_symbol
_atom_site_label
_atom_site_fract_x
_atom_site_fract_y
_atom_site_fract_z
Si Si1 0.161190 0.898905 0.819320
Si Si2 0.852497 0.396263 0.253519
Si Si3 0.978348 0.547385 0.274031
Si Si4 0.868878 0.191071 0.890099
Si Si5 0.504282 0.141993 0.543758
Si Si6 0.902257 0.800520 0.118797
Si Si7 0.070356 0.660284 0.173917
Si Si8 0.149811 0.935036 0.308991
O O1 0.349684 0.908161 0.945867
O O2 0.030387 0.851217 0.608107
O O3 0.079397 0.981322 0.750164
O O4 0.218406 0.868749 0.015908
O O5 0.968581 0.461506 0.305887
O O6 0.980599 0.339687 0.448350
O O7 0.743895 0.427874 0.265294
O O8 0.044261 0.598590 0.452214
O O9 0.068555 0.576574 0.233091
O O10 0.785499 0.567976 0.056199
O O11 0.692899 0.162068 0.778831
O O12 0.909250 0.278489 0.948481
O O13 0.855892 0.185428 0.721880
O O14 0.968920 0.716668 0.167156
O O15 0.033558 0.864303 0.211838
O O16 0.755460 0.809654 0.870929
#
# Coordination Sequence:
#
# PCOD9134696 Si02
#       8
#     4   4   4   4   4   4   4   4
#     4  11  25  46  66  98 141 177 222 275 340 408
#     4  10  23  44  65  92 136 184 211 268 342 403
#     4  10  19  39  68  93 130 168 219 271 334 390
#     4  12  24  41  72 103 133 171 229 283 337 394
#     4  12  22  41  67 102 133 173 221 281 334 395
#     4  12  23  42  69 101 128 171 232 289 325 396
#     4  11  23  42  68  99 132 173 227 277 334 394
#     4  10  23  41  69  94 131 181 219 278 338 392
#
# _framework density 21.585325999999998
#
# number of rings (size 3 to 8) (size 9 to 14) (size 15 to 20)
#    0.000    1.000    5.000    2.250    1.750    1.000 
#    6.750    0.000    0.000    0.000    0.000    0.000 
#    0.000    0.000    0.000    0.000    0.000    0.000 
#
# Total GULP energy -89126.444808 kJ/mol
# GULP energy per Si atom -5570.402801 kJ/mol
# Density = 2.153620 g / cm^3
# Si number density = 21.585326 Si / 1000 Ang^3
#
#
#
# Elastic Constant Matrix: (Units=GPa)
#
#
# Indices 1 2 3 4 5 6 
#
# 1 35.8629 3.7943 13.9027 0.0000 -1.4265 0.0000
# 2 3.7943 71.2015 17.1221 0.0000 1.2136 0.0000
# 3 13.9027 17.1221 110.8106 0.0000 -9.4242 0.0000
# 4 0.0000 0.0000 0.0000 32.3604 0.0000 3.3991
# 5 -1.4265 1.2136 -9.4242 0.0000 28.4867 0.0000
# 6 0.0000 0.0000 0.0000 3.3991 0.0000 9.0270
#
#
#
# Elastic Compliance Matrix: (Units=1/GPa)
#
#
# Indices 1 2 3 4 5 6 
#
# 1 0.029346 -0.000717 -0.003543 0.000000 0.000328 0.000000
# 2 -0.000717 0.014659 -0.002296 0.000000 -0.001420 0.000000
# 3 -0.003543 -0.002296 0.010101 0.000000 0.003262 0.000000
# 4 0.000000 0.000000 0.000000 0.032175 0.000000 -0.012115
# 5 0.000328 -0.001420 0.003262 0.000000 0.036260 0.000000
# 6 0.000000 0.000000 0.000000 -0.012115 0.000000 0.115341
#
#
# Mechanical properties :
#
#
# Convention : Reuss Voigt Hill
#
# Bulk Modulus (GPa) = 24.39386 31.94591 28.16989
# Shear Modulus (GPa) = 18.89217 26.17856 22.53537
#
# Velocity S-wave (km/s) = 2.96164 3.48630 3.23462
# Velocity P-wave (km/s) = 4.79800 5.57114 5.19896
#
# Compressibility (1/GPa) = 0.04099392
#
# Stress axis : x y z
#
# Youngs Moduli (GPa) = 34.07563 68.21670 98.99888
#
# Poissons Ratio (x) = 0.04894 0.35077
# Poissons Ratio (y) = 0.02445 0.22729
# Poissons Ratio (z) = 0.12074 0.15661
#
# Static dielectric constant tensor:
#      x y z
#    x 1.849530 0.000000 -0.017290 
#    y 0.000000 1.811650 0.000000 
#    z -0.017290 0.000000 1.793660 
# 
# From -- ./inp_files/18524.got.cif
#   From: 2010.05.17/outbox.cif.g08.bks.cpg/sg9_10_cif.got.tgz:18524.got - 2010.06.03 20:04:27.
