data_PCOD9134991
_publ_section_title
;
Structure prediction by ZEFSAII (Michael W. Deem and Ramdas Pophale) SiO2 
 PCOD9134991
Probable space group: C C
;
_chemical_formula_sum "Si O2"
_cell_formula_units_Z 32
_cell_length_a 26.027488
_cell_length_b 8.583980
_cell_length_c 7.851131
_cell_angle_alpha 90.000000
_cell_angle_beta 54.050491
_cell_angle_gamma 90.000000
_cell_volume 1420.000907
_symmetry_space_group_name_H-M "C C"
_symmetry_group_IT_number 9
_symmetry_cell_setting 'monoclinic'
loop_
_space_group_symop_operation_xyz
x,y,z
x,-y,1/2+z
1/2+x,1/2+y,z
1/2+x,1/2-y,1/2+z
loop_
_atom_site_type_symbol
_atom_site_label
_atom_site_fract_x
_atom_site_fract_y
_atom_site_fract_z
Si Si1 0.538870 0.931994 0.804800
Si Si2 0.539439 0.752895 0.164453
Si Si3 0.776303 0.917338 0.072916
Si Si4 0.920550 0.752303 0.424067
Si Si5 0.920356 0.072989 0.287899
Si Si6 0.277111 0.252590 0.702950
Si Si7 0.659544 0.429910 0.314838
Si Si8 0.659064 0.747552 0.456374
O O1 0.600461 0.864543 0.589127
O O2 0.542422 0.117619 0.803347
O O3 0.538651 0.853875 0.990799
O O4 0.474688 0.875913 0.835322
O O5 0.475851 0.652345 0.286895
O O6 0.600236 0.643391 0.030887
O O7 0.723003 0.839935 0.292496
O O8 0.765898 0.103549 0.094668
O O9 0.848954 0.898870 0.994782
O O10 0.771854 0.835775 0.897489
O O11 0.922309 0.850041 0.597853
O O12 0.848932 0.691159 0.542906
O O13 0.931505 0.887670 0.264764
O O14 0.225146 0.121014 0.775877
O O15 0.651310 0.614781 0.328857
O O16 0.660858 0.351089 0.127322
#
# Coordination Sequence:
#
# PCOD9134991 Si02
#       8
#     4   4   4   4   4   4   4   4
#     4  10  22  38  56  80 109 142 181 224 271 322
#     4  10  22  38  56  80 109 142 181 224 271 322
#     4  10  20  36  58  83 113 146 182 224 270 323
#     4   9  19  36  57  82 110 142 180 221 267 319
#     4   9  19  36  57  82 110 142 180 221 267 319
#     4  10  20  36  58  83 113 146 182 224 270 323
#     4  11  23  38  57  81 110 144 183 227 275 326
#     4  11  23  38  57  81 110 144 183 227 275 326
#
# _framework density 22.535197
#
# number of rings (size 3 to 8) (size 9 to 14) (size 15 to 20)
#    0.000    2.000    0.000    3.000    0.000    7.000 
#    0.000    2.500    0.000    0.000    0.000    0.000 
#    0.000    0.000    0.000    0.000    0.000    0.000 
#
# Total GULP energy -89511.742941 kJ/mol
# GULP energy per Si atom -5594.483934 kJ/mol
# Density = 2.248391 g / cm^3
# Si number density = 22.535197 Si / 1000 Ang^3
#
#
#
# Elastic Constant Matrix: (Units=GPa)
#
#
# Indices 1 2 3 4 5 6 
#
# 1 73.2111 15.1131 29.6150 0.0000 -10.4569 0.0000
# 2 15.1131 43.3753 15.8061 0.0000 -22.0539 0.0000
# 3 29.6150 15.8061 85.0877 0.0000 -17.0724 0.0000
# 4 0.0000 0.0000 0.0000 34.3007 0.0000 -2.6072
# 5 -10.4569 -22.0539 -17.0724 0.0000 26.0013 0.0000
# 6 0.0000 0.0000 0.0000 -2.6072 0.0000 40.8344
#
#
#
# Elastic Compliance Matrix: (Units=1/GPa)
#
#
# Indices 1 2 3 4 5 6 
#
# 1 0.016497 -0.003906 -0.005010 0.000000 0.000032 0.000000
# 2 -0.003906 0.041500 0.000458 0.000000 0.033930 0.000000
# 3 -0.005010 0.000458 0.015070 0.000000 0.008269 0.000000
# 4 0.000000 0.000000 0.000000 0.029296 0.000000 0.001870
# 5 0.000032 0.033930 0.008269 0.000000 0.072680 0.000000
# 6 0.000000 0.000000 0.000000 0.001870 0.000000 0.024609
#
#
# Mechanical properties :
#
#
# Convention : Reuss Voigt Hill
#
# Bulk Modulus (GPa) = 17.80895 35.86029 26.83462
# Shear Modulus (GPa) = 21.25093 29.63661 25.44377
#
# Velocity S-wave (km/s) = 3.07418 3.63040 3.36381
# Velocity P-wave (km/s) = 4.52997 5.78970 5.19814
#
# Compressibility (1/GPa) = 0.05615154
#
# Stress axis : x y z
#
# Youngs Moduli (GPa) = 60.61888 24.09648 66.35610
#
# Poissons Ratio (x) = 0.09412 0.33242
# Poissons Ratio (y) = 0.23678 -0.03040
# Poissons Ratio (z) = 0.30368 -0.01104
#
# Static dielectric constant tensor:
#      x y z
#    x 1.839130 0.000000 0.055140 
#    y 0.000000 1.779810 0.000000 
#    z 0.055140 0.000000 1.840590 
# 
# From -- ./inp_files/11223.got.cif
#   From: 2010.05.17/outbox.cif.g08.bks.cpg/sg9_6_cif.got.tgz:11223.got - 2010.06.03 20:04:27.
