data_PCOD9134033
_publ_section_title
;
Structure prediction by ZEFSAII (Michael W. Deem and Ramdas Pophale) SiO2 
 PCOD9134033
Probable space group: C C
;
_chemical_formula_sum "Si O2"
_cell_formula_units_Z 32
_cell_length_a 19.885159
_cell_length_b 9.689713
_cell_length_c 9.704222
_cell_angle_alpha 90.000000
_cell_angle_beta 38.446446
_cell_angle_gamma 90.000000
_cell_volume 1162.624459
_symmetry_space_group_name_H-M "C C"
_symmetry_group_IT_number 9
_symmetry_cell_setting 'monoclinic'
loop_
_space_group_symop_operation_xyz
x,y,z
x,-y,1/2+z
1/2+x,1/2+y,z
1/2+x,1/2-y,1/2+z
loop_
_atom_site_type_symbol
_atom_site_label
_atom_site_fract_x
_atom_site_fract_y
_atom_site_fract_z
Si Si1 0.754430 0.719556 0.287370
Si Si2 0.194615 0.701040 0.163467
Si Si3 0.061052 0.241211 0.274748
Si Si4 0.205259 0.086129 0.871236
Si Si5 0.904938 0.253376 0.286156
Si Si6 0.523128 0.235836 0.215773
Si Si7 0.976055 0.969988 0.121411
Si Si8 0.021622 0.499749 0.029915
O O1 0.766427 0.808649 0.408525
O O2 0.763022 0.558046 0.309625
O O3 0.630305 0.747394 0.445928
O O4 0.824215 0.746671 0.043230
O O5 0.244459 0.809808 0.189661
O O6 0.083098 0.756919 0.265117
O O7 0.142957 0.567805 0.320238
O O8 0.997108 0.115910 0.449712
O O9 0.028464 0.379892 0.405185
O O10 0.017238 0.268081 0.191875
O O11 0.179345 0.178203 0.048458
O O12 0.091480 0.029426 0.989960
O O13 0.925093 0.387497 0.160243
O O14 0.900771 0.102955 0.225531
O O15 0.447771 0.360334 0.288910
O O16 0.492155 0.082383 0.218903
#
# Coordination Sequence:
#
# PCOD9134033 Si02
#       8
#     4   4   4   4   4   4   4   4
#     4   9  22  38  56  86 126 146 197 248 299 350
#     4  10  19  34  60  83 112 159 195 244 282 352
#     4  10  21  36  60  91 117 154 201 242 292 362
#     4  10  18  34  62  85 109 159 205 232 287 360
#     4  11  22  37  59  92 120 153 193 255 301 342
#     4   8  20  38  58  82 117 152 200 238 286 360
#     4   9  18  35  60  84 112 154 197 234 287 354
#     4  11  20  36  63  87 117 155 202 249 290 348
#
# _framework density 27.523935000000002
#
# number of rings (size 3 to 8) (size 9 to 14) (size 15 to 20)
#    0.750    1.500    2.500    1.500    1.750    1.000 
#    2.250    0.000    5.500    0.000    0.000    0.000 
#    0.000    0.000    0.000    0.000    0.000    0.000 
#
# Total GULP energy -89222.913592 kJ/mol
# GULP energy per Si atom -5576.432100 kJ/mol
# Density = 2.746129 g / cm^3
# Si number density = 27.523935 Si / 1000 Ang^3
#
#
#
# Elastic Constant Matrix: (Units=GPa)
#
#
# Indices 1 2 3 4 5 6 
#
# 1 53.4045 14.6736 -8.0180 0.0000 17.0688 0.0000
# 2 14.6736 161.4339 61.9998 0.0000 18.4604 0.0000
# 3 -8.0180 61.9998 152.4294 0.0000 13.4102 0.0000
# 4 0.0000 0.0000 0.0000 50.2746 0.0000 11.7617
# 5 17.0688 18.4604 13.4102 0.0000 36.3065 0.0000
# 6 0.0000 0.0000 0.0000 11.7617 0.0000 27.7716
#
#
#
# Elastic Compliance Matrix: (Units=1/GPa)
#
#
# Indices 1 2 3 4 5 6 
#
# 1 0.023252 -0.002009 0.003010 0.000000 -0.011021 0.000000
# 2 -0.002009 0.007784 -0.003108 0.000000 -0.001865 0.000000
# 3 0.003010 -0.003108 0.008236 0.000000 -0.002877 0.000000
# 4 0.000000 0.000000 0.000000 0.022078 0.000000 -0.009351
# 5 -0.011021 -0.001865 -0.002877 0.000000 0.034736 0.000000
# 6 0.000000 0.000000 0.000000 -0.009351 0.000000 0.039968
#
#
# Mechanical properties :
#
#
# Convention : Reuss Voigt Hill
#
# Bulk Modulus (GPa) = 28.52447 56.06430 42.29439
# Shear Modulus (GPa) = 32.90483 42.77801 37.84142
#
# Velocity S-wave (km/s) = 3.46135 3.94663 3.71193
# Velocity P-wave (km/s) = 5.13426 6.41727 5.81128
#
# Compressibility (1/GPa) = 0.03505762
#
# Stress axis : x y z
#
# Youngs Moduli (GPa) = 43.00791 128.46983 121.42033
#
# Poissons Ratio (x) = 0.25811 -0.36546
# Poissons Ratio (y) = 0.08641 0.37733
# Poissons Ratio (z) = -0.12945 0.39924
#
# Static dielectric constant tensor:
#      x y z
#    x 2.312970 0.000000 -0.081130 
#    y 0.000000 2.272150 0.000000 
#    z -0.081130 0.000000 2.227500 
# 
# From -- ./inp_files/21380.got.cif
#   From: 2010.05.17/outbox.cif.g08.bks.cpg/sg9_11_cif.got.tgz:21380.got - 2010.06.03 20:04:27.
