data_PCOD9134322
_publ_section_title
;
Structure prediction by ZEFSAII (Michael W. Deem and Ramdas Pophale) SiO2 
 PCOD9134322
Probable space group: C C
;
_chemical_formula_sum "Si O2"
_cell_formula_units_Z 28
_cell_length_a 13.908778
_cell_length_b 10.201297
_cell_length_c 14.196000
_cell_angle_alpha 90.000000
_cell_angle_beta 32.394224
_cell_angle_gamma 90.000000
_cell_volume 1079.110179
_symmetry_space_group_name_H-M "C C"
_symmetry_group_IT_number 9
_symmetry_cell_setting 'monoclinic'
loop_
_space_group_symop_operation_xyz
x,y,z
x,-y,1/2+z
1/2+x,1/2+y,z
1/2+x,1/2-y,1/2+z
loop_
_atom_site_type_symbol
_atom_site_label
_atom_site_fract_x
_atom_site_fract_y
_atom_site_fract_z
Si Si1 0.562860 0.162883 0.884740
Si Si2 0.033237 0.373267 0.617012
Si Si3 0.629105 0.687610 0.803608
Si Si4 0.308422 0.426820 0.939577
Si Si5 0.299497 0.157353 0.480778
Si Si6 0.689957 0.347510 0.621734
Si Si7 0.844065 0.947600 0.618091
O O1 0.617689 0.293761 0.783361
O O2 0.735861 0.069243 0.749344
O O3 0.484459 0.176078 0.053946
O O4 0.397180 0.103689 0.960963
O O5 0.162943 0.497248 0.499409
O O6 0.151102 0.256227 0.563060
O O7 0.880083 0.406995 0.819900
O O8 0.462442 0.763521 0.893827
O O9 0.710353 0.602983 0.650818
O O10 0.753377 0.810853 0.726784
O O11 0.554207 0.590677 0.945216
O O12 0.509152 0.415273 0.731048
O O13 0.228582 0.285517 0.030893
O O14 0.316490 0.512246 0.029899
#
# Coordination Sequence:
#
# PCOD9134322 Si02
#       7
#     4   4   4   4   4   4   4
#     4  10  21  37  59  85 123 162 193 247 301 362
#     4  11  19  35  59  93 122 144 201 251 311 346
#     4   9  16  32  52  85 114 144 188 247 283 355
#     4  10  19  37  58  84 110 161 209 240 282 362
#     4   9  17  30  55  91 114 142 176 263 300 338
#     4   9  21  39  57  81 122 165 202 237 293 367
#     4  10  19  34  56  83 115 156 197 233 302 354
#
# _framework density 25.947303999999999
#
# number of rings (size 3 to 8) (size 9 to 14) (size 15 to 20)
#    0.000    2.286    4.286    0.857    0.000    2.286 
#    2.571    1.429    0.000    0.000    0.000    0.000 
#    0.000    0.000    0.000    0.000    0.000    0.000 
#
# Total GULP energy -78026.247458 kJ/mol
# GULP energy per Si atom -5573.303390 kJ/mol
# Density = 2.588825 g / cm^3
# Si number density = 25.947304 Si / 1000 Ang^3
#
#
#
# Elastic Constant Matrix: (Units=GPa)
#
#
# Indices 1 2 3 4 5 6 
#
# 1 16.7325 -2.8363 28.9442 -0.0001 10.5620 0.0001
# 2 -2.8363 61.6421 31.7770 -0.0001 -6.8555 0.0001
# 3 28.9442 31.7770 155.1065 -0.0002 -0.6151 0.0001
# 4 -0.0001 -0.0001 -0.0002 60.4267 0.0001 -16.1533
# 5 10.5620 -6.8555 -0.6151 0.0001 34.5981 -0.0001
# 6 0.0001 0.0001 0.0001 -16.1533 -0.0001 12.6935
#
#
#
# Elastic Compliance Matrix: (Units=1/GPa)
#
#
# Indices 1 2 3 4 5 6 
#
# 1 0.138796 0.017250 -0.029591 0.000000 -0.039479 -0.000001
# 2 0.017250 0.020723 -0.007470 0.000000 -0.001293 0.000000
# 3 -0.029591 -0.007470 0.013530 0.000000 0.007794 0.000000
# 4 0.000000 0.000000 0.000000 0.025081 0.000000 0.031918
# 5 -0.039479 -0.001293 0.007794 0.000000 0.040838 0.000000
# 6 -0.000001 0.000000 0.000000 0.031918 0.000000 0.119398
#
#
# Mechanical properties :
#
#
# Convention : Reuss Voigt Hill
#
# Bulk Modulus (GPa) = 7.49465 38.80565 23.15015
# Shear Modulus (GPa) = 11.30033 33.25007 22.27520
#
# Velocity S-wave (km/s) = 2.08915 3.58361 2.93316
# Velocity P-wave (km/s) = 2.95197 5.66666 4.51803
#
# Compressibility (1/GPa) = 0.13342850
#
# Stress axis : x y z
#
# Youngs Moduli (GPa) = 7.20481 48.25465 73.90764
#
# Poissons Ratio (x) = -0.83240 2.18701
# Poissons Ratio (y) = -0.12428 0.55208
# Poissons Ratio (z) = 0.21320 0.36045
#
# Static dielectric constant tensor:
#      x y z
#    x 2.049650 0.000000 0.020520 
#    y 0.000000 2.347970 0.000000 
#    z 0.020520 0.000000 2.152680 
# 
# From -- ./inp_files/25896.got.cif
#   From: 2010.05.17/outbox.cif.g08.bks.cpg/sg9_13_cif.got.tgz:25896.got - 2010.06.03 20:04:27.
