data_PCOD9134240
_publ_section_title
;
Structure prediction by ZEFSAII (Michael W. Deem and Ramdas Pophale) SiO2 
 PCOD9134240
Probable space group: C C
;
_chemical_formula_sum "Si O2"
_cell_formula_units_Z 28
_cell_length_a 8.950330
_cell_length_b 21.253840
_cell_length_c 8.830645
_cell_angle_alpha 90.000000
_cell_angle_beta 140.228078
_cell_angle_gamma 90.000000
_cell_volume 1074.651671
_symmetry_space_group_name_H-M "C C"
_symmetry_group_IT_number 9
_symmetry_cell_setting 'monoclinic'
loop_
_space_group_symop_operation_xyz
x,y,z
x,-y,1/2+z
1/2+x,1/2+y,z
1/2+x,1/2-y,1/2+z
loop_
_atom_site_type_symbol
_atom_site_label
_atom_site_fract_x
_atom_site_fract_y
_atom_site_fract_z
Si Si1 0.711030 0.490957 0.128790
Si Si2 0.999372 0.299614 0.205115
Si Si3 0.832409 0.417989 0.959877
Si Si4 0.067488 0.091262 0.785610
Si Si5 0.894470 0.229159 0.709916
Si Si6 0.922855 0.841333 0.683271
Si Si7 0.485361 0.828587 0.526674
O O1 0.872982 0.535273 0.358163
O O2 0.560131 0.446316 0.121225
O O3 0.885338 0.450768 0.159114
O O4 0.559104 0.539104 0.909953
O O5 0.049484 0.226787 0.282602
O O6 0.259007 0.328542 0.412642
O O7 0.880114 0.319493 0.273994
O O8 0.903415 0.345921 0.002313
O O9 0.555417 0.405380 0.763348
O O10 0.915985 0.154274 0.694871
O O11 0.333594 0.118922 0.990603
O O12 0.115115 0.248233 0.999472
O O13 0.972305 0.267336 0.620273
O O14 0.751558 0.843748 0.693051
#
# Coordination Sequence:
#
# PCOD9134240 Si02
#       7
#     4   4   4   4   4   4   4
#     4  10  23  38  65  82 129 180 203 271 311 411
#     4  10  19  32  62  95 118 154 195 275 312 380
#     4  11  21  42  60  89 124 161 216 254 325 393
#     4  10  20  40  62  94 126 166 224 261 339 394
#     4  10  21  36  69 102 131 166 224 288 339 389
#     4  10  19  31  60  97 116 146 205 257 331 363
#     4   9  19  31  60  97 118 159 203 278 321 380
#
# _framework density 26.054952
#
# number of rings (size 3 to 8) (size 9 to 14) (size 15 to 20)
#    0.857    1.143    2.857    1.714    4.000    0.000 
#    0.000    8.571   15.714    0.000    0.000    0.000 
#    0.000    0.000    0.000    0.000    0.000    0.000 
#
# Total GULP energy -77940.520716 kJ/mol
# GULP energy per Si atom -5567.180051 kJ/mol
# Density = 2.599565 g / cm^3
# Si number density = 26.054952 Si / 1000 Ang^3
#
#
#
# Elastic Constant Matrix: (Units=GPa)
#
#
# Indices 1 2 3 4 5 6 
#
# 1 85.0607 47.4710 18.6315 0.0000 -10.5186 0.0000
# 2 47.4710 167.5033 45.4779 0.0000 -3.6791 0.0000
# 3 18.6315 45.4779 57.9528 0.0000 -7.9929 0.0000
# 4 0.0000 0.0000 0.0000 60.6776 0.0000 -2.6497
# 5 -10.5186 -3.6791 -7.9929 0.0000 22.7547 0.0000
# 6 0.0000 0.0000 0.0000 -2.6497 0.0000 37.0141
#
#
#
# Elastic Compliance Matrix: (Units=1/GPa)
#
#
# Indices 1 2 3 4 5 6 
#
# 1 0.014823 -0.003810 -0.000962 0.000000 0.005898 0.000000
# 2 -0.003810 0.008584 -0.005846 0.000000 -0.002427 0.000000
# 3 -0.000962 -0.005846 0.023079 0.000000 0.006717 0.000000
# 4 0.000000 0.000000 0.000000 0.016532 0.000000 0.001183
# 5 0.005898 -0.002427 0.006717 0.000000 0.048640 0.000000
# 6 0.000000 0.000000 0.000000 0.001183 0.000000 0.027101
#
#
# Mechanical properties :
#
#
# Convention : Reuss Voigt Hill
#
# Bulk Modulus (GPa) = 39.60530 59.29751 49.45141
# Shear Modulus (GPa) = 29.68928 37.35171 33.52050
#
# Velocity S-wave (km/s) = 3.37929 3.79036 3.59072
# Velocity P-wave (km/s) = 5.51904 6.47795 6.01763
#
# Compressibility (1/GPa) = 0.02524915
#
# Stress axis : x y z
#
# Youngs Moduli (GPa) = 67.46404 116.50046 43.33035
#
# Poissons Ratio (x) = 0.44387 0.04169
# Poissons Ratio (y) = 0.25704 0.25330
# Poissons Ratio (z) = 0.06491 0.68103
#
# Static dielectric constant tensor:
#      x y z
#    x 2.168420 0.000000 0.113190 
#    y 0.000000 1.656710 0.000000 
#    z 0.113190 0.000000 2.355440 
# 
# From -- ./inp_files/8397.got.cif
#   From: 2010.05.17/outbox.cif.g08.bks.cpg/sg9_5_cif.got.tgz:8397.got - 2010.06.03 20:04:27.
