data_PCOD9134946
_publ_section_title
;
Structure prediction by ZEFSAII (Michael W. Deem and Ramdas Pophale) SiO2 
 PCOD9134946
Probable space group: C C
;
_chemical_formula_sum "Si O2"
_cell_formula_units_Z 32
_cell_length_a 22.345818
_cell_length_b 8.104304
_cell_length_c 9.386941
_cell_angle_alpha 90.000000
_cell_angle_beta 50.095617
_cell_angle_gamma 90.000000
_cell_volume 1304.058743
_symmetry_space_group_name_H-M "C C"
_symmetry_group_IT_number 9
_symmetry_cell_setting 'monoclinic'
loop_
_space_group_symop_operation_xyz
x,y,z
x,-y,1/2+z
1/2+x,1/2+y,z
1/2+x,1/2-y,1/2+z
loop_
_atom_site_type_symbol
_atom_site_label
_atom_site_fract_x
_atom_site_fract_y
_atom_site_fract_z
Si Si1 0.123060 0.979270 0.463890
Si Si2 0.692944 0.017002 0.266831
Si Si3 0.713576 0.328900 0.577681
Si Si4 0.956206 0.833554 0.678144
Si Si5 0.155623 0.286210 0.572062
Si Si6 0.878798 0.460611 0.419676
Si Si7 0.870076 0.966957 0.556534
Si Si8 0.838151 0.303113 0.769037
O O1 0.168628 0.054630 0.259913
O O2 0.103843 0.138832 0.592565
O O3 0.176737 0.862041 0.480191
O O4 0.043593 0.896281 0.541305
O O5 0.705570 0.857176 0.145253
O O6 0.653653 0.939395 0.465708
O O7 0.646033 0.147596 0.245162
O O8 0.780145 0.081566 0.166475
O O9 0.803389 0.377599 0.457341
O O10 0.949426 0.653166 0.760034
O O11 0.917975 0.841125 0.580427
O O12 0.909771 0.958400 0.855284
O O13 0.244655 0.214123 0.425744
O O14 0.862451 0.435156 0.610681
O O15 0.877728 0.642313 0.355555
O O16 0.864416 0.130243 0.665316
#
# Coordination Sequence:
#
# PCOD9134946 Si02
#       8
#     4   4   4   4   4   4   4   4
#     4  11  23  40  62  92 131 173 211 266 330 396
#     4  10  20  35  60  91 125 160 213 275 315 369
#     4  11  20  40  61  92 129 164 219 267 324 381
#     4  11  23  39  63  90 130 170 216 259 330 393
#     4  10  20  37  57  93 128 163 212 268 328 373
#     4  11  20  39  60  97 121 167 217 269 314 378
#     4  10  20  39  58  92 127 163 213 267 322 380
#     4  10  20  35  59  91 125 156 211 275 317 366
#
# _framework density 24.538772000000002
#
# number of rings (size 3 to 8) (size 9 to 14) (size 15 to 20)
#    0.000    1.500    6.250    2.250    0.000    3.000 
#    0.000    1.250    0.000    3.000    0.000    0.000 
#    0.000    0.000    0.000    0.000    0.000    0.000 
#
# Total GULP energy -89634.114011 kJ/mol
# GULP energy per Si atom -5602.132126 kJ/mol
# Density = 2.448292 g / cm^3
# Si number density = 24.538772 Si / 1000 Ang^3
#
#
#
# Elastic Constant Matrix: (Units=GPa)
#
#
# Indices 1 2 3 4 5 6 
#
# 1 84.9269 40.0248 45.1541 0.0000 9.7288 0.0000
# 2 40.0248 62.8941 41.8527 0.0000 5.4628 0.0000
# 3 45.1541 41.8527 84.5427 0.0000 23.0421 0.0000
# 4 0.0000 0.0000 0.0000 40.7787 0.0000 15.2230
# 5 9.7288 5.4628 23.0421 0.0000 37.2561 0.0000
# 6 0.0000 0.0000 0.0000 15.2230 0.0000 34.9763
#
#
#
# Elastic Compliance Matrix: (Units=1/GPa)
#
#
# Indices 1 2 3 4 5 6 
#
# 1 0.018725 -0.007838 -0.006135 0.000000 0.000054 0.000000
# 2 -0.007838 0.027651 -0.010771 0.000000 0.004654 0.000000
# 3 -0.006135 -0.010771 0.023538 0.000000 -0.011376 0.000000
# 4 0.000000 0.000000 0.000000 0.029280 0.000000 -0.012744
# 5 0.000054 0.004654 -0.011376 0.000000 0.033181 0.000000
# 6 0.000000 0.000000 0.000000 -0.012744 0.000000 0.034137
#
#
# Mechanical properties :
#
#
# Convention : Reuss Voigt Hill
#
# Bulk Modulus (GPa) = 48.95902 54.04742 51.50322
# Shear Modulus (GPa) = 22.44090 29.62437 26.03263
#
# Velocity S-wave (km/s) = 3.02736 3.47832 3.26065
# Velocity P-wave (km/s) = 5.67582 6.18100 5.93379
#
# Compressibility (1/GPa) = 0.02042525
#
# Stress axis : x y z
#
# Youngs Moduli (GPa) = 53.40566 36.16534 42.48482
#
# Poissons Ratio (x) = 0.28346 0.26066
# Poissons Ratio (y) = 0.41859 0.45759
# Poissons Ratio (z) = 0.32766 0.38952
#
# Static dielectric constant tensor:
#      x y z
#    x 1.897890 0.000000 0.041050 
#    y 0.000000 2.034770 0.000000 
#    z 0.041050 0.000000 1.938730 
# 
# From -- ./inp_files/12054.got.cif
#   From: 2010.05.17/outbox.cif.g08.bks.cpg/sg9_7_cif.got.tgz:12054.got - 2010.06.03 20:04:27.
