data_PCOD9134644
_publ_section_title
;
Structure prediction by ZEFSAII (Michael W. Deem and Ramdas Pophale) SiO2 
 PCOD9134644
Probable space group: C C
;
_chemical_formula_sum "Si O2"
_cell_formula_units_Z 32
_cell_length_a 11.803881
_cell_length_b 8.895073
_cell_length_c 13.413479
_cell_angle_alpha 90.000000
_cell_angle_beta 112.920031
_cell_angle_gamma 90.000000
_cell_volume 1297.175250
_symmetry_space_group_name_H-M "C C"
_symmetry_group_IT_number 9
_symmetry_cell_setting 'monoclinic'
loop_
_space_group_symop_operation_xyz
x,y,z
x,-y,1/2+z
1/2+x,1/2+y,z
1/2+x,1/2-y,1/2+z
loop_
_atom_site_type_symbol
_atom_site_label
_atom_site_fract_x
_atom_site_fract_y
_atom_site_fract_z
Si Si1 0.148810 0.316810 0.776480
Si Si2 0.717247 0.009518 0.965609
Si Si3 0.587999 0.281468 0.834508
Si Si4 0.052061 0.930107 0.387051
Si Si5 0.303800 0.502674 0.692563
Si Si6 0.422514 0.948707 0.177847
Si Si7 0.757384 0.345950 0.731844
Si Si8 0.976514 0.645761 0.471361
O O1 0.239070 0.382356 0.892500
O O2 0.112743 0.160781 0.814997
O O3 0.216507 0.367037 0.699445
O O4 0.024778 0.418368 0.728877
O O5 0.690091 0.156866 0.894300
O O6 0.589254 0.964850 0.978208
O O7 0.821886 0.021930 0.082267
O O8 0.607561 0.407026 0.925625
O O9 0.466205 0.184527 0.767743
O O10 0.629806 0.357907 0.745728
O O11 0.923877 0.989462 0.299070
O O12 0.031139 0.812295 0.467927
O O13 0.255626 0.675374 0.688231
O O14 0.295818 0.029482 0.164535
O O15 0.434583 0.892313 0.068499
O O16 0.865055 0.366145 0.853267
#
# Coordination Sequence:
#
# PCOD9134644 Si02
#       8
#     4   4   4   4   4   4   4   4
#     4  10  19  40  64  93 131 175 225 279 335 416
#     4  10  19  38  69  92 128 183 223 276 356 401
#     4  11  23  43  62  98 144 176 227 299 338 415
#     4  10  24  42  62  97 141 175 231 289 340 412
#     4  11  20  40  71  95 131 182 227 280 353 411
#     4  11  20  41  72  92 135 184 227 282 351 415
#     4  11  21  41  69  97 131 180 229 281 345 419
#     4  10  20  41  67  94 129 177 231 278 344 419
#
# _framework density 24.668987999999999
#
# number of rings (size 3 to 8) (size 9 to 14) (size 15 to 20)
#    0.000    1.500    8.750    0.000    0.000    2.000 
#    9.000    0.000    0.000    0.000    0.000    0.000 
#    0.000    0.000    0.000    0.000    0.000    0.000 
#
# Total GULP energy -89292.248162 kJ/mol
# GULP energy per Si atom -5580.765510 kJ/mol
# Density = 2.461284 g / cm^3
# Si number density = 24.668988 Si / 1000 Ang^3
#
#
#
# Elastic Constant Matrix: (Units=GPa)
#
#
# Indices 1 2 3 4 5 6 
#
# 1 49.6482 26.4373 1.0640 0.0000 0.9032 0.0000
# 2 26.4373 117.0136 1.2922 0.0000 -17.2250 0.0000
# 3 1.0640 1.2922 83.3790 0.0000 -15.5862 0.0000
# 4 0.0000 0.0000 0.0000 19.6042 0.0000 -7.5080
# 5 0.9032 -17.2250 -15.5862 0.0000 25.0161 0.0000
# 6 0.0000 0.0000 0.0000 -7.5080 0.0000 23.7896
#
#
#
# Elastic Compliance Matrix: (Units=1/GPa)
#
#
# Indices 1 2 3 4 5 6 
#
# 1 0.023570 -0.006183 -0.001313 0.000000 -0.005926 0.000000
# 2 -0.006183 0.011243 0.001577 0.000000 0.008947 0.000000
# 3 -0.001313 0.001577 0.013805 0.000000 0.009735 0.000000
# 4 0.000000 0.000000 0.000000 0.058022 0.000000 0.018312
# 5 -0.005926 0.008947 0.009735 0.000000 0.052414 0.000000
# 6 0.000000 0.000000 0.000000 0.018312 0.000000 0.047814
#
#
# Mechanical properties :
#
#
# Convention : Reuss Voigt Hill
#
# Bulk Modulus (GPa) = 27.18821 34.18087 30.68454
# Shear Modulus (GPa) = 21.64811 28.43180 25.03996
#
# Velocity S-wave (km/s) = 2.96555 3.39858 3.18942
# Velocity P-wave (km/s) = 4.77191 5.41169 5.10184
#
# Compressibility (1/GPa) = 0.03678064
#
# Stress axis : x y z
#
# Youngs Moduli (GPa) = 42.42650 88.94693 72.43499
#
# Poissons Ratio (x) = 0.54998 0.09509
# Poissons Ratio (y) = 0.26233 -0.11424
# Poissons Ratio (z) = 0.05570 -0.14028
#
# Static dielectric constant tensor:
#      x y z
#    x 2.154010 0.000000 0.009810 
#    y 0.000000 2.082550 0.000000 
#    z 0.009810 0.000000 1.983010 
# 
# From -- ./inp_files/24392.got.cif
#   From: 2010.05.17/outbox.cif.g08.bks.cpg/sg9_13_cif.got.tgz:24392.got - 2010.06.03 20:04:27.
