data_PCOD9134607
_publ_section_title
;
Structure prediction by ZEFSAII (Michael W. Deem and Ramdas Pophale) SiO2 
 PCOD9134607
Probable space group: C C
;
_chemical_formula_sum "Si O2"
_cell_formula_units_Z 32
_cell_length_a 8.276530
_cell_length_b 22.400443
_cell_length_c 14.033594
_cell_angle_alpha 90.000000
_cell_angle_beta 151.519749
_cell_angle_gamma 90.000000
_cell_volume 1240.683177
_symmetry_space_group_name_H-M "C C"
_symmetry_group_IT_number 9
_symmetry_cell_setting 'monoclinic'
loop_
_space_group_symop_operation_xyz
x,y,z
x,-y,1/2+z
1/2+x,1/2+y,z
1/2+x,1/2-y,1/2+z
loop_
_atom_site_type_symbol
_atom_site_label
_atom_site_fract_x
_atom_site_fract_y
_atom_site_fract_z
Si Si1 0.328610 0.015468 0.186930
Si Si2 0.669224 0.120704 0.576257
Si Si3 0.010858 0.143948 0.013665
Si Si4 0.644785 0.134355 0.007492
Si Si5 0.283191 0.894332 0.053097
Si Si6 0.355878 0.500012 0.594389
Si Si7 0.427720 0.663818 0.529910
Si Si8 0.781799 0.301804 0.477265
O O1 0.243316 0.007166 0.257399
O O2 0.283142 0.963316 0.086250
O O3 0.179599 0.079109 0.083625
O O4 0.730663 0.985289 0.919747
O O5 0.337522 0.116445 0.469323
O O6 0.829029 0.054015 0.654284
O O7 0.639464 0.137092 0.449474
O O8 0.932729 0.169556 0.754168
O O9 0.226065 0.189203 0.061204
O O10 0.918453 0.160739 0.074605
O O11 0.633725 0.134003 0.774943
O O12 0.279040 0.143777 0.764733
O O13 0.574449 0.162802 0.072808
O O14 0.738020 0.065081 0.064120
O O15 0.981888 0.862379 0.953481
O O16 0.368136 0.733856 0.499413
#
# Coordination Sequence:
#
# PCOD9134607 Si02
#       8
#     4   4   4   4   4   4   4   4
#     4  11  18  37  63  96 134 170 206 272 340 392
#     4  10  22  38  64  97 123 173 216 271 330 381
#     4   9  20  36  61  92 127 167 213 272 328 381
#     4   9  19  38  61  92 122 167 209 268 329 376
#     4  10  19  38  63  95 124 170 216 270 328 387
#     4  11  20  39  69  93 138 167 212 280 335 389
#     4  10  19  40  63  87 131 172 213 262 320 383
#     4  10  21  38  64  90 127 174 219 263 314 399
#
# _framework density 25.792241000000001
#
# number of rings (size 3 to 8) (size 9 to 14) (size 15 to 20)
#    0.000    2.000    5.000    0.750    1.750    1.000 
#    4.500    0.000   16.500    0.000    0.000    0.000 
#    0.000    0.000    0.000    0.000    0.000    0.000 
#
# Total GULP energy -89352.424074 kJ/mol
# GULP energy per Si atom -5584.526505 kJ/mol
# Density = 2.573354 g / cm^3
# Si number density = 25.792241 Si / 1000 Ang^3
#
#
#
# Elastic Constant Matrix: (Units=GPa)
#
#
# Indices 1 2 3 4 5 6 
#
# 1 215.9702 64.1382 43.6982 0.0003 30.0538 0.0003
# 2 64.1382 134.1656 37.6368 -0.0002 12.1657 -0.0002
# 3 43.6982 37.6368 55.9474 0.0007 -2.4584 0.0003
# 4 0.0003 -0.0002 0.0007 25.0557 0.0004 8.2594
# 5 30.0538 12.1657 -2.4584 0.0004 36.8760 0.0002
# 6 0.0003 -0.0002 0.0003 8.2594 0.0002 33.0177
#
#
#
# Elastic Compliance Matrix: (Units=1/GPa)
#
#
# Indices 1 2 3 4 5 6 
#
# 1 0.006709 -0.001471 -0.004483 0.000000 -0.005281 0.000000
# 2 -0.001471 0.009970 -0.005667 0.000000 -0.002468 0.000000
# 3 -0.004483 -0.005667 0.025505 -0.000001 0.007223 0.000000
# 4 0.000000 0.000000 -0.000001 0.043498 -0.000001 -0.010881
# 5 -0.005281 -0.002468 0.007223 -0.000001 0.032718 0.000000
# 6 0.000000 0.000000 0.000000 -0.010881 0.000000 0.033009
#
#
# Mechanical properties :
#
#
# Convention : Reuss Voigt Hill
#
# Bulk Modulus (GPa) = 52.78928 77.44773 65.11851
# Shear Modulus (GPa) = 27.62985 36.36387 31.99686
#
# Velocity S-wave (km/s) = 3.27654 3.75891 3.52598
# Velocity P-wave (km/s) = 5.90134 6.99513 6.47139
#
# Compressibility (1/GPa) = 0.01894324
#
# Stress axis : x y z
#
# Youngs Moduli (GPa) = 149.05241 100.30006 39.20840
#
# Poissons Ratio (x) = 0.14753 0.17576
# Poissons Ratio (y) = 0.21923 0.22218
# Poissons Ratio (z) = 0.66817 0.56837
#
# Static dielectric constant tensor:
#      x y z
#    x 2.096260 0.000000 -0.028070 
#    y 0.000000 2.029670 0.000000 
#    z -0.028070 0.000000 2.186040 
# 
# From -- ./inp_files/15342.got.cif
#   From: 2010.05.17/outbox.cif.g08.bks.cpg/sg9_8_cif.got.tgz:15342.got - 2010.06.03 20:04:27.
