data_PCOD9134358
_publ_section_title
;
Structure prediction by ZEFSAII (Michael W. Deem and Ramdas Pophale) SiO2 
 PCOD9134358
Probable space group: C C
;
_chemical_formula_sum "Si O2"
_cell_formula_units_Z 32
_cell_length_a 11.081048
_cell_length_b 15.767947
_cell_length_c 7.353009
_cell_angle_alpha 90.000000
_cell_angle_beta 116.738423
_cell_angle_gamma 90.000000
_cell_volume 1147.378012
_symmetry_space_group_name_H-M "C C"
_symmetry_group_IT_number 9
_symmetry_cell_setting 'monoclinic'
loop_
_space_group_symop_operation_xyz
x,y,z
x,-y,1/2+z
1/2+x,1/2+y,z
1/2+x,1/2-y,1/2+z
loop_
_atom_site_type_symbol
_atom_site_label
_atom_site_fract_x
_atom_site_fract_y
_atom_site_fract_z
Si Si1 0.913920 0.184532 0.412870
Si Si2 0.190702 0.638795 0.514253
Si Si3 0.191249 0.796067 0.142880
Si Si4 0.620135 0.626142 0.980080
Si Si5 0.695691 0.963130 0.382928
Si Si6 0.491011 0.541887 0.236243
Si Si7 0.400641 0.875949 0.765138
Si Si8 0.908239 0.571402 0.850407
O O1 0.829253 0.182890 0.542771
O O2 0.797216 0.219751 0.204893
O O3 0.050944 0.234780 0.462589
O O4 0.975586 0.092813 0.414708
O O5 0.166275 0.564320 0.345123
O O6 0.217956 0.592373 0.720991
O O7 0.034844 0.671184 0.423480
O O8 0.131753 0.814914 0.307423
O O9 0.287340 0.877623 0.165627
O O10 0.591211 0.535557 0.852185
O O11 0.531483 0.603553 0.097546
O O12 0.751576 0.660537 0.181527
O O13 0.558108 0.925950 0.371941
O O14 0.834016 0.971646 0.586095
O O15 0.403339 0.890444 0.548777
O O16 0.386573 0.969936 0.842692
#
# Coordination Sequence:
#
# PCOD9134358 Si02
#       8
#     4   4   4   4   4   4   4   4
#     4  12  27  46  69  96 141 189 226 276 348 419
#     4  11  22  38  64 100 134 177 219 283 340 402
#     4  11  27  46  69  94 144 184 228 275 350 414
#     4  11  23  42  71 104 134 177 233 295 337 405
#     4  11  21  36  67 101 135 164 228 287 339 393
#     4  12  23  41  73 101 136 175 238 287 344 400
#     4  10  19  34  65  96 133 164 223 279 346 385
#     4  10  20  37  62  98 133 172 219 280 338 404
#
# _framework density 27.889676999999999
#
# number of rings (size 3 to 8) (size 9 to 14) (size 15 to 20)
#    0.000    1.000    0.000   10.500    5.250    1.000 
#    2.250    1.250    0.000    0.000    0.000    0.000 
#    0.000    0.000    0.000    0.000    0.000    0.000 
#
# Total GULP energy -89147.993499 kJ/mol
# GULP energy per Si atom -5571.749594 kJ/mol
# Density = 2.782620 g / cm^3
# Si number density = 27.889677 Si / 1000 Ang^3
#
#
#
# Elastic Constant Matrix: (Units=GPa)
#
#
# Indices 1 2 3 4 5 6 
#
# 1 155.1592 5.6498 27.3670 0.0000 35.7386 0.0000
# 2 5.6498 59.1744 -12.5537 0.0000 8.4688 0.0000
# 3 27.3670 -12.5537 77.6694 0.0000 25.7422 0.0000
# 4 0.0000 0.0000 0.0000 17.9557 0.0000 7.3383
# 5 35.7386 8.4688 25.7422 0.0000 64.6087 0.0000
# 6 0.0000 0.0000 0.0000 7.3383 0.0000 48.2160
#
#
#
# Elastic Compliance Matrix: (Units=1/GPa)
#
#
# Indices 1 2 3 4 5 6 
#
# 1 0.007546 -0.000565 -0.001603 0.000000 -0.003461 0.000000
# 2 -0.000565 0.018458 0.004471 0.000000 -0.003888 0.000000
# 3 -0.001603 0.004471 0.016203 0.000000 -0.006155 0.000000
# 4 0.000000 0.000000 0.000000 0.059387 0.000000 -0.009038
# 5 -0.003461 -0.003888 -0.006155 0.000000 0.020354 0.000000
# 6 0.000000 0.000000 0.000000 -0.009038 0.000000 0.022116
#
#
# Mechanical properties :
#
#
# Convention : Reuss Voigt Hill
#
# Bulk Modulus (GPa) = 21.36170 36.99213 29.17691
# Shear Modulus (GPa) = 32.24545 44.25874 38.25210
#
# Velocity S-wave (km/s) = 3.40395 3.98794 3.70746
# Velocity P-wave (km/s) = 4.80886 5.87345 5.36762
#
# Compressibility (1/GPa) = 0.04681276
#
# Stress axis : x y z
#
# Youngs Moduli (GPa) = 132.52925 54.17640 61.71870
#
# Poissons Ratio (x) = 0.03062 0.09893
# Poissons Ratio (y) = 0.07490 -0.27596
# Poissons Ratio (z) = 0.21243 -0.24224
#
# Static dielectric constant tensor:
#      x y z
#    x 2.151420 0.000000 0.067190 
#    y 0.000000 2.506120 0.000000 
#    z 0.067190 0.000000 2.373030 
# 
# From -- ./inp_files/8051.got.cif
#   From: 2010.05.17/outbox.cif.g08.bks.cpg/sg9_5_cif.got.tgz:8051.got - 2010.06.03 20:04:27.
