data_PCOD9134512
_publ_section_title
;
Structure prediction by ZEFSAII (Michael W. Deem and Ramdas Pophale) SiO2 
 PCOD9134512
Probable space group: C C
;
_chemical_formula_sum "Si O2"
_cell_formula_units_Z 24
_cell_length_a 29.576330
_cell_length_b 6.984246
_cell_length_c 5.240633
_cell_angle_alpha 90.000000
_cell_angle_beta 89.259345
_cell_angle_gamma 90.000000
_cell_volume 1082.458540
_symmetry_space_group_name_H-M "C C"
_symmetry_group_IT_number 9
_symmetry_cell_setting 'monoclinic'
loop_
_space_group_symop_operation_xyz
x,y,z
x,-y,1/2+z
1/2+x,1/2+y,z
1/2+x,1/2-y,1/2+z
loop_
_atom_site_type_symbol
_atom_site_label
_atom_site_fract_x
_atom_site_fract_y
_atom_site_fract_z
Si Si1 0.466070 0.294860 0.152050
Si Si2 0.332826 0.621767 0.321450
Si Si3 0.745769 0.374764 0.219944
Si Si4 0.429414 0.269761 0.653687
Si Si5 0.145630 0.129574 0.800979
Si Si6 0.056380 0.625641 0.296535
O O1 0.435351 0.194678 0.368713
O O2 0.445902 0.507789 0.115352
O O3 0.516935 0.281434 0.249819
O O4 0.461980 0.200209 0.875568
O O5 0.334224 0.548384 0.611496
O O6 0.287359 0.736785 0.271373
O O7 0.378474 0.737803 0.256331
O O8 0.748329 0.542271 0.433508
O O9 0.696050 0.284923 0.265538
O O10 0.105283 0.277638 0.771906
O O11 0.142029 0.970940 0.577212
O O12 0.051681 0.530842 0.573585
#
# Coordination Sequence:
#
# PCOD9134512 Si02
#       6
#     4   4   4   4   4   4
#     4  10  20  36  59  82 122 158 197 256 288 359
#     4  12  21  38  65  95 119 163 214 260 297 365
#     4  10  23  43  62  93 130 159 203 259 318 371
#     4  10  19  37  61  85 114 156 223 240 275 366
#     4  10  23  43  68  90 119 170 214 244 303 391
#     4  12  26  41  61  97 132 156 203 267 325 354
#
# _framework density 22.171749999999999
#
# number of rings (size 3 to 8) (size 9 to 14) (size 15 to 20)
#    0.000    1.333    3.333    3.000    4.667    1.333 
#    0.000    5.000    0.000    0.000    0.000    0.000 
#    0.000    0.000    0.000    0.000    0.000    0.000 
#
# Total GULP energy -67056.391901 kJ/mol
# GULP energy per Si atom -5588.032658 kJ/mol
# Density = 2.212129 g / cm^3
# Si number density = 22.171750 Si / 1000 Ang^3
#
#
#
# Elastic Constant Matrix: (Units=GPa)
#
#
# Indices 1 2 3 4 5 6 
#
# 1 155.4139 17.1111 -2.4986 0.0000 4.5795 0.0000
# 2 17.1111 32.2373 -14.3237 0.0000 -4.7731 0.0000
# 3 -2.4986 -14.3237 104.7297 0.0000 0.5708 0.0000
# 4 0.0000 0.0000 0.0000 2.2141 0.0000 9.0146
# 5 4.5795 -4.7731 0.5708 0.0000 33.4913 0.0000
# 6 0.0000 0.0000 0.0000 9.0146 0.0000 39.6833
#
#
#
# Elastic Compliance Matrix: (Units=1/GPa)
#
#
# Indices 1 2 3 4 5 6 
#
# 1 0.006921 -0.004069 -0.000383 0.000000 -0.001520 0.000000
# 2 -0.004069 0.036153 0.004817 0.000000 0.005627 0.000000
# 3 -0.000383 0.004817 0.010195 0.000000 0.000565 0.000000
# 4 0.000000 0.000000 0.000000 6.014848 0.000000 -1.366360
# 5 -0.001520 0.005627 0.000565 0.000000 0.030859 0.000000
# 6 0.000000 0.000000 0.000000 -1.366360 0.000000 0.335588
#
#
# Mechanical properties :
#
#
# Convention : Reuss Voigt Hill
#
# Bulk Modulus (GPa) = 18.51893 32.55094 25.53493
# Shear Modulus (GPa) = 0.77497 34.55053 17.66275
#
# Velocity S-wave (km/s) = 0.59185 3.95183 2.82553
# Velocity P-wave (km/s) = 2.97282 5.96119 4.71028
#
# Compressibility (1/GPa) = 0.05399881
#
# Stress axis : x y z
#
# Youngs Moduli (GPa) = 144.48718 27.66029 98.08763
#
# Poissons Ratio (x) = 0.11254 0.03758
# Poissons Ratio (y) = 0.58789 -0.47247
# Poissons Ratio (z) = 0.05535 -0.13324
#
# Static dielectric constant tensor:
#      x y z
#    x 1.791240 0.000000 -0.005600 
#    y 0.000000 2.448550 0.000000 
#    z -0.005600 0.000000 1.857810 
# 
# From -- ./inp_files/3266.got.cif
#   From: 2010.05.17/outbox.cif.g08.bks.cpg/sg9_2_cif.got.tgz:3266.got - 2010.06.03 20:04:27.
