data_PCOD9134227
_publ_section_title
;
Structure prediction by ZEFSAII (Michael W. Deem and Ramdas Pophale) SiO2 
 PCOD9134227
Probable space group: C C
;
_chemical_formula_sum "Si O2"
_cell_formula_units_Z 28
_cell_length_a 8.758776
_cell_length_b 28.141638
_cell_length_c 5.239234
_cell_angle_alpha 90.000000
_cell_angle_beta 71.806562
_cell_angle_gamma 90.000000
_cell_volume 1226.839545
_symmetry_space_group_name_H-M "C C"
_symmetry_group_IT_number 9
_symmetry_cell_setting 'monoclinic'
loop_
_space_group_symop_operation_xyz
x,y,z
x,-y,1/2+z
1/2+x,1/2+y,z
1/2+x,1/2-y,1/2+z
loop_
_atom_site_type_symbol
_atom_site_label
_atom_site_fract_x
_atom_site_fract_y
_atom_site_fract_z
Si Si1 0.655270 0.817392 0.919220
Si Si2 0.059030 0.628720 0.953705
Si Si3 0.059136 0.518758 0.087774
Si Si4 0.874847 0.754953 0.480726
Si Si5 0.594423 0.317392 0.042232
Si Si6 0.690663 0.371280 0.507747
Si Si7 0.690555 0.518758 0.873681
O O1 0.605259 0.849161 0.700786
O O2 0.806217 0.787685 0.740807
O O3 0.661516 0.849433 0.168112
O O4 0.514878 0.778136 0.018773
O O5 0.066096 0.572006 0.980866
O O6 0.874846 0.640605 0.980725
O O7 0.133489 0.514009 0.329051
O O8 0.874845 0.500000 0.230727
O O9 0.734817 0.721864 0.442680
O O10 0.943477 0.787685 0.220643
O O11 0.644432 0.349161 0.260666
O O12 0.588178 0.349433 0.793339
O O13 0.683596 0.427994 0.480588
O O14 0.616202 0.514009 0.632405
#
# Coordination Sequence:
#
# PCOD9134227 Si02
#       7
#     4   4   4   4   4   4   4
#     4  11  25  39  62  85 121 158 197 248 288 352
#     4  12  21  36  57  92 125 149 191 244 305 339
#     4  10  19  30  52  84 126 145 184 239 297 339
#     4  10  24  44  60  86 116 160 206 240 296 342
#     4  11  25  39  62  85 121 158 197 248 288 352
#     4  12  21  36  57  92 125 149 191 244 305 339
#     4  10  19  30  52  84 126 145 184 239 297 339
#
# _framework density 22.822870000000002
#
# number of rings (size 3 to 8) (size 9 to 14) (size 15 to 20)
#    0.000    1.143    5.714    1.714    4.000    8.000 
#    0.000    0.000    0.000    0.000    0.000   20.000 
#    0.000    0.000    0.000    0.000    0.000    0.000 
#
# Total GULP energy -78302.091801 kJ/mol
# GULP energy per Si atom -5593.006557 kJ/mol
# Density = 2.277092 g / cm^3
# Si number density = 22.822870 Si / 1000 Ang^3
#
#
#
# Elastic Constant Matrix: (Units=GPa)
#
#
# Indices 1 2 3 4 5 6 
#
# 1 30.8804 32.8942 41.5113 0.0000 9.4264 0.0000
# 2 32.8942 169.4378 99.4811 0.0000 -3.6083 0.0000
# 3 41.5113 99.4811 175.6243 0.0000 13.5610 0.0000
# 4 0.0000 0.0000 0.0000 37.9979 0.0000 -2.7010
# 5 9.4264 -3.6083 13.5610 0.0000 31.9967 0.0000
# 6 0.0000 0.0000 0.0000 -2.7010 0.0000 -2.3220
#
#
#
# Elastic Compliance Matrix: (Units=1/GPa)
#
#
# Indices 1 2 3 4 5 6 
#
# 1 0.053842 -0.005756 -0.008468 0.000000 -0.012922 0.000000
# 2 -0.005756 0.009792 -0.004551 0.000000 0.004729 0.000000
# 3 -0.008468 -0.004551 0.010463 0.000000 -0.002453 0.000000
# 4 0.000000 0.000000 0.000000 0.024307 0.000000 -0.028274
# 5 -0.012922 0.004729 -0.002453 0.000000 0.036633 0.000000
# 6 0.000000 0.000000 0.000000 -0.028274 0.000000 -0.397769
#
#
# Mechanical properties :
#
#
# Convention : Reuss Voigt Hill
#
# Bulk Modulus (GPa) = 27.36241 80.41284 53.88762
# Shear Modulus (GPa) = -23.47450 27.00491 1.76521
#
# Velocity S-wave (km/s) = -3.21058 3.44356 0.88041
# Velocity P-wave (km/s) = 1.31481 7.14987 4.96951
#
# Compressibility (1/GPa) = 0.03654649
#
# Stress axis : x y z
#
# Youngs Moduli (GPa) = 18.57272 102.12119 95.57472
#
# Poissons Ratio (x) = 0.58783 0.80933
# Poissons Ratio (y) = 0.10691 0.43500
# Poissons Ratio (z) = 0.15727 0.46479
#
# Static dielectric constant tensor:
#      x y z
#    x 2.094050 0.000000 0.054720 
#    y 0.000000 1.830020 0.000000 
#    z 0.054720 0.000000 1.868360 
# 
# From -- ./inp_files/2021.got.cif
#   From: 2010.05.17/outbox.cif.g08.bks.cpg/sg9_2_cif.got.tgz:2021.got - 2010.06.03 20:04:27.
