data_PCOD9134764
_publ_section_title
;
Structure prediction by ZEFSAII (Michael W. Deem and Ramdas Pophale) SiO2 
 PCOD9134764
Probable space group: C C
;
_chemical_formula_sum "Si O2"
_cell_formula_units_Z 32
_cell_length_a 8.975672
_cell_length_b 16.585889
_cell_length_c 9.246566
_cell_angle_alpha 90.000000
_cell_angle_beta 83.038176
_cell_angle_gamma 90.000000
_cell_volume 1366.382667
_symmetry_space_group_name_H-M "C C"
_symmetry_group_IT_number 9
_symmetry_cell_setting 'monoclinic'
loop_
_space_group_symop_operation_xyz
x,y,z
x,-y,1/2+z
1/2+x,1/2+y,z
1/2+x,1/2-y,1/2+z
loop_
_atom_site_type_symbol
_atom_site_label
_atom_site_fract_x
_atom_site_fract_y
_atom_site_fract_z
Si Si1 0.423020 0.158962 0.673020
Si Si2 0.768978 0.846278 0.194074
Si Si3 0.610909 0.129781 0.209453
Si Si4 0.013640 0.929905 0.801442
Si Si5 0.318063 0.722592 0.400253
Si Si6 0.272086 0.731674 0.980971
Si Si7 0.368068 0.512990 0.060975
Si Si8 0.811776 0.405536 0.901062
O O1 0.590040 0.140314 0.703266
O O2 0.334578 0.189960 0.824938
O O3 0.400764 0.241117 0.578286
O O4 0.360080 0.092384 0.566051
O O5 0.816348 0.828845 0.351175
O O6 0.852426 0.923257 0.123969
O O7 0.801311 0.776118 0.073995
O O8 0.678873 0.173706 0.344058
O O9 0.628909 0.199736 0.086281
O O10 0.722200 0.063443 0.126884
O O11 0.456338 0.092023 0.280852
O O12 0.171691 0.952992 0.854868
O O13 0.952262 0.839876 0.843084
O O14 0.001930 0.943694 0.631893
O O15 0.896784 0.992297 0.891252
O O16 0.247866 0.814513 0.901378
#
# Coordination Sequence:
#
# PCOD9134764 Si02
#       8
#     4   4   4   4   4   4   4   4
#     4   9  20  36  58  91 121 162 211 265 324 375
#     4  11  19  38  60  93 122 170 218 257 320 398
#     4  10  19  41  62  88 125 173 217 261 319 393
#     4  10  21  41  60  90 124 165 211 270 320 381
#     4   9  18  36  62  83 125 165 202 263 324 381
#     4   9  21  35  59  92 125 160 207 266 331 385
#     4  10  23  39  66  86 124 179 215 258 325 394
#     4  10  21  38  63  89 126 162 215 278 327 361
#
# _framework density 23.419501
#
# number of rings (size 3 to 8) (size 9 to 14) (size 15 to 20)
#    0.750    1.500    1.250    1.500    0.000    3.000 
#    6.750    0.000    0.000    0.000    0.000    0.000 
#    0.000    0.000    0.000    0.000    0.000    0.000 
#
# Total GULP energy -89092.371968 kJ/mol
# GULP energy per Si atom -5568.273248 kJ/mol
# Density = 2.336620 g / cm^3
# Si number density = 23.419501 Si / 1000 Ang^3
#
#
#
# Elastic Constant Matrix: (Units=GPa)
#
#
# Indices 1 2 3 4 5 6 
#
# 1 49.1727 -8.3485 -2.4053 0.0000 1.0249 0.0000
# 2 -8.3485 6.9829 3.1614 0.0000 -0.3461 0.0000
# 3 -2.4053 3.1614 86.8814 0.0000 -11.8595 0.0000
# 4 0.0000 0.0000 0.0000 31.4992 0.0000 2.6933
# 5 1.0249 -0.3461 -11.8595 0.0000 17.3002 0.0000
# 6 0.0000 0.0000 0.0000 2.6933 0.0000 -7.4397
#
#
#
# Elastic Compliance Matrix: (Units=1/GPa)
#
#
# Indices 1 2 3 4 5 6 
#
# 1 0.025557 0.030757 -0.000589 0.000000 -0.001303 0.000000
# 2 0.030757 0.182630 -0.006116 0.000000 -0.002361 0.000000
# 3 -0.000589 -0.006116 0.012913 0.000000 0.008764 0.000000
# 4 0.000000 0.000000 0.000000 0.030794 0.000000 0.011148
# 5 -0.001303 -0.002361 0.008764 0.000000 0.063841 0.000000
# 6 0.000000 0.000000 0.000000 0.011148 0.000000 -0.130379
#
#
# Mechanical properties :
#
#
# Convention : Reuss Voigt Hill
#
# Bulk Modulus (GPa) = 3.71469 14.20580 8.96024
# Shear Modulus (GPa) = 22.02777 18.31391 20.17084
#
# Velocity S-wave (km/s) = 3.07020 2.79945 2.93795
# Velocity P-wave (km/s) = 3.76269 4.06549 3.91701
#
# Compressibility (1/GPa) = 0.26920152
#
# Stress axis : x y z
#
# Youngs Moduli (GPa) = 39.12869 5.47555 77.44418
#
# Poissons Ratio (x) = -0.16841 0.04565
# Poissons Ratio (y) = -1.20347 0.47367
# Poissons Ratio (z) = 0.02307 0.03349
#
# Static dielectric constant tensor:
#      x y z
#    x 1.907680 0.000000 0.007960 
#    y 0.000000 1.909990 0.000000 
#    z 0.007960 0.000000 1.895840 
# 
# From -- ./inp_files/5633.got.cif
#   From: 2010.05.17/outbox.cif.g08.bks.cpg/sg9_3_cif.got.tgz:5633.got - 2010.06.03 20:04:27.
