data_PCOD9134520
_publ_section_title
;
Structure prediction by ZEFSAII (Michael W. Deem and Ramdas Pophale) SiO2 
 PCOD9134520
Probable space group: C C
;
_chemical_formula_sum "Si O2"
_cell_formula_units_Z 28
_cell_length_a 9.527054
_cell_length_b 11.515510
_cell_length_c 14.884604
_cell_angle_alpha 90.000000
_cell_angle_beta 63.091281
_cell_angle_gamma 90.000000
_cell_volume 1456.169124
_symmetry_space_group_name_H-M "C C"
_symmetry_group_IT_number 9
_symmetry_cell_setting 'monoclinic'
loop_
_space_group_symop_operation_xyz
x,y,z
x,-y,1/2+z
1/2+x,1/2+y,z
1/2+x,1/2-y,1/2+z
loop_
_atom_site_type_symbol
_atom_site_label
_atom_site_fract_x
_atom_site_fract_y
_atom_site_fract_z
Si Si1 0.924670 0.404023 0.154930
Si Si2 0.717054 0.153786 0.685418
Si Si3 0.029588 0.171939 0.499140
Si Si4 0.153897 0.230317 0.648565
Si Si5 0.162995 0.091712 0.274072
Si Si6 0.897902 0.926705 0.298821
Si Si7 0.629731 0.085431 0.014474
O O1 0.818703 0.301168 0.145388
O O2 0.801150 0.498580 0.226508
O O3 0.045588 0.368474 0.196807
O O4 0.030136 0.468942 0.049356
O O5 0.720913 0.287327 0.716508
O O6 0.774508 0.077483 0.752869
O O7 0.850529 0.137398 0.570637
O O8 0.124908 0.154720 0.565236
O O9 0.107825 0.113049 0.391765
O O10 0.040291 0.312031 0.486124
O O11 0.143122 0.359646 0.611339
O O12 0.010915 0.186620 0.753009
O O13 0.014497 0.036010 0.265072
O O14 0.797977 0.925227 0.418846
#
# Coordination Sequence:
#
# PCOD9134520 Si02
#       7
#     4   4   4   4   4   4   4
#     4  11  22  36  62  85 114 155 192 226 294 335
#     4  11  21  39  57  88 115 151 189 240 281 341
#     4   9  19  38  62  75 120 150 182 242 289 318
#     4   8  20  37  57  83 114 148 189 238 278 337
#     4  11  21  40  57  86 117 149 192 242 277 344
#     4  10  20  37  61  84 114 155 191 227 296 334
#     4  10  19  37  62  79 114 152 189 233 281 341
#
# _framework density 19.228535000000001
#
# number of rings (size 3 to 8) (size 9 to 14) (size 15 to 20)
#    0.857    1.143    2.857    0.857    0.000    2.286 
#    0.000    7.143    0.000    0.000    0.000    0.000 
#    0.000    0.000    0.000    0.000    0.000    0.000 
#
# Total GULP energy -78010.767761 kJ/mol
# GULP energy per Si atom -5572.197697 kJ/mol
# Density = 1.918477 g / cm^3
# Si number density = 19.228535 Si / 1000 Ang^3
#
#
#
# Elastic Constant Matrix: (Units=GPa)
#
#
# Indices 1 2 3 4 5 6 
#
# 1 123.7239 7.1804 1.3621 0.0000 -4.7665 0.0000
# 2 7.1804 17.1904 -3.6147 0.0000 -1.5109 0.0000
# 3 1.3621 -3.6147 80.0220 0.0000 -23.0592 0.0000
# 4 0.0000 0.0000 0.0000 9.9133 0.0000 -1.5948
# 5 -4.7665 -1.5109 -23.0592 0.0000 19.7646 0.0000
# 6 0.0000 0.0000 0.0000 -1.5948 0.0000 26.5657
#
#
#
# Elastic Compliance Matrix: (Units=1/GPa)
#
#
# Indices 1 2 3 4 5 6 
#
# 1 0.008349 -0.003228 0.000333 0.000000 0.002156 0.000000
# 2 -0.003228 0.061742 0.005995 0.000000 0.010936 0.000000
# 3 0.000333 0.005995 0.019459 0.000000 0.023241 0.000000
# 4 0.000000 0.000000 0.000000 0.101858 0.000000 0.006115
# 5 0.002156 0.010936 0.023241 0.000000 0.079067 0.000000
# 6 0.000000 0.000000 0.000000 0.006115 0.000000 0.038010
#
#
# Mechanical properties :
#
#
# Convention : Reuss Voigt Hill
#
# Bulk Modulus (GPa) = 10.44368 25.64353 18.04361
# Shear Modulus (GPa) = 14.96106 25.64930 20.30518
#
# Velocity S-wave (km/s) = 2.79241 3.65625 3.25313
# Velocity P-wave (km/s) = 3.97993 5.58474 4.84918
#
# Compressibility (1/GPa) = 0.09575171
#
# Stress axis : x y z
#
# Youngs Moduli (GPa) = 119.77167 16.19636 51.39020
#
# Poissons Ratio (x) = 0.05228 -0.01712
# Poissons Ratio (y) = 0.38661 -0.30810
# Poissons Ratio (z) = -0.03991 -0.09710
#
# Static dielectric constant tensor:
#      x y z
#    x 1.673170 0.000000 0.002670 
#    y 0.000000 1.681180 0.000000 
#    z 0.002670 0.000000 1.680590 
# 
# From -- ./inp_files/22616.got.cif
#   From: 2010.05.17/outbox.cif.g08.bks.cpg/sg9_12_cif.got.tgz:22616.got - 2010.06.03 20:04:27.
