data_PCOD9134261
_publ_section_title
;
Structure prediction by ZEFSAII (Michael W. Deem and Ramdas Pophale) SiO2 
 PCOD9134261
Probable space group: C C
;
_chemical_formula_sum "Si O2"
_cell_formula_units_Z 32
_cell_length_a 12.080496
_cell_length_b 29.300165
_cell_length_c 5.041069
_cell_angle_alpha 90.000000
_cell_angle_beta 115.554806
_cell_angle_gamma 90.000000
_cell_volume 1609.782983
_symmetry_space_group_name_H-M "C C"
_symmetry_group_IT_number 9
_symmetry_cell_setting 'monoclinic'
loop_
_space_group_symop_operation_xyz
x,y,z
x,-y,1/2+z
1/2+x,1/2+y,z
1/2+x,1/2-y,1/2+z
loop_
_atom_site_type_symbol
_atom_site_label
_atom_site_fract_x
_atom_site_fract_y
_atom_site_fract_z
Si Si1 0.803780 0.173389 0.089010
Si Si2 0.577482 0.111548 0.805575
Si Si3 0.070954 0.868100 0.951818
Si Si4 0.652910 0.467506 0.950084
Si Si5 0.480061 0.156720 0.204709
Si Si6 0.430995 0.971499 0.328344
Si Si7 0.695723 0.223679 0.475975
Si Si8 0.202223 0.830666 0.586713
O O1 0.760024 0.208772 0.269353
O O2 0.941099 0.156124 0.266849
O O3 0.713397 0.129515 0.005905
O O4 0.774559 0.198551 0.783983
O O5 0.547031 0.120512 0.467556
O O6 0.539540 0.061400 0.852687
O O7 0.493726 0.143090 0.912348
O O8 0.166525 0.845134 0.845629
O O9 0.071975 0.922403 0.900627
O O10 0.115235 0.858223 0.295216
O O11 0.635570 0.505982 0.157144
O O12 0.795635 0.451472 0.126527
O O13 0.558727 0.202473 0.331851
O O14 0.341690 0.158686 0.155288
O O15 0.436176 0.984604 0.641200
O O16 0.686767 0.276937 0.520565
#
# Coordination Sequence:
#
# PCOD9134261 Si02
#       8
#     4   4   4   4   4   4   4   4
#     4  10  23  42  61  82 124 164 199 245 300 368
#     4  10  20  39  58  82 115 154 194 239 297 358
#     4  12  25  40  63  93 121 167 206 250 301 376
#     4  10  21  38  59  87 124 157 197 252 309 354
#     4  10  21  36  60  81 113 153 194 243 294 349
#     4  10  19  32  56  85 113 145 188 251 299 350
#     4  10  23  41  59  86 117 161 199 249 308 343
#     4  12  24  38  62  92 119 155 205 259 294 362
#
# _framework density 19.878454999999999
#
# number of rings (size 3 to 8) (size 9 to 14) (size 15 to 20)
#    0.000    1.500    0.000    5.250    3.500    2.000 
#    0.000    1.250    0.000    0.000    0.000    0.000 
#    0.000    0.000    0.000    0.000    0.000    0.000 
#
# Total GULP energy -89411.021021 kJ/mol
# GULP energy per Si atom -5588.188814 kJ/mol
# Density = 1.983321 g / cm^3
# Si number density = 19.878455 Si / 1000 Ang^3
#
#
#
# Elastic Constant Matrix: (Units=GPa)
#
#
# Indices 1 2 3 4 5 6 
#
# 1 44.6741 -2.4566 -7.7093 0.0000 11.4205 0.0000
# 2 -2.4566 53.1815 -9.4996 0.0000 8.1320 0.0000
# 3 -7.7093 -9.4996 44.5062 0.0000 -9.2129 0.0000
# 4 0.0000 0.0000 0.0000 45.3572 0.0000 187.3476
# 5 11.4205 8.1320 -9.2129 0.0000 28.8925 0.0000
# 6 0.0000 0.0000 0.0000 187.3476 0.0000 1237.0885
#
#
#
# Elastic Compliance Matrix: (Units=1/GPa)
#
#
# Indices 1 2 3 4 5 6 
#
# 1 0.025673 0.003276 0.003056 0.000000 -0.010095 0.000000
# 2 0.003276 0.020520 0.003730 0.000000 -0.005881 0.000000
# 3 0.003056 0.003730 0.024975 0.000000 0.005706 0.000000
# 4 0.000000 0.000000 0.000000 0.058876 0.000000 -0.008916
# 5 -0.010095 -0.005881 0.005706 0.000000 0.042076 0.000000
# 6 0.000000 0.000000 0.000000 -0.008916 0.000000 0.002159
#
#
# Mechanical properties :
#
#
# Convention : Reuss Voigt Hill
#
# Bulk Modulus (GPa) = 10.95383 11.44785 11.20084
# Shear Modulus (GPa) = 27.08760 273.06945 150.07853
#
# Velocity S-wave (km/s) = 3.69543 11.73319 8.69839
# Velocity P-wave (km/s) = 4.87141 13.75967 10.32131
#
# Compressibility (1/GPa) = 0.09129224
#
# Stress axis : x y z
#
# Youngs Moduli (GPa) = 38.95202 48.73203 40.03929
#
# Poissons Ratio (x) = -0.15962 -0.12238
# Poissons Ratio (y) = -0.12759 -0.14934
# Poissons Ratio (z) = -0.11905 -0.18177
#
# Static dielectric constant tensor:
#      x y z
#    x 1.686030 0.000000 -0.000090 
#    y 0.000000 1.121980 0.000000 
#    z -0.000090 0.000000 1.679190 
# 
# From -- ./inp_files/2183.got.cif
#   From: 2010.05.17/outbox.cif.g08.bks.cpg/sg9_2_cif.got.tgz:2183.got - 2010.06.03 20:04:27.
