data_PCOD9134674
_publ_section_title
;
Structure prediction by ZEFSAII (Michael W. Deem and Ramdas Pophale) SiO2 
 PCOD9134674
Probable space group: C C
;
_chemical_formula_sum "Si O2"
_cell_formula_units_Z 28
_cell_length_a 9.862063
_cell_length_b 9.977950
_cell_length_c 25.703335
_cell_angle_alpha 90.000000
_cell_angle_beta 153.609356
_cell_angle_gamma 90.000000
_cell_volume 1124.241213
_symmetry_space_group_name_H-M "C C"
_symmetry_group_IT_number 9
_symmetry_cell_setting 'monoclinic'
loop_
_space_group_symop_operation_xyz
x,y,z
x,-y,1/2+z
1/2+x,1/2+y,z
1/2+x,1/2-y,1/2+z
loop_
_atom_site_type_symbol
_atom_site_label
_atom_site_fract_x
_atom_site_fract_y
_atom_site_fract_z
Si Si1 0.627860 0.140230 0.593940
Si Si2 0.389820 0.687990 0.329322
Si Si3 0.391877 0.477368 0.923932
Si Si4 0.079978 0.542508 0.927128
Si Si5 0.152683 0.734029 0.492914
Si Si6 0.253926 0.663768 0.161804
Si Si7 0.921542 0.254332 0.116680
O O1 0.260708 0.165634 0.460689
O O2 0.762065 0.212183 0.589989
O O3 0.696945 0.200754 0.674555
O O4 0.686465 0.984305 0.618317
O O5 0.238700 0.592153 0.320653
O O6 0.341549 0.841682 0.330810
O O7 0.330992 0.661173 0.248932
O O8 0.221255 0.503240 0.919596
O O9 0.488487 0.624167 0.937797
O O10 0.676805 0.377154 0.032595
O O11 0.985186 0.404108 0.921050
O O12 0.291614 0.621170 0.042319
O O13 0.440337 0.751142 0.553884
O O14 0.477798 0.725920 0.196045
#
# Coordination Sequence:
#
# PCOD9134674 Si02
#       7
#     4   4   4   4   4   4   4
#     4  10  22  42  62  90 130 166 207 263 320 370
#     4  10  24  42  63  94 133 167 210 264 315 377
#     4  10  19  39  64  89 121 171 206 254 319 371
#     4  10  20  38  64  88 122 164 212 254 321 365
#     4  12  20  38  70  88 118 169 211 253 316 374
#     4  12  23  40  67  97 127 167 219 257 315 379
#     4  10  20  37  64  90 125 164 205 263 312 370
#
# _framework density 24.905687
#
# number of rings (size 3 to 8) (size 9 to 14) (size 15 to 20)
#    0.000    1.714    8.571    0.000    0.000    1.143 
#    2.571    0.000    3.143    0.000    0.000    0.000 
#    0.000    0.000    0.000    0.000    0.000    0.000 
#
# Total GULP energy -78182.654650 kJ/mol
# GULP energy per Si atom -5584.475332 kJ/mol
# Density = 2.484900 g / cm^3
# Si number density = 24.905687 Si / 1000 Ang^3
#
#
#
# Elastic Constant Matrix: (Units=GPa)
#
#
# Indices 1 2 3 4 5 6 
#
# 1 159.8740 71.1300 26.0388 0.0001 -51.1717 -0.0001
# 2 71.1300 184.6933 51.0832 -0.0001 -38.0956 0.0000
# 3 26.0388 51.0832 58.8459 0.0026 -28.0522 0.0005
# 4 0.0001 -0.0001 0.0026 15.5027 0.0002 -15.0660
# 5 -51.1717 -38.0956 -28.0522 0.0002 38.5259 0.0001
# 6 -0.0001 0.0000 0.0005 -15.0660 0.0001 49.5590
#
#
#
# Elastic Compliance Matrix: (Units=1/GPa)
#
#
# Indices 1 2 3 4 5 6 
#
# 1 0.012048 -0.002480 0.005026 -0.000002 0.017210 -0.000001
# 2 -0.002480 0.008039 -0.005609 0.000001 0.000570 0.000001
# 3 0.005026 -0.005609 0.030904 -0.000008 0.023632 -0.000003
# 4 -0.000002 0.000001 -0.000008 0.091553 -0.000008 0.027832
# 5 0.017210 0.000570 0.023632 -0.000008 0.066587 -0.000003
# 6 -0.000001 0.000001 -0.000003 0.027832 -0.000003 0.028639
#
#
# Mechanical properties :
#
#
# Convention : Reuss Voigt Hill
#
# Bulk Modulus (GPa) = 22.28906 77.76857 50.02882
# Shear Modulus (GPa) = 19.31608 37.72827 28.52218
#
# Velocity S-wave (km/s) = 2.78792 3.89632 3.38776
# Velocity P-wave (km/s) = 4.39684 7.17877 5.95260
#
# Compressibility (1/GPa) = 0.04486505
#
# Stress axis : x y z
#
# Youngs Moduli (GPa) = 82.99792 124.40025 32.35814
#
# Poissons Ratio (x) = 0.30857 -0.16264
# Poissons Ratio (y) = 0.20587 0.18149
# Poissons Ratio (z) = -0.41716 0.69773
#
# Static dielectric constant tensor:
#      x y z
#    x 1.985660 0.000000 0.011200 
#    y 0.000000 1.940020 0.000000 
#    z 0.011200 0.000000 2.094310 
# 
# From -- ./inp_files/29689.got.cif
#   From: 2010.05.17/outbox.cif.g08.bks.cpg/sg9_15_cif.got.tgz:29689.got - 2010.06.03 20:04:27.
