data_PCOD9134685
_publ_section_title
;
Structure prediction by ZEFSAII (Michael W. Deem and Ramdas Pophale) SiO2 
 PCOD9134685
Probable space group: C C
;
_chemical_formula_sum "Si O2"
_cell_formula_units_Z 28
_cell_length_a 11.313090
_cell_length_b 9.075822
_cell_length_c 13.427304
_cell_angle_alpha 90.000000
_cell_angle_beta 132.614437
_cell_angle_gamma 90.000000
_cell_volume 1014.589774
_symmetry_space_group_name_H-M "C C"
_symmetry_group_IT_number 9
_symmetry_cell_setting 'monoclinic'
loop_
_space_group_symop_operation_xyz
x,y,z
x,-y,1/2+z
1/2+x,1/2+y,z
1/2+x,1/2-y,1/2+z
loop_
_atom_site_type_symbol
_atom_site_label
_atom_site_fract_x
_atom_site_fract_y
_atom_site_fract_z
Si Si1 0.255770 0.175637 0.170280
Si Si2 0.858265 0.319827 0.066433
Si Si3 0.551187 0.488665 0.901859
Si Si4 0.985841 0.574229 0.824962
Si Si5 0.446737 0.134708 0.015545
Si Si6 0.266418 0.403967 0.350402
Si Si7 0.080942 0.187866 0.759996
O O1 0.205047 0.288148 0.229180
O O2 0.425540 0.237340 0.225790
O O3 0.323293 0.020989 0.248907
O O4 0.137003 0.127871 0.012568
O O5 0.671642 0.355451 0.979600
O O6 0.920367 0.479717 0.059715
O O7 0.862921 0.195915 0.985377
O O8 0.933030 0.297865 0.218096
O O9 0.380090 0.484899 0.856061
O O10 0.546549 0.524744 0.782055
O O11 0.036568 0.594370 0.965982
O O12 0.135479 0.514945 0.844683
O O13 0.269376 0.199683 0.893020
O O14 0.548350 0.255404 0.131998
#
# Coordination Sequence:
#
# PCOD9134685 Si02
#       7
#     4   4   4   4   4   4   4
#     4  10  19  42  66  89 130 175 219 280 335 388
#     4  10  21  43  64  91 136 174 220 280 345 389
#     4   9  20  39  69  94 126 177 224 275 336 402
#     4  11  23  39  62  94 131 179 216 273 343 399
#     4  11  22  40  68  96 135 179 221 283 341 403
#     4  11  22  38  67  95 129 177 223 272 333 414
#     4  10  19  39  66  97 123 179 225 265 347 393
#
# _framework density 27.597359999999998
#
# number of rings (size 3 to 8) (size 9 to 14) (size 15 to 20)
#    0.000    1.714    5.714    0.857    2.000    0.000 
#    2.571    0.000    3.143    0.000    0.000    0.000 
#    0.000    0.000    0.000    0.000    0.000    0.000 
#
# Total GULP energy -78189.975635 kJ/mol
# GULP energy per Si atom -5584.998260 kJ/mol
# Density = 2.753455 g / cm^3
# Si number density = 27.597360 Si / 1000 Ang^3
#
#
#
# Elastic Constant Matrix: (Units=GPa)
#
#
# Indices 1 2 3 4 5 6 
#
# 1 161.4553 27.6534 35.0866 0.0000 -16.4612 0.0000
# 2 27.6534 67.0002 9.9460 0.0000 2.4144 0.0000
# 3 35.0866 9.9460 104.1125 0.0000 -10.5052 0.0000
# 4 0.0000 0.0000 0.0000 39.9646 0.0000 7.9593
# 5 -16.4612 2.4144 -10.5052 0.0000 42.1176 0.0000
# 6 0.0000 0.0000 0.0000 7.9593 0.0000 40.7778
#
#
#
# Elastic Compliance Matrix: (Units=1/GPa)
#
#
# Indices 1 2 3 4 5 6 
#
# 1 0.007365 -0.002842 -0.001953 0.000000 0.002554 0.000000
# 2 -0.002842 0.016302 -0.000827 0.000000 -0.002252 0.000000
# 3 -0.001953 -0.000827 0.010535 0.000000 0.001912 0.000000
# 4 0.000000 0.000000 0.000000 0.026034 0.000000 -0.005082
# 5 0.002554 -0.002252 0.001912 0.000000 0.025347 0.000000
# 6 0.000000 0.000000 0.000000 -0.005082 0.000000 0.025515
#
#
# Mechanical properties :
#
#
# Convention : Reuss Voigt Hill
#
# Bulk Modulus (GPa) = 43.55576 53.10444 48.33010
# Shear Modulus (GPa) = 38.46287 41.89747 40.18017
#
# Velocity S-wave (km/s) = 3.73730 3.90060 3.81982
# Velocity P-wave (km/s) = 5.86857 6.29051 6.08320
#
# Compressibility (1/GPa) = 0.02295908
#
# Stress axis : x y z
#
# Youngs Moduli (GPa) = 135.77237 61.34137 94.92154
#
# Poissons Ratio (x) = 0.17434 0.18537
# Poissons Ratio (y) = 0.38587 0.07848
# Poissons Ratio (z) = 0.26515 0.05072
#
# Static dielectric constant tensor:
#      x y z
#    x 2.178950 0.000000 0.022360 
#    y 0.000000 2.259390 0.000000 
#    z 0.022360 0.000000 2.200950 
# 
# From -- ./inp_files/24608.got.cif
#   From: 2010.05.17/outbox.cif.g08.bks.cpg/sg9_13_cif.got.tgz:24608.got - 2010.06.03 20:04:27.
