data_PCOD9134334
_publ_section_title
;
Structure prediction by ZEFSAII (Michael W. Deem and Ramdas Pophale) SiO2 
 PCOD9134334
Probable space group: C C
;
_chemical_formula_sum "Si O2"
_cell_formula_units_Z 28
_cell_length_a 12.091502
_cell_length_b 15.485112
_cell_length_c 8.879091
_cell_angle_alpha 90.000000
_cell_angle_beta 49.527874
_cell_angle_gamma 90.000000
_cell_volume 1264.704278
_symmetry_space_group_name_H-M "C C"
_symmetry_group_IT_number 9
_symmetry_cell_setting 'monoclinic'
loop_
_space_group_symop_operation_xyz
x,y,z
x,-y,1/2+z
1/2+x,1/2+y,z
1/2+x,1/2-y,1/2+z
loop_
_atom_site_type_symbol
_atom_site_label
_atom_site_fract_x
_atom_site_fract_y
_atom_site_fract_z
Si Si1 0.368430 0.398829 0.144640
Si Si2 0.330172 0.770426 0.349863
Si Si3 0.770799 0.607213 0.660692
Si Si4 0.969842 0.045585 0.859479
Si Si5 0.425542 0.030089 0.239632
Si Si6 0.555415 0.887247 0.331634
Si Si7 0.542564 0.359356 0.733589
O O1 0.379877 0.406164 0.311804
O O2 0.220402 0.359154 0.212853
O O3 0.376534 0.495711 0.066734
O O4 0.508155 0.353263 0.944033
O O5 0.329801 0.805286 0.180345
O O6 0.452058 0.818284 0.343141
O O7 0.391032 0.673590 0.295475
O O8 0.178197 0.805670 0.552220
O O9 0.597140 0.604806 0.809751
O O10 0.836585 0.584246 0.440936
O O11 0.823662 0.534196 0.732652
O O12 0.053980 0.962987 0.706518
O O13 0.536702 0.970528 0.238015
O O14 0.498829 0.087389 0.046698
#
# Coordination Sequence:
#
# PCOD9134334 Si02
#       7
#     4   4   4   4   4   4   4
#     4  10  21  35  60  92 124 159 210 260 308 358
#     4  11  22  40  64  87 125 167 208 248 325 380
#     4  10  19  35  62  93 117 164 213 263 301 378
#     4  10  20  35  63  92 123 158 215 263 298 361
#     4   9  18  31  56  90 120 156 213 259 307 356
#     4  10  19  34  58  89 124 163 203 259 308 375
#     4  10  23  38  63  89 123 169 206 254 311 384
#
# _framework density 22.139562999999999
#
# number of rings (size 3 to 8) (size 9 to 14) (size 15 to 20)
#    0.857    1.143    0.000    6.000    2.000    0.000 
#    0.000    0.000    6.286    0.000    0.000    0.000 
#    0.000    0.000    0.000    0.000    0.000    0.000 
#
# Total GULP energy -78068.128353 kJ/mol
# GULP energy per Si atom -5576.294882 kJ/mol
# Density = 2.208917 g / cm^3
# Si number density = 22.139563 Si / 1000 Ang^3
#
#
#
# Elastic Constant Matrix: (Units=GPa)
#
#
# Indices 1 2 3 4 5 6 
#
# 1 114.0847 8.9910 34.4921 0.0000 3.5006 0.0000
# 2 8.9910 34.9471 -0.5396 0.0000 3.9737 0.0000
# 3 34.4921 -0.5396 67.1953 0.0000 9.0790 0.0000
# 4 0.0000 0.0000 0.0000 17.1411 0.0000 -4.5971
# 5 3.5006 3.9737 9.0790 0.0000 37.6068 0.0000
# 6 0.0000 0.0000 0.0000 -4.5971 0.0000 21.0288
#
#
#
# Elastic Compliance Matrix: (Units=1/GPa)
#
#
# Indices 1 2 3 4 5 6 
#
# 1 0.010663 -0.002905 -0.005586 0.000000 0.000663 0.000000
# 2 -0.002905 0.029783 0.002190 0.000000 -0.003405 0.000000
# 3 -0.005586 0.002190 0.018326 0.000000 -0.004136 0.000000
# 4 0.000000 0.000000 0.000000 0.061973 0.000000 0.013548
# 5 0.000663 -0.003405 -0.004136 0.000000 0.027887 0.000000
# 6 0.000000 0.000000 0.000000 0.013548 0.000000 0.050515
#
#
# Mechanical properties :
#
#
# Convention : Reuss Voigt Hill
#
# Bulk Modulus (GPa) = 21.65899 33.56825 27.61362
# Shear Modulus (GPa) = 22.01291 26.70759 24.36025
#
# Velocity S-wave (km/s) = 3.15664 3.47699 3.32068
# Velocity P-wave (km/s) = 4.80521 5.59592 5.21557
#
# Compressibility (1/GPa) = 0.04617021
#
# Stress axis : x y z
#
# Youngs Moduli (GPa) = 93.78249 33.57613 54.56759
#
# Poissons Ratio (x) = 0.09754 0.30483
# Poissons Ratio (y) = 0.27244 -0.11953
# Poissons Ratio (z) = 0.52390 -0.07355
#
# Static dielectric constant tensor:
#      x y z
#    x 1.782170 0.000000 0.000340 
#    y 0.000000 1.869280 0.000000 
#    z 0.000340 0.000000 1.872600 
# 
# From -- ./inp_files/8132.got.cif
#   From: 2010.05.17/outbox.cif.g08.bks.cpg/sg9_5_cif.got.tgz:8132.got - 2010.06.03 20:04:27.
