data_PCOD9134005
_publ_section_title
;
Structure prediction by ZEFSAII (Michael W. Deem and Ramdas Pophale) SiO2 
 PCOD9134005
Probable space group: C C
;
_chemical_formula_sum "Si O2"
_cell_formula_units_Z 28
_cell_length_a 5.499298
_cell_length_b 17.366170
_cell_length_c 12.333613
_cell_angle_alpha 90.000000
_cell_angle_beta 78.336795
_cell_angle_gamma 90.000000
_cell_volume 1153.561639
_symmetry_space_group_name_H-M "C C"
_symmetry_group_IT_number 9
_symmetry_cell_setting 'monoclinic'
loop_
_space_group_symop_operation_xyz
x,y,z
x,-y,1/2+z
1/2+x,1/2+y,z
1/2+x,1/2-y,1/2+z
loop_
_atom_site_type_symbol
_atom_site_label
_atom_site_fract_x
_atom_site_fract_y
_atom_site_fract_z
Si Si1 0.330420 0.740592 0.207000
Si Si2 0.315193 0.965696 0.586629
Si Si3 0.198991 0.058756 0.344665
Si Si4 0.208390 0.476536 0.326091
Si Si5 0.816458 0.192106 0.751886
Si Si6 0.698091 0.358242 0.054162
Si Si7 0.308634 0.425177 0.606686
O O1 0.573819 0.756154 0.255954
O O2 0.362389 0.792621 0.095202
O O3 0.288299 0.653867 0.173824
O O4 0.066777 0.770113 0.278971
O O5 0.262686 0.931413 0.712644
O O6 0.591648 0.936975 0.539833
O O7 0.087981 0.931184 0.539914
O O8 0.281662 0.058102 0.593602
O O9 0.201955 0.130560 0.425653
O O10 0.427008 0.005884 0.367096
O O11 0.924553 0.022060 0.370630
O O12 0.244331 0.385597 0.319211
O O13 0.266218 0.505950 0.196413
O O14 0.927794 0.164598 0.624773
#
# Coordination Sequence:
#
# PCOD9134005 Si02
#       7
#     4   4   4   4   4   4   4
#     4  10  20  31  55  83 103 143 181 221 277 327
#     4  10  20  36  57  80 109 143 186 222 271 327
#     4  10  20  32  57  83 108 138 186 226 268 320
#     4  10  19  36  55  81 107 140 185 225 265 331
#     4  10  19  35  54  83 109 138 186 225 273 324
#     4  10  22  34  59  81 111 145 184 230 273 325
#     4  10  18  34  55  79 105 143 178 221 271 328
#
# _framework density 24.272653999999999
#
# number of rings (size 3 to 8) (size 9 to 14) (size 15 to 20)
#    0.857    1.143    2.857    3.429    2.000    0.000 
#    0.000    0.000    0.000   27.429    0.000    0.000 
#    0.000    0.000    0.000    0.000    0.000    0.000 
#
# Total GULP energy -78162.640004 kJ/mol
# GULP energy per Si atom -5583.045715 kJ/mol
# Density = 2.421741 g / cm^3
# Si number density = 24.272654 Si / 1000 Ang^3
#
#
#
# Elastic Constant Matrix: (Units=GPa)
#
#
# Indices 1 2 3 4 5 6 
#
# 1 226.7386 42.0698 12.8773 0.0000 -11.1861 0.0000
# 2 42.0698 96.8711 -1.6112 0.0000 -0.9788 0.0000
# 3 12.8773 -1.6112 66.0520 0.0000 4.2531 0.0000
# 4 0.0000 0.0000 0.0000 28.5462 0.0000 7.2225
# 5 -11.1861 -0.9788 4.2531 0.0000 35.9831 0.0000
# 6 0.0000 0.0000 0.0000 7.2225 0.0000 36.3548
#
#
#
# Elastic Compliance Matrix: (Units=1/GPa)
#
#
# Indices 1 2 3 4 5 6 
#
# 1 0.004953 -0.002154 -0.001122 0.000000 0.001614 0.000000
# 2 -0.002154 0.011266 0.000724 0.000000 -0.000449 0.000000
# 3 -0.001122 0.000724 0.015515 0.000000 -0.002163 0.000000
# 4 0.000000 0.000000 0.000000 0.036885 0.000000 -0.007328
# 5 0.001614 -0.000449 -0.002163 0.000000 0.028536 0.000000
# 6 0.000000 0.000000 0.000000 -0.007328 0.000000 0.028962
#
#
# Mechanical properties :
#
#
# Convention : Reuss Voigt Hill
#
# Bulk Modulus (GPa) = 37.55148 55.14817 46.34982
# Shear Modulus (GPa) = 35.68916 42.59855 39.14385
#
# Velocity S-wave (km/s) = 3.83867 4.19382 4.02017
# Velocity P-wave (km/s) = 5.92886 6.79856 6.37855
#
# Compressibility (1/GPa) = 0.02663011
#
# Stress axis : x y z
#
# Youngs Moduli (GPa) = 201.88634 88.76475 64.45257
#
# Poissons Ratio (x) = 0.19115 0.07232
# Poissons Ratio (y) = 0.43476 -0.04663
# Poissons Ratio (z) = 0.22654 -0.06422
#
# Static dielectric constant tensor:
#      x y z
#    x 1.999300 0.000000 -0.010800 
#    y 0.000000 1.885740 0.000000 
#    z -0.010800 0.000000 2.080280 
# 
# From -- ./inp_files/21833.got.cif
#   From: 2010.05.17/outbox.cif.g08.bks.cpg/sg9_11_cif.got.tgz:21833.got - 2010.06.03 20:04:27.
