data_PCOD9134394
_publ_section_title
;
Structure prediction by ZEFSAII (Michael W. Deem and Ramdas Pophale) SiO2 
 PCOD9134394
Probable space group: C C
;
_chemical_formula_sum "Si O2"
_cell_formula_units_Z 28
_cell_length_a 12.753417
_cell_length_b 8.477275
_cell_length_c 19.596731
_cell_angle_alpha 90.000000
_cell_angle_beta 146.995389
_cell_angle_gamma 90.000000
_cell_volume 1154.061737
_symmetry_space_group_name_H-M "C C"
_symmetry_group_IT_number 9
_symmetry_cell_setting 'monoclinic'
loop_
_space_group_symop_operation_xyz
x,y,z
x,-y,1/2+z
1/2+x,1/2+y,z
1/2+x,1/2-y,1/2+z
loop_
_atom_site_type_symbol
_atom_site_label
_atom_site_fract_x
_atom_site_fract_y
_atom_site_fract_z
Si Si1 0.945700 0.474391 0.217570
Si Si2 0.084085 0.999787 0.207662
Si Si3 0.493723 0.082425 0.455534
Si Si4 0.238423 0.653637 0.466662
Si Si5 0.981941 0.668973 0.592166
Si Si6 0.561677 0.585815 0.948959
Si Si7 0.023969 0.146824 0.320302
O O1 0.731979 0.546642 0.094657
O O2 0.113671 0.587397 0.336918
O O3 0.059205 0.156757 0.148273
O O4 0.004455 0.424882 0.173870
O O5 0.309989 0.974891 0.342756
O O6 0.431217 0.815369 0.253925
O O7 0.963383 0.870321 0.100436
O O8 0.006037 0.043347 0.241136
O O9 0.650003 0.055877 0.482914
O O10 0.567352 0.083257 0.572570
O O11 0.439108 0.269530 0.412368
O O12 0.175006 0.830612 0.447585
O O13 0.752970 0.680828 0.453169
O O14 0.465374 0.438988 0.858900
#
# Coordination Sequence:
#
# PCOD9134394 Si02
#       7
#     4   4   4   4   4   4   4
#     4  10  19  37  62  96 129 179 219 270 335 401
#     4  10  19  35  62  89 124 171 221 266 328 398
#     4   9  22  36  62  97 124 171 229 270 321 398
#     4  10  22  36  62 101 127 172 222 279 330 380
#     4   9  18  36  59  93 120 173 224 259 320 410
#     4   9  22  36  61 100 130 165 232 273 323 392
#     4   9  18  36  62  90 122 177 215 261 337 399
#
# _framework density 24.262132999999999
#
# number of rings (size 3 to 8) (size 9 to 14) (size 15 to 20)
#    0.857    1.714    1.429    0.000    4.000    1.143 
#    0.000    0.000    0.000   22.286    0.000    0.000 
#    0.000    0.000    0.000    0.000    0.000    0.000 
#
# Total GULP energy -78148.851317 kJ/mol
# GULP energy per Si atom -5582.060808 kJ/mol
# Density = 2.420691 g / cm^3
# Si number density = 24.262133 Si / 1000 Ang^3
#
#
#
# Elastic Constant Matrix: (Units=GPa)
#
#
# Indices 1 2 3 4 5 6 
#
# 1 48.5381 -2.3689 12.0675 0.0000 -19.5941 0.0000
# 2 -2.3689 57.2293 38.4409 0.0001 -8.1021 0.0000
# 3 12.0675 38.4409 117.8265 0.0003 -24.2519 0.0001
# 4 0.0000 0.0001 0.0003 38.8521 0.0001 -5.9551
# 5 -19.5941 -8.1021 -24.2519 0.0001 32.6811 0.0000
# 6 0.0000 0.0000 0.0001 -5.9551 0.0000 24.2038
#
#
#
# Elastic Compliance Matrix: (Units=1/GPa)
#
#
# Indices 1 2 3 4 5 6 
#
# 1 0.027928 0.004014 -0.000612 0.000000 0.017285 0.000000
# 2 0.004014 0.022955 -0.007357 0.000000 0.002638 0.000000
# 3 -0.000612 -0.007357 0.012392 0.000000 0.007005 0.000000
# 4 0.000000 0.000000 0.000000 0.026747 0.000000 0.006581
# 5 0.017285 0.002638 0.007005 0.000000 0.046814 0.000000
# 6 0.000000 0.000000 0.000000 0.006581 0.000000 0.042935
#
#
# Mechanical properties :
#
#
# Convention : Reuss Voigt Hill
#
# Bulk Modulus (GPa) = 18.06188 35.54143 26.80165
# Shear Modulus (GPa) = 24.25569 30.84436 27.55003
#
# Velocity S-wave (km/s) = 3.16529 3.56939 3.37340
# Velocity P-wave (km/s) = 4.56282 5.62745 5.12287
#
# Compressibility (1/GPa) = 0.05536524
#
# Stress axis : x y z
#
# Youngs Moduli (GPa) = 35.80585 43.56326 80.69851
#
# Poissons Ratio (x) = -0.17488 0.04941
# Poissons Ratio (y) = -0.14374 0.59372
# Poissons Ratio (z) = 0.02192 0.32051
#
# Static dielectric constant tensor:
#      x y z
#    x 1.958710 0.000000 0.004000 
#    y 0.000000 1.913570 0.000000 
#    z 0.004000 0.000000 1.955720 
# 
# From -- ./inp_files/30506.got.cif
#   From: 2010.05.17/outbox.cif.g08.bks.cpg/sg9_16_cif.got.tgz:30506.got - 2010.06.03 20:04:27.
