data_PCOD9134904
_publ_section_title
;
Structure prediction by ZEFSAII (Michael W. Deem and Ramdas Pophale) SiO2 
 PCOD9134904
Probable space group: C C
;
_chemical_formula_sum "Si O2"
_cell_formula_units_Z 28
_cell_length_a 6.847625
_cell_length_b 28.052085
_cell_length_c 8.100473
_cell_angle_alpha 90.000000
_cell_angle_beta 54.546217
_cell_angle_gamma 90.000000
_cell_volume 1267.509415
_symmetry_space_group_name_H-M "C C"
_symmetry_group_IT_number 9
_symmetry_cell_setting 'monoclinic'
loop_
_space_group_symop_operation_xyz
x,y,z
x,-y,1/2+z
1/2+x,1/2+y,z
1/2+x,1/2-y,1/2+z
loop_
_atom_site_type_symbol
_atom_site_label
_atom_site_fract_x
_atom_site_fract_y
_atom_site_fract_z
Si Si1 0.668140 0.188224 0.846400
Si Si2 0.189750 0.175663 0.872822
Si Si3 0.688426 0.434457 0.314448
Si Si4 0.666390 0.843764 0.699532
Si Si5 0.424742 0.017036 0.011595
Si Si6 0.177632 0.789589 0.027352
Si Si7 0.668672 0.052516 0.199851
O O1 0.426162 0.183956 0.862789
O O2 0.668548 0.239839 0.935947
O O3 0.919135 0.184783 0.623901
O O4 0.666354 0.151336 0.999339
O O5 0.210704 0.122368 0.785880
O O6 0.182076 0.212490 0.724803
O O7 0.935256 0.177192 0.095900
O O8 0.414739 0.445801 0.482721
O O9 0.824430 0.449924 0.416676
O O10 0.775126 0.469139 0.127067
O O11 0.425436 0.815321 0.858843
O O12 0.648513 0.895567 0.790401
O O13 0.664228 0.991873 0.825116
O O14 0.463404 0.043774 0.164209
#
# Coordination Sequence:
#
# PCOD9134904 Si02
#       7
#     4   4   4   4   4   4   4
#     4  11  23  42  61  90 119 159 209 258 307 363
#     4  10  24  41  65  89 126 164 204 257 308 366
#     4  10  20  38  58  91 121 158 200 241 304 355
#     4  10  22  42  62  89 125 161 203 258 309 361
#     4  10  20  34  60  89 121 156 199 240 294 365
#     4  11  23  43  61  90 120 158 209 258 307 363
#     4  10  20  36  59  86 122 158 196 246 299 355
#
# _framework density 22.090564000000001
#
# number of rings (size 3 to 8) (size 9 to 14) (size 15 to 20)
#    0.000    1.714    1.429    2.571    0.000    3.429 
#    0.000    7.143    0.000    0.000    0.000    0.000 
#    0.000    0.000    0.000    0.000    0.000    0.000 
#
# Total GULP energy -78116.260341 kJ/mol
# GULP energy per Si atom -5579.732882 kJ/mol
# Density = 2.204028 g / cm^3
# Si number density = 22.090564 Si / 1000 Ang^3
#
#
#
# Elastic Constant Matrix: (Units=GPa)
#
#
# Indices 1 2 3 4 5 6 
#
# 1 125.7789 21.5432 31.0935 0.0000 -30.7354 0.0000
# 2 21.5432 76.1774 24.8572 0.0000 -14.3363 0.0000
# 3 31.0935 24.8572 79.6312 0.0000 -26.9294 0.0000
# 4 0.0000 0.0000 0.0000 25.3386 0.0000 -2.3255
# 5 -30.7354 -14.3363 -26.9294 0.0000 34.3796 0.0000
# 6 0.0000 0.0000 0.0000 -2.3255 0.0000 22.2470
#
#
#
# Elastic Compliance Matrix: (Units=1/GPa)
#
#
# Indices 1 2 3 4 5 6 
#
# 1 0.010340 -0.001094 -0.000985 0.000000 0.008016 0.000000
# 2 -0.001094 0.015035 -0.003369 0.000000 0.002653 0.000000
# 3 -0.000985 -0.003369 0.017986 0.000000 0.011802 0.000000
# 4 0.000000 0.000000 0.000000 0.039848 0.000000 0.004165
# 5 0.008016 0.002653 0.011802 0.000000 0.046604 0.000000
# 6 0.000000 0.000000 0.000000 0.004165 0.000000 0.045385
#
#
# Mechanical properties :
#
#
# Convention : Reuss Voigt Hill
#
# Bulk Modulus (GPa) = 30.80297 48.50836 39.65567
# Shear Modulus (GPa) = 25.39146 29.99927 27.69536
#
# Velocity S-wave (km/s) = 3.39400 3.68912 3.54463
# Velocity P-wave (km/s) = 5.41601 6.33661 5.89431
#
# Compressibility (1/GPa) = 0.03246441
#
# Stress axis : x y z
#
# Youngs Moduli (GPa) = 96.70938 66.51049 55.60029
#
# Poissons Ratio (x) = 0.07277 0.05477
# Poissons Ratio (y) = 0.10582 0.18732
# Poissons Ratio (z) = 0.09526 0.22408
#
# Static dielectric constant tensor:
#      x y z
#    x 1.819990 0.000000 -0.019990 
#    y 0.000000 1.840350 0.000000 
#    z -0.019990 0.000000 1.844130 
# 
# From -- ./inp_files/4266.got.cif
#   From: 2010.05.17/outbox.cif.g08.bks.cpg/sg9_3_cif.got.tgz:4266.got - 2010.06.03 20:04:27.
