data_PCOD9134113
_publ_section_title
;
Structure prediction by ZEFSAII (Michael W. Deem and Ramdas Pophale) SiO2 
 PCOD9134113
Probable space group: C C
;
_chemical_formula_sum "Si O2"
_cell_formula_units_Z 32
_cell_length_a 9.677356
_cell_length_b 16.583347
_cell_length_c 8.560888
_cell_angle_alpha 90.000000
_cell_angle_beta 70.558155
_cell_angle_gamma 90.000000
_cell_volume 1295.537890
_symmetry_space_group_name_H-M "C C"
_symmetry_group_IT_number 9
_symmetry_cell_setting 'monoclinic'
loop_
_space_group_symop_operation_xyz
x,y,z
x,-y,1/2+z
1/2+x,1/2+y,z
1/2+x,1/2-y,1/2+z
loop_
_atom_site_type_symbol
_atom_site_label
_atom_site_fract_x
_atom_site_fract_y
_atom_site_fract_z
Si Si1 0.051460 0.917792 0.165760
Si Si2 0.210436 0.590718 0.736943
Si Si3 0.104286 0.912748 0.782969
Si Si4 0.523666 0.991866 0.570172
Si Si5 0.701768 0.740571 0.073033
Si Si6 0.462131 0.114094 0.367855
Si Si7 0.803740 0.158010 0.266538
Si Si8 0.452405 0.714081 0.931809
O O1 0.049830 0.839576 0.279682
O O2 0.876400 0.932317 0.212296
O O3 0.120432 0.995255 0.222810
O O4 0.110994 0.904295 0.968162
O O5 0.151554 0.538529 0.614692
O O6 0.212666 0.685039 0.688856
O O7 0.098244 0.566378 0.915303
O O8 0.202203 0.846556 0.653839
O O9 0.936348 0.892571 0.790139
O O10 0.437653 0.939108 0.726400
O O11 0.422165 0.059890 0.530314
O O12 0.801328 0.764098 0.885196
O O13 0.544514 0.742044 0.047979
O O14 0.638901 0.123378 0.327828
O O15 0.401472 0.203371 0.374800
O O16 0.828049 0.166983 0.070752
#
# Coordination Sequence:
#
# PCOD9134113 Si02
#       8
#     4   4   4   4   4   4   4   4
#     4  12  22  37  61  94 122 155 207 264 306 359
#     4  11  19  35  57  94 119 157 189 250 312 352
#     4  11  22  36  61  91 124 154 205 254 311 362
#     4  10  19  30  58  82 120 143 191 239 301 359
#     4  10  21  38  56  86 125 166 191 245 312 367
#     4  10  19  35  54  88 111 155 187 245 305 354
#     4  10  18  37  56  84 122 156 192 244 297 366
#     4  10  22  36  57  85 121 160 202 251 300 365
#
# _framework density 24.700167
#
# number of rings (size 3 to 8) (size 9 to 14) (size 15 to 20)
#    0.000    1.500    3.750    4.500    1.750    0.000 
#    0.000    0.000    0.000    4.500    0.000    0.000 
#    0.000    0.000    0.000    0.000    0.000    0.000 
#
# Total GULP energy -89433.955773 kJ/mol
# GULP energy per Si atom -5589.622236 kJ/mol
# Density = 2.464395 g / cm^3
# Si number density = 24.700167 Si / 1000 Ang^3
#
#
#
# Elastic Constant Matrix: (Units=GPa)
#
#
# Indices 1 2 3 4 5 6 
#
# 1 68.4355 22.7164 4.1950 0.0000 3.3510 0.0000
# 2 22.7164 183.8756 94.0963 0.0000 18.2731 0.0000
# 3 4.1950 94.0963 129.4873 0.0000 8.8902 0.0000
# 4 0.0000 0.0000 0.0000 44.2962 0.0000 7.4665
# 5 3.3510 18.2731 8.8902 0.0000 25.7381 0.0000
# 6 0.0000 0.0000 0.0000 7.4665 0.0000 33.7107
#
#
#
# Elastic Compliance Matrix: (Units=1/GPa)
#
#
# Indices 1 2 3 4 5 6 
#
# 1 0.015407 -0.002554 0.001404 0.000000 -0.000677 0.000000
# 2 -0.002554 0.009519 -0.006549 0.000000 -0.004164 0.000000
# 3 0.001404 -0.006549 0.012424 0.000000 0.000175 0.000000
# 4 0.000000 0.000000 0.000000 0.023451 0.000000 -0.005194
# 5 -0.000677 -0.004164 0.000175 0.000000 0.041837 0.000000
# 6 0.000000 0.000000 0.000000 -0.005194 0.000000 0.030815
#
#
# Mechanical properties :
#
#
# Convention : Reuss Voigt Hill
#
# Bulk Modulus (GPa) = 45.55519 69.31266 57.43393
# Shear Modulus (GPa) = 32.01667 38.13505 35.07586
#
# Velocity S-wave (km/s) = 3.60420 3.93354 3.77246
# Velocity P-wave (km/s) = 5.98362 6.98232 6.50217
#
# Compressibility (1/GPa) = 0.02195140
#
# Stress axis : x y z
#
# Youngs Moduli (GPa) = 64.90417 105.05255 80.48860
#
# Poissons Ratio (x) = 0.26835 -0.11297
# Poissons Ratio (y) = 0.16579 0.52710
# Poissons Ratio (z) = -0.09110 0.68796
#
# Static dielectric constant tensor:
#      x y z
#    x 2.007820 0.000000 -0.019480 
#    y 0.000000 2.052560 0.000000 
#    z -0.019480 0.000000 1.997940 
# 
# From -- ./inp_files/7588.got.cif
#   From: 2010.05.17/outbox.cif.g08.bks.cpg/sg9_4_cif.got.tgz:7588.got - 2010.06.03 20:04:27.
