data_PCOD9134898
_publ_section_title
;
Structure prediction by ZEFSAII (Michael W. Deem and Ramdas Pophale) SiO2 
 PCOD9134898
Probable space group: C C
;
_chemical_formula_sum "Si O2"
_cell_formula_units_Z 28
_cell_length_a 8.491899
_cell_length_b 16.637536
_cell_length_c 10.014130
_cell_angle_alpha 90.000000
_cell_angle_beta 104.771601
_cell_angle_gamma 90.000000
_cell_volume 1368.078502
_symmetry_space_group_name_H-M "C C"
_symmetry_group_IT_number 9
_symmetry_cell_setting 'monoclinic'
loop_
_space_group_symop_operation_xyz
x,y,z
x,-y,1/2+z
1/2+x,1/2+y,z
1/2+x,1/2-y,1/2+z
loop_
_atom_site_type_symbol
_atom_site_label
_atom_site_fract_x
_atom_site_fract_y
_atom_site_fract_z
Si Si1 0.325390 0.854984 0.439650
Si Si2 0.901262 0.932191 0.552600
Si Si3 0.672222 0.293708 0.652196
Si Si4 0.318231 0.105868 0.417696
Si Si5 0.053858 0.512775 0.068708
Si Si6 0.999217 0.640310 0.706803
Si Si7 0.051723 0.027332 0.816772
O O1 0.260334 0.789869 0.528104
O O2 0.445664 0.838655 0.344264
O O3 0.170757 0.897032 0.337948
O O4 0.411973 0.921705 0.552269
O O5 0.009728 0.851190 0.601798
O O6 0.920040 0.953450 0.401458
O O7 0.715989 0.940097 0.562792
O O8 0.987164 0.000839 0.660365
O O9 0.784607 0.334930 0.789063
O O10 0.628308 0.205387 0.689129
O O11 0.478817 0.048803 0.440632
O O12 0.350892 0.147237 0.567592
O O13 0.164240 0.046663 0.390605
O O14 0.060816 0.450818 0.194242
#
# Coordination Sequence:
#
# PCOD9134898 Si02
#       7
#     4   4   4   4   4   4   4
#     4  10  21  39  67  84 121 175 206 244 320 377
#     4  10  20  34  59  91 119 149 208 261 293 356
#     4  10  22  42  61  90 128 166 204 258 318 374
#     4   8  19  38  61  81 128 161 200 242 319 363
#     4   9  22  36  66  89 121 156 216 255 300 361
#     4  10  22  41  63  89 125 164 213 252 309 371
#     4   9  18  34  59  88 114 155 201 250 301 358
#
# _framework density 20.466660999999998
#
# number of rings (size 3 to 8) (size 9 to 14) (size 15 to 20)
#    0.857    1.714    0.000    0.857    8.000    1.143 
#    7.714    1.429    0.000    0.000    0.000    0.000 
#    0.000    0.000    0.000    0.000    0.000    0.000 
#
# Total GULP energy -77942.036225 kJ/mol
# GULP energy per Si atom -5567.288302 kJ/mol
# Density = 2.042008 g / cm^3
# Si number density = 20.466661 Si / 1000 Ang^3
#
#
#
# Elastic Constant Matrix: (Units=GPa)
#
#
# Indices 1 2 3 4 5 6 
#
# 1 62.6282 4.7258 25.0845 0.0000 -8.3292 0.0000
# 2 4.7258 35.9151 35.4850 0.0000 -16.2360 0.0000
# 3 25.0845 35.4850 86.3998 0.0000 -18.9268 0.0000
# 4 0.0000 0.0000 0.0000 15.0526 0.0000 -6.2509
# 5 -8.3292 -16.2360 -18.9268 0.0000 37.7553 0.0000
# 6 0.0000 0.0000 0.0000 -6.2509 0.0000 4.7774
#
#
#
# Elastic Compliance Matrix: (Units=1/GPa)
#
#
# Indices 1 2 3 4 5 6 
#
# 1 0.018851 0.006173 -0.007320 0.000000 0.003144 0.000000
# 2 0.006173 0.054076 -0.020905 0.000000 0.014137 0.000000
# 3 -0.007320 -0.020905 0.022424 0.000000 0.000637 0.000000
# 4 0.000000 0.000000 0.000000 0.145482 0.000000 0.190355
# 5 0.003144 0.014137 0.000637 0.000000 0.033578 0.000000
# 6 0.000000 0.000000 0.000000 0.190355 0.000000 0.458390
#
#
# Mechanical properties :
#
#
# Convention : Reuss Voigt Hill
#
# Bulk Modulus (GPa) = 19.51273 35.05931 27.28602
# Shear Modulus (GPa) = 6.29732 19.49357 12.89545
#
# Velocity S-wave (km/s) = 1.75600 3.08954 2.51284
# Velocity P-wave (km/s) = 3.69676 5.46755 4.66691
#
# Compressibility (1/GPa) = 0.05124858
#
# Stress axis : x y z
#
# Youngs Moduli (GPa) = 53.04673 18.49236 44.59409
#
# Poissons Ratio (x) = -0.11415 0.32641
# Poissons Ratio (y) = -0.32744 0.93223
# Poissons Ratio (z) = 0.38828 0.38658
#
# Static dielectric constant tensor:
#      x y z
#    x 1.768990 0.000000 0.024270 
#    y 0.000000 1.718070 0.000000 
#    z 0.024270 0.000000 1.748480 
# 
# From -- ./inp_files/5362.got.cif
#   From: 2010.05.17/outbox.cif.g08.bks.cpg/sg9_3_cif.got.tgz:5362.got - 2010.06.03 20:04:27.
