data_PCOD9134669
_publ_section_title
;
Structure prediction by ZEFSAII (Michael W. Deem and Ramdas Pophale) SiO2 
 PCOD9134669
Probable space group: C C
;
_chemical_formula_sum "Si O2"
_cell_formula_units_Z 32
_cell_length_a 11.784198
_cell_length_b 9.762346
_cell_length_c 12.099583
_cell_angle_alpha 90.000000
_cell_angle_beta 108.693510
_cell_angle_gamma 90.000000
_cell_volume 1318.522908
_symmetry_space_group_name_H-M "C C"
_symmetry_group_IT_number 9
_symmetry_cell_setting 'monoclinic'
loop_
_space_group_symop_operation_xyz
x,y,z
x,-y,1/2+z
1/2+x,1/2+y,z
1/2+x,1/2-y,1/2+z
loop_
_atom_site_type_symbol
_atom_site_label
_atom_site_fract_x
_atom_site_fract_y
_atom_site_fract_z
Si Si1 0.120750 0.694959 0.979630
Si Si2 0.712400 0.589653 0.023618
Si Si3 0.836988 0.302760 0.126465
Si Si4 0.000400 0.875754 0.129238
Si Si5 0.373537 0.066830 0.872419
Si Si6 0.340976 0.771218 0.757221
Si Si7 0.034149 0.856902 0.751599
Si Si8 0.929453 0.024332 0.907601
O O1 0.118602 0.775415 0.861659
O O2 0.015311 0.584909 0.941536
O O3 0.255377 0.677229 0.060568
O O4 0.076976 0.791355 0.066706
O O5 0.780906 0.442272 0.060364
O O6 0.738754 0.688000 0.136375
O O7 0.787726 0.630926 0.938990
O O8 0.570126 0.574448 0.959676
O O9 0.843972 0.344841 0.255704
O O10 0.971895 0.249126 0.148460
O O11 0.947100 0.777696 0.206211
O O12 0.073602 0.002571 0.205665
O O13 0.906192 0.948464 0.016115
O O14 0.357972 0.908560 0.833554
O O15 0.341427 0.643810 0.841361
O O16 0.935599 0.918317 0.807313
#
# Coordination Sequence:
#
# PCOD9134669 Si02
#       8
#     4   4   4   4   4   4   4   4
#     4  10  19  40  60  85 121 162 200 251 313 362
#     4  11  21  38  65  89 120 167 202 253 308 367
#     4  10  21  36  61  87 116 163 209 242 313 374
#     4  10  19  39  64  85 122 164 194 259 301 365
#     4  10  23  37  61  91 123 159 207 261 303 362
#     4  10  23  39  60  94 124 155 211 254 298 369
#     4   9  20  35  58  87 115 152 207 246 293 363
#     4  10  22  40  63  90 121 164 206 246 309 372
#
# _framework density 24.269580000000001
#
# number of rings (size 3 to 8) (size 9 to 14) (size 15 to 20)
#    0.000    2.000    3.750    0.000    5.250    0.000 
#    4.500    0.000    0.000    0.000    0.000    0.000 
#    0.000    0.000    0.000    0.000    0.000    0.000 
#
# Total GULP energy -89204.693881 kJ/mol
# GULP energy per Si atom -5575.293368 kJ/mol
# Density = 2.421434 g / cm^3
# Si number density = 24.269580 Si / 1000 Ang^3
#
#
#
# Elastic Constant Matrix: (Units=GPa)
#
#
# Indices 1 2 3 4 5 6 
#
# 1 67.2089 28.4631 29.5834 0.0000 7.0692 0.0000
# 2 28.4631 81.1288 22.1136 0.0000 1.8635 0.0000
# 3 29.5834 22.1136 81.2612 0.0000 -0.4537 0.0000
# 4 0.0000 0.0000 0.0000 51.6418 0.0000 1.2376
# 5 7.0692 1.8635 -0.4537 0.0000 30.3496 0.0000
# 6 0.0000 0.0000 0.0000 1.2376 0.0000 37.4063
#
#
#
# Elastic Compliance Matrix: (Units=1/GPa)
#
#
# Indices 1 2 3 4 5 6 
#
# 1 0.020238 -0.005382 -0.005928 0.000000 -0.004472 0.000000
# 2 -0.005382 0.014768 -0.002058 0.000000 0.000316 0.000000
# 3 -0.005928 -0.002058 0.015034 0.000000 0.001732 0.000000
# 4 0.000000 0.000000 0.000000 0.019380 0.000000 -0.000641
# 5 -0.004472 0.000316 0.001732 0.000000 0.033997 0.000000
# 6 0.000000 0.000000 0.000000 -0.000641 0.000000 0.026755
#
#
# Mechanical properties :
#
#
# Convention : Reuss Voigt Hill
#
# Bulk Modulus (GPa) = 42.91041 43.32434 43.11737
# Shear Modulus (GPa) = 30.36293 33.84213 32.10253
#
# Velocity S-wave (km/s) = 3.54088 3.73825 3.64091
# Velocity P-wave (km/s) = 5.86824 6.04341 5.95647
#
# Compressibility (1/GPa) = 0.02330437
#
# Stress axis : x y z
#
# Youngs Moduli (GPa) = 49.41223 67.71485 66.51676
#
# Poissons Ratio (x) = 0.36442 0.39432
# Poissons Ratio (y) = 0.26592 0.13688
# Poissons Ratio (z) = 0.29292 0.13934
#
# Static dielectric constant tensor:
#      x y z
#    x 2.077630 0.000000 -0.001200 
#    y 0.000000 2.011690 0.000000 
#    z -0.001200 0.000000 1.969780 
# 
# From -- ./inp_files/16591.got.cif
#   From: 2010.05.17/outbox.cif.g08.bks.cpg/sg9_9_cif.got.tgz:16591.got - 2010.06.03 20:04:27.
