data_PCOD9134228
_publ_section_title
;
Structure prediction by ZEFSAII (Michael W. Deem and Ramdas Pophale) SiO2 
 PCOD9134228
Probable space group: C C
;
_chemical_formula_sum "Si O2"
_cell_formula_units_Z 32
_cell_length_a 23.903190
_cell_length_b 7.165605
_cell_length_c 22.852918
_cell_angle_alpha 90.000000
_cell_angle_beta 163.272454
_cell_angle_gamma 90.000000
_cell_volume 1126.608005
_symmetry_space_group_name_H-M "C C"
_symmetry_group_IT_number 9
_symmetry_cell_setting 'monoclinic'
loop_
_space_group_symop_operation_xyz
x,y,z
x,-y,1/2+z
1/2+x,1/2+y,z
1/2+x,1/2-y,1/2+z
loop_
_atom_site_type_symbol
_atom_site_label
_atom_site_fract_x
_atom_site_fract_y
_atom_site_fract_z
Si Si1 0.463540 0.568819 0.697140
Si Si2 0.001945 0.663338 0.790687
Si Si3 0.571127 0.039250 0.738383
Si Si4 0.349237 0.423994 0.195632
Si Si5 0.189522 0.888608 0.302602
Si Si6 0.801530 0.973987 0.371114
Si Si7 0.733092 0.397824 0.136137
Si Si8 0.615714 0.982750 0.063276
O O1 0.534981 0.378694 0.801223
O O2 0.432771 0.695897 0.724637
O O3 0.591624 0.621950 0.769600
O O4 0.256087 0.547821 0.458105
O O5 0.862553 0.623557 0.706278
O O6 0.947481 0.590179 0.672088
O O7 0.199942 0.565442 0.011955
O O8 0.401951 0.967140 0.526686
O O9 0.706879 0.151979 0.827858
O O10 0.528755 0.513472 0.411607
O O11 0.203964 0.354024 0.100143
O O12 0.227320 0.684975 0.312662
O O13 0.032639 0.000967 0.107054
O O14 0.713699 0.924649 0.221329
O O15 0.683604 0.196699 0.115630
O O16 0.882884 0.504607 0.328670
#
# Coordination Sequence:
#
# PCOD9134228 Si02
#       8
#     4   4   4   4   4   4   4   4
#     4  10  21  33  52  82 112 138 178 218 277 323
#     4  10  21  35  53  82 122 134 171 220 271 338
#     4  10  23  34  53  74 108 152 179 220 266 314
#     4  10  19  31  48  81 114 142 163 209 278 328
#     4  11  22  36  55  70 106 155 183 224 258 312
#     4  11  23  39  50  76 113 149 191 212 255 324
#     4  11  19  27  49  81 107 146 162 208 283 320
#     4  11  20  29  50  74 110 144 167 221 266 325
#
# _framework density 28.403842999999998
#
# number of rings (size 3 to 8) (size 9 to 14) (size 15 to 20)
#    0.000    1.500    3.750    2.250    5.250    0.000 
#    0.000    0.000    0.000    0.000    0.000    0.000 
#   33.750    0.000    1.500    0.000    0.000    0.000 
#
# Total GULP energy -89269.079178 kJ/mol
# GULP energy per Si atom -5579.317449 kJ/mol
# Density = 2.833919 g / cm^3
# Si number density = 28.403843 Si / 1000 Ang^3
#
#
#
# Elastic Constant Matrix: (Units=GPa)
#
#
# Indices 1 2 3 4 5 6 
#
# 1 76.9293 -0.7567 29.7863 0.0023 -23.8602 0.0003
# 2 -0.7567 74.1401 49.2404 0.0033 3.0225 0.0021
# 3 29.7863 49.2404 221.6077 0.0053 -11.1348 0.0036
# 4 0.0023 0.0033 0.0053 12.5231 0.0042 -10.4853
# 5 -23.8602 3.0225 -11.1348 0.0042 69.6485 0.0020
# 6 0.0003 0.0021 0.0036 -10.4853 0.0020 25.3086
#
#
#
# Elastic Compliance Matrix: (Units=1/GPa)
#
#
# Indices 1 2 3 4 5 6 
#
# 1 0.015340 0.001368 -0.002122 -0.000007 0.004857 -0.000003
# 2 0.001368 0.016055 -0.003793 -0.000005 -0.000835 -0.000003
# 3 -0.002122 -0.003793 0.005658 -0.000002 0.000342 -0.000001
# 4 -0.000007 -0.000005 -0.000002 0.122263 -0.000011 0.050653
# 5 0.004857 -0.000835 0.000342 -0.000011 0.016113 -0.000006
# 6 -0.000003 -0.000003 -0.000001 0.050653 -0.000006 0.060498
#
#
# Mechanical properties :
#
#
# Convention : Reuss Voigt Hill
#
# Bulk Modulus (GPa) = 35.76693 58.80191 47.28442
# Shear Modulus (GPa) = 19.65871 41.12318 30.39095
#
# Velocity S-wave (km/s) = 2.63366 3.80913 3.27457
# Velocity P-wave (km/s) = 4.67631 6.33190 5.56601
#
# Compressibility (1/GPa) = 0.02795879
#
# Stress axis : x y z
#
# Youngs Moduli (GPa) = 65.18789 62.28502 176.75041
#
# Poissons Ratio (x) = -0.08519 0.37502
# Poissons Ratio (y) = -0.08916 0.67045
# Poissons Ratio (z) = 0.13831 0.23626
#
# Static dielectric constant tensor:
#      x y z
#    x 2.351190 0.000000 0.038180 
#    y 0.000000 2.677950 0.000000 
#    z 0.038180 0.000000 2.135670 
# 
# From -- ./inp_files/31463.got.cif
#   From: 2010.05.17/outbox.cif.g08.bks.cpg/sg9_16_cif.got.tgz:31463.got - 2010.06.03 20:04:27.
