data_PCOD9134235
_publ_section_title
;
Structure prediction by ZEFSAII (Michael W. Deem and Ramdas Pophale) SiO2 
 PCOD9134235
Probable space group: C C
;
_chemical_formula_sum "Si O2"
_cell_formula_units_Z 32
_cell_length_a 23.729978
_cell_length_b 7.296318
_cell_length_c 9.151036
_cell_angle_alpha 90.000000
_cell_angle_beta 57.085224
_cell_angle_gamma 90.000000
_cell_volume 1330.091695
_symmetry_space_group_name_H-M "C C"
_symmetry_group_IT_number 9
_symmetry_cell_setting 'monoclinic'
loop_
_space_group_symop_operation_xyz
x,y,z
x,-y,1/2+z
1/2+x,1/2+y,z
1/2+x,1/2-y,1/2+z
loop_
_atom_site_type_symbol
_atom_site_label
_atom_site_fract_x
_atom_site_fract_y
_atom_site_fract_z
Si Si1 0.448610 0.639246 0.392710
Si Si2 0.176467 0.228866 0.123819
Si Si3 0.947897 0.251046 0.735760
Si Si4 0.594963 0.783561 0.507314
Si Si5 0.816814 0.774676 0.539174
Si Si6 0.325415 0.658412 0.372211
Si Si7 0.663549 0.705587 0.680972
Si Si8 0.078574 0.162355 0.036481
O O1 0.443807 0.677485 0.572472
O O2 0.451155 0.422448 0.344504
O O3 0.387221 0.720936 0.385883
O O4 0.517056 0.711214 0.224740
O O5 0.131060 0.332509 0.305521
O O6 0.144682 0.255849 0.011032
O O7 0.164731 0.013107 0.159619
O O8 0.254604 0.262146 0.023118
O O9 0.019569 0.355065 0.638698
O O10 0.878210 0.346602 0.885388
O O11 0.652705 0.812048 0.545925
O O12 0.583027 0.559882 0.523374
O O13 0.832056 0.811906 0.689122
O O14 0.737910 0.731271 0.640598
O O15 0.821140 0.946060 0.422262
O O16 0.589463 0.732298 0.858629
#
# Coordination Sequence:
#
# PCOD9134235 Si02
#       8
#     4   4   4   4   4   4   4   4
#     4  10  19  31  52  77 109 141 178 226 271 315
#     4  10  19  37  56  82 106 140 180 226 274 317
#     4  10  19  32  50  79 109 140 180 224 269 317
#     4   9  19  29  56  81 106 134 177 230 273 311
#     4  11  23  37  53  81 113 147 182 220 269 327
#     4  11  23  36  55  79 114 148 180 220 271 324
#     4  10  21  35  58  82 108 140 181 226 271 320
#     4   9  17  33  52  81 107 134 180 228 270 311
#
# _framework density 24.058489999999999
#
# number of rings (size 3 to 8) (size 9 to 14) (size 15 to 20)
#    0.000    2.000    2.500    3.000   10.500    0.000 
#    0.000    0.000    0.000    3.000    0.000    0.000 
#    0.000    0.000    0.000    0.000    0.000    0.000 
#
# Total GULP energy -89117.239788 kJ/mol
# GULP energy per Si atom -5569.827487 kJ/mol
# Density = 2.400373 g / cm^3
# Si number density = 24.058490 Si / 1000 Ang^3
#
#
#
# Elastic Constant Matrix: (Units=GPa)
#
#
# Indices 1 2 3 4 5 6 
#
# 1 129.5239 -16.6569 65.5461 0.0000 -8.3475 0.0000
# 2 -16.6569 46.1744 -15.7122 0.0000 -11.5417 0.0000
# 3 65.5461 -15.7122 292.8646 0.0000 46.6904 0.0000
# 4 0.0000 0.0000 0.0000 12.4714 0.0000 -6.7846
# 5 -8.3475 -11.5417 46.6904 0.0000 95.5340 0.0000
# 6 0.0000 0.0000 0.0000 -6.7846 0.0000 14.0318
#
#
#
# Elastic Compliance Matrix: (Units=1/GPa)
#
#
# Indices 1 2 3 4 5 6 
#
# 1 0.009458 0.003210 -0.002319 0.000000 0.002347 0.000000
# 2 0.003210 0.023609 0.000053 0.000000 0.003107 0.000000
# 3 -0.002319 0.000053 0.004303 0.000000 -0.002299 0.000000
# 4 0.000000 0.000000 0.000000 0.108803 0.000000 0.052608
# 5 0.002347 0.003107 -0.002299 0.000000 0.012172 0.000000
# 6 0.000000 0.000000 0.000000 0.052608 0.000000 0.096703
#
#
# Mechanical properties :
#
#
# Convention : Reuss Voigt Hill
#
# Bulk Modulus (GPa) = 25.47256 59.43523 42.45389
# Shear Modulus (GPa) = 18.77954 53.43315 36.10635
#
# Velocity S-wave (km/s) = 2.79691 4.71783 3.87818
# Velocity P-wave (km/s) = 4.58705 7.37803 6.14314
#
# Compressibility (1/GPa) = 0.03925793
#
# Stress axis : x y z
#
# Youngs Moduli (GPa) = 105.72933 42.35592 232.39974
#
# Poissons Ratio (x) = -0.13595 0.53891
# Poissons Ratio (y) = -0.33935 -0.01231
# Poissons Ratio (z) = 0.24517 -0.00224
#
# Static dielectric constant tensor:
#      x y z
#    x 2.000130 0.000000 -0.044020 
#    y 0.000000 2.013050 0.000000 
#    z -0.044020 0.000000 1.875320 
# 
# From -- ./inp_files/10636.got.cif
#   From: 2010.05.17/outbox.cif.g08.bks.cpg/sg9_6_cif.got.tgz:10636.got - 2010.06.03 20:04:27.
