data_PCOD9134463
_publ_section_title
;
Structure prediction by ZEFSAII (Michael W. Deem and Ramdas Pophale) SiO2 
 PCOD9134463
Probable space group: C C
;
_chemical_formula_sum "Si O2"
_cell_formula_units_Z 28
_cell_length_a 5.165164
_cell_length_b 30.769866
_cell_length_c 6.989848
_cell_angle_alpha 90.000000
_cell_angle_beta 78.625388
_cell_angle_gamma 90.000000
_cell_volume 1089.086669
_symmetry_space_group_name_H-M "C C"
_symmetry_group_IT_number 9
_symmetry_cell_setting 'monoclinic'
loop_
_space_group_symop_operation_xyz
x,y,z
x,-y,1/2+z
1/2+x,1/2+y,z
1/2+x,1/2-y,1/2+z
loop_
_atom_site_type_symbol
_atom_site_label
_atom_site_fract_x
_atom_site_fract_y
_atom_site_fract_z
Si Si1 0.745200 0.301529 0.613230
Si Si2 0.534073 0.463051 0.295869
Si Si3 0.838688 0.793031 0.996017
Si Si4 0.043067 0.579873 0.741182
Si Si5 0.783644 0.669072 0.674676
Si Si6 0.977358 0.609583 0.193514
Si Si7 0.461826 0.438413 0.747486
O O1 0.884892 0.254918 0.577819
O O2 0.708888 0.317236 0.401243
O O3 0.915294 0.339479 0.688504
O O4 0.472288 0.295881 0.768474
O O5 0.846180 0.459387 0.211424
O O6 0.512263 0.443784 0.511572
O O7 0.433057 0.512187 0.317035
O O8 0.344314 0.435877 0.182475
O O9 0.527031 0.801628 0.061674
O O10 0.016078 0.825941 0.094749
O O11 0.911925 0.621637 0.663420
O O12 0.028895 0.593084 0.968858
O O13 0.716502 0.584507 0.294443
O O14 0.215778 0.593869 0.289743
#
# Coordination Sequence:
#
# PCOD9134463 Si02
#       7
#     4   4   4   4   4   4   4
#     4  11  26  48  72 101 143 182 231 292 346 411
#     4  10  19  36  62  89 123 164 216 264 324 399
#     4  12  27  43  73 104 135 181 238 280 351 421
#     4   9  19  39  64  87 124 174 211 264 339 395
#     4  11  26  47  70 101 143 180 227 292 347 412
#     4   9  21  39  63  87 127 174 212 265 337 398
#     4  10  20  38  60  91 123 167 215 263 330 394
#
# _framework density 25.709616
#
# number of rings (size 3 to 8) (size 9 to 14) (size 15 to 20)
#    0.000    1.714    1.429    1.714    2.000    6.857 
#    7.714    0.000    0.000    0.000    0.000    0.000 
#    0.000    0.000    0.000    0.000    0.000    0.000 
#
# Total GULP energy -78434.119756 kJ/mol
# GULP energy per Si atom -5602.437125 kJ/mol
# Density = 2.565110 g / cm^3
# Si number density = 25.709616 Si / 1000 Ang^3
#
#
#
# Elastic Constant Matrix: (Units=GPa)
#
#
# Indices 1 2 3 4 5 6 
#
# 1 80.3327 -5.3154 10.9579 0.0000 -8.5638 0.0000
# 2 -5.3154 78.8966 13.9048 0.0000 -7.3223 0.0000
# 3 10.9579 13.9048 96.1996 0.0000 -9.4779 0.0000
# 4 0.0000 0.0000 0.0000 44.0854 0.0000 -1.4632
# 5 -8.5638 -7.3223 -9.4779 0.0000 32.3304 0.0000
# 6 0.0000 0.0000 0.0000 -1.4632 0.0000 31.3092
#
#
#
# Elastic Compliance Matrix: (Units=1/GPa)
#
#
# Indices 1 2 3 4 5 6 
#
# 1 0.013091 0.001437 -0.001365 0.000000 0.003393 0.000000
# 2 0.001437 0.013358 -0.001811 0.000000 0.002875 0.000000
# 3 -0.001365 -0.001811 0.011056 0.000000 0.002469 0.000000
# 4 0.000000 0.000000 0.000000 0.022718 0.000000 0.001062
# 5 0.003393 0.002875 0.002469 0.000000 0.033205 0.000000
# 6 0.000000 0.000000 0.000000 0.001062 0.000000 0.031989
#
#
# Mechanical properties :
#
#
# Convention : Reuss Voigt Hill
#
# Bulk Modulus (GPa) = 29.38794 32.72484 31.05639
# Shear Modulus (GPa) = 35.65414 37.27041 36.46228
#
# Velocity S-wave (km/s) = 3.72802 3.81158 3.77003
# Velocity P-wave (km/s) = 5.47598 5.66808 5.57286
#
# Compressibility (1/GPa) = 0.03402756
#
# Stress axis : x y z
#
# Youngs Moduli (GPa) = 76.38710 74.86320 90.45202
#
# Poissons Ratio (x) = -0.10761 0.12344
# Poissons Ratio (y) = -0.10980 0.16383
# Poissons Ratio (z) = 0.10424 0.13559
#
# Static dielectric constant tensor:
#      x y z
#    x 1.944020 0.000000 -0.024580 
#    y 0.000000 1.982500 0.000000 
#    z -0.024580 0.000000 2.097710 
# 
# From -- ./inp_files/4238.got.cif
#   From: 2010.05.17/outbox.cif.g08.bks.cpg/sg9_3_cif.got.tgz:4238.got - 2010.06.03 20:04:27.
