data_PCOD9134354
_publ_section_title
;
Structure prediction by ZEFSAII (Michael W. Deem and Ramdas Pophale) SiO2 
 PCOD9134354
Probable space group: C C
;
_chemical_formula_sum "Si O2"
_cell_formula_units_Z 32
_cell_length_a 7.795491
_cell_length_b 28.899080
_cell_length_c 5.703015
_cell_angle_alpha 90.000000
_cell_angle_beta 103.755778
_cell_angle_gamma 90.000000
_cell_volume 1247.939368
_symmetry_space_group_name_H-M "C C"
_symmetry_group_IT_number 9
_symmetry_cell_setting 'monoclinic'
loop_
_space_group_symop_operation_xyz
x,y,z
x,-y,1/2+z
1/2+x,1/2+y,z
1/2+x,1/2-y,1/2+z
loop_
_atom_site_type_symbol
_atom_site_label
_atom_site_fract_x
_atom_site_fract_y
_atom_site_fract_z
Si Si1 0.329410 0.990360 0.371320
Si Si2 0.599206 0.261693 0.103503
Si Si3 0.676887 0.871872 0.982054
Si Si4 0.370186 0.696966 0.898308
Si Si5 0.736557 0.023880 0.474755
Si Si6 0.338236 0.104094 0.671642
Si Si7 0.912221 0.326723 0.568310
Si Si8 0.601632 0.350786 0.800127
O O1 0.359003 0.935912 0.365821
O O2 0.240652 0.000070 0.590852
O O3 0.520192 0.015846 0.414515
O O4 0.542946 0.275450 0.354131
O O5 0.442445 0.225374 0.009928
O O6 0.758271 0.232969 0.024359
O O7 0.561139 0.308974 0.959138
O O8 0.758991 0.828859 0.156201
O O9 0.778026 0.920775 0.974279
O O10 0.514563 0.890864 0.082854
O O11 0.593373 0.850614 0.716801
O O12 0.446654 0.652469 0.064362
O O13 0.792974 0.998418 0.247046
O O14 0.165510 0.103199 0.452266
O O15 0.327972 0.150046 0.817632
O O16 0.780756 0.334597 0.735508
#
# Coordination Sequence:
#
# PCOD9134354 Si02
#       8
#     4   4   4   4   4   4   4   4
#     4  10  19  34  64 106 143 185 241 309 366 442
#     4  12  27  46  71 100 140 200 252 307 366 438
#     4  11  24  40  68 108 142 189 244 315 371 437
#     4  12  29  46  71 104 147 198 252 308 375 448
#     4  10  19  36  66 106 143 186 242 312 368 445
#     4  11  22  41  68 105 145 188 242 310 369 440
#     4  11  24  43  69 102 143 187 248 306 365 441
#     4  11  28  44  69  99 143 195 241 305 372 443
#
# _framework density 25.642272999999999
#
# number of rings (size 3 to 8) (size 9 to 14) (size 15 to 20)
#    0.000    1.000    5.000    2.250    8.750    0.000 
#    0.000    0.000    0.000    1.500    0.000    0.000 
#    0.000    0.000    0.000    0.000    0.000    0.125 
#
# Total GULP energy -89236.602815 kJ/mol
# GULP energy per Si atom -5577.287676 kJ/mol
# Density = 2.558391 g / cm^3
# Si number density = 25.642273 Si / 1000 Ang^3
#
#
#
# Elastic Constant Matrix: (Units=GPa)
#
#
# Indices 1 2 3 4 5 6 
#
# 1 117.9525 29.4339 31.3912 0.0000 -28.1454 0.0000
# 2 29.4339 100.8605 33.3679 0.0000 -11.0165 0.0000
# 3 31.3912 33.3679 135.1593 0.0000 -8.5679 0.0000
# 4 0.0000 0.0000 0.0000 -43.5052 0.0000 -79.5533
# 5 -28.1454 -11.0165 -8.5679 0.0000 44.9702 0.0000
# 6 0.0000 0.0000 0.0000 -79.5533 0.0000 -53.9892
#
#
#
# Elastic Compliance Matrix: (Units=1/GPa)
#
#
# Indices 1 2 3 4 5 6 
#
# 1 0.010836 -0.001961 -0.001653 0.000000 0.005986 0.000000
# 2 -0.001961 0.011364 -0.002279 0.000000 0.001122 0.000000
# 3 -0.001653 -0.002279 0.008345 0.000000 -0.000003 0.000000
# 4 0.000000 0.000000 0.000000 0.013565 0.000000 -0.019989
# 5 0.005986 0.001122 -0.000003 0.000000 0.026258 0.000000
# 6 0.000000 0.000000 0.000000 -0.019989 0.000000 0.010931
#
#
# Mechanical properties :
#
#
# Convention : Reuss Voigt Hill
#
# Bulk Modulus (GPa) = 53.31051 60.26204 56.78627
# Shear Modulus (GPa) = 50.33331 6.81377 28.57354
#
# Velocity S-wave (km/s) = 4.43527 1.63187 3.34176
# Velocity P-wave (km/s) = 6.86033 5.20603 6.08962
#
# Compressibility (1/GPa) = 0.01875803
#
# Stress axis : x y z
#
# Youngs Moduli (GPa) = 92.28664 88.00082 119.83283
#
# Poissons Ratio (x) = 0.17261 0.19807
# Poissons Ratio (y) = 0.18102 0.27307
# Poissons Ratio (z) = 0.15254 0.20053
#
# Static dielectric constant tensor:
#      x y z
#    x 2.031170 0.000000 0.021490 
#    y 0.000000 2.779540 0.000000 
#    z 0.021490 0.000000 2.016780 
# 
# From -- ./inp_files/1319.got.cif
#   From: 2010.05.17/outbox.cif.g08.bks.cpg/sg9_1_cif.got.tgz:1319.got - 2010.06.03 20:04:27.
