data_PCOD9134939
_publ_section_title
;
Structure prediction by ZEFSAII (Michael W. Deem and Ramdas Pophale) SiO2 
 PCOD9134939
Probable space group: C C
;
_chemical_formula_sum "Si O2"
_cell_formula_units_Z 28
_cell_length_a 17.342923
_cell_length_b 14.131963
_cell_length_c 5.250206
_cell_angle_alpha 90.000000
_cell_angle_beta 66.748711
_cell_angle_gamma 90.000000
_cell_volume 1182.262094
_symmetry_space_group_name_H-M "C C"
_symmetry_group_IT_number 9
_symmetry_cell_setting 'monoclinic'
loop_
_space_group_symop_operation_xyz
x,y,z
x,-y,1/2+z
1/2+x,1/2+y,z
1/2+x,1/2-y,1/2+z
loop_
_atom_site_type_symbol
_atom_site_label
_atom_site_fract_x
_atom_site_fract_y
_atom_site_fract_z
Si Si1 0.216340 0.624436 0.032850
Si Si2 0.389453 0.450676 0.173070
Si Si3 0.941287 0.251509 0.359946
Si Si4 0.085858 0.031568 0.721613
Si Si5 0.133431 0.683522 0.642679
Si Si6 0.846440 0.702864 0.463384
Si Si7 0.198964 0.127206 0.881673
O O1 0.287002 0.555018 0.827818
O O2 0.166496 0.618899 0.365605
O O3 0.149638 0.638317 0.894580
O O4 0.275704 0.717560 0.997402
O O5 0.406668 0.536292 0.952670
O O6 0.421830 0.354497 0.992457
O O7 0.895595 0.313642 0.638464
O O8 0.038643 0.279822 0.233136
O O9 0.903819 0.264133 0.125864
O O10 0.166347 0.962463 0.579564
O O11 0.041464 0.979032 0.012970
O O12 0.124152 0.129487 0.762581
O O13 0.190404 0.779046 0.557801
O O14 0.789236 0.618136 0.642439
#
# Coordination Sequence:
#
# PCOD9134939 Si02
#       7
#     4   4   4   4   4   4   4
#     4  10  21  37  61  86 106 156 209 242 274 339
#     4  11  21  38  61  89 119 158 198 243 294 364
#     4  11  23  38  53  93 118 152 188 234 313 355
#     4   8  18  28  46  78 102 128 181 213 261 337
#     4  11  22  36  58  84 122 149 194 244 292 336
#     4  10  20  35  59  78 114 146 198 243 273 340
#     4   9  19  32  54  78 105 149 182 233 261 329
#
# _framework density 23.683411
#
# number of rings (size 3 to 8) (size 9 to 14) (size 15 to 20)
#    0.857    1.143    0.000    6.857    6.000    0.000 
#    2.571    0.000    0.000    0.000   37.143    0.000 
#    0.000    0.000    0.000    0.000    0.000    0.000 
#
# Total GULP energy -78040.965498 kJ/mol
# GULP energy per Si atom -5574.354678 kJ/mol
# Density = 2.362951 g / cm^3
# Si number density = 23.683411 Si / 1000 Ang^3
#
#
#
# Elastic Constant Matrix: (Units=GPa)
#
#
# Indices 1 2 3 4 5 6 
#
# 1 119.8972 -0.4523 39.7479 0.0000 29.7979 0.0000
# 2 -0.4523 15.8587 18.3847 0.0000 5.3288 0.0000
# 3 39.7479 18.3847 154.4853 0.0000 1.9208 0.0000
# 4 0.0000 0.0000 0.0000 31.8068 0.0000 -8.4932
# 5 29.7979 5.3288 1.9208 0.0000 54.8388 0.0000
# 6 0.0000 0.0000 0.0000 -8.4932 0.0000 23.7310
#
#
#
# Elastic Compliance Matrix: (Units=1/GPa)
#
#
# Indices 1 2 3 4 5 6 
#
# 1 0.011203 0.006714 -0.003599 0.000000 -0.006614 0.000000
# 2 0.006714 0.079803 -0.011088 0.000000 -0.011015 0.000000
# 3 -0.003599 -0.011088 0.008685 0.000000 0.002729 0.000000
# 4 0.000000 0.000000 0.000000 0.034762 0.000000 0.012441
# 5 -0.006614 -0.011015 0.002729 0.000000 0.022804 0.000000
# 6 0.000000 0.000000 0.000000 0.012441 0.000000 0.046592
#
#
# Mechanical properties :
#
#
# Convention : Reuss Voigt Hill
#
# Bulk Modulus (GPa) = 11.94093 45.06687 28.50390
# Shear Modulus (GPa) = 20.18504 37.57938 28.88221
#
# Velocity S-wave (km/s) = 2.92256 3.98771 3.49594
# Velocity P-wave (km/s) = 4.05479 6.34607 5.32513
#
# Compressibility (1/GPa) = 0.08374559
#
# Stress axis : x y z
#
# Youngs Moduli (GPa) = 89.26449 12.53080 115.14485
#
# Poissons Ratio (x) = -0.08413 0.41443
# Poissons Ratio (y) = -0.59934 1.27669
# Poissons Ratio (z) = 0.32128 0.13894
#
# Static dielectric constant tensor:
#      x y z
#    x 2.071410 0.000000 -0.023580 
#    y 0.000000 1.968160 0.000000 
#    z -0.023580 0.000000 2.011050 
# 
# From -- ./inp_files/2494.got.cif
#   From: 2010.05.17/outbox.cif.g08.bks.cpg/sg9_2_cif.got.tgz:2494.got - 2010.06.03 20:04:27.
