data_PCOD9134321
_publ_section_title
;
Structure prediction by ZEFSAII (Michael W. Deem and Ramdas Pophale) SiO2 
 PCOD9134321
Probable space group: C C
;
_chemical_formula_sum "Si O2"
_cell_formula_units_Z 32
_cell_length_a 7.727349
_cell_length_b 17.627128
_cell_length_c 10.182491
_cell_angle_alpha 90.000000
_cell_angle_beta 67.679982
_cell_angle_gamma 90.000000
_cell_volume 1283.051370
_symmetry_space_group_name_H-M "C C"
_symmetry_group_IT_number 9
_symmetry_cell_setting 'monoclinic'
loop_
_space_group_symop_operation_xyz
x,y,z
x,-y,1/2+z
1/2+x,1/2+y,z
1/2+x,1/2-y,1/2+z
loop_
_atom_site_type_symbol
_atom_site_label
_atom_site_fract_x
_atom_site_fract_y
_atom_site_fract_z
Si Si1 0.504170 0.039637 0.921110
Si Si2 0.014951 0.192664 0.678134
Si Si3 0.130594 0.057292 0.446935
Si Si4 0.362347 0.289644 0.704124
Si Si5 0.518018 0.606311 0.931049
Si Si6 0.444784 0.860251 0.222515
Si Si7 0.886446 0.356265 0.694203
Si Si8 0.604354 0.110333 0.402902
O O1 0.563222 0.081822 0.772359
O O2 0.315394 0.987543 0.953755
O O3 0.658661 0.976353 0.900314
O O4 0.467481 0.098250 0.047366
O O5 0.059708 0.124961 0.562574
O O6 0.206619 0.237484 0.671189
O O7 0.930888 0.149377 0.830103
O O8 0.894561 0.266006 0.669663
O O9 0.198266 0.100647 0.295045
O O10 0.001750 0.983965 0.455318
O O11 0.451596 0.348402 0.578087
O O12 0.496560 0.226464 0.724482
O O13 0.272392 0.331588 0.853130
O O14 0.738778 0.622191 0.839346
O O15 0.471659 0.875144 0.062810
O O16 0.015006 0.371958 0.786296
#
# Coordination Sequence:
#
# PCOD9134321 Si02
#       8
#     4   4   4   4   4   4   4   4
#     4  10  19  34  56  82 108 144 188 232 273 327
#     4  10  19  34  56  82 111 148 188 230 276 332
#     4  10  19  34  56  82 111 148 188 230 276 332
#     4  10  19  34  56  82 108 144 188 232 273 327
#     4  10  19  34  58  84 110 146 190 230 273 333
#     4  10  19  34  58  82 107 146 190 226 270 334
#     4  10  19  34  58  84 110 146 190 230 273 333
#     4  10  19  34  58  82 107 146 190 226 270 334
#
# _framework density 24.940546999999999
#
# number of rings (size 3 to 8) (size 9 to 14) (size 15 to 20)
#    0.000    2.000    0.000    9.000    0.000    0.000 
#    0.000   10.000    0.000    0.000    0.000    0.000 
#    0.000    0.000    0.000    0.000    0.000    0.000 
#
# Total GULP energy -89283.079201 kJ/mol
# GULP energy per Si atom -5580.192450 kJ/mol
# Density = 2.488378 g / cm^3
# Si number density = 24.940547 Si / 1000 Ang^3
#
#
#
# Elastic Constant Matrix: (Units=GPa)
#
#
# Indices 1 2 3 4 5 6 
#
# 1 63.4680 33.7038 3.4701 0.0000 0.2385 0.0000
# 2 33.7038 285.3194 95.2275 0.0000 0.9859 0.0000
# 3 3.4701 95.2275 139.5776 0.0000 0.7878 0.0000
# 4 0.0000 0.0000 0.0000 26.6479 0.0000 0.1461
# 5 0.2385 0.9859 0.7878 0.0000 2.7146 0.0000
# 6 0.0000 0.0000 0.0000 0.1461 0.0000 -1.4372
#
#
#
# Elastic Compliance Matrix: (Units=1/GPa)
#
#
# Indices 1 2 3 4 5 6 
#
# 1 0.016973 -0.002412 0.001229 0.000000 -0.000972 0.000000
# 2 -0.002412 0.004882 -0.003268 0.000000 -0.000613 0.000000
# 3 0.001229 -0.003268 0.009373 0.000000 -0.001641 0.000000
# 4 0.000000 0.000000 0.000000 0.037505 0.000000 0.003813
# 5 -0.000972 -0.000613 -0.001641 0.000000 0.369159 0.000000
# 6 0.000000 0.000000 0.000000 0.003813 0.000000 -0.695408
#
#
# Mechanical properties :
#
#
# Convention : Reuss Voigt Hill
#
# Bulk Modulus (GPa) = 44.78835 83.68531 64.23683
# Shear Modulus (GPa) = -20.73207 29.31597 4.29195
#
# Velocity S-wave (km/s) = -2.88629 3.43218 1.31324
# Velocity P-wave (km/s) = 2.62479 7.02376 5.30202
#
# Compressibility (1/GPa) = 0.02232723
#
# Stress axis : x y z
#
# Youngs Moduli (GPa) = 58.91642 204.81437 106.69437
#
# Poissons Ratio (x) = 0.49397 -0.13112
# Poissons Ratio (y) = 0.14210 0.34864
# Poissons Ratio (z) = -0.07241 0.66927
#
# Static dielectric constant tensor:
#      x y z
#    x 2.248250 0.000000 0.002410 
#    y 0.000000 2.031320 0.000000 
#    z 0.002410 0.000000 2.250940 
# 
# From -- ./inp_files/16792.got.cif
#   From: 2010.05.17/outbox.cif.g08.bks.cpg/sg9_9_cif.got.tgz:16792.got - 2010.06.03 20:04:27.
