data_PCOD9134925
_publ_section_title
;
Structure prediction by ZEFSAII (Michael W. Deem and Ramdas Pophale) SiO2 
 PCOD9134925
Probable space group: C C
;
_chemical_formula_sum "Si O2"
_cell_formula_units_Z 32
_cell_length_a 9.307254
_cell_length_b 31.731388
_cell_length_c 5.071853
_cell_angle_alpha 90.000000
_cell_angle_beta 73.665064
_cell_angle_gamma 90.000000
_cell_volume 1437.417440
_symmetry_space_group_name_H-M "C C"
_symmetry_group_IT_number 9
_symmetry_cell_setting 'monoclinic'
loop_
_space_group_symop_operation_xyz
x,y,z
x,-y,1/2+z
1/2+x,1/2+y,z
1/2+x,1/2-y,1/2+z
loop_
_atom_site_type_symbol
_atom_site_label
_atom_site_fract_x
_atom_site_fract_y
_atom_site_fract_z
Si Si1 0.936070 0.350023 0.882390
Si Si2 0.992219 0.478053 0.032568
Si Si3 0.519171 0.896777 0.351557
Si Si4 0.345254 0.383883 0.039529
Si Si5 0.197401 0.698437 0.344382
Si Si6 0.355053 0.525872 0.304352
Si Si7 0.013050 0.227514 0.058408
Si Si8 0.097407 0.176561 0.515006
O O1 0.951780 0.388529 0.671322
O O2 0.770055 0.333359 0.960871
O O3 0.068371 0.318711 0.717108
O O4 0.976279 0.360544 0.163767
O O5 0.940030 0.514472 0.262400
O O6 0.961197 0.436817 0.219431
O O7 0.173300 0.477129 0.905257
O O8 0.700692 0.898835 0.283843
O O9 0.389777 0.425205 0.848501
O O10 0.277543 0.343860 0.912952
O O11 0.487270 0.363623 0.112659
O O12 0.098769 0.729310 0.577001
O O13 0.333772 0.727105 0.174134
O O14 0.408486 0.506192 0.003587
O O15 0.073419 0.193193 0.232465
O O16 0.048454 0.212201 0.745967
#
# Coordination Sequence:
#
# PCOD9134925 Si02
#       8
#     4   4   4   4   4   4   4   4
#     4  11  22  37  58  84 116 155 199 244 297 353
#     4   9  16  28  49  78 110 142 184 239 296 350
#     4  10  20  35  57  84 112 149 197 246 294 355
#     4   9  21  39  62  89 121 161 208 254 310 367
#     4  10  23  41  63  90 124 164 205 253 303 363
#     4   9  18  32  55  86 116 149 197 257 308 359
#     4  11  24  41  61  88 120 158 205 249 300 354
#     4  11  24  41  61  87 121 162 203 250 302 363
#
# _framework density 22.262150999999999
#
# number of rings (size 3 to 8) (size 9 to 14) (size 15 to 20)
#    0.000    2.000    0.000    3.000    0.000   15.000 
#    0.000    0.000    0.000    4.500    0.000    0.000 
#    0.000    0.000    0.000    0.000    0.000    0.000 
#
# Total GULP energy -89223.565163 kJ/mol
# GULP energy per Si atom -5576.472823 kJ/mol
# Density = 2.221148 g / cm^3
# Si number density = 22.262151 Si / 1000 Ang^3
#
#
#
# Elastic Constant Matrix: (Units=GPa)
#
#
# Indices 1 2 3 4 5 6 
#
# 1 110.8934 25.0569 8.2034 0.0000 -14.5828 0.0000
# 2 25.0569 87.5523 -5.4582 0.0000 -18.6014 0.0000
# 3 8.2034 -5.4582 39.4190 0.0000 0.1712 0.0000
# 4 0.0000 0.0000 0.0000 27.5116 0.0000 5.7570
# 5 -14.5828 -18.6014 0.1712 0.0000 18.1232 0.0000
# 6 0.0000 0.0000 0.0000 5.7570 0.0000 7.3283
#
#
#
# Elastic Compliance Matrix: (Units=1/GPa)
#
#
# Indices 1 2 3 4 5 6 
#
# 1 0.010467 -0.001731 -0.002447 0.000000 0.006668 0.000000
# 2 -0.001731 0.015046 0.002383 0.000000 0.014028 0.000000
# 3 -0.002447 0.002383 0.026207 0.000000 0.000229 0.000000
# 4 0.000000 0.000000 0.000000 0.043499 0.000000 -0.034172
# 5 0.006668 0.014028 0.000229 0.000000 0.074939 0.000000
# 6 0.000000 0.000000 0.000000 -0.034172 0.000000 0.163302
#
#
# Mechanical properties :
#
#
# Convention : Reuss Voigt Hill
#
# Bulk Modulus (GPa) = 20.77769 32.60764 26.69266
# Shear Modulus (GPa) = 14.16054 24.59678 19.37866
#
# Velocity S-wave (km/s) = 2.52480 3.32756 2.95358
# Velocity P-wave (km/s) = 4.22527 5.42609 4.86289
#
# Compressibility (1/GPa) = 0.04812856
#
# Stress axis : x y z
#
# Youngs Moduli (GPa) = 95.54048 66.46245 38.15828
#
# Poissons Ratio (x) = 0.11507 0.09337
# Poissons Ratio (y) = 0.16541 -0.09092
# Poissons Ratio (z) = 0.23378 -0.15837
#
# Static dielectric constant tensor:
#      x y z
#    x 1.808480 0.000000 0.008670 
#    y 0.000000 1.981140 0.000000 
#    z 0.008670 0.000000 1.836540 
# 
# From -- ./inp_files/1228.got.cif
#   From: 2010.05.17/outbox.cif.g08.bks.cpg/sg9_1_cif.got.tgz:1228.got - 2010.06.03 20:04:27.
