data_PCOD9134565
_publ_section_title
;
Structure prediction by ZEFSAII (Michael W. Deem and Ramdas Pophale) SiO2 
 PCOD9134565
Probable space group: C C
;
_chemical_formula_sum "Si O2"
_cell_formula_units_Z 24
_cell_length_a 8.897102
_cell_length_b 15.232306
_cell_length_c 8.939783
_cell_angle_alpha 90.000000
_cell_angle_beta 69.998888
_cell_angle_gamma 90.000000
_cell_volume 1138.476186
_symmetry_space_group_name_H-M "C C"
_symmetry_group_IT_number 9
_symmetry_cell_setting 'monoclinic'
loop_
_space_group_symop_operation_xyz
x,y,z
x,-y,1/2+z
1/2+x,1/2+y,z
1/2+x,1/2-y,1/2+z
loop_
_atom_site_type_symbol
_atom_site_label
_atom_site_fract_x
_atom_site_fract_y
_atom_site_fract_z
Si Si1 0.764670 0.351396 0.442630
Si Si2 0.765772 0.446482 0.024623
Si Si3 0.499274 0.351976 0.302761
Si Si4 0.406613 0.834065 0.704793
Si Si5 0.174962 0.543913 0.958952
Si Si6 0.529919 0.081841 0.687892
O O1 0.746849 0.456944 0.464597
O O2 0.610039 0.323118 0.404968
O O3 0.789870 0.321661 0.602619
O O4 0.929406 0.336118 0.291231
O O5 0.827431 0.384223 0.871186
O O6 0.607371 0.408581 0.153214
O O7 0.892128 0.450906 0.118569
O O8 0.451544 0.262328 0.240562
O O9 0.346116 0.409754 0.397497
O O10 0.558134 0.891777 0.595880
O O11 0.097027 0.541234 0.820177
O O12 0.176773 0.445740 0.029228
#
# Coordination Sequence:
#
# PCOD9134565 Si02
#       6
#     4   4   4   4   4   4
#     4  10  21  42  67  88 123 176 215 248 320 385
#     4  11  20  43  66  92 123 175 214 250 320 390
#     4  11  26  36  62 101 129 160 213 274 315 367
#     4  11  21  43  65  86 132 173 207 256 324 388
#     4  11  21  39  60  95 124 155 216 261 312 361
#     4  10  19  37  66  88 115 167 207 253 305 381
#
# _framework density 21.080811000000001
#
# number of rings (size 3 to 8) (size 9 to 14) (size 15 to 20)
#    0.000    1.333    5.000    2.000    2.333    1.333 
#    0.000    5.000    0.000    0.000    0.000    0.000 
#    0.000    0.000    0.000    0.000    0.000    0.000 
#
# Total GULP energy -66805.564657 kJ/mol
# GULP energy per Si atom -5567.130388 kJ/mol
# Density = 2.103283 g / cm^3
# Si number density = 21.080811 Si / 1000 Ang^3
#
#
#
# Elastic Constant Matrix: (Units=GPa)
#
#
# Indices 1 2 3 4 5 6 
#
# 1 120.7807 34.5857 82.2872 0.0000 6.1902 0.0000
# 2 34.5857 54.0211 16.0929 0.0000 4.6152 0.0000
# 3 82.2872 16.0929 127.4749 0.0000 9.6213 0.0000
# 4 0.0000 0.0000 0.0000 -0.4943 0.0000 5.0002
# 5 6.1902 4.6152 9.6213 0.0000 42.4811 0.0000
# 6 0.0000 0.0000 0.0000 5.0002 0.0000 17.5470
#
#
#
# Elastic Compliance Matrix: (Units=1/GPa)
#
#
# Indices 1 2 3 4 5 6 
#
# 1 0.017750 -0.008306 -0.010461 0.000000 0.000685 0.000000
# 2 -0.008306 0.023225 0.002573 0.000000 -0.001896 0.000000
# 3 -0.010461 0.002573 0.014425 0.000000 -0.002022 0.000000
# 4 0.000000 0.000000 0.000000 -0.521062 0.000000 0.148481
# 5 0.000685 -0.001896 -0.002022 0.000000 0.024104 0.000000
# 6 0.000000 0.000000 0.000000 0.148481 0.000000 0.014679
#
#
# Mechanical properties :
#
#
# Convention : Reuss Voigt Hill
#
# Bulk Modulus (GPa) = 43.45709 63.13425 53.29567
# Shear Modulus (GPa) = -12.92587 23.19416 5.13414
#
# Velocity S-wave (km/s) = -2.47889 3.32060 1.56229
# Velocity P-wave (km/s) = 3.53073 6.68697 5.34704
#
# Compressibility (1/GPa) = 0.02301120
#
# Stress axis : x y z
#
# Youngs Moduli (GPa) = 56.33879 43.05793 69.32317
#
# Poissons Ratio (x) = 0.35764 0.72518
# Poissons Ratio (y) = 0.46795 -0.17836
# Poissons Ratio (z) = 0.58935 -0.11078
#
# Static dielectric constant tensor:
#      x y z
#    x 1.782780 0.000000 -0.052140 
#    y 0.000000 1.796140 0.000000 
#    z -0.052140 0.000000 1.813770 
# 
# From -- ./inp_files/5075.got.cif
#   From: 2010.05.17/outbox.cif.g08.bks.cpg/sg9_3_cif.got.tgz:5075.got - 2010.06.03 20:04:27.
