data_PCOD9134908
_publ_section_title
;
Structure prediction by ZEFSAII (Michael W. Deem and Ramdas Pophale) SiO2 
 PCOD9134908
Probable space group: C C
;
_chemical_formula_sum "Si O2"
_cell_formula_units_Z 32
_cell_length_a 14.814119
_cell_length_b 13.080895
_cell_length_c 14.844553
_cell_angle_alpha 90.000000
_cell_angle_beta 31.754343
_cell_angle_gamma 90.000000
_cell_volume 1513.895650
_symmetry_space_group_name_H-M "C C"
_symmetry_group_IT_number 9
_symmetry_cell_setting 'monoclinic'
loop_
_space_group_symop_operation_xyz
x,y,z
x,-y,1/2+z
1/2+x,1/2+y,z
1/2+x,1/2-y,1/2+z
loop_
_atom_site_type_symbol
_atom_site_label
_atom_site_fract_x
_atom_site_fract_y
_atom_site_fract_z
Si Si1 0.311230 0.671171 0.968650
Si Si2 0.090611 0.717971 0.990256
Si Si3 0.217272 0.495096 0.292646
Si Si4 0.005438 0.640269 0.363134
Si Si5 0.312622 0.948018 0.496826
Si Si6 0.928135 0.960258 0.783102
Si Si7 0.197006 0.625821 0.636019
Si Si8 0.245096 0.178273 0.217209
O O1 0.202083 0.730177 0.984107
O O2 0.436096 0.745125 0.918375
O O3 0.407960 0.575377 0.841083
O O4 0.161062 0.634436 0.161187
O O5 0.147943 0.609572 0.897437
O O6 0.087247 0.807214 0.917427
O O7 0.888702 0.702002 0.170762
O O8 0.078980 0.584806 0.390030
O O9 0.357537 0.536914 0.241806
O O10 0.267901 0.453020 0.151421
O O11 0.854951 0.567228 0.455202
O O12 0.489193 0.894969 0.310502
O O13 0.289166 0.920065 0.622571
O O14 0.125879 0.925819 0.615302
O O15 0.803092 0.893416 0.954642
O O16 0.225064 0.736945 0.655779
#
# Coordination Sequence:
#
# PCOD9134908 Si02
#       8
#     4   4   4   4   4   4   4   4
#     4  11  22  38  67  94 131 175 220 272 333 399
#     4  10  20  34  62 100 126 162 215 278 334 387
#     4   9  20  41  61  90 137 162 223 273 324 409
#     4  11  21  42  62  92 137 172 216 276 335 398
#     4  11  22  39  62  97 128 171 220 264 339 410
#     4  11  22  40  68  93 129 180 213 278 337 393
#     4  10  21  41  63  92 130 167 215 279 331 388
#     4  11  18  37  61  90 130 163 210 280 329 388
#
# _framework density 21.137521
#
# number of rings (size 3 to 8) (size 9 to 14) (size 15 to 20)
#    0.000    1.500    6.250    2.250    0.000    2.000 
#    0.000    5.000    0.000    0.000    0.000    0.000 
#    0.000    0.000    0.000    0.000    0.000    0.000 
#
# Total GULP energy -89093.008932 kJ/mol
# GULP energy per Si atom -5568.313058 kJ/mol
# Density = 2.108941 g / cm^3
# Si number density = 21.137521 Si / 1000 Ang^3
#
#
#
# Elastic Constant Matrix: (Units=GPa)
#
#
# Indices 1 2 3 4 5 6 
#
# 1 106.9817 26.4434 49.3981 0.0000 -20.2614 0.0002
# 2 26.4434 62.2249 5.1334 0.0009 6.4287 0.0000
# 3 49.3981 5.1334 84.4816 0.0013 -12.1627 0.0000
# 4 0.0000 0.0009 0.0013 26.7085 -0.0004 -3.7372
# 5 -20.2614 6.4287 -12.1627 -0.0004 25.4067 -0.0001
# 6 0.0002 0.0000 0.0000 -3.7372 -0.0001 27.7047
#
#
#
# Elastic Compliance Matrix: (Units=1/GPa)
#
#
# Indices 1 2 3 4 5 6 
#
# 1 0.017183 -0.007888 -0.007849 0.000001 0.011942 0.000000
# 2 -0.007888 0.020360 0.001856 -0.000001 -0.010554 0.000000
# 3 -0.007849 0.001856 0.016481 -0.000001 0.001161 0.000000
# 4 0.000001 -0.000001 -0.000001 0.038162 0.000001 0.005148
# 5 0.011942 -0.010554 0.001161 0.000001 0.052109 0.000000
# 6 0.000000 0.000000 0.000000 0.005148 0.000000 0.036789
#
#
# Mechanical properties :
#
#
# Convention : Reuss Voigt Hill
#
# Bulk Modulus (GPa) = 38.07868 46.18198 42.13033
# Shear Modulus (GPa) = 22.97790 27.47819 25.22805
#
# Velocity S-wave (km/s) = 3.30065 3.60942 3.45848
# Velocity P-wave (km/s) = 5.70785 6.26629 5.99358
#
# Compressibility (1/GPa) = 0.02626141
#
# Stress axis : x y z
#
# Youngs Moduli (GPa) = 58.19715 49.11513 60.67775
#
# Poissons Ratio (x) = 0.38744 0.47624
# Poissons Ratio (y) = 0.45908 -0.11261
# Poissons Ratio (z) = 0.45677 -0.09115
#
# Static dielectric constant tensor:
#      x y z
#    x 1.780530 0.000000 -0.035180 
#    y 0.000000 1.833270 0.000000 
#    z -0.035180 0.000000 1.824010 
# 
# From -- ./inp_files/26017.got.cif
#   From: 2010.05.17/outbox.cif.g08.bks.cpg/sg9_14_cif.got.tgz:26017.got - 2010.06.03 20:04:27.
