data_PCOD9134596
_publ_section_title
;
Structure prediction by ZEFSAII (Michael W. Deem and Ramdas Pophale) SiO2 
 PCOD9134596
Probable space group: C C
;
_chemical_formula_sum "Si O2"
_cell_formula_units_Z 32
_cell_length_a 14.137225
_cell_length_b 9.817140
_cell_length_c 23.446791
_cell_angle_alpha 90.000000
_cell_angle_beta 29.612301
_cell_angle_gamma 90.000000
_cell_volume 1607.949838
_symmetry_space_group_name_H-M "C C"
_symmetry_group_IT_number 9
_symmetry_cell_setting 'monoclinic'
loop_
_space_group_symop_operation_xyz
x,y,z
x,-y,1/2+z
1/2+x,1/2+y,z
1/2+x,1/2-y,1/2+z
loop_
_atom_site_type_symbol
_atom_site_label
_atom_site_fract_x
_atom_site_fract_y
_atom_site_fract_z
Si Si1 0.016330 0.180992 0.551650
Si Si2 0.672508 0.105840 0.803958
Si Si3 0.846354 0.606689 0.451866
Si Si4 0.770391 0.989833 0.875167
Si Si5 0.914195 0.166746 0.472638
Si Si6 0.491443 0.402595 0.368340
Si Si7 0.883151 0.479657 0.624924
Si Si8 0.645145 0.598769 0.137275
O O1 0.226725 0.130895 0.457272
O O2 0.860472 0.095962 0.668225
O O3 0.974835 0.166210 0.506820
O O4 0.980275 0.336201 0.593502
O O5 0.578861 0.255499 0.850474
O O6 0.517427 0.000483 0.861713
O O7 0.708449 0.075875 0.851974
O O8 0.693851 0.536008 0.574801
O O9 0.937875 0.752971 0.418468
O O10 0.924668 0.884698 0.769310
O O11 0.894903 0.073313 0.856476
O O12 0.573183 0.937211 0.006434
O O13 0.731536 0.265979 0.563708
O O14 0.894986 0.017224 0.458312
O O15 0.719718 0.438508 0.245029
O O16 0.767630 0.428895 0.629864
#
# Coordination Sequence:
#
# PCOD9134596 Si02
#       8
#     4   4   4   4   4   4   4   4
#     4  11  20  40  66  87 119 170 207 243 316 371
#     4  11  21  39  64  87 123 162 206 252 299 382
#     4  11  21  39  61  94 119 158 207 252 310 363
#     4  11  19  39  64  88 119 169 205 240 309 382
#     4  10  21  41  60  89 123 160 206 254 302 365
#     4  11  23  38  62  95 124 155 208 260 299 366
#     4  10  19  38  62  87 118 169 203 237 304 376
#     4   9  20  36  65  85 117 163 210 242 297 377
#
# _framework density 19.901118
#
# number of rings (size 3 to 8) (size 9 to 14) (size 15 to 20)
#    0.000    1.500    7.500    0.000    0.000    0.000 
#    6.750    3.750    0.000    0.000    0.000    0.000 
#    0.000    0.000    0.000    0.000    0.000    0.000 
#
# Total GULP energy -89131.193879 kJ/mol
# GULP energy per Si atom -5570.699617 kJ/mol
# Density = 1.985582 g / cm^3
# Si number density = 19.901118 Si / 1000 Ang^3
#
#
#
# Elastic Constant Matrix: (Units=GPa)
#
#
# Indices 1 2 3 4 5 6 
#
# 1 60.9523 33.5021 20.0405 0.0000 -8.7227 0.0000
# 2 33.5021 95.7685 41.2350 -0.0001 2.1836 0.0000
# 3 20.0405 41.2350 122.0532 -0.0001 -20.5210 -0.0001
# 4 0.0000 -0.0001 -0.0001 15.5464 -0.0001 -2.4132
# 5 -8.7227 2.1836 -20.5210 -0.0001 28.7784 0.0000
# 6 0.0000 0.0000 -0.0001 -2.4132 0.0000 14.1150
#
#
#
# Elastic Compliance Matrix: (Units=1/GPa)
#
#
# Indices 1 2 3 4 5 6 
#
# 1 0.021704 -0.007918 0.000362 0.000000 0.007437 0.000000
# 2 -0.007918 0.015618 -0.005203 0.000000 -0.007295 0.000000
# 3 0.000362 -0.005203 0.011335 0.000000 0.008587 0.000000
# 4 0.000000 0.000000 0.000000 0.066077 0.000000 0.011297
# 5 0.007437 -0.007295 0.008587 0.000000 0.043679 0.000000
# 6 0.000000 0.000000 0.000000 0.011297 0.000000 0.072778
#
#
# Mechanical properties :
#
#
# Convention : Reuss Voigt Hill
#
# Bulk Modulus (GPa) = 43.21672 52.03657 47.62665
# Shear Modulus (GPa) = 18.90907 23.95438 21.43172
#
# Velocity S-wave (km/s) = 3.08580 3.47316 3.28519
# Velocity P-wave (km/s) = 5.87018 6.50293 6.19464
#
# Compressibility (1/GPa) = 0.02313919
#
# Stress axis : x y z
#
# Youngs Moduli (GPa) = 46.07527 64.02757 88.21949
#
# Poissons Ratio (x) = 0.50696 -0.03192
# Poissons Ratio (y) = 0.36481 0.45901
# Poissons Ratio (z) = -0.01667 0.33314
#
# Static dielectric constant tensor:
#      x y z
#    x 1.707990 0.000000 -0.012610 
#    y 0.000000 1.726260 0.000000 
#    z -0.012610 0.000000 1.759060 
# 
# From -- ./inp_files/25518.got.cif
#   From: 2010.05.17/outbox.cif.g08.bks.cpg/sg9_13_cif.got.tgz:25518.got - 2010.06.03 20:04:27.
