data_PCOD9134529
_publ_section_title
;
Structure prediction by ZEFSAII (Michael W. Deem and Ramdas Pophale) SiO2 
 PCOD9134529
Probable space group: C C
;
_chemical_formula_sum "Si O2"
_cell_formula_units_Z 28
_cell_length_a 7.600987
_cell_length_b 13.205758
_cell_length_c 14.231094
_cell_angle_alpha 90.000000
_cell_angle_beta 129.217506
_cell_angle_gamma 90.000000
_cell_volume 1106.710295
_symmetry_space_group_name_H-M "C C"
_symmetry_group_IT_number 9
_symmetry_cell_setting 'monoclinic'
loop_
_space_group_symop_operation_xyz
x,y,z
x,-y,1/2+z
1/2+x,1/2+y,z
1/2+x,1/2-y,1/2+z
loop_
_atom_site_type_symbol
_atom_site_label
_atom_site_fract_x
_atom_site_fract_y
_atom_site_fract_z
Si Si1 0.108000 0.763639 0.445360
Si Si2 0.967275 0.253050 0.106925
Si Si3 0.443423 0.941101 0.901043
Si Si4 0.577496 0.504194 0.926900
Si Si5 0.935120 0.201303 0.395803
Si Si6 0.397312 0.456011 0.551015
Si Si7 0.990033 0.620007 0.790177
O O1 0.927973 0.674650 0.363839
O O2 0.057553 0.877537 0.395999
O O3 0.323266 0.729032 0.457026
O O4 0.115812 0.755860 0.561683
O O5 0.033973 0.341590 0.200781
O O6 0.705240 0.284130 0.997570
O O7 0.961210 0.135521 0.141324
O O8 0.708156 0.964094 0.020240
O O9 0.383040 0.017225 0.795791
O O10 0.290192 0.969564 0.937095
O O11 0.391101 0.414734 0.849634
O O12 0.586851 0.500744 0.044429
O O13 0.862538 0.285538 0.296119
O O14 0.236772 0.395692 0.421130
#
# Coordination Sequence:
#
# PCOD9134529 Si02
#       7
#     4   4   4   4   4   4   4
#     4  11  21  38  67  89 118 165 208 245 311 368
#     4  10  20  38  62  93 125 158 205 262 300 363
#     4  10  19  37  62  88 121 161 199 252 302 363
#     4  11  19  36  67  87 112 167 199 242 312 362
#     4  11  20  39  66  88 123 165 201 256 309 364
#     4   8  19  36  60  82 124 156 200 247 304 358
#     4   9  20  40  60  93 127 156 210 256 302 364
#
# _framework density 25.300208000000001
#
# number of rings (size 3 to 8) (size 9 to 14) (size 15 to 20)
#    0.857    1.143    4.286    0.000    0.000    0.000 
#    2.571    5.714    0.000    0.000    0.000    0.000 
#    0.000    0.000    0.000    0.000    0.000    0.000 
#
# Total GULP energy -77937.363550 kJ/mol
# GULP energy per Si atom -5566.954539 kJ/mol
# Density = 2.524262 g / cm^3
# Si number density = 25.300208 Si / 1000 Ang^3
#
#
#
# Elastic Constant Matrix: (Units=GPa)
#
#
# Indices 1 2 3 4 5 6 
#
# 1 152.7813 46.3322 18.6796 0.0000 -44.9885 0.0000
# 2 46.3322 221.0761 1.6615 0.0000 -20.2148 0.0000
# 3 18.6796 1.6615 40.9122 0.0000 -13.1143 0.0000
# 4 0.0000 0.0000 0.0000 17.3518 0.0000 -14.0280
# 5 -44.9885 -20.2148 -13.1143 0.0000 28.9374 0.0000
# 6 0.0000 0.0000 0.0000 -14.0280 0.0000 40.7246
#
#
#
# Elastic Compliance Matrix: (Units=1/GPa)
#
#
# Indices 1 2 3 4 5 6 
#
# 1 0.012236 -0.000866 0.000412 0.000000 0.018605 0.000000
# 2 -0.000866 0.004931 0.001015 0.000000 0.002558 0.000000
# 3 0.000412 0.001015 0.028835 0.000000 0.014418 0.000000
# 4 0.000000 0.000000 0.000000 0.079874 0.000000 0.027513
# 5 0.018605 0.002558 0.014418 0.000000 0.071803 0.000000
# 6 0.000000 0.000000 0.000000 0.027513 0.000000 0.034032
#
#
# Mechanical properties :
#
#
# Convention : Reuss Voigt Hill
#
# Bulk Modulus (GPa) = 21.22043 60.90180 41.06111
# Shear Modulus (GPa) = 20.30064 40.60917 30.45491
#
# Velocity S-wave (km/s) = 2.83572 4.01071 3.47326
# Velocity P-wave (km/s) = 4.37349 6.75067 5.68766
#
# Compressibility (1/GPa) = 0.04712441
#
# Stress axis : x y z
#
# Youngs Moduli (GPa) = 81.72566 202.79217 34.68029
#
# Poissons Ratio (x) = 0.17568 -0.01430
# Poissons Ratio (y) = 0.07080 -0.03521
# Poissons Ratio (z) = -0.03369 -0.20589
#
# Static dielectric constant tensor:
#      x y z
#    x 2.037320 0.000000 0.036190 
#    y 0.000000 2.229460 0.000000 
#    z 0.036190 0.000000 2.062510 
# 
# From -- ./inp_files/23146.got.cif
#   From: 2010.05.17/outbox.cif.g08.bks.cpg/sg9_12_cif.got.tgz:23146.got - 2010.06.03 20:04:27.
