data_PCOD9134107
_publ_section_title
;
Structure prediction by ZEFSAII (Michael W. Deem and Ramdas Pophale) SiO2 
 PCOD9134107
Probable space group: C C
;
_chemical_formula_sum "Si O2"
_cell_formula_units_Z 24
_cell_length_a 13.858301
_cell_length_b 6.872460
_cell_length_c 17.331743
_cell_angle_alpha 90.000000
_cell_angle_beta 142.917826
_cell_angle_gamma 90.000000
_cell_volume 995.297283
_symmetry_space_group_name_H-M "C C"
_symmetry_group_IT_number 9
_symmetry_cell_setting 'monoclinic'
loop_
_space_group_symop_operation_xyz
x,y,z
x,-y,1/2+z
1/2+x,1/2+y,z
1/2+x,1/2-y,1/2+z
loop_
_atom_site_type_symbol
_atom_site_label
_atom_site_fract_x
_atom_site_fract_y
_atom_site_fract_z
Si Si1 0.155610 0.575929 0.068880
Si Si2 0.667178 0.618889 0.456770
Si Si3 0.976335 0.843912 0.248046
Si Si4 0.433790 0.835888 0.013901
Si Si5 0.664566 0.474547 0.726425
Si Si6 0.441008 0.050739 0.796412
O O1 0.323368 0.469175 0.176640
O O2 0.044019 0.525349 0.069480
O O3 0.159111 0.795085 0.037354
O O4 0.062412 0.469818 0.939219
O O5 0.611793 0.407778 0.396542
O O6 0.840956 0.658751 0.534920
O O7 0.541024 0.763671 0.332397
O O8 0.053032 0.905739 0.214850
O O9 0.925697 0.620073 0.225207
O O10 0.554844 0.655372 0.099769
O O11 0.288653 0.844110 0.858231
O O12 0.787839 0.598459 0.752593
#
# Coordination Sequence:
#
# PCOD9134107 Si02
#       6
#     4   4   4   4   4   4
#     4   9  19  37  61  91 127 164 215 260 316 387
#     4   9  21  38  61  92 124 166 212 262 314 381
#     4  11  19  38  66  86 131 165 212 265 317 374
#     4  10  18  36  65  86 124 167 200 264 320 360
#     4  10  19  34  64  90 121 168 206 258 318 371
#     4   9  20  39  57  91 127 158 213 259 315 373
#
# _framework density 24.113399999999999
#
# number of rings (size 3 to 8) (size 9 to 14) (size 15 to 20)
#    1.000    1.333    3.333    0.000    0.000    0.000 
#    3.000    5.000   22.000    0.000    0.000    0.000 
#    0.000    0.000    0.000    0.000    0.000    0.000 
#
# Total GULP energy -66831.809366 kJ/mol
# GULP energy per Si atom -5569.317447 kJ/mol
# Density = 2.405852 g / cm^3
# Si number density = 24.113400 Si / 1000 Ang^3
#
#
#
# Elastic Constant Matrix: (Units=GPa)
#
#
# Indices 1 2 3 4 5 6 
#
# 1 129.7683 51.8279 27.3089 0.0000 31.2498 0.0000
# 2 51.8279 60.5924 -14.7732 0.0000 1.1964 0.0000
# 3 27.3089 -14.7732 57.0095 0.0000 2.9197 0.0000
# 4 0.0000 0.0000 0.0000 31.1438 0.0000 0.4504
# 5 31.2498 1.1964 2.9197 0.0000 42.2790 0.0000
# 6 0.0000 0.0000 0.0000 0.4504 0.0000 42.4504
#
#
#
# Elastic Compliance Matrix: (Units=1/GPa)
#
#
# Indices 1 2 3 4 5 6 
#
# 1 0.026914 -0.027317 -0.019060 0.000000 -0.017804 0.000000
# 2 -0.027317 0.045370 0.023959 0.000000 0.017252 0.000000
# 3 -0.019060 0.023959 0.032307 0.000000 0.011178 0.000000
# 4 0.000000 0.000000 0.000000 0.032114 0.000000 -0.000341
# 5 -0.017804 0.017252 0.011178 0.000000 0.035552 0.000000
# 6 0.000000 0.000000 0.000000 -0.000341 0.000000 0.023560
#
#
# Mechanical properties :
#
#
# Convention : Reuss Voigt Hill
#
# Bulk Modulus (GPa) = 16.73463 41.78859 29.26161
# Shear Modulus (GPa) = 19.18862 35.37510 27.28186
#
# Velocity S-wave (km/s) = 2.82399 3.83434 3.36728
# Velocity P-wave (km/s) = 4.19384 6.08034 5.22297
#
# Compressibility (1/GPa) = 0.05975631
#
# Stress axis : x y z
#
# Youngs Moduli (GPa) = 37.15489 22.04104 30.95309
#
# Poissons Ratio (x) = 0.60209 0.58995
# Poissons Ratio (y) = 1.01495 -0.74160
# Poissons Ratio (z) = 0.70815 -0.52808
#
# Static dielectric constant tensor:
#      x y z
#    x 1.912530 0.000000 -0.033690 
#    y 0.000000 1.976100 0.000000 
#    z -0.033690 0.000000 2.019220 
# 
# From -- ./inp_files/17426.got.cif
#   From: 2010.05.17/outbox.cif.g08.bks.cpg/sg9_9_cif.got.tgz:17426.got - 2010.06.03 20:04:27.
