data_PCOD9134622
_publ_section_title
;
Structure prediction by ZEFSAII (Michael W. Deem and Ramdas Pophale) SiO2 
 PCOD9134622
Probable space group: C C
;
_chemical_formula_sum "Si O2"
_cell_formula_units_Z 32
_cell_length_a 9.328703
_cell_length_b 17.298012
_cell_length_c 14.247338
_cell_angle_alpha 90.000000
_cell_angle_beta 143.075169
_cell_angle_gamma 90.000000
_cell_volume 1381.201585
_symmetry_space_group_name_H-M "C C"
_symmetry_group_IT_number 9
_symmetry_cell_setting 'monoclinic'
loop_
_space_group_symop_operation_xyz
x,y,z
x,-y,1/2+z
1/2+x,1/2+y,z
1/2+x,1/2-y,1/2+z
loop_
_atom_site_type_symbol
_atom_site_label
_atom_site_fract_x
_atom_site_fract_y
_atom_site_fract_z
Si Si1 0.190530 0.766571 0.011540
Si Si2 0.256172 0.553591 0.329422
Si Si3 0.242804 0.397847 0.379804
Si Si4 0.824907 0.136017 0.199752
Si Si5 0.592108 0.475476 0.716670
Si Si6 0.577542 0.745743 0.068145
Si Si7 0.994904 0.637602 0.365016
Si Si8 0.197003 0.890752 0.151557
O O1 0.204499 0.677449 0.048714
O O2 0.131948 0.805211 0.082066
O O3 0.443131 0.780427 0.090414
O O4 0.003367 0.800793 0.839479
O O5 0.211379 0.464236 0.285294
O O6 0.157913 0.606477 0.194569
O O7 0.542027 0.563651 0.491988
O O8 0.149888 0.592200 0.368720
O O9 0.414681 0.442951 0.543096
O O10 0.381920 0.318776 0.431834
O O11 0.975987 0.392525 0.278492
O O12 0.969549 0.059823 0.243819
O O13 0.837465 0.429110 0.831379
O O14 0.635560 0.565561 0.716063
O O15 0.617612 0.810559 0.010095
O O16 0.809995 0.697046 0.218252
#
# Coordination Sequence:
#
# PCOD9134622 Si02
#       8
#     4   4   4   4   4   4   4   4
#     4  11  20  37  66  96 123 169 225 270 319 395
#     4  10  24  40  61  92 140 173 210 282 342 383
#     4  10  19  38  65  92 125 179 218 267 325 398
#     4  11  22  40  64  94 128 173 226 269 329 399
#     4  10  20  38  63  91 124 172 222 268 326 390
#     4  11  21  38  72  98 126 176 234 269 335 402
#     4  11  21  40  65  94 133 170 217 286 329 388
#     4  10  21  37  64  91 131 172 212 269 333 393
#
# _framework density 23.168233000000001
#
# number of rings (size 3 to 8) (size 9 to 14) (size 15 to 20)
#    0.000    1.500    5.000    1.500    0.000    2.000 
#    0.000    8.750    2.750    0.000    0.000    0.000 
#    0.000    0.000    0.000    0.000    0.000    0.000 
#
# Total GULP energy -89088.312238 kJ/mol
# GULP energy per Si atom -5568.019515 kJ/mol
# Density = 2.311550 g / cm^3
# Si number density = 23.168233 Si / 1000 Ang^3
#
#
#
# Elastic Constant Matrix: (Units=GPa)
#
#
# Indices 1 2 3 4 5 6 
#
# 1 58.8494 44.6774 -13.9713 -0.0020 -19.7272 -0.0005
# 2 44.6774 99.9524 18.8285 0.0011 -11.5463 0.0004
# 3 -13.9713 18.8285 42.4045 0.0029 -0.2294 0.0007
# 4 -0.0020 0.0011 0.0029 16.2571 0.0004 -9.7963
# 5 -19.7272 -11.5463 -0.2294 0.0004 20.8548 0.0003
# 6 -0.0005 0.0004 0.0007 -9.7963 0.0003 52.1500
#
#
#
# Elastic Compliance Matrix: (Units=1/GPa)
#
#
# Indices 1 2 3 4 5 6 
#
# 1 0.059973 -0.028129 0.032474 0.000003 0.041514 0.000001
# 2 -0.028129 0.024915 -0.020401 -0.000001 -0.013038 0.000000
# 3 0.032474 -0.020401 0.043448 -0.000003 0.019901 -0.000001
# 4 0.000003 -0.000001 -0.000003 0.069363 0.000000 0.013030
# 5 0.041514 -0.013038 0.019901 0.000000 0.080220 0.000000
# 6 0.000001 0.000000 -0.000001 0.013030 0.000000 0.021623
#
#
# Mechanical properties :
#
#
# Convention : Reuss Voigt Hill
#
# Bulk Modulus (GPa) = 10.39237 33.36392 21.87815
# Shear Modulus (GPa) = 13.74652 27.96385 20.85519
#
# Velocity S-wave (km/s) = 2.43849 3.47795 3.00353
# Velocity P-wave (km/s) = 3.52472 5.52812 4.63594
#
# Compressibility (1/GPa) = 0.09622441
#
# Stress axis : x y z
#
# Youngs Moduli (GPa) = 16.67413 40.13666 23.01603
#
# Poissons Ratio (x) = 1.12900 -0.74743
# Poissons Ratio (y) = 0.46902 0.46955
# Poissons Ratio (z) = -0.54148 0.81883
#
# Static dielectric constant tensor:
#      x y z
#    x 1.905110 0.000000 -0.027010 
#    y 0.000000 2.005450 0.000000 
#    z -0.027010 0.000000 1.914900 
# 
# From -- ./inp_files/23686.got.cif
#   From: 2010.05.17/outbox.cif.g08.bks.cpg/sg9_12_cif.got.tgz:23686.got - 2010.06.03 20:04:27.
