data_PCOD9134016
_publ_section_title
;
Structure prediction by ZEFSAII (Michael W. Deem and Ramdas Pophale) SiO2 
 PCOD9134016
Probable space group: C C
;
_chemical_formula_sum "Si O2"
_cell_formula_units_Z 32
_cell_length_a 16.704920
_cell_length_b 10.917455
_cell_length_c 18.042413
_cell_angle_alpha 90.000000
_cell_angle_beta 150.264615
_cell_angle_gamma 90.000000
_cell_volume 1632.066134
_symmetry_space_group_name_H-M "C C"
_symmetry_group_IT_number 9
_symmetry_cell_setting 'monoclinic'
loop_
_space_group_symop_operation_xyz
x,y,z
x,-y,1/2+z
1/2+x,1/2+y,z
1/2+x,1/2-y,1/2+z
loop_
_atom_site_type_symbol
_atom_site_label
_atom_site_fract_x
_atom_site_fract_y
_atom_site_fract_z
Si Si1 0.793600 0.737574 0.287900
Si Si2 0.467297 0.418399 0.945158
Si Si3 0.709827 0.805451 0.449213
Si Si4 0.116845 0.519515 0.638842
Si Si5 0.006501 0.355019 0.421853
Si Si6 0.286521 0.969923 0.659414
Si Si7 0.418290 0.076259 0.626527
Si Si8 0.486801 0.389590 0.571377
O O1 0.831241 0.644759 0.249510
O O2 0.764379 0.664364 0.491931
O O3 0.913047 0.804876 0.443316
O O4 0.690787 0.850909 0.173561
O O5 0.278159 0.442821 0.783407
O O6 0.491431 0.278381 0.944624
O O7 0.501651 0.472038 0.054439
O O8 0.661043 0.848305 0.491941
O O9 0.594167 0.496354 0.500882
O O10 0.554310 0.839343 0.275351
O O11 0.859830 0.876810 0.534371
O O12 0.023588 0.454201 0.499131
O O13 0.003074 0.535188 0.618825
O O14 0.857479 0.405501 0.253677
O O15 0.367584 0.970058 0.643532
O O16 0.663356 0.339488 0.730485
#
# Coordination Sequence:
#
# PCOD9134016 Si02
#       8
#     4   4   4   4   4   4   4   4
#     4  10  19  35  59  83 114 149 196 241 297 350
#     4  10  20  37  57  83 119 154 195 242 304 357
#     4  11  20  37  60  92 118 154 207 256 291 348
#     4  11  22  39  63  85 117 160 203 248 304 360
#     4  11  23  36  61  88 118 157 199 246 308 367
#     4  10  22  36  58  88 121 154 196 253 301 354
#     4  11  22  38  60  91 121 158 202 257 296 354
#     4  10  18  34  58  86 112 150 194 249 289 346
#
# _framework density 19.607049
#
# number of rings (size 3 to 8) (size 9 to 14) (size 15 to 20)
#    0.000    1.500    5.000    1.500    1.750    0.000 
#    0.000    1.250    8.250    0.000    0.000    0.000 
#    0.000    0.000    0.000    0.000    0.000    0.000 
#
# Total GULP energy -89135.498280 kJ/mol
# GULP energy per Si atom -5570.968642 kJ/mol
# Density = 1.956242 g / cm^3
# Si number density = 19.607049 Si / 1000 Ang^3
#
#
#
# Elastic Constant Matrix: (Units=GPa)
#
#
# Indices 1 2 3 4 5 6 
#
# 1 155.8497 62.6367 37.7886 0.0000 -8.0058 0.0000
# 2 62.6367 77.3731 4.0943 -0.0001 -17.8748 -0.0001
# 3 37.7886 4.0943 34.1399 -0.0001 -2.7037 -0.0001
# 4 0.0000 -0.0001 -0.0001 22.7407 -0.0001 2.7577
# 5 -8.0058 -17.8748 -2.7037 -0.0001 24.0354 0.0000
# 6 0.0000 -0.0001 -0.0001 2.7577 0.0000 35.6163
#
#
#
# Elastic Compliance Matrix: (Units=1/GPa)
#
#
# Indices 1 2 3 4 5 6 
#
# 1 0.014999 -0.012761 -0.015566 0.000000 -0.006245 0.000000
# 2 -0.012761 0.026494 0.012281 0.000000 0.016834 0.000000
# 3 -0.015566 0.012281 0.045768 0.000000 0.009097 0.000000
# 4 0.000000 0.000000 0.000000 0.044391 0.000000 -0.003437
# 5 -0.006245 0.016834 0.009097 0.000000 0.053068 0.000000
# 6 0.000000 0.000000 0.000000 -0.003437 0.000000 0.028343
#
#
# Mechanical properties :
#
#
# Convention : Reuss Voigt Hill
#
# Bulk Modulus (GPa) = 18.12624 52.93357 35.52991
# Shear Modulus (GPa) = 18.97215 27.33468 23.15342
#
# Velocity S-wave (km/s) = 3.11403 3.73785 3.44011
# Velocity P-wave (km/s) = 4.71110 6.75903 5.82576
#
# Compressibility (1/GPa) = 0.05516864
#
# Stress axis : x y z
#
# Youngs Moduli (GPa) = 66.67319 37.74414 21.84929
#
# Poissons Ratio (x) = 0.48166 0.34010
# Poissons Ratio (y) = 0.85082 -0.26832
# Poissons Ratio (z) = 1.03781 -0.46352
#
# Static dielectric constant tensor:
#      x y z
#    x 1.708730 0.000000 0.002140 
#    y 0.000000 1.702000 0.000000 
#    z 0.002140 0.000000 1.775410 
# 
# From -- ./inp_files/30948.got.cif
#   From: 2010.05.17/outbox.cif.g08.bks.cpg/sg9_16_cif.got.tgz:30948.got - 2010.06.03 20:04:27.
