data_PCOD9134450
_publ_section_title
;
Structure prediction by ZEFSAII (Michael W. Deem and Ramdas Pophale) SiO2 
 PCOD9134450
Probable space group: C C
;
_chemical_formula_sum "Si O2"
_cell_formula_units_Z 24
_cell_length_a 13.894582
_cell_length_b 15.132078
_cell_length_c 8.279120
_cell_angle_alpha 90.000000
_cell_angle_beta 45.382653
_cell_angle_gamma 90.000000
_cell_volume 1239.065918
_symmetry_space_group_name_H-M "C C"
_symmetry_group_IT_number 9
_symmetry_cell_setting 'monoclinic'
loop_
_space_group_symop_operation_xyz
x,y,z
x,-y,1/2+z
1/2+x,1/2+y,z
1/2+x,1/2-y,1/2+z
loop_
_atom_site_type_symbol
_atom_site_label
_atom_site_fract_x
_atom_site_fract_y
_atom_site_fract_z
Si Si1 0.967560 0.281451 0.125000
Si Si2 0.980990 0.113583 0.317127
Si Si3 0.256341 0.706924 0.116175
Si Si4 0.411193 0.563911 0.760507
Si Si5 0.202394 0.110349 0.562280
Si Si6 0.768702 0.435498 0.355601
O O1 0.878368 0.235553 0.089605
O O2 0.895846 0.374415 0.243809
O O3 0.962766 0.212889 0.277969
O O4 0.118870 0.293806 0.881350
O O5 0.926265 0.092758 0.558309
O O6 0.910476 0.041798 0.281790
O O7 0.141283 0.092799 0.116300
O O8 0.241598 0.787353 0.005624
O O9 0.290354 0.615441 0.989531
O O10 0.548963 0.595171 0.687519
O O11 0.221743 0.084717 0.727854
O O12 0.288914 0.039419 0.359674
#
# Coordination Sequence:
#
# PCOD9134450 Si02
#       6
#     4   4   4   4   4   4
#     4  11  21  41  63  88 124 162 200 255 304 356
#     4  11  21  38  63  90 120 164 206 248 302 369
#     4  11  21  41  62  88 126 161 202 251 308 355
#     4  11  22  36  64  90 123 161 209 247 299 369
#     4  10  19  36  61  86 121 159 197 249 297 361
#     4  10  20  36  63  88 120 159 206 246 302 360
#
# _framework density 19.369427999999999
#
# number of rings (size 3 to 8) (size 9 to 14) (size 15 to 20)
#    0.000    1.333    5.000    5.000    0.000    2.667 
#    0.000    6.667    0.000    0.000    0.000    0.000 
#    0.000    0.000    0.000    0.000    0.000    0.000 
#
# Total GULP energy -67000.939819 kJ/mol
# GULP energy per Si atom -5583.411652 kJ/mol
# Density = 1.932534 g / cm^3
# Si number density = 19.369428 Si / 1000 Ang^3
#
#
#
# Elastic Constant Matrix: (Units=GPa)
#
#
# Indices 1 2 3 4 5 6 
#
# 1 42.3275 12.1802 23.3757 0.0000 7.2790 0.0000
# 2 12.1802 112.5030 38.9576 0.0000 -2.6867 0.0000
# 3 23.3757 38.9576 90.9038 0.0000 5.5839 0.0000
# 4 0.0000 0.0000 0.0000 41.3966 0.0000 -1.6475
# 5 7.2790 -2.6867 5.5839 0.0000 18.8187 0.0000
# 6 0.0000 0.0000 0.0000 -1.6475 0.0000 32.8837
#
#
#
# Elastic Compliance Matrix: (Units=1/GPa)
#
#
# Indices 1 2 3 4 5 6 
#
# 1 0.029139 -0.001163 -0.006409 0.000000 -0.009535 0.000000
# 2 -0.001163 0.010638 -0.004462 0.000000 0.003293 0.000000
# 3 -0.006409 -0.004462 0.014716 0.000000 -0.002525 0.000000
# 4 0.000000 0.000000 0.000000 0.024205 0.000000 0.001213
# 5 -0.009535 0.003293 -0.002525 0.000000 0.058046 0.000000
# 6 0.000000 0.000000 0.000000 0.001213 0.000000 0.030471
#
#
# Mechanical properties :
#
#
# Convention : Reuss Voigt Hill
#
# Bulk Modulus (GPa) = 32.86778 43.86236 38.36507
# Shear Modulus (GPa) = 24.82302 30.03453 27.42877
#
# Velocity S-wave (km/s) = 3.58377 3.94206 3.76717
# Velocity P-wave (km/s) = 5.84211 6.58894 6.22673
#
# Compressibility (1/GPa) = 0.03042493
#
# Stress axis : x y z
#
# Youngs Moduli (GPa) = 34.31804 93.99877 67.95273
#
# Poissons Ratio (x) = 0.10934 0.43550
# Poissons Ratio (y) = 0.03992 0.30323
# Poissons Ratio (z) = 0.21994 0.41945
#
# Static dielectric constant tensor:
#      x y z
#    x 1.676830 0.000000 0.013340 
#    y 0.000000 1.720980 0.000000 
#    z 0.013340 0.000000 1.661420 
# 
# From -- ./inp_files/7077.got.cif
#   From: 2010.05.17/outbox.cif.g08.bks.cpg/sg9_4_cif.got.tgz:7077.got - 2010.06.03 20:04:27.
