data_PCOD9134422
_publ_section_title
;
Structure prediction by ZEFSAII (Michael W. Deem and Ramdas Pophale) SiO2 
 PCOD9134422
Probable space group: C C
;
_chemical_formula_sum "Si O2"
_cell_formula_units_Z 32
_cell_length_a 20.457313
_cell_length_b 10.941211
_cell_length_c 11.075738
_cell_angle_alpha 90.000000
_cell_angle_beta 145.387265
_cell_angle_gamma 90.000000
_cell_volume 1408.171006
_symmetry_space_group_name_H-M "C C"
_symmetry_group_IT_number 9
_symmetry_cell_setting 'monoclinic'
loop_
_space_group_symop_operation_xyz
x,y,z
x,-y,1/2+z
1/2+x,1/2+y,z
1/2+x,1/2-y,1/2+z
loop_
_atom_site_type_symbol
_atom_site_label
_atom_site_fract_x
_atom_site_fract_y
_atom_site_fract_z
Si Si1 0.470630 0.055188 0.856080
Si Si2 0.396370 0.543269 0.261631
Si Si3 0.156171 0.546066 0.335413
Si Si4 0.602060 0.549799 0.966291
Si Si5 0.584336 0.789187 0.345363
Si Si6 0.991798 0.695967 0.254712
Si Si7 0.319700 0.218113 0.783257
Si Si8 0.599353 0.551540 0.217762
O O1 0.479149 0.158754 0.764930
O O2 0.373560 0.097532 0.802886
O O3 0.457797 0.918583 0.786396
O O4 0.595146 0.057137 0.113077
O O5 0.495257 0.546544 0.310727
O O6 0.353104 0.672078 0.243591
O O7 0.471193 0.491815 0.486837
O O8 0.293203 0.458631 0.057621
O O9 0.121167 0.415164 0.337088
O O10 0.094227 0.646308 0.323999
O O11 0.542876 0.682188 0.890214
O O12 0.648345 0.529143 0.902582
O O13 0.667597 0.535511 0.193955
O O14 0.683164 0.731705 0.582752
O O15 0.584894 0.689275 0.240740
O O16 0.884606 0.730870 0.007555
#
# Coordination Sequence:
#
# PCOD9134422 Si02
#       8
#     4   4   4   4   4   4   4   4
#     4  10  21  36  60  84 119 157 195 246 305 353
#     4   9  20  35  63  83 114 153 202 248 290 350
#     4   9  20  36  58  88 111 155 201 245 297 356
#     4  10  20  35  61  84 122 148 197 241 301 345
#     4  10  21  37  60  84 118 155 200 247 297 354
#     4  10  19  36  57  82 120 157 191 246 295 361
#     4  10  20  40  57  85 118 154 203 244 298 359
#     4  10  21  37  58  88 118 155 189 253 297 350
#
# _framework density 22.724513000000002
#
# number of rings (size 3 to 8) (size 9 to 14) (size 15 to 20)
#    0.750    1.500    1.250    1.500    1.750    1.000 
#    2.250    2.500    0.000    0.000    0.000    0.000 
#    0.000    0.000    0.000    0.000    0.000    0.000 
#
# Total GULP energy -89158.517163 kJ/mol
# GULP energy per Si atom -5572.407323 kJ/mol
# Density = 2.267279 g / cm^3
# Si number density = 22.724513 Si / 1000 Ang^3
#
#
#
# Elastic Constant Matrix: (Units=GPa)
#
#
# Indices 1 2 3 4 5 6 
#
# 1 52.7223 19.4571 28.2301 0.0000 -28.0014 0.0000
# 2 19.4571 81.4887 20.5899 0.0000 -10.3346 0.0000
# 3 28.2301 20.5899 86.8807 0.0000 -8.6039 0.0000
# 4 0.0000 0.0000 0.0000 32.6888 0.0000 -11.9726
# 5 -28.0014 -10.3346 -8.6039 0.0000 38.9446 0.0000
# 6 0.0000 0.0000 0.0000 -11.9726 0.0000 26.4160
#
#
#
# Elastic Compliance Matrix: (Units=1/GPa)
#
#
# Indices 1 2 3 4 5 6 
#
# 1 0.038222 -0.003719 -0.009114 0.000000 0.024482 0.000000
# 2 -0.003719 0.013730 -0.001993 0.000000 0.000529 0.000000
# 3 -0.009114 -0.001993 0.014561 0.000000 -0.003865 0.000000
# 4 0.000000 0.000000 0.000000 0.036681 0.000000 0.016625
# 5 0.024482 0.000529 -0.003865 0.000000 0.042566 0.000000
# 6 0.000000 0.000000 0.000000 0.016625 0.000000 0.045391
#
#
# Mechanical properties :
#
#
# Convention : Reuss Voigt Hill
#
# Bulk Modulus (GPa) = 27.12814 39.73843 33.43328
# Shear Modulus (GPa) = 21.45098 29.79752 25.62425
#
# Velocity S-wave (km/s) = 3.07572 3.62505 3.36162
# Velocity P-wave (km/s) = 4.95754 5.91999 5.46001
#
# Compressibility (1/GPa) = 0.03686210
#
# Stress axis : x y z
#
# Youngs Moduli (GPa) = 26.16294 72.83140 68.67673
#
# Poissons Ratio (x) = 0.27084 0.62590
# Poissons Ratio (y) = 0.09729 0.13689
# Poissons Ratio (z) = 0.23844 0.14517
#
# Static dielectric constant tensor:
#      x y z
#    x 1.896300 0.000000 -0.010880 
#    y 0.000000 1.853400 0.000000 
#    z -0.010880 0.000000 1.863190 
# 
# From -- ./inp_files/16229.got.cif
#   From: 2010.05.17/outbox.cif.g08.bks.cpg/sg9_9_cif.got.tgz:16229.got - 2010.06.03 20:04:27.
