data_PCOD9134539
_publ_section_title
;
Structure prediction by ZEFSAII (Michael W. Deem and Ramdas Pophale) SiO2 
 PCOD9134539
Probable space group: C C
;
_chemical_formula_sum "Si O2"
_cell_formula_units_Z 32
_cell_length_a 8.011143
_cell_length_b 23.188561
_cell_length_c 9.588962
_cell_angle_alpha 90.000000
_cell_angle_beta 83.781750
_cell_angle_gamma 90.000000
_cell_volume 1770.831213
_symmetry_space_group_name_H-M "C C"
_symmetry_group_IT_number 9
_symmetry_cell_setting 'monoclinic'
loop_
_space_group_symop_operation_xyz
x,y,z
x,-y,1/2+z
1/2+x,1/2+y,z
1/2+x,1/2-y,1/2+z
loop_
_atom_site_type_symbol
_atom_site_label
_atom_site_fract_x
_atom_site_fract_y
_atom_site_fract_z
Si Si1 0.466970 0.412727 0.448100
Si Si2 0.235286 0.935478 0.632316
Si Si3 0.569648 0.637880 0.644716
Si Si4 0.912570 0.674572 0.187652
Si Si5 0.225685 0.686373 0.981759
Si Si6 0.619047 0.471671 0.946903
Si Si7 0.725202 0.789120 0.169103
Si Si8 0.406798 0.199044 0.510620
O O1 0.576166 0.403073 0.577076
O O2 0.558473 0.387340 0.302600
O O3 0.296097 0.378181 0.476518
O O4 0.468379 0.482169 0.436486
O O5 0.378649 0.888175 0.627388
O O6 0.249284 0.990672 0.529287
O O7 0.193113 0.955618 0.791268
O O8 0.567375 0.584282 0.537893
O O9 0.401772 0.676323 0.638607
O O10 0.743002 0.672072 0.601272
O O11 0.087692 0.695731 0.110774
O O12 0.773604 0.721707 0.155646
O O13 0.913807 0.672781 0.354790
O O14 0.372964 0.732694 0.993481
O O15 0.160546 0.699678 0.832377
O O16 0.580561 0.808116 0.076615
#
# Coordination Sequence:
#
# PCOD9134539 Si02
#       8
#     4   4   4   4   4   4   4   4
#     4   9  20  37  63  85 115 168 204 247 308 358
#     4  10  20  36  63  88 115 162 210 248 301 367
#     4  11  20  41  62  91 126 158 212 254 304 375
#     4  11  22  39  59  95 126 157 212 255 306 374
#     4  10  22  40  58  90 127 158 210 255 304 373
#     4  10  19  37  63  86 119 164 207 249 306 362
#     4  10  24  39  61  94 124 167 202 253 316 365
#     4  11  23  39  61  91 128 164 201 257 315 362
#
# _framework density 18.070609000000001
#
# number of rings (size 3 to 8) (size 9 to 14) (size 15 to 20)
#    0.750    1.000    3.750    0.750    1.750    2.000 
#    0.000    1.250    5.500    0.000    0.000    0.000 
#    0.000    0.000    0.000    0.000    0.000    0.000 
#
# Total GULP energy -89105.266173 kJ/mol
# GULP energy per Si atom -5569.079136 kJ/mol
# Density = 1.802948 g / cm^3
# Si number density = 18.070609 Si / 1000 Ang^3
#
#
#
# Elastic Constant Matrix: (Units=GPa)
#
#
# Indices 1 2 3 4 5 6 
#
# 1 63.2927 18.3075 41.5672 0.0000 2.9114 0.0000
# 2 18.3075 84.6710 35.2829 0.0000 8.6492 0.0000
# 3 41.5672 35.2829 101.1317 0.0000 0.2659 0.0000
# 4 0.0000 0.0000 0.0000 16.4560 0.0000 0.9459
# 5 2.9114 8.6492 0.2659 0.0000 18.1794 0.0000
# 6 0.0000 0.0000 0.0000 0.9459 0.0000 23.5934
#
#
#
# Elastic Compliance Matrix: (Units=1/GPa)
#
#
# Indices 1 2 3 4 5 6 
#
# 1 0.021889 -0.000796 -0.008711 0.000000 -0.002999 0.000000
# 2 -0.000796 0.014663 -0.004770 0.000000 -0.006779 0.000000
# 3 -0.008711 -0.004770 0.015124 0.000000 0.003444 0.000000
# 4 0.000000 0.000000 0.000000 0.060909 0.000000 -0.002442
# 5 -0.002999 -0.006779 0.003444 0.000000 0.058663 0.000000
# 6 0.000000 0.000000 0.000000 -0.002442 0.000000 0.042483
#
#
# Mechanical properties :
#
#
# Convention : Reuss Voigt Hill
#
# Bulk Modulus (GPa) = 43.25311 48.82340 46.03826
# Shear Modulus (GPa) = 20.00066 21.90827 20.95446
#
# Velocity S-wave (km/s) = 3.33048 3.48569 3.40897
# Velocity P-wave (km/s) = 6.22712 6.57851 6.40523
#
# Compressibility (1/GPa) = 0.02311972
#
# Stress axis : x y z
#
# Youngs Moduli (GPa) = 45.68534 68.19908 66.12115
#
# Poissons Ratio (x) = 0.05432 0.57598
# Poissons Ratio (y) = 0.03639 0.31543
# Poissons Ratio (z) = 0.39797 0.32534
#
# Static dielectric constant tensor:
#      x y z
#    x 1.591330 0.000000 0.005390 
#    y 0.000000 1.637580 0.000000 
#    z 0.005390 0.000000 1.610870 
# 
# From -- ./inp_files/6067.got.cif
#   From: 2010.05.17/outbox.cif.g08.bks.cpg/sg9_4_cif.got.tgz:6067.got - 2010.06.03 20:04:27.
