data_PCOD9134879
_publ_section_title
;
Structure prediction by ZEFSAII (Michael W. Deem and Ramdas Pophale) SiO2 
 PCOD9134879
Probable space group: C C
;
_chemical_formula_sum "Si O2"
_cell_formula_units_Z 28
_cell_length_a 11.132665
_cell_length_b 22.964870
_cell_length_c 5.336703
_cell_angle_alpha 90.000000
_cell_angle_beta 98.614403
_cell_angle_gamma 90.000000
_cell_volume 1348.990652
_symmetry_space_group_name_H-M "C C"
_symmetry_group_IT_number 9
_symmetry_cell_setting 'monoclinic'
loop_
_space_group_symop_operation_xyz
x,y,z
x,-y,1/2+z
1/2+x,1/2+y,z
1/2+x,1/2-y,1/2+z
loop_
_atom_site_type_symbol
_atom_site_label
_atom_site_fract_x
_atom_site_fract_y
_atom_site_fract_z
Si Si1 0.969360 0.694470 0.172300
Si Si2 0.091453 0.347480 0.225625
Si Si3 0.300142 0.255865 0.446025
Si Si4 0.615905 0.981203 0.172899
Si Si5 0.387760 0.471525 0.700681
Si Si6 0.503188 0.350060 0.627070
Si Si7 0.619446 0.313213 0.167586
O O1 0.837703 0.713127 0.232015
O O2 0.032756 0.666908 0.438806
O O3 0.033230 0.756558 0.148459
O O4 0.998399 0.658149 0.931361
O O5 0.198249 0.301200 0.318155
O O6 0.139438 0.413209 0.221161
O O7 0.413763 0.294197 0.575281
O O8 0.249288 0.215689 0.652421
O O9 0.549579 0.007783 0.391058
O O10 0.743099 0.016326 0.180097
O O11 0.434867 0.513348 0.492873
O O12 0.419705 0.406969 0.624099
O O13 0.588038 0.348396 0.407821
O O14 0.580630 0.346504 0.904021
#
# Coordination Sequence:
#
# PCOD9134879 Si02
#       7
#     4   4   4   4   4   4   4
#     4  10  22  35  52  81 112 150 185 215 264 325
#     4  11  22  36  54  83 116 142 179 228 268 322
#     4  10  20  36  56  78 116 152 178 216 266 328
#     4  10  20  34  53  80 106 138 175 216 278 327
#     4  10  20  34  53  80 106 138 175 216 278 327
#     4  11  22  36  54  83 116 142 179 228 268 322
#     4  10  22  35  52  81 112 150 185 215 264 325
#
# _framework density 20.756262
#
# number of rings (size 3 to 8) (size 9 to 14) (size 15 to 20)
#    0.000    1.714    0.000    6.857    0.000   17.143 
#    0.000    0.000    0.000    0.000    0.000   20.000 
#    0.000    0.000    0.000    0.000    0.000    0.000 
#
# Total GULP energy -78120.310429 kJ/mol
# GULP energy per Si atom -5580.022174 kJ/mol
# Density = 2.070902 g / cm^3
# Si number density = 20.756262 Si / 1000 Ang^3
#
#
#
# Elastic Constant Matrix: (Units=GPa)
#
#
# Indices 1 2 3 4 5 6 
#
# 1 43.1448 7.7940 18.2156 0.0000 -10.8038 0.0000
# 2 7.7940 59.6660 18.2835 0.0000 5.3087 0.0000
# 3 18.2156 18.2835 170.2204 0.0000 -13.9189 0.0000
# 4 0.0000 0.0000 0.0000 27.1033 0.0000 -7.7763
# 5 -10.8038 5.3087 -13.9189 0.0000 22.6935 0.0000
# 6 0.0000 0.0000 0.0000 -7.7763 0.0000 26.1128
#
#
#
# Elastic Compliance Matrix: (Units=1/GPa)
#
#
# Indices 1 2 3 4 5 6 
#
# 1 0.027945 -0.004415 -0.001415 0.000000 0.013469 0.000000
# 2 -0.004415 0.018698 -0.002174 0.000000 -0.007810 0.000000
# 3 -0.001415 -0.002174 0.006576 0.000000 0.003868 0.000000
# 4 0.000000 0.000000 0.000000 0.040343 0.000000 0.012014
# 5 0.013469 -0.007810 0.003868 0.000000 0.054677 0.000000
# 6 0.000000 0.000000 0.000000 0.012014 0.000000 0.041873
#
#
# Mechanical properties :
#
#
# Convention : Reuss Voigt Hill
#
# Bulk Modulus (GPa) = 26.87437 40.17973 33.52705
# Shear Modulus (GPa) = 22.88065 30.43112 26.65589
#
# Velocity S-wave (km/s) = 3.32377 3.83315 3.58751
# Velocity P-wave (km/s) = 5.26361 6.24424 5.77478
#
# Compressibility (1/GPa) = 0.03721017
#
# Stress axis : x y z
#
# Youngs Moduli (GPa) = 35.78397 53.48196 152.06745
#
# Poissons Ratio (x) = 0.23614 0.21516
# Poissons Ratio (y) = 0.15800 0.33067
# Poissons Ratio (z) = 0.05063 0.11629
#
# Static dielectric constant tensor:
#      x y z
#    x 1.796140 0.000000 0.009150 
#    y 0.000000 1.724720 0.000000 
#    z 0.009150 0.000000 1.860660 
# 
# From -- ./inp_files/1743.got.cif
#   From: 2010.05.17/outbox.cif.g08.bks.cpg/sg9_1_cif.got.tgz:1743.got - 2010.06.03 20:04:27.
