data_PCOD9134441
_publ_section_title
;
Structure prediction by ZEFSAII (Michael W. Deem and Ramdas Pophale) SiO2 
 PCOD9134441
Probable space group: C C
;
_chemical_formula_sum "Si O2"
_cell_formula_units_Z 32
_cell_length_a 12.162083
_cell_length_b 16.079163
_cell_length_c 15.164989
_cell_angle_alpha 90.000000
_cell_angle_beta 29.011392
_cell_angle_gamma 90.000000
_cell_volume 1438.270167
_symmetry_space_group_name_H-M "C C"
_symmetry_group_IT_number 9
_symmetry_cell_setting 'monoclinic'
loop_
_space_group_symop_operation_xyz
x,y,z
x,-y,1/2+z
1/2+x,1/2+y,z
1/2+x,1/2-y,1/2+z
loop_
_atom_site_type_symbol
_atom_site_label
_atom_site_fract_x
_atom_site_fract_y
_atom_site_fract_z
Si Si1 0.746270 0.949324 0.159720
Si Si2 0.865296 0.868491 0.257775
Si Si3 0.454120 0.318580 0.673120
Si Si4 0.295607 0.950585 0.980885
Si Si5 0.688966 0.545102 0.891556
Si Si6 0.148672 0.696165 0.067919
Si Si7 0.132853 0.635476 0.555625
Si Si8 0.546057 0.196435 0.329729
O O1 0.799887 0.890274 0.204690
O O2 0.726725 0.905021 0.079350
O O3 0.498814 0.985976 0.357224
O O4 0.952849 0.016814 0.012292
O O5 0.661500 0.853849 0.469026
O O6 0.009923 0.782081 0.151700
O O7 0.024509 0.941581 0.185914
O O8 0.622687 0.383625 0.509515
O O9 0.568296 0.231925 0.619077
O O10 0.270229 0.295120 0.726908
O O11 0.316168 0.360203 0.849255
O O12 0.378059 0.872724 0.983891
O O13 0.272593 0.966275 0.890140
O O14 0.903925 0.584276 0.690739
O O15 0.069182 0.658323 0.215352
O O16 0.406982 0.720455 0.912512
#
# Coordination Sequence:
#
# PCOD9134441 Si02
#       8
#     4   4   4   4   4   4   4   4
#     4  10  21  43  63  90 133 173 204 269 326 386
#     4   9  19  37  64  86 124 160 212 262 320 385
#     4  12  22  42  66  97 128 174 219 269 330 388
#     4   9  19  39  60  84 123 164 206 264 309 381
#     4  10  22  45  63  88 135 167 221 270 313 396
#     4   9  19  35  60  92 113 160 209 270 317 376
#     4  11  25  41  68  99 131 172 220 270 328 392
#     4  10  19  36  60  86 123 156 213 266 319 366
#
# _framework density 22.248950000000001
#
# number of rings (size 3 to 8) (size 9 to 14) (size 15 to 20)
#    0.000    2.000    2.500    0.750    0.000    1.000 
#   11.250    0.000    0.000    0.000    0.000    0.000 
#    0.000    0.000    0.000    0.000    0.000    0.000 
#
# Total GULP energy -89075.323248 kJ/mol
# GULP energy per Si atom -5567.207703 kJ/mol
# Density = 2.219831 g / cm^3
# Si number density = 22.248950 Si / 1000 Ang^3
#
#
#
# Elastic Constant Matrix: (Units=GPa)
#
#
# Indices 1 2 3 4 5 6 
#
# 1 95.4927 34.2073 19.1510 0.0078 -12.5690 -0.0064
# 2 34.2073 60.2677 7.4036 0.0474 -8.9745 -0.0441
# 3 19.1510 7.4036 36.0609 0.0611 -4.8740 -0.0331
# 4 0.0078 0.0474 0.0611 28.4091 0.0132 -7.0325
# 5 -12.5690 -8.9745 -4.8740 0.0132 25.9682 0.0011
# 6 -0.0064 -0.0441 -0.0331 -7.0325 0.0011 20.1254
#
#
#
# Elastic Compliance Matrix: (Units=1/GPa)
#
#
# Indices 1 2 3 4 5 6 
#
# 1 0.014642 -0.007064 -0.005846 0.000015 0.003548 -0.000015
# 2 -0.007064 0.021190 -0.000073 -0.000027 0.003891 0.000035
# 3 -0.005846 -0.000073 0.031258 -0.000060 0.003012 0.000028
# 4 0.000015 -0.000027 -0.000060 0.038533 -0.000033 0.013465
# 5 0.003548 0.003891 0.003012 -0.000033 0.042136 0.000001
# 6 -0.000015 0.000035 0.000028 0.013465 0.000001 0.054394
#
#
# Mechanical properties :
#
#
# Convention : Reuss Voigt Hill
#
# Bulk Modulus (GPa) = 24.31690 34.81611 29.56651
# Shear Modulus (GPa) = 20.67589 23.63783 22.15686
#
# Velocity S-wave (km/s) = 3.05174 3.26302 3.15915
# Velocity P-wave (km/s) = 4.83433 5.46615 5.15992
#
# Compressibility (1/GPa) = 0.04112366
#
# Stress axis : x y z
#
# Youngs Moduli (GPa) = 68.29683 47.19096 31.99201
#
# Poissons Ratio (x) = 0.33336 0.18703
# Poissons Ratio (y) = 0.48245 0.00234
# Poissons Ratio (z) = 0.39927 0.00345
#
# Static dielectric constant tensor:
#      x y z
#    x 1.799840 0.000000 0.004050 
#    y 0.000000 1.976530 -0.000020 
#    z 0.004050 -0.000020 1.954940 
# 
# From -- ./inp_files/7932.got.cif
#   From: 2010.05.17/outbox.cif.g08.bks.cpg/sg9_4_cif.got.tgz:7932.got - 2010.06.03 20:04:27.
