data_PCOD9134733
_publ_section_title
;
Structure prediction by ZEFSAII (Michael W. Deem and Ramdas Pophale) SiO2 
 PCOD9134733
Probable space group: C C
;
_chemical_formula_sum "Si O2"
_cell_formula_units_Z 28
_cell_length_a 27.765279
_cell_length_b 5.290834
_cell_length_c 14.148163
_cell_angle_alpha 90.000000
_cell_angle_beta 37.721200
_cell_angle_gamma 90.000000
_cell_volume 1271.597691
_symmetry_space_group_name_H-M "C C"
_symmetry_group_IT_number 9
_symmetry_cell_setting 'monoclinic'
loop_
_space_group_symop_operation_xyz
x,y,z
x,-y,1/2+z
1/2+x,1/2+y,z
1/2+x,1/2-y,1/2+z
loop_
_atom_site_type_symbol
_atom_site_label
_atom_site_fract_x
_atom_site_fract_y
_atom_site_fract_z
Si Si1 0.095660 0.640883 0.458230
Si Si2 0.333181 0.668678 0.425128
Si Si3 0.690960 0.550373 0.226518
Si Si4 0.573943 0.896549 0.299580
Si Si5 0.136679 0.255917 0.540777
Si Si6 0.783277 0.670924 0.424270
Si Si7 0.492383 0.633921 0.274572
O O1 0.064706 0.585113 0.401423
O O2 0.137521 0.394620 0.437902
O O3 0.024651 0.693238 0.639127
O O4 0.152302 0.885456 0.369828
O O5 0.260379 0.741133 0.608448
O O6 0.320036 0.447105 0.369373
O O7 0.404774 0.575812 0.378968
O O8 0.340212 0.932397 0.354941
O O9 0.620737 0.664858 0.272923
O O10 0.731277 0.330331 0.100921
O O11 0.498353 0.788146 0.362868
O O12 0.625642 0.021148 0.136156
O O13 0.219791 0.130960 0.439813
O O14 0.057670 0.088684 0.676690
#
# Coordination Sequence:
#
# PCOD9134733 Si02
#       7
#     4   4   4   4   4   4   4
#     4  11  23  36  66 100 132 171 236 283 331 413
#     4  10  22  39  67  94 135 178 213 284 346 399
#     4  10  19  40  66  92 129 172 220 279 332 392
#     4  11  19  41  63  94 126 174 224 277 331 402
#     4  11  21  37  69  97 128 180 235 278 338 412
#     4  10  20  40  68  91 127 175 222 267 342 397
#     4  11  24  37  65  98 133 180 224 282 346 409
#
# _framework density 22.019545000000001
#
# number of rings (size 3 to 8) (size 9 to 14) (size 15 to 20)
#    0.857    0.571    4.286    0.857    6.000    0.000 
#    0.000    1.429    3.143    0.000    0.000    0.000 
#    0.000    0.000    0.000    0.000    0.000    0.000 
#
# Total GULP energy -77949.614218 kJ/mol
# GULP energy per Si atom -5567.829587 kJ/mol
# Density = 2.196943 g / cm^3
# Si number density = 22.019545 Si / 1000 Ang^3
#
#
#
# Elastic Constant Matrix: (Units=GPa)
#
#
# Indices 1 2 3 4 5 6 
#
# 1 149.0977 42.0737 29.9441 0.0005 -13.0057 0.0004
# 2 42.0737 122.2693 8.2341 -0.0010 -10.5069 -0.0105
# 3 29.9441 8.2341 25.0721 -0.0035 5.6175 -0.0058
# 4 0.0005 -0.0010 -0.0035 14.0332 -0.0001 3.5981
# 5 -13.0057 -10.5069 5.6175 -0.0001 32.5466 0.0017
# 6 0.0004 -0.0105 -0.0058 3.5981 0.0017 32.6090
#
#
#
# Elastic Compliance Matrix: (Units=1/GPa)
#
#
# Indices 1 2 3 4 5 6 
#
# 1 0.010450 -0.002228 -0.013027 -0.000003 0.005705 -0.000003
# 2 -0.002228 0.009194 -0.000857 0.000000 0.002226 0.000003
# 3 -0.013027 -0.000857 0.059243 0.000013 -0.015707 0.000010
# 4 -0.000003 0.000000 0.000013 0.073334 -0.000003 -0.008092
# 5 0.005705 0.002226 -0.015707 -0.000003 0.036434 -0.000004
# 6 -0.000003 0.000003 0.000010 -0.008092 -0.000004 0.031559
#
#
# Mechanical properties :
#
#
# Convention : Reuss Voigt Hill
#
# Bulk Modulus (GPa) = 21.42981 50.77142 36.10062
# Shear Modulus (GPa) = 18.65715 30.25024 24.45369
#
# Velocity S-wave (km/s) = 2.91400 3.71049 3.33610
# Velocity P-wave (km/s) = 4.59077 6.43929 5.59194
#
# Compressibility (1/GPa) = 0.04666396
#
# Stress axis : x y z
#
# Youngs Moduli (GPa) = 95.69724 108.76178 16.87950
#
# Poissons Ratio (x) = 0.24236 0.21988
# Poissons Ratio (y) = 0.21324 0.01446
# Poissons Ratio (z) = 1.24660 0.09320
#
# Static dielectric constant tensor:
#      x y z
#    x 1.824590 -0.000010 0.015100 
#    y -0.000010 1.909820 0.000020 
#    z 0.015100 0.000020 1.859320 
# 
# From -- ./inp_files/27567.got.cif
#   From: 2010.05.17/outbox.cif.g08.bks.cpg/sg9_14_cif.got.tgz:27567.got - 2010.06.03 20:04:27.
