data_PCOD9134953
_publ_section_title
;
Structure prediction by ZEFSAII (Michael W. Deem and Ramdas Pophale) SiO2 
 PCOD9134953
Probable space group: C C
;
_chemical_formula_sum "Si O2"
_cell_formula_units_Z 32
_cell_length_a 9.697437
_cell_length_b 30.246361
_cell_length_c 5.062491
_cell_angle_alpha 90.000000
_cell_angle_beta 77.922642
_cell_angle_gamma 90.000000
_cell_volume 1452.023707
_symmetry_space_group_name_H-M "C C"
_symmetry_group_IT_number 9
_symmetry_cell_setting 'monoclinic'
loop_
_space_group_symop_operation_xyz
x,y,z
x,-y,1/2+z
1/2+x,1/2+y,z
1/2+x,1/2-y,1/2+z
loop_
_atom_site_type_symbol
_atom_site_label
_atom_site_fract_x
_atom_site_fract_y
_atom_site_fract_z
Si Si1 0.876150 0.828598 0.993460
Si Si2 0.441329 0.271346 0.468231
Si Si3 0.201556 0.027970 0.799515
Si Si4 0.579682 0.874416 0.074678
Si Si5 0.390150 0.856142 0.654765
Si Si6 0.041281 0.527476 0.639554
Si Si7 0.638611 0.617987 0.572414
Si Si8 0.747506 0.295322 0.340157
O O1 0.903699 0.810259 0.690357
O O2 0.720031 0.847493 0.078155
O O3 0.992101 0.865931 0.010154
O O4 0.901825 0.789120 0.194334
O O5 0.609447 0.265147 0.423248
O O6 0.357843 0.229707 0.612918
O O7 0.371212 0.034041 0.704030
O O8 0.131275 0.073832 0.744638
O O9 0.165248 0.990054 0.601505
O O10 0.500222 0.855643 0.849846
O O11 0.609232 0.926391 0.027506
O O12 0.474014 0.872104 0.364950
O O13 0.261083 0.886902 0.802261
O O14 0.317684 0.810725 0.585432
O O15 0.077306 0.510704 0.916234
O O16 0.693136 0.659502 0.725519
#
# Coordination Sequence:
#
# PCOD9134953 Si02
#       8
#     4   4   4   4   4   4   4   4
#     4  11  27  48  66  98 141 185 220 289 339 413
#     4  11  27  45  71  98 137 174 237 277 346 392
#     4  10  22  36  65 103 130 169 227 286 330 402
#     4  12  25  42  68 102 134 183 233 276 345 414
#     4  12  23  41  71  99 129 178 229 279 333 407
#     4  10  20  35  60  95 135 172 220 287 336 400
#     4  11  24  47  70  99 140 181 226 278 357 398
#     4  11  26  46  73 102 134 186 222 296 336 414
#
# _framework density 22.038208000000001
#
# number of rings (size 3 to 8) (size 9 to 14) (size 15 to 20)
#    0.000    1.000    3.750    1.500    8.750    1.000 
#    2.250    1.250    0.000    0.000    0.000    0.000 
#    0.000    0.000    0.000    0.000    0.000    0.000 
#
# Total GULP energy -89587.034734 kJ/mol
# GULP energy per Si atom -5599.189671 kJ/mol
# Density = 2.198805 g / cm^3
# Si number density = 22.038208 Si / 1000 Ang^3
#
#
#
# Elastic Constant Matrix: (Units=GPa)
#
#
# Indices 1 2 3 4 5 6 
#
# 1 93.1468 33.8423 30.1485 0.0000 5.0392 0.0000
# 2 33.8423 75.3308 -5.3366 0.0000 -3.3975 0.0000
# 3 30.1485 -5.3366 84.4058 0.0000 6.8301 0.0000
# 4 0.0000 0.0000 0.0000 25.3392 0.0000 6.8049
# 5 5.0392 -3.3975 6.8301 0.0000 22.4880 0.0000
# 6 0.0000 0.0000 0.0000 6.8049 0.0000 15.0764
#
#
#
# Elastic Compliance Matrix: (Units=1/GPa)
#
#
# Indices 1 2 3 4 5 6 
#
# 1 0.015480 -0.007492 -0.005773 0.000000 -0.002847 0.000000
# 2 -0.007492 0.017032 0.003495 0.000000 0.003191 0.000000
# 3 -0.005773 0.003495 0.014335 0.000000 -0.002532 0.000000
# 4 0.000000 0.000000 0.000000 0.044908 0.000000 -0.020270
# 5 -0.002847 0.003191 -0.002532 0.000000 0.046357 0.000000
# 6 0.000000 0.000000 0.000000 -0.020270 0.000000 0.075478
#
#
# Mechanical properties :
#
#
# Convention : Reuss Voigt Hill
#
# Bulk Modulus (GPa) = 36.61941 41.13244 38.87592
# Shear Modulus (GPa) = 20.64132 25.52933 23.08532
#
# Velocity S-wave (km/s) = 3.06374 3.40724 3.24004
# Velocity P-wave (km/s) = 5.40071 5.84668 5.62812
#
# Compressibility (1/GPa) = 0.02730792
#
# Stress axis : x y z
#
# Youngs Moduli (GPa) = 64.59911 58.71330 69.75806
#
# Poissons Ratio (x) = 0.43987 0.40268
# Poissons Ratio (y) = 0.48396 -0.24378
# Poissons Ratio (z) = 0.37290 -0.20518
#
# Static dielectric constant tensor:
#      x y z
#    x 1.784160 0.000000 0.010260 
#    y 0.000000 1.833330 0.000000 
#    z 0.010260 0.000000 1.809020 
# 
# From -- ./inp_files/1378.got.cif
#   From: 2010.05.17/outbox.cif.g08.bks.cpg/sg9_1_cif.got.tgz:1378.got - 2010.06.03 20:04:27.
