data_PCOD9134859
_publ_section_title
;
Structure prediction by ZEFSAII (Michael W. Deem and Ramdas Pophale) SiO2 
 PCOD9134859
Probable space group: C C
;
_chemical_formula_sum "Si O2"
_cell_formula_units_Z 28
_cell_length_a 16.645438
_cell_length_b 16.258541
_cell_length_c 4.899675
_cell_angle_alpha 90.000000
_cell_angle_beta 70.051140
_cell_angle_gamma 90.000000
_cell_volume 1246.438284
_symmetry_space_group_name_H-M "C C"
_symmetry_group_IT_number 9
_symmetry_cell_setting 'monoclinic'
loop_
_space_group_symop_operation_xyz
x,y,z
x,-y,1/2+z
1/2+x,1/2+y,z
1/2+x,1/2-y,1/2+z
loop_
_atom_site_type_symbol
_atom_site_label
_atom_site_fract_x
_atom_site_fract_y
_atom_site_fract_z
Si Si1 0.839020 0.554120 0.494380
Si Si2 0.925972 0.715789 0.167583
Si Si3 0.739817 0.049107 0.731667
Si Si4 0.007421 0.792728 0.605850
Si Si5 0.946407 0.953148 0.991701
Si Si6 0.691700 0.676480 0.644208
Si Si7 0.749329 0.766705 0.082694
O O1 0.851047 0.525311 0.789542
O O2 0.900362 0.626327 0.313162
O O3 0.742904 0.591033 0.584330
O O4 0.842196 0.751534 0.109645
O O5 0.952874 0.768755 0.400826
O O6 0.997398 0.720432 0.845468
O O7 0.843445 0.047391 0.614675
O O8 0.719580 0.139998 0.653959
O O9 0.710120 0.977277 0.563419
O O10 0.099997 0.815306 0.384592
O O11 0.975935 0.870953 0.814255
O O12 0.975449 0.028098 0.762863
O O13 0.690143 0.708901 0.338197
O O14 0.748135 0.737069 0.773054
#
# Coordination Sequence:
#
# PCOD9134859 Si02
#       7
#     4   4   4   4   4   4   4
#     4  11  23  42  67  94 124 164 219 267 319 377
#     4  11  23  39  68  89 120 168 215 262 304 364
#     4  10  20  32  57  86 114 151 193 242 290 343
#     4  12  23  40  61  94 129 166 204 253 318 379
#     4  10  21  33  53  88 124 154 187 233 290 359
#     4  11  25  39  64  91 126 166 201 258 328 376
#     4  11  21  41  60  88 121 161 213 255 291 378
#
# _framework density 22.464006999999999
#
# number of rings (size 3 to 8) (size 9 to 14) (size 15 to 20)
#    0.000    1.143    1.429    6.857    4.000    1.143 
#    0.000    0.000    0.000   17.143    0.000    0.000 
#    0.000    0.000    0.000    0.000    0.000    0.000 
#
# Total GULP energy -78239.457229 kJ/mol
# GULP energy per Si atom -5588.532659 kJ/mol
# Density = 2.241288 g / cm^3
# Si number density = 22.464007 Si / 1000 Ang^3
#
#
#
# Elastic Constant Matrix: (Units=GPa)
#
#
# Indices 1 2 3 4 5 6 
#
# 1 44.6719 4.4115 14.1310 0.0000 7.7825 0.0000
# 2 4.4115 64.0814 -9.7667 0.0000 -0.5464 0.0000
# 3 14.1310 -9.7667 85.0650 0.0000 -7.5100 0.0000
# 4 0.0000 0.0000 0.0000 47.5294 0.0000 10.8243
# 5 7.7825 -0.5464 -7.5100 0.0000 24.4031 0.0000
# 6 0.0000 0.0000 0.0000 10.8243 0.0000 14.7614
#
#
#
# Elastic Compliance Matrix: (Units=1/GPa)
#
#
# Indices 1 2 3 4 5 6 
#
# 1 0.026176 -0.002735 -0.005556 0.000000 -0.010119 0.000000
# 2 -0.002735 0.016190 0.002490 0.000000 0.002001 0.000000
# 3 -0.005556 0.002490 0.013492 0.000000 0.005980 0.000000
# 4 0.000000 0.000000 0.000000 0.025258 0.000000 -0.018521
# 5 -0.010119 0.002001 0.005980 0.000000 0.046091 0.000000
# 6 0.000000 0.000000 0.000000 -0.018521 0.000000 0.081325
#
#
# Mechanical properties :
#
#
# Convention : Reuss Voigt Hill
#
# Bulk Modulus (GPa) = 22.59556 23.48553 23.04055
# Shear Modulus (GPa) = 21.28695 29.67494 25.48094
#
# Velocity S-wave (km/s) = 3.08166 3.63850 3.37159
# Velocity P-wave (km/s) = 4.76891 5.30368 5.04339
#
# Compressibility (1/GPa) = 0.04425649
#
# Stress axis : x y z
#
# Youngs Moduli (GPa) = 38.20319 61.76657 74.11562
#
# Poissons Ratio (x) = 0.16893 0.41176
# Poissons Ratio (y) = 0.10449 -0.18454
# Poissons Ratio (z) = 0.21225 -0.15379
#
# Static dielectric constant tensor:
#      x y z
#    x 1.861870 0.000000 -0.046530 
#    y 0.000000 1.848760 0.000000 
#    z -0.046530 0.000000 1.835870 
# 
# From -- ./inp_files/2911.got.cif
#   From: 2010.05.17/outbox.cif.g08.bks.cpg/sg9_2_cif.got.tgz:2911.got - 2010.06.03 20:04:27.
