data_PCOD9134749
_publ_section_title
;
Structure prediction by ZEFSAII (Michael W. Deem and Ramdas Pophale) SiO2 
 PCOD9134749
Probable space group: C C
;
_chemical_formula_sum "Si O2"
_cell_formula_units_Z 32
_cell_length_a 8.920158
_cell_length_b 10.384290
_cell_length_c 15.260812
_cell_angle_alpha 90.000000
_cell_angle_beta 86.760127
_cell_angle_gamma 90.000000
_cell_volume 1411.342106
_symmetry_space_group_name_H-M "C C"
_symmetry_group_IT_number 9
_symmetry_cell_setting 'monoclinic'
loop_
_space_group_symop_operation_xyz
x,y,z
x,-y,1/2+z
1/2+x,1/2+y,z
1/2+x,1/2-y,1/2+z
loop_
_atom_site_type_symbol
_atom_site_label
_atom_site_fract_x
_atom_site_fract_y
_atom_site_fract_z
Si Si1 0.780880 0.774993 0.254290
Si Si2 0.419100 0.884041 0.588395
Si Si3 0.495757 0.525840 0.843259
Si Si4 0.215936 0.377782 0.889069
Si Si5 0.556653 0.156255 0.904758
Si Si6 0.116227 0.842506 0.512548
Si Si7 0.267615 0.144771 0.789375
Si Si8 0.504758 0.842724 0.139326
O O1 0.876112 0.682069 0.183857
O O2 0.677351 0.753878 0.347562
O O3 0.650919 0.830327 0.195480
O O4 0.896889 0.881456 0.285249
O O5 0.513135 0.810901 0.507388
O O6 0.255701 0.913967 0.550971
O O7 0.506183 0.017436 0.596470
O O8 0.390593 0.406032 0.865447
O O9 0.658441 0.522525 0.793585
O O10 0.536570 0.586020 0.936224
O O11 0.132145 0.513156 0.896714
O O12 0.174449 0.274798 0.814807
O O13 0.184568 0.293713 0.975673
O O14 0.398384 0.136285 0.858388
O O15 0.999455 0.789096 0.585335
O O16 0.352434 0.156417 0.697882
#
# Coordination Sequence:
#
# PCOD9134749 Si02
#       8
#     4   4   4   4   4   4   4   4
#     4   9  23  39  63 101 132 167 224 268 326 394
#     4  11  20  41  69  97 129 174 226 267 321 397
#     4  10  21  40  63  95 130 172 214 269 328 384
#     4  10  20  39  66  90 129 172 212 260 327 392
#     4  10  19  40  69  94 127 187 208 263 344 376
#     4  10  21  41  65  95 135 163 223 273 318 394
#     4  10  22  41  64  95 131 167 217 272 328 389
#     4  10  22  41  65  95 131 176 214 276 330 382
#
# _framework density 22.673456000000002
#
# number of rings (size 3 to 8) (size 9 to 14) (size 15 to 20)
#    0.000    2.000    3.750    0.000    0.000    9.000 
#    4.500   15.000    0.000    0.000    0.000    0.000 
#    0.000    0.000    0.000    0.000    0.000    0.000 
#
# Total GULP energy -89094.122704 kJ/mol
# GULP energy per Si atom -5568.382669 kJ/mol
# Density = 2.262185 g / cm^3
# Si number density = 22.673456 Si / 1000 Ang^3
#
#
#
# Elastic Constant Matrix: (Units=GPa)
#
#
# Indices 1 2 3 4 5 6 
#
# 1 57.4594 13.7906 2.2336 0.0000 -28.8962 0.0000
# 2 13.7906 47.4871 -3.7197 0.0000 -3.2703 0.0000
# 3 2.2336 -3.7197 77.0790 0.0000 -23.1390 0.0000
# 4 0.0000 0.0000 0.0000 22.0559 0.0000 -12.6388
# 5 -28.8962 -3.2703 -23.1390 0.0000 34.8825 0.0000
# 6 0.0000 0.0000 0.0000 -12.6388 0.0000 41.1512
#
#
#
# Elastic Compliance Matrix: (Units=1/GPa)
#
#
# Indices 1 2 3 4 5 6 
#
# 1 0.037099 -0.007533 0.009459 0.000000 0.036301 0.000000
# 2 -0.007533 0.022980 0.000126 0.000000 -0.004002 0.000000
# 3 0.009459 0.000126 0.018806 0.000000 0.020322 0.000000
# 4 0.000000 0.000000 0.000000 0.055023 0.000000 0.016899
# 5 0.036301 -0.004002 0.020322 0.000000 0.071844 0.000000
# 6 0.000000 0.000000 0.000000 0.016899 0.000000 0.029491
#
#
# Mechanical properties :
#
#
# Convention : Reuss Voigt Hill
#
# Bulk Modulus (GPa) = 12.04975 22.95938 17.50457
# Shear Modulus (GPa) = 19.31960 30.93267 25.12614
#
# Velocity S-wave (km/s) = 2.92221 3.69761 3.33254
# Velocity P-wave (km/s) = 4.08800 5.32708 4.74813
#
# Compressibility (1/GPa) = 0.08298927
#
# Stress axis : x y z
#
# Youngs Moduli (GPa) = 26.95457 43.51567 53.17327
#
# Poissons Ratio (x) = 0.32781 -0.50296
# Poissons Ratio (y) = 0.20305 -0.00669
# Poissons Ratio (z) = -0.25496 -0.00547
#
# Static dielectric constant tensor:
#      x y z
#    x 1.855140 0.000000 -0.074200 
#    y 0.000000 1.898380 0.000000 
#    z -0.074200 0.000000 1.934030 
# 
# From -- ./inp_files/22886.got.cif
#   From: 2010.05.17/outbox.cif.g08.bks.cpg/sg9_12_cif.got.tgz:22886.got - 2010.06.03 20:04:27.
