data_PCOD9134865
_publ_section_title
;
Structure prediction by ZEFSAII (Michael W. Deem and Ramdas Pophale) SiO2 
 PCOD9134865
Probable space group: C C
;
_chemical_formula_sum "Si O2"
_cell_formula_units_Z 24
_cell_length_a 11.728862
_cell_length_b 17.022674
_cell_length_c 4.874484
_cell_angle_alpha 90.000000
_cell_angle_beta 80.431963
_cell_angle_gamma 90.000000
_cell_volume 959.684290
_symmetry_space_group_name_H-M "C C"
_symmetry_group_IT_number 9
_symmetry_cell_setting 'monoclinic'
loop_
_space_group_symop_operation_xyz
x,y,z
x,-y,1/2+z
1/2+x,1/2+y,z
1/2+x,1/2-y,1/2+z
loop_
_atom_site_type_symbol
_atom_site_label
_atom_site_fract_x
_atom_site_fract_y
_atom_site_fract_z
Si Si1 0.790780 0.954537 0.060900
Si Si2 0.379191 0.724565 0.987102
Si Si3 0.671834 0.804025 0.177094
Si Si4 0.176728 0.874585 0.588454
Si Si5 0.531040 0.584157 0.675301
Si Si6 0.926096 0.674439 0.976394
O O1 0.742452 0.871313 0.989903
O O2 0.930580 0.956667 0.030609
O O3 0.750539 0.977468 0.377402
O O4 0.251230 0.716095 0.910936
O O5 0.448955 0.647958 0.865682
O O6 0.432617 0.795317 0.783945
O O7 0.391982 0.751415 0.293662
O O8 0.552546 0.844013 0.317530
O O9 0.653550 0.719193 0.041372
O O10 0.315413 0.882420 0.510918
O O11 0.115983 0.933801 0.398641
O O12 0.120113 0.884987 0.909172
#
# Coordination Sequence:
#
# PCOD9134865 Si02
#       6
#     4   4   4   4   4   4
#     4  11  26  44  66  93 125 182 226 262 309 377
#     4  10  20  33  53  86 121 164 197 251 329 382
#     4  10  22  38  63  89 134 166 210 272 317 396
#     4  11  21  35  60  98 127 161 202 268 353 374
#     4  11  20  39  61  87 128 160 214 272 310 387
#     4  11  21  33  55  89 129 157 199 253 340 392
#
# _framework density 25.008224999999999
#
# number of rings (size 3 to 8) (size 9 to 14) (size 15 to 20)
#    0.000    1.333    3.333    3.000    0.000    9.333 
#    0.000    0.000    0.000    6.000    0.000    0.000 
#    0.000    0.000    0.000    0.000    0.000    0.000 
#
# Total GULP energy -67008.315534 kJ/mol
# GULP energy per Si atom -5584.026295 kJ/mol
# Density = 2.495130 g / cm^3
# Si number density = 25.008225 Si / 1000 Ang^3
#
#
#
# Elastic Constant Matrix: (Units=GPa)
#
#
# Indices 1 2 3 4 5 6 
#
# 1 109.0592 7.0173 11.7198 0.0000 -21.0388 0.0000
# 2 7.0173 64.1177 0.1628 0.0000 4.2201 0.0000
# 3 11.7198 0.1628 92.7322 0.0000 -2.7731 0.0000
# 4 0.0000 0.0000 0.0000 17.9168 0.0000 6.6583
# 5 -21.0388 4.2201 -2.7731 0.0000 32.0438 0.0000
# 6 0.0000 0.0000 0.0000 6.6583 0.0000 42.8005
#
#
#
# Elastic Compliance Matrix: (Units=1/GPa)
#
#
# Indices 1 2 3 4 5 6 
#
# 1 0.010788 -0.001652 -0.001145 0.000000 0.007201 0.000000
# 2 -0.001652 0.015986 0.000086 0.000000 -0.003182 0.000000
# 3 -0.001145 0.000086 0.010934 0.000000 0.000183 0.000000
# 4 0.000000 0.000000 0.000000 0.059238 0.000000 -0.009215
# 5 0.007201 -0.003182 0.000183 0.000000 0.036370 0.000000
# 6 0.000000 0.000000 0.000000 -0.009215 0.000000 0.024798
#
#
# Mechanical properties :
#
#
# Convention : Reuss Voigt Hill
#
# Bulk Modulus (GPa) = 30.97388 33.74543 32.35966
# Shear Modulus (GPa) = 28.68632 35.01951 31.85291
#
# Velocity S-wave (km/s) = 3.39052 3.74614 3.57276
# Velocity P-wave (km/s) = 5.26687 5.67754 5.47606
#
# Compressibility (1/GPa) = 0.03228527
#
# Stress axis : x y z
#
# Youngs Moduli (GPa) = 92.69633 62.55342 91.45961
#
# Poissons Ratio (x) = 0.10332 0.10474
# Poissons Ratio (y) = 0.15311 -0.00782
# Poissons Ratio (z) = 0.10615 -0.00535
#
# Static dielectric constant tensor:
#      x y z
#    x 2.046440 0.000000 -0.020240 
#    y 0.000000 1.975940 0.000000 
#    z -0.020240 0.000000 1.940840 
# 
# From -- ./inp_files/1623.got.cif
#   From: 2010.05.17/outbox.cif.g08.bks.cpg/sg9_1_cif.got.tgz:1623.got - 2010.06.03 20:04:27.
