data_PCOD9134472
_publ_section_title
;
Structure prediction by ZEFSAII (Michael W. Deem and Ramdas Pophale) SiO2 
 PCOD9134472
Probable space group: C C
;
_chemical_formula_sum "Si O2"
_cell_formula_units_Z 32
_cell_length_a 10.794774
_cell_length_b 11.009899
_cell_length_c 24.647265
_cell_angle_alpha 90.000000
_cell_angle_beta 22.728805
_cell_angle_gamma 90.000000
_cell_volume 1131.797651
_symmetry_space_group_name_H-M "C C"
_symmetry_group_IT_number 9
_symmetry_cell_setting 'monoclinic'
loop_
_space_group_symop_operation_xyz
x,y,z
x,-y,1/2+z
1/2+x,1/2+y,z
1/2+x,1/2-y,1/2+z
loop_
_atom_site_type_symbol
_atom_site_label
_atom_site_fract_x
_atom_site_fract_y
_atom_site_fract_z
Si Si1 0.238740 0.313643 0.634050
Si Si2 0.342838 0.336118 0.049932
Si Si3 0.451044 0.944446 0.504044
Si Si4 0.182900 0.057960 0.712922
Si Si5 0.033859 0.434797 0.812780
Si Si6 0.623450 0.197430 0.752076
Si Si7 0.569861 0.403545 0.852484
Si Si8 0.347952 0.185712 0.488400
O O1 0.280990 0.414752 0.663113
O O2 0.437937 0.280947 0.499536
O O3 0.891088 0.346352 0.748954
O O4 0.239582 0.194427 0.671043
O O5 0.373046 0.193928 0.022745
O O6 0.311718 0.406173 0.005104
O O7 0.680491 0.391761 0.935683
O O8 0.095878 0.335647 0.199599
O O9 0.397762 0.969080 0.589601
O O10 0.272672 0.055642 0.547439
O O11 0.818409 0.964446 0.340797
O O12 0.157645 0.027214 0.786645
O O13 0.030522 0.578044 0.823714
O O14 0.088462 0.350284 0.843104
O O15 0.469611 0.312354 0.844530
O O16 0.005622 0.224020 0.602875
#
# Coordination Sequence:
#
# PCOD9134472 Si02
#       8
#     4   4   4   4   4   4   4   4
#     4   9  20  39  61  91 129 170 213 271 333 399
#     4  10  20  40  61  87 129 174 208 274 348 391
#     4  11  21  41  67  94 128 171 227 275 327 409
#     4  11  22  39  70  97 128 171 233 269 334 404
#     4  10  19  36  64  87 126 167 215 263 339 407
#     4  10  20  38  62  97 121 170 218 266 339 403
#     4  10  19  38  67  88 124 174 220 268 334 400
#     4   9  21  35  66  89 115 175 214 264 330 397
#
# _framework density 28.273605
#
# number of rings (size 3 to 8) (size 9 to 14) (size 15 to 20)
#    0.000    2.000    3.750    0.750    3.500    0.000 
#    6.750    7.500    2.750    0.000    0.000    0.000 
#    0.000    0.000    0.000    0.000    0.000    0.000 
#
# Total GULP energy -89536.013497 kJ/mol
# GULP energy per Si atom -5596.000844 kJ/mol
# Density = 2.820925 g / cm^3
# Si number density = 28.273605 Si / 1000 Ang^3
#
#
#
# Elastic Constant Matrix: (Units=GPa)
#
#
# Indices 1 2 3 4 5 6 
#
# 1 90.4462 20.8644 45.1858 -0.0053 30.9750 -0.0221
# 2 20.8644 100.9719 11.3120 -0.0050 6.4727 -0.0136
# 3 45.1858 11.3120 150.6744 -0.0758 27.7654 -0.0032
# 4 -0.0053 -0.0050 -0.0758 41.6480 0.0445 14.7089
# 5 30.9750 6.4727 27.7654 0.0445 59.9792 0.0006
# 6 -0.0221 -0.0136 -0.0032 14.7089 0.0006 41.3909
#
#
#
# Elastic Compliance Matrix: (Units=1/GPa)
#
#
# Indices 1 2 3 4 5 6 
#
# 1 0.015364 -0.002412 -0.003293 0.000000 -0.006150 0.000007
# 2 -0.002412 0.010401 -0.000088 0.000000 0.000164 0.000002
# 3 -0.003293 -0.000088 0.007998 0.000019 -0.001992 -0.000008
# 4 0.000000 0.000000 0.000019 0.027457 -0.000029 -0.009757
# 5 -0.006150 0.000164 -0.001992 -0.000029 0.020753 0.000007
# 6 0.000007 0.000002 -0.000008 -0.009757 0.000007 0.027627
#
#
# Mechanical properties :
#
#
# Convention : Reuss Voigt Hill
#
# Bulk Modulus (GPa) = 45.08922 55.20188 50.14555
# Shear Modulus (GPa) = 38.88673 46.25230 42.56952
#
# Velocity S-wave (km/s) = 3.71262 4.04899 3.88445
# Velocity P-wave (km/s) = 5.86176 6.43628 6.15572
#
# Compressibility (1/GPa) = 0.02217825
#
# Stress axis : x y z
#
# Youngs Moduli (GPa) = 65.08750 96.14075 125.02860
#
# Poissons Ratio (x) = 0.23185 0.41175
# Poissons Ratio (y) = 0.15696 0.01098
# Poissons Ratio (z) = 0.21435 0.00844
#
# Static dielectric constant tensor:
#      x y z
#    x 2.304060 0.000090 0.016650 
#    y 0.000090 2.157680 -0.000030 
#    z 0.016650 -0.000030 2.180880 
# 
# From -- ./inp_files/16151.got.cif
#   From: 2010.05.17/outbox.cif.g08.bks.cpg/sg9_9_cif.got.tgz:16151.got - 2010.06.03 20:04:27.
