data_PCOD9134729
_publ_section_title
;
Structure prediction by ZEFSAII (Michael W. Deem and Ramdas Pophale) SiO2 
 PCOD9134729
Probable space group: C C
;
_chemical_formula_sum "Si O2"
_cell_formula_units_Z 32
_cell_length_a 12.093478
_cell_length_b 11.870798
_cell_length_c 24.098147
_cell_angle_alpha 90.000000
_cell_angle_beta 155.948018
_cell_angle_gamma 90.000000
_cell_volume 1409.976843
_symmetry_space_group_name_H-M "C C"
_symmetry_group_IT_number 9
_symmetry_cell_setting 'monoclinic'
loop_
_space_group_symop_operation_xyz
x,y,z
x,-y,1/2+z
1/2+x,1/2+y,z
1/2+x,1/2-y,1/2+z
loop_
_atom_site_type_symbol
_atom_site_label
_atom_site_fract_x
_atom_site_fract_y
_atom_site_fract_z
Si Si1 0.713860 0.390541 0.914450
Si Si2 0.544568 0.107220 0.324320
Si Si3 0.104104 0.570843 0.144283
Si Si4 0.920820 0.394970 0.891536
Si Si5 0.053546 0.648908 0.824509
Si Si6 0.366248 0.222559 0.135425
Si Si7 0.376176 0.143566 0.858606
Si Si8 0.594604 0.734985 0.550387
O O1 0.425055 0.436122 0.804277
O O2 0.735433 0.254342 0.925951
O O3 0.709674 0.408699 0.845347
O O4 0.950615 0.457404 0.054762
O O5 0.384128 0.124063 0.308775
O O6 0.362404 0.148392 0.189359
O O7 0.829075 0.172578 0.451542
O O8 0.644604 0.978245 0.363751
O O9 0.965980 0.638685 0.132049
O O10 0.093116 0.650376 0.084954
O O11 0.021317 0.525148 0.936509
O O12 0.107213 0.292177 0.996916
O O13 0.834531 0.650170 0.774109
O O14 0.879722 0.675826 0.690917
O O15 0.582470 0.323649 0.247371
O O16 0.557616 0.239615 0.968931
#
# Coordination Sequence:
#
# PCOD9134729 Si02
#       8
#     4   4   4   4   4   4   4   4
#     4  11  25  44  73 102 144 183 244 300 350 428
#     4  10  23  42  68  97 138 187 229 292 363 418
#     4  11  23  47  71 103 139 188 237 298 356 425
#     4  11  23  40  69 105 133 179 245 289 345 433
#     4  10  22  42  62 101 133 178 234 290 349 423
#     4  11  23  45  71  98 145 189 233 297 364 426
#     4  10  20  38  71  93 135 183 232 280 355 416
#     4  10  19  40  65  93 133 181 224 288 352 411
#
# _framework density 22.695408
#
# number of rings (size 3 to 8) (size 9 to 14) (size 15 to 20)
#    0.000    1.500    5.000    0.000    1.750    2.000 
#    2.250    3.750    0.000    0.000    0.000    0.000 
#    0.000    0.000    0.000    0.000    0.000    0.000 
#
# Total GULP energy -89095.757558 kJ/mol
# GULP energy per Si atom -5568.484847 kJ/mol
# Density = 2.264375 g / cm^3
# Si number density = 22.695408 Si / 1000 Ang^3
#
#
#
# Elastic Constant Matrix: (Units=GPa)
#
#
# Indices 1 2 3 4 5 6 
#
# 1 98.4424 27.5938 29.6777 0.0005 -15.4165 -0.0006
# 2 27.5938 100.2110 29.3707 -0.0001 -5.8069 0.0002
# 3 29.6777 29.3707 57.3003 0.0024 -12.2670 -0.0023
# 4 0.0005 -0.0001 0.0024 25.7017 -0.0027 -5.8251
# 5 -15.4165 -5.8069 -12.2670 -0.0027 26.8860 0.0001
# 6 -0.0006 0.0002 -0.0023 -5.8251 0.0001 18.0258
#
#
#
# Elastic Compliance Matrix: (Units=1/GPa)
#
#
# Indices 1 2 3 4 5 6 
#
# 1 0.012848 -0.001895 -0.004647 0.000001 0.004837 0.000000
# 2 -0.001895 0.012024 -0.005384 0.000000 -0.000946 -0.000001
# 3 -0.004647 -0.005384 0.024159 -0.000001 0.007195 0.000003
# 4 0.000001 0.000000 -0.000001 0.041983 0.000004 0.013567
# 5 0.004837 -0.000946 0.007195 0.000004 0.043046 0.000002
# 6 0.000000 -0.000001 0.000003 0.013567 0.000002 0.059860
#
#
# Mechanical properties :
#
#
# Convention : Reuss Voigt Hill
#
# Bulk Modulus (GPa) = 39.71810 47.69312 43.70561
# Shear Modulus (GPa) = 22.10758 25.41013 23.75886
#
# Velocity S-wave (km/s) = 3.12444 3.34970 3.23903
# Velocity P-wave (km/s) = 5.52763 6.00172 5.76955
#
# Compressibility (1/GPa) = 0.02517744
#
# Stress axis : x y z
#
# Youngs Moduli (GPa) = 77.83246 83.16659 41.39237
#
# Poissons Ratio (x) = 0.15764 0.19236
# Poissons Ratio (y) = 0.14753 0.22286
# Poissons Ratio (z) = 0.36171 0.44778
#
# Static dielectric constant tensor:
#      x y z
#    x 1.885810 0.000000 0.015620 
#    y 0.000000 1.864420 0.000000 
#    z 0.015620 0.000000 1.868910 
# 
# From -- ./inp_files/24718.got.cif
#   From: 2010.05.17/outbox.cif.g08.bks.cpg/sg9_13_cif.got.tgz:24718.got - 2010.06.03 20:04:27.
