data_PCOD9134189
_publ_section_title
;
Structure prediction by ZEFSAII (Michael W. Deem and Ramdas Pophale) SiO2 
 PCOD9134189
Probable space group: C C
;
_chemical_formula_sum "Si O2"
_cell_formula_units_Z 24
_cell_length_a 11.694728
_cell_length_b 6.859510
_cell_length_c 18.727248
_cell_angle_alpha 90.000000
_cell_angle_beta 40.811300
_cell_angle_gamma 90.000000
_cell_volume 981.859203
_symmetry_space_group_name_H-M "C C"
_symmetry_group_IT_number 9
_symmetry_cell_setting 'monoclinic'
loop_
_space_group_symop_operation_xyz
x,y,z
x,-y,1/2+z
1/2+x,1/2+y,z
1/2+x,1/2-y,1/2+z
loop_
_atom_site_type_symbol
_atom_site_label
_atom_site_fract_x
_atom_site_fract_y
_atom_site_fract_z
Si Si1 0.860550 0.664916 0.495600
Si Si2 0.422386 0.410075 0.037838
Si Si3 0.315680 0.028208 0.358845
Si Si4 0.469246 0.474466 0.175442
Si Si5 0.199537 0.430213 0.916865
Si Si6 0.589822 0.894067 0.119409
O O1 0.884831 0.876238 0.520920
O O2 0.882263 0.625347 0.400492
O O3 0.662208 0.599395 0.601792
O O4 0.020501 0.554079 0.457647
O O5 0.402432 0.387134 0.132461
O O6 0.259139 0.304378 0.078940
O O7 0.628062 0.380357 0.925676
O O8 0.264880 0.796947 0.395015
O O9 0.466552 0.021984 0.228285
O O10 0.348509 0.463472 0.301590
O O11 0.477150 0.705199 0.151835
O O12 0.155925 0.498258 0.016969
#
# Coordination Sequence:
#
# PCOD9134189 Si02
#       6
#     4   4   4   4   4   4
#     4  10  18  40  60  83 115 154 190 243 286 335
#     4  10  21  39  62  86 115 151 195 239 287 342
#     4   9  20  38  61  82 118 154 189 237 289 339
#     4  10  21  41  59  84 118 152 193 239 286 342
#     4  10  20  37  62  85 114 156 192 233 290 344
#     4  11  20  39  60  86 116 155 191 235 290 344
#
# _framework density 24.443424
#
# number of rings (size 3 to 8) (size 9 to 14) (size 15 to 20)
#    0.000    2.000    5.000    1.000    0.000    1.333 
#   12.000    0.000    0.000    0.000    0.000    0.000 
#    0.000    0.000    0.000    0.000    0.000    0.000 
#
# Total GULP energy -67087.825772 kJ/mol
# GULP energy per Si atom -5590.652148 kJ/mol
# Density = 2.438779 g / cm^3
# Si number density = 24.443424 Si / 1000 Ang^3
#
#
#
# Elastic Constant Matrix: (Units=GPa)
#
#
# Indices 1 2 3 4 5 6 
#
# 1 183.8615 20.5842 88.5384 0.0000 9.1775 0.0000
# 2 20.5842 76.2505 27.5668 0.0000 12.3664 0.0000
# 3 88.5384 27.5668 227.8633 0.0000 37.0915 0.0000
# 4 0.0000 0.0000 0.0000 29.5736 0.0000 -10.2527
# 5 9.1775 12.3664 37.0915 0.0000 23.0411 0.0000
# 6 0.0000 0.0000 0.0000 -10.2527 0.0000 38.4564
#
#
#
# Elastic Compliance Matrix: (Units=1/GPa)
#
#
# Indices 1 2 3 4 5 6 
#
# 1 0.006865 -0.001219 -0.002956 0.000000 0.002678 0.000000
# 2 -0.001219 0.014654 -0.000133 0.000000 -0.007166 0.000000
# 3 -0.002956 -0.000133 0.007250 0.000000 -0.010422 0.000000
# 4 0.000000 0.000000 0.000000 0.037258 0.000000 0.009933
# 5 0.002678 -0.007166 -0.010422 0.000000 0.062957 0.000000
# 6 0.000000 0.000000 0.000000 0.009933 0.000000 0.028652
#
#
# Mechanical properties :
#
#
# Convention : Reuss Voigt Hill
#
# Bulk Modulus (GPa) = 49.61990 84.59491 67.10740
# Shear Modulus (GPa) = 28.90707 41.63327 35.27017
#
# Velocity S-wave (km/s) = 3.44264 4.13152 3.80271
# Velocity P-wave (km/s) = 6.01218 7.57911 6.84066
#
# Compressibility (1/GPa) = 0.02015321
#
# Stress axis : x y z
#
# Youngs Moduli (GPa) = 145.66376 68.24142 137.93636
#
# Poissons Ratio (x) = 0.08318 0.40774
# Poissons Ratio (y) = 0.17756 0.01831
# Poissons Ratio (z) = 0.43059 0.00906
#
# Static dielectric constant tensor:
#      x y z
#    x 1.884880 0.000000 -0.007160 
#    y 0.000000 2.114120 0.000000 
#    z -0.007160 0.000000 1.905910 
# 
# From -- ./inp_files/15868.got.cif
#   From: 2010.05.17/outbox.cif.g08.bks.cpg/sg9_8_cif.got.tgz:15868.got - 2010.06.03 20:04:27.
