data_PCOD9134974
_publ_section_title
;
Structure prediction by ZEFSAII (Michael W. Deem and Ramdas Pophale) SiO2 
 PCOD9134974
Probable space group: C C
;
_chemical_formula_sum "Si O2"
_cell_formula_units_Z 32
_cell_length_a 7.754286
_cell_length_b 15.825004
_cell_length_c 18.667527
_cell_angle_alpha 90.000000
_cell_angle_beta 146.627402
_cell_angle_gamma 90.000000
_cell_volume 1260.083710
_symmetry_space_group_name_H-M "C C"
_symmetry_group_IT_number 9
_symmetry_cell_setting 'monoclinic'
loop_
_space_group_symop_operation_xyz
x,y,z
x,-y,1/2+z
1/2+x,1/2+y,z
1/2+x,1/2-y,1/2+z
loop_
_atom_site_type_symbol
_atom_site_label
_atom_site_fract_x
_atom_site_fract_y
_atom_site_fract_z
Si Si1 0.081200 0.374533 0.598530
Si Si2 0.582217 0.924177 0.883046
Si Si3 0.646433 0.280189 0.764576
Si Si4 0.459895 0.699307 0.734059
Si Si5 0.545502 0.317439 0.496884
Si Si6 0.921190 0.831987 0.867239
Si Si7 0.693300 0.508389 0.129297
Si Si8 0.032897 0.440083 0.104477
O O1 0.293970 0.310061 0.628326
O O2 0.258795 0.365470 0.737731
O O3 0.729678 0.344629 0.489015
O O4 0.052237 0.471999 0.568359
O O5 0.350762 0.864648 0.846113
O O6 0.745538 0.875333 0.873268
O O7 0.376613 0.990294 0.767086
O O8 0.872137 0.958757 0.026750
O O9 0.790612 0.239930 0.744305
O O10 0.713762 0.218195 0.854647
O O11 0.808117 0.735019 0.840937
O O12 0.256718 0.741373 0.599852
O O13 0.372176 0.602292 0.713836
O O14 0.584690 0.397890 0.563032
O O15 0.269582 0.870758 0.990812
O O16 0.912844 0.468292 0.142689
#
# Coordination Sequence:
#
# PCOD9134974 Si02
#       8
#     4   4   4   4   4   4   4   4
#     4  10  21  40  61  92 124 161 224 270 327 396
#     4  10  20  41  64  94 131 174 221 275 328 414
#     4  11  23  39  63  92 131 165 221 280 325 390
#     4  10  21  39  61  91 128 164 222 266 326 397
#     4  10  21  43  62  86 131 179 210 270 335 400
#     4   9  18  39  60  84 129 166 209 265 326 398
#     4  10  20  40  70  91 129 176 224 264 341 411
#     4  10  20  35  67  90 119 173 213 266 328 392
#
# _framework density 25.395136999999998
#
# number of rings (size 3 to 8) (size 9 to 14) (size 15 to 20)
#    0.000    2.000    5.000    0.750    1.750    4.000 
#    4.500    2.500    0.000    0.000    0.000    0.000 
#    0.000    0.000    0.000    0.000    0.000    0.000 
#
# Total GULP energy -89363.295278 kJ/mol
# GULP energy per Si atom -5585.205955 kJ/mol
# Density = 2.533734 g / cm^3
# Si number density = 25.395137 Si / 1000 Ang^3
#
#
#
# Elastic Constant Matrix: (Units=GPa)
#
#
# Indices 1 2 3 4 5 6 
#
# 1 75.6467 17.2329 9.2891 0.0007 5.5502 -0.0001
# 2 17.2329 84.6767 37.8467 0.0010 9.4929 0.0002
# 3 9.2891 37.8467 80.9010 0.0084 3.2532 0.0015
# 4 0.0007 0.0010 0.0084 38.2333 0.0006 15.0157
# 5 5.5502 9.4929 3.2532 0.0006 20.6116 -0.0005
# 6 -0.0001 0.0002 0.0015 15.0157 -0.0005 22.8792
#
#
#
# Elastic Compliance Matrix: (Units=1/GPa)
#
#
# Indices 1 2 3 4 5 6 
#
# 1 0.014002 -0.002384 -0.000388 0.000000 -0.002611 0.000000
# 2 -0.002384 0.016063 -0.007014 0.000002 -0.005649 -0.000001
# 3 -0.000388 -0.007014 0.015652 -0.000004 0.000864 0.000002
# 4 0.000000 0.000002 -0.000004 0.035238 -0.000002 -0.023127
# 5 -0.002611 -0.005649 0.000864 -0.000002 0.051685 0.000002
# 6 0.000000 -0.000001 0.000002 -0.023127 0.000002 0.058886
#
#
# Mechanical properties :
#
#
# Convention : Reuss Voigt Hill
#
# Bulk Modulus (GPa) = 38.24602 41.10687 39.67645
# Shear Modulus (GPa) = 22.74696 28.13520 25.44108
#
# Velocity S-wave (km/s) = 2.99611 3.33212 3.16857
# Velocity P-wave (km/s) = 5.20211 5.57011 5.38925
#
# Compressibility (1/GPa) = 0.02614651
#
# Stress axis : x y z
#
# Youngs Moduli (GPa) = 71.42075 62.25582 63.89135
#
# Poissons Ratio (x) = 0.14839 0.02477
# Poissons Ratio (y) = 0.17023 0.44810
# Poissons Ratio (z) = 0.02768 0.43663
#
# Static dielectric constant tensor:
#      x y z
#    x 2.028460 0.000000 0.000700 
#    y 0.000000 2.053630 0.000000 
#    z 0.000700 0.000000 2.028610 
# 
# From -- ./inp_files/35066.got.cif
#   From: 2010.05.17/outbox.cif.g08.bks.cpg/sg9_18_cif.got.tgz:35066.got - 2010.06.03 20:04:27.
