data_PCOD9134823
_publ_section_title
;
Structure prediction by ZEFSAII (Michael W. Deem and Ramdas Pophale) SiO2 
 PCOD9134823
Probable space group: C C
;
_chemical_formula_sum "Si O2"
_cell_formula_units_Z 32
_cell_length_a 8.371594
_cell_length_b 18.349759
_cell_length_c 15.320290
_cell_angle_alpha 90.000000
_cell_angle_beta 143.727942
_cell_angle_gamma 90.000000
_cell_volume 1392.349971
_symmetry_space_group_name_H-M "C C"
_symmetry_group_IT_number 9
_symmetry_cell_setting 'monoclinic'
loop_
_space_group_symop_operation_xyz
x,y,z
x,-y,1/2+z
1/2+x,1/2+y,z
1/2+x,1/2-y,1/2+z
loop_
_atom_site_type_symbol
_atom_site_label
_atom_site_fract_x
_atom_site_fract_y
_atom_site_fract_z
Si Si1 0.991420 0.439121 0.191580
Si Si2 0.938886 0.562159 0.467543
Si Si3 0.497864 0.374044 0.485010
Si Si4 0.814008 0.283018 0.952567
Si Si5 0.758189 0.824600 0.655036
Si Si6 0.070798 0.822316 0.036824
Si Si7 0.600916 0.899287 0.752222
Si Si8 0.392350 0.451830 0.611519
O O1 0.269423 0.393184 0.313892
O O2 0.068746 0.517298 0.264299
O O3 0.892017 0.457237 0.049508
O O4 0.771090 0.390126 0.145704
O O5 0.989503 0.648820 0.497970
O O6 0.668760 0.547638 0.291055
O O7 0.196457 0.518873 0.545241
O O8 0.441459 0.295049 0.499672
O O9 0.475030 0.436269 0.549116
O O10 0.806271 0.373759 0.594208
O O11 0.551493 0.288367 0.775578
O O12 0.694245 0.296737 0.996788
O O13 0.577643 0.753531 0.592065
O O14 0.769695 0.882477 0.739345
O O15 0.713633 0.879243 0.556113
O O16 0.768862 0.853187 0.896181
#
# Coordination Sequence:
#
# PCOD9134823 Si02
#       8
#     4   4   4   4   4   4   4   4
#     4  11  23  43  73  98 131 179 227 273 347 403
#     4  10  24  43  69  97 129 182 226 273 329 416
#     4  12  25  42  67 101 139 173 220 288 347 388
#     4   9  20  41  66  95 131 178 225 272 335 403
#     4  10  19  43  69  90 133 184 226 266 335 418
#     4  10  20  42  69  94 133 181 228 270 337 407
#     4  11  25  41  64 104 134 171 227 290 328 404
#     4  11  24  45  67  97 140 174 227 278 342 401
#
# _framework density 22.982727000000001
#
# number of rings (size 3 to 8) (size 9 to 14) (size 15 to 20)
#    0.000    1.500    3.750    1.500    3.500    0.000 
#   11.250    0.000    0.000    0.000    0.000    0.000 
#    0.000    0.000    0.000    0.000    0.000    0.000 
#
# Total GULP energy -89250.549101 kJ/mol
# GULP energy per Si atom -5578.159319 kJ/mol
# Density = 2.293042 g / cm^3
# Si number density = 22.982727 Si / 1000 Ang^3
#
#
#
# Elastic Constant Matrix: (Units=GPa)
#
#
# Indices 1 2 3 4 5 6 
#
# 1 31.3928 5.7529 7.5321 0.0001 -3.4870 0.0000
# 2 5.7529 123.4273 31.6130 0.0007 4.7178 0.0006
# 3 7.5321 31.6130 112.0113 0.0021 4.1162 0.0013
# 4 0.0001 0.0007 0.0021 42.6878 0.0008 6.1527
# 5 -3.4870 4.7178 4.1162 0.0008 26.3406 0.0003
# 6 0.0000 0.0006 0.0013 6.1527 0.0003 19.3822
#
#
#
# Elastic Compliance Matrix: (Units=1/GPa)
#
#
# Indices 1 2 3 4 5 6 
#
# 1 0.033118 -0.001202 -0.002069 0.000000 0.004923 0.000000
# 2 -0.001202 0.008814 -0.002356 0.000000 -0.001369 0.000000
# 3 -0.002069 -0.002356 0.009783 0.000000 -0.001381 0.000000
# 4 0.000000 0.000000 0.000000 0.024549 -0.000001 -0.007793
# 5 0.004923 -0.001369 -0.001381 -0.000001 0.039077 0.000000
# 6 0.000000 0.000000 0.000000 -0.007793 0.000000 0.054067
#
#
# Mechanical properties :
#
#
# Convention : Reuss Voigt Hill
#
# Bulk Modulus (GPa) = 24.71562 39.62527 32.17044
# Shear Modulus (GPa) = 25.75351 32.47770 29.11560
#
# Velocity S-wave (km/s) = 3.35111 3.76325 3.56314
# Velocity P-wave (km/s) = 5.07450 6.01344 5.56381
#
# Compressibility (1/GPa) = 0.04046024
#
# Stress axis : x y z
#
# Youngs Moduli (GPa) = 30.19525 113.45804 102.22285
#
# Poissons Ratio (x) = 0.13637 0.21146
# Poissons Ratio (y) = 0.03629 0.24088
# Poissons Ratio (z) = 0.06246 0.26735
#
# Static dielectric constant tensor:
#      x y z
#    x 1.888170 0.000000 -0.047300 
#    y 0.000000 1.906440 0.000000 
#    z -0.047300 0.000000 1.913770 
# 
# From -- ./inp_files/15197.got.cif
#   From: 2010.05.17/outbox.cif.g08.bks.cpg/sg9_8_cif.got.tgz:15197.got - 2010.06.03 20:04:27.
