data_PCOD9134881
_publ_section_title
;
Structure prediction by ZEFSAII (Michael W. Deem and Ramdas Pophale) SiO2 
 PCOD9134881
Probable space group: C C
;
_chemical_formula_sum "Si O2"
_cell_formula_units_Z 32
_cell_length_a 20.098147
_cell_length_b 8.416567
_cell_length_c 14.509257
_cell_angle_alpha 90.000000
_cell_angle_beta 140.479284
_cell_angle_gamma 90.000000
_cell_volume 1561.842074
_symmetry_space_group_name_H-M "C C"
_symmetry_group_IT_number 9
_symmetry_cell_setting 'monoclinic'
loop_
_space_group_symop_operation_xyz
x,y,z
x,-y,1/2+z
1/2+x,1/2+y,z
1/2+x,1/2-y,1/2+z
loop_
_atom_site_type_symbol
_atom_site_label
_atom_site_fract_x
_atom_site_fract_y
_atom_site_fract_z
Si Si1 0.680160 0.560168 0.270250
Si Si2 0.059214 0.275025 0.995094
Si Si3 0.917660 0.479147 0.973352
Si Si4 0.053350 0.227485 0.583172
Si Si5 0.963324 0.330195 0.216848
Si Si6 0.660469 0.930954 0.548041
Si Si7 0.743810 0.341356 0.039284
Si Si8 0.529410 0.534414 0.378053
O O1 0.610427 0.669792 0.130301
O O2 0.792098 0.522315 0.342529
O O3 0.615689 0.395715 0.213946
O O4 0.704316 0.650123 0.391502
O O5 0.153515 0.383130 0.056703
O O6 0.971266 0.389488 0.944545
O O7 0.012391 0.151545 0.871407
O O8 0.955267 0.383493 0.103815
O O9 0.966409 0.655781 0.030830
O O10 0.135595 0.343306 0.618120
O O11 0.004200 0.122758 0.447623
O O12 0.063838 0.395475 0.376133
O O13 0.973163 0.139245 0.240028
O O14 0.861844 0.398470 0.160313
O O15 0.749543 0.833057 0.591805
O O16 0.654893 0.437824 0.998652
#
# Coordination Sequence:
#
# PCOD9134881 Si02
#       8
#     4   4   4   4   4   4   4   4
#     4  10  20  36  58  81 109 144 179 222 273 321
#     4  10  20  34  54  82 110 142 182 222 264 318
#     4  10  20  36  58  81 109 144 179 222 273 321
#     4   8  18  34  54  78 104 138 180 224 264 312
#     4   9  18  34  54  75 104 142 179 218 268 320
#     4   9  19  33  52  76 106 142 175 218 265 310
#     4   9  18  34  54  75 104 142 179 218 268 320
#     4   9  19  33  52  76 106 142 175 218 265 310
#
# _framework density 20.488627000000001
#
# number of rings (size 3 to 8) (size 9 to 14) (size 15 to 20)
#    0.000    3.000    0.000    1.500    0.000   11.000 
#    0.000    3.750    0.000   21.000    0.000    0.000 
#    0.000    0.000    0.000    0.000    0.000    0.000 
#
# Total GULP energy -89134.022720 kJ/mol
# GULP energy per Si atom -5570.876420 kJ/mol
# Density = 2.044199 g / cm^3
# Si number density = 20.488627 Si / 1000 Ang^3
#
#
#
# Elastic Constant Matrix: (Units=GPa)
#
#
# Indices 1 2 3 4 5 6 
#
# 1 75.5392 22.8843 2.9492 0.0000 9.8407 0.0000
# 2 22.8843 109.8446 -4.2576 0.0000 -10.6789 0.0000
# 3 2.9492 -4.2576 27.4736 0.0000 -1.1182 0.0000
# 4 0.0000 0.0000 0.0000 20.2074 0.0000 -3.9631
# 5 9.8407 -10.6789 -1.1182 0.0000 23.9374 0.0000
# 6 0.0000 0.0000 0.0000 -3.9631 0.0000 20.7604
#
#
#
# Elastic Compliance Matrix: (Units=1/GPa)
#
#
# Indices 1 2 3 4 5 6 
#
# 1 0.015718 -0.004201 -0.002683 0.000000 -0.008461 0.000000
# 2 -0.004201 0.010715 0.002381 0.000000 0.006618 0.000000
# 3 -0.002683 0.002381 0.037214 0.000000 0.003903 0.000000
# 4 0.000000 0.000000 0.000000 0.051412 0.000000 0.009814
# 5 -0.008461 0.006618 0.003903 0.000000 0.048389 0.000000
# 6 0.000000 0.000000 0.000000 0.009814 0.000000 0.050042
#
#
# Mechanical properties :
#
#
# Convention : Reuss Voigt Hill
#
# Bulk Modulus (GPa) = 18.30129 28.44547 23.37338
# Shear Modulus (GPa) = 20.77196 25.73316 23.25256
#
# Velocity S-wave (km/s) = 3.18752 3.54782 3.37248
# Velocity P-wave (km/s) = 4.74330 5.54043 5.15729
#
# Compressibility (1/GPa) = 0.05464096
#
# Stress axis : x y z
#
# Youngs Moduli (GPa) = 63.62194 93.32966 26.87135
#
# Poissons Ratio (x) = 0.39209 0.07209
# Poissons Ratio (y) = 0.26728 -0.06398
# Poissons Ratio (z) = 0.17068 -0.22220
#
# Static dielectric constant tensor:
#      x y z
#    x 1.780140 0.000000 -0.001710 
#    y 0.000000 1.791520 0.000000 
#    z -0.001710 0.000000 1.727200 
# 
# From -- ./inp_files/27306.got.cif
#   From: 2010.05.17/outbox.cif.g08.bks.cpg/sg9_14_cif.got.tgz:27306.got - 2010.06.03 20:04:27.
