data_PCOD9134786
_publ_section_title
;
Structure prediction by ZEFSAII (Michael W. Deem and Ramdas Pophale) SiO2 
 PCOD9134786
Probable space group: C C
;
_chemical_formula_sum "Si O2"
_cell_formula_units_Z 28
_cell_length_a 11.013108
_cell_length_b 11.333034
_cell_length_c 9.965730
_cell_angle_alpha 90.000000
_cell_angle_beta 73.973250
_cell_angle_gamma 90.000000
_cell_volume 1195.497443
_symmetry_space_group_name_H-M "C C"
_symmetry_group_IT_number 9
_symmetry_cell_setting 'monoclinic'
loop_
_space_group_symop_operation_xyz
x,y,z
x,-y,1/2+z
1/2+x,1/2+y,z
1/2+x,1/2-y,1/2+z
loop_
_atom_site_type_symbol
_atom_site_label
_atom_site_fract_x
_atom_site_fract_y
_atom_site_fract_z
Si Si1 0.540360 0.067992 0.570020
Si Si2 0.141247 0.021807 0.297285
Si Si3 0.409481 0.943152 0.847558
Si Si4 0.196443 0.646630 0.917173
Si Si5 0.471194 0.674817 0.810040
Si Si6 0.202201 0.765777 0.615893
Si Si7 0.972198 0.177677 0.519413
O O1 0.426379 0.049482 0.501203
O O2 0.599015 0.197951 0.559334
O O3 0.491007 0.032001 0.731844
O O4 0.645579 0.981640 0.473701
O O5 0.265357 0.045433 0.347489
O O6 0.169856 0.098569 0.155305
O O7 0.018138 0.085534 0.396424
O O8 0.101598 0.885732 0.311017
O O9 0.466818 0.815085 0.794935
O O10 0.339412 0.654172 0.927892
O O11 0.200015 0.694442 0.760915
O O12 0.090783 0.735272 0.005876
O O13 0.450647 0.617085 0.669072
O O14 0.344953 0.747524 0.520787
#
# Coordination Sequence:
#
# PCOD9134786 Si02
#       7
#     4   4   4   4   4   4   4
#     4  12  24  44  71 103 139 196 234 301 368 439
#     4  11  24  43  69 102 141 192 239 308 361 442
#     4  12  26  45  71 103 147 189 246 302 368 431
#     4  10  19  41  69  94 137 179 229 293 361 423
#     4  11  23  42  69 102 134 190 238 299 366 435
#     4  10  21  42  69  99 135 189 237 294 375 429
#     4  10  19  41  70  93 141 181 231 301 371 417
#
# _framework density 23.421213000000002
#
# number of rings (size 3 to 8) (size 9 to 14) (size 15 to 20)
#    0.000    1.143    7.143    0.857    2.000    1.143 
#    2.571    1.429    0.000    0.000    0.000    0.000 
#    0.000    0.000    0.000    0.000    0.000    0.000 
#
# Total GULP energy -78123.629784 kJ/mol
# GULP energy per Si atom -5580.259270 kJ/mol
# Density = 2.336791 g / cm^3
# Si number density = 23.421213 Si / 1000 Ang^3
#
#
#
# Elastic Constant Matrix: (Units=GPa)
#
#
# Indices 1 2 3 4 5 6 
#
# 1 119.5337 58.2678 18.8063 0.0000 -13.1025 0.0000
# 2 58.2678 81.2811 0.3785 0.0000 -12.3784 0.0000
# 3 18.8063 0.3785 54.8671 0.0000 -12.1419 0.0000
# 4 0.0000 0.0000 0.0000 22.7027 0.0000 -3.1625
# 5 -13.1025 -12.3784 -12.1419 0.0000 33.9682 0.0000
# 6 0.0000 0.0000 0.0000 -3.1625 0.0000 39.8039
#
#
#
# Elastic Compliance Matrix: (Units=1/GPa)
#
#
# Indices 1 2 3 4 5 6 
#
# 1 0.013986 -0.009993 -0.004709 0.000000 0.000070 0.000000
# 2 -0.009993 0.020222 0.004413 0.000000 0.005092 0.000000
# 3 -0.004709 0.004413 0.021461 0.000000 0.007463 0.000000
# 4 0.000000 0.000000 0.000000 0.044541 0.000000 0.003539
# 5 0.000070 0.005092 0.007463 0.000000 0.033989 0.000000
# 6 0.000000 0.000000 0.000000 0.003539 0.000000 0.025404
#
#
# Mechanical properties :
#
#
# Convention : Reuss Voigt Hill
#
# Bulk Modulus (GPa) = 28.49964 45.62078 37.06021
# Shear Modulus (GPa) = 26.05805 31.17692 28.61748
#
# Velocity S-wave (km/s) = 3.33916 3.65244 3.49931
# Velocity P-wave (km/s) = 5.20205 6.10801 5.67314
#
# Compressibility (1/GPa) = 0.03508816
#
# Stress axis : x y z
#
# Youngs Moduli (GPa) = 71.50102 49.45156 46.59597
#
# Poissons Ratio (x) = 0.49419 0.21944
# Poissons Ratio (y) = 0.71454 -0.20561
# Poissons Ratio (z) = 0.33673 -0.21821
#
# Static dielectric constant tensor:
#      x y z
#    x 1.913810 0.000000 0.045560 
#    y 0.000000 1.963630 0.000000 
#    z 0.045560 0.000000 1.942240 
# 
# From -- ./inp_files/16119.got.cif
#   From: 2010.05.17/outbox.cif.g08.bks.cpg/sg9_9_cif.got.tgz:16119.got - 2010.06.03 20:04:27.
