data_PCOD9134877
_publ_section_title
;
Structure prediction by ZEFSAII (Michael W. Deem and Ramdas Pophale) SiO2 
 PCOD9134877
Probable space group: C C
;
_chemical_formula_sum "Si O2"
_cell_formula_units_Z 32
_cell_length_a 18.874063
_cell_length_b 12.511862
_cell_length_c 5.751368
_cell_angle_alpha 90.000000
_cell_angle_beta 109.218609
_cell_angle_gamma 90.000000
_cell_volume 1282.491421
_symmetry_space_group_name_H-M "C C"
_symmetry_group_IT_number 9
_symmetry_cell_setting 'monoclinic'
loop_
_space_group_symop_operation_xyz
x,y,z
x,-y,1/2+z
1/2+x,1/2+y,z
1/2+x,1/2-y,1/2+z
loop_
_atom_site_type_symbol
_atom_site_label
_atom_site_fract_x
_atom_site_fract_y
_atom_site_fract_z
Si Si1 0.798070 0.478143 0.591490
Si Si2 0.052479 0.764266 0.559293
Si Si3 0.702237 0.316002 0.959288
Si Si4 0.355316 0.550379 0.527503
Si Si5 0.769079 0.766806 0.131126
Si Si6 0.021654 0.975414 0.668365
Si Si7 0.626258 0.166629 0.254321
Si Si8 0.017185 0.524844 0.610492
O O1 0.836043 0.508111 0.386603
O O2 0.731199 0.565698 0.538039
O O3 0.769626 0.356102 0.545196
O O4 0.997504 0.852420 0.598337
O O5 0.059501 0.737537 0.295242
O O6 0.039110 0.649041 0.656365
O O7 0.131829 0.820301 0.707326
O O8 0.667170 0.238301 0.110187
O O9 0.770630 0.252742 0.908834
O O10 0.329224 0.511333 0.240356
O O11 0.332132 0.670595 0.562545
O O12 0.444707 0.540126 0.609300
O O13 0.694189 0.838529 0.012129
O O14 0.058744 0.013293 0.464081
O O15 0.590719 0.052321 0.166089
O O16 0.981230 0.511020 0.315511
#
# Coordination Sequence:
#
# PCOD9134877 Si02
#       8
#     4   4   4   4   4   4   4   4
#     4  10  20  34  52  82 123 160 201 238 298 382
#     4  10  22  36  59  87 126 172 204 264 318 379
#     4  10  20  35  53  90 132 169 203 244 312 406
#     4  10  24  44  65  92 120 161 223 282 328 370
#     4  10  22  36  59  87 126 172 204 264 318 379
#     4  10  24  44  65  92 120 161 223 282 328 370
#     4  10  20  35  53  90 132 169 203 244 312 406
#     4  10  20  34  52  82 123 160 201 238 298 382
#
# _framework density 24.951435
#
# number of rings (size 3 to 8) (size 9 to 14) (size 15 to 20)
#    0.000    2.000    2.500    0.000    3.500    6.000 
#    0.000    0.000    0.000    0.000    0.000   84.000 
#    0.000    0.000    0.000    0.000    0.000    0.000 
#
# Total GULP energy -89129.355052 kJ/mol
# GULP energy per Si atom -5570.584691 kJ/mol
# Density = 2.489464 g / cm^3
# Si number density = 24.951435 Si / 1000 Ang^3
#
#
#
# Elastic Constant Matrix: (Units=GPa)
#
#
# Indices 1 2 3 4 5 6 
#
# 1 54.1715 23.4737 28.6958 0.0000 -18.2170 0.0000
# 2 23.4737 137.9053 66.5244 0.0000 -12.3792 0.0000
# 3 28.6958 66.5244 164.7161 0.0000 -31.5916 0.0000
# 4 0.0000 0.0000 0.0000 33.4744 0.0000 -11.9314
# 5 -18.2170 -12.3792 -31.5916 0.0000 38.0951 0.0000
# 6 0.0000 0.0000 0.0000 -11.9314 0.0000 13.3885
#
#
#
# Elastic Compliance Matrix: (Units=1/GPa)
#
#
# Indices 1 2 3 4 5 6 
#
# 1 0.023352 -0.002531 -0.001263 0.000000 0.009297 0.000000
# 2 -0.002531 0.009281 -0.003521 0.000000 -0.001114 0.000000
# 3 -0.001263 -0.003521 0.008773 0.000000 0.005527 0.000000
# 4 0.000000 0.000000 0.000000 0.043780 0.000000 0.039015
# 5 0.009297 -0.001114 0.005527 0.000000 0.034918 0.000000
# 6 0.000000 0.000000 0.000000 0.039015 0.000000 0.109460
#
#
# Mechanical properties :
#
#
# Convention : Reuss Voigt Hill
#
# Bulk Modulus (GPa) = 37.34688 66.02007 51.68347
# Shear Modulus (GPa) = 19.75355 32.86487 26.30921
#
# Velocity S-wave (km/s) = 2.81673 3.63320 3.25070
# Velocity P-wave (km/s) = 5.05757 6.64207 5.90322
#
# Compressibility (1/GPa) = 0.02677600
#
# Stress axis : x y z
#
# Youngs Moduli (GPa) = 42.82262 107.75108 113.98329
#
# Poissons Ratio (x) = 0.27273 0.14395
# Poissons Ratio (y) = 0.10839 0.40133
# Poissons Ratio (z) = 0.05408 0.37939
#
# Static dielectric constant tensor:
#      x y z
#    x 2.040600 0.000000 0.015020 
#    y 0.000000 1.979340 0.000000 
#    z 0.015020 0.000000 2.213490 
# 
# From -- ./inp_files/3147.got.cif
#   From: 2010.05.17/outbox.cif.g08.bks.cpg/sg9_2_cif.got.tgz:3147.got - 2010.06.03 20:04:27.
