data_PCOD9134501
_publ_section_title
;
Structure prediction by ZEFSAII (Michael W. Deem and Ramdas Pophale) SiO2 
 PCOD9134501
Probable space group: C C
;
_chemical_formula_sum "Si O2"
_cell_formula_units_Z 24
_cell_length_a 9.128571
_cell_length_b 12.616121
_cell_length_c 9.774631
_cell_angle_alpha 90.000000
_cell_angle_beta 59.402226
_cell_angle_gamma 90.000000
_cell_volume 968.973727
_symmetry_space_group_name_H-M "C C"
_symmetry_group_IT_number 9
_symmetry_cell_setting 'monoclinic'
loop_
_space_group_symop_operation_xyz
x,y,z
x,-y,1/2+z
1/2+x,1/2+y,z
1/2+x,1/2-y,1/2+z
loop_
_atom_site_type_symbol
_atom_site_label
_atom_site_fract_x
_atom_site_fract_y
_atom_site_fract_z
Si Si1 0.310830 0.570199 0.375000
Si Si2 0.202245 0.253272 0.442788
Si Si3 0.219844 0.143853 0.891534
Si Si4 0.468733 0.552417 0.574267
Si Si5 0.583388 0.819846 0.773322
Si Si6 0.065103 0.270070 0.216877
O O1 0.318423 0.551948 0.532628
O O2 0.399430 0.473470 0.255970
O O3 0.147872 0.598909 0.359379
O O4 0.442810 0.667191 0.289942
O O5 0.382653 0.195183 0.367738
O O6 0.165081 0.334707 0.584156
O O7 0.172158 0.289568 0.302010
O O8 0.059057 0.164157 0.529779
O O9 0.110437 0.037746 0.967241
O O10 0.177656 0.226496 0.037115
O O11 0.154873 0.206092 0.789867
O O12 0.423715 0.136520 0.773909
#
# Coordination Sequence:
#
# PCOD9134501 Si02
#       6
#     4   4   4   4   4   4
#     4   9  20  37  57  83 118 156 198 243 297 353
#     4  11  22  38  61  87 118 157 202 251 302 358
#     4  10  19  37  60  84 118 157 195 242 297 357
#     4  10  20  38  61  87 119 155 197 254 306 349
#     4  11  22  39  60  86 119 162 203 241 296 368
#     4   9  19  35  57  85 116 153 195 237 294 365
#
# _framework density 24.768474000000001
#
# number of rings (size 3 to 8) (size 9 to 14) (size 15 to 20)
#    0.000    2.000    0.000    5.000    0.000    0.000 
#    0.000   16.667    0.000    0.000    0.000    0.000 
#    0.000    0.000    0.000    0.000    0.000    0.000 
#
# Total GULP energy -67073.459668 kJ/mol
# GULP energy per Si atom -5589.454972 kJ/mol
# Density = 2.471210 g / cm^3
# Si number density = 24.768474 Si / 1000 Ang^3
#
#
#
# Elastic Constant Matrix: (Units=GPa)
#
#
# Indices 1 2 3 4 5 6 
#
# 1 158.7615 15.2442 50.2608 0.0000 14.1838 0.0000
# 2 15.2442 57.2800 10.3646 0.0000 3.5209 0.0000
# 3 50.2608 10.3646 159.1615 0.0000 15.2394 0.0000
# 4 0.0000 0.0000 0.0000 24.9610 0.0000 -8.6187
# 5 14.1838 3.5209 15.2394 0.0000 44.1342 0.0000
# 6 0.0000 0.0000 0.0000 -8.6187 0.0000 40.7020
#
#
#
# Elastic Compliance Matrix: (Units=1/GPa)
#
#
# Indices 1 2 3 4 5 6 
#
# 1 0.007219 -0.001460 -0.002041 0.000000 -0.001499 0.000000
# 2 -0.001460 0.018008 -0.000640 0.000000 -0.000746 0.000000
# 3 -0.002041 -0.000640 0.007137 0.000000 -0.001757 0.000000
# 4 0.000000 0.000000 0.000000 0.043223 0.000000 0.009152
# 5 -0.001499 -0.000746 -0.001757 0.000000 0.023806 0.000000
# 6 0.000000 0.000000 0.000000 0.009152 0.000000 0.026507
#
#
# Mechanical properties :
#
#
# Convention : Reuss Voigt Hill
#
# Bulk Modulus (GPa) = 41.52387 58.54913 50.03650
# Shear Modulus (GPa) = 35.15918 41.91500 38.53709
#
# Velocity S-wave (km/s) = 3.77173 4.11819 3.94876
# Velocity P-wave (km/s) = 5.98073 6.80459 6.40592
#
# Compressibility (1/GPa) = 0.02408253
#
# Stress axis : x y z
#
# Youngs Moduli (GPa) = 138.52353 55.52988 140.10625
#
# Poissons Ratio (x) = 0.08106 0.28597
# Poissons Ratio (y) = 0.20221 0.08970
# Poissons Ratio (z) = 0.28274 0.03555
#
# Static dielectric constant tensor:
#      x y z
#    x 1.980520 0.000000 -0.034700 
#    y 0.000000 1.994160 0.000000 
#    z -0.034700 0.000000 2.004230 
# 
# From -- ./inp_files/4976.got.cif
#   From: 2010.05.17/outbox.cif.g08.bks.cpg/sg9_3_cif.got.tgz:4976.got - 2010.06.03 20:04:27.
