data_PCOD9134070
_publ_section_title
;
Structure prediction by ZEFSAII (Michael W. Deem and Ramdas Pophale) SiO2 
 PCOD9134070
Probable space group: C C
;
_chemical_formula_sum "Si O2"
_cell_formula_units_Z 32
_cell_length_a 22.765886
_cell_length_b 11.790109
_cell_length_c 17.746882
_cell_angle_alpha 90.000000
_cell_angle_beta 164.395350
_cell_angle_gamma 90.000000
_cell_volume 1281.366808
_symmetry_space_group_name_H-M "C C"
_symmetry_group_IT_number 9
_symmetry_cell_setting 'monoclinic'
loop_
_space_group_symop_operation_xyz
x,y,z
x,-y,1/2+z
1/2+x,1/2+y,z
1/2+x,1/2-y,1/2+z
loop_
_atom_site_type_symbol
_atom_site_label
_atom_site_fract_x
_atom_site_fract_y
_atom_site_fract_z
Si Si1 0.245400 0.405465 0.208520
Si Si2 0.323565 0.899460 0.574721
Si Si3 0.147003 0.549721 0.906020
Si Si4 0.439249 0.349969 0.201950
Si Si5 0.862492 0.388526 0.342669
Si Si6 0.137627 0.885546 0.591066
Si Si7 0.608112 0.092975 0.702142
Si Si8 0.188372 0.647097 0.120095
O O1 0.440086 0.357273 0.400440
O O2 0.207708 0.368896 0.247048
O O3 0.016711 0.408120 0.878234
O O4 0.320652 0.537409 0.310014
O O5 0.402089 0.997461 0.614383
O O6 0.337765 0.772178 0.557574
O O7 0.083781 0.907791 0.315425
O O8 0.210909 0.615584 0.909232
O O9 0.183109 0.627641 0.023654
O O10 0.282833 0.432899 0.057476
O O11 0.616797 0.322810 0.486309
O O12 0.669028 0.480462 0.108756
O O13 0.053684 0.455693 0.624745
O O14 0.955794 0.371125 0.373881
O O15 0.783952 0.264778 0.267947
O O16 0.366934 0.857683 0.910506
#
# Coordination Sequence:
#
# PCOD9134070 Si02
#       8
#     4   4   4   4   4   4   4   4
#     4  10  18  36  60  85 112 152 199 241 296 357
#     4  11  21  37  61  90 111 155 202 242 295 372
#     4  11  23  39  57  88 128 153 194 261 303 349
#     4  12  20  37  63  86 114 156 202 242 298 363
#     4   9  20  36  60  86 115 156 207 238 290 365
#     4  10  18  36  62  84 110 153 199 247 287 355
#     4   9  22  38  56  88 122 153 195 255 302 343
#     4  10  18  35  61  85 116 156 204 240 293 362
#
# _framework density 24.973333
#
# number of rings (size 3 to 8) (size 9 to 14) (size 15 to 20)
#    0.750    1.000    5.000    1.500    0.000    1.000 
#    4.500    0.000    2.750    0.000    0.000    0.000 
#    0.000    0.000    0.000    0.000    0.000    0.000 
#
# Total GULP energy -89164.101637 kJ/mol
# GULP energy per Si atom -5572.756352 kJ/mol
# Density = 2.491649 g / cm^3
# Si number density = 24.973333 Si / 1000 Ang^3
#
#
#
# Elastic Constant Matrix: (Units=GPa)
#
#
# Indices 1 2 3 4 5 6 
#
# 1 161.5057 -0.9699 36.7535 0.0013 27.5700 0.0010
# 2 -0.9699 123.6622 11.1525 0.0012 14.5677 0.0024
# 3 36.7535 11.1525 36.6078 0.0130 34.2559 -0.0009
# 4 0.0013 0.0012 0.0130 25.7497 0.0004 10.5853
# 5 27.5700 14.5677 34.2559 0.0004 42.7096 0.0010
# 6 0.0010 0.0024 -0.0009 10.5853 0.0010 10.1860
#
#
#
# Elastic Compliance Matrix: (Units=1/GPa)
#
#
# Indices 1 2 3 4 5 6 
#
# 1 0.008370 0.000672 -0.013379 0.000013 0.005099 -0.000016
# 2 0.000672 0.008481 -0.000583 0.000001 -0.002859 -0.000003
# 3 -0.013379 -0.000583 0.130917 -0.000128 -0.096168 0.000155
# 4 0.000013 0.000001 -0.000128 0.067799 0.000095 -0.070457
# 5 0.005099 -0.002859 -0.096168 0.000095 0.098231 -0.000116
# 6 -0.000016 -0.000003 0.000155 -0.070457 -0.000116 0.171393
#
#
# Mechanical properties :
#
#
# Convention : Reuss Voigt Hill
#
# Bulk Modulus (GPa) = 8.25172 46.18307 27.21739
# Shear Modulus (GPa) = 9.05523 34.05169 21.55346
#
# Velocity S-wave (km/s) = 1.90626 3.69660 2.94097
# Velocity P-wave (km/s) = 2.85596 6.06241 4.73864
#
# Compressibility (1/GPa) = 0.12118685
#
# Stress axis : x y z
#
# Youngs Moduli (GPa) = 119.47371 117.90836 7.63845
#
# Poissons Ratio (x) = -0.07919 0.10220
# Poissons Ratio (y) = -0.08024 0.00445
# Poissons Ratio (z) = 1.59848 0.06871
#
# Static dielectric constant tensor:
#      x y z
#    x 1.970600 0.000000 -0.041980 
#    y 0.000000 2.180120 0.000000 
#    z -0.041980 0.000000 2.042770 
# 
# From -- ./inp_files/31399.got.cif
#   From: 2010.05.17/outbox.cif.g08.bks.cpg/sg9_16_cif.got.tgz:31399.got - 2010.06.03 20:04:27.
