data_PCOD9134708
_publ_section_title
;
Structure prediction by ZEFSAII (Michael W. Deem and Ramdas Pophale) SiO2 
 PCOD9134708
Probable space group: C C
;
_chemical_formula_sum "Si O2"
_cell_formula_units_Z 32
_cell_length_a 6.840231
_cell_length_b 24.513737
_cell_length_c 11.065464
_cell_angle_alpha 90.000000
_cell_angle_beta 134.254483
_cell_angle_gamma 90.000000
_cell_volume 1328.963169
_symmetry_space_group_name_H-M "C C"
_symmetry_group_IT_number 9
_symmetry_cell_setting 'monoclinic'
loop_
_space_group_symop_operation_xyz
x,y,z
x,-y,1/2+z
1/2+x,1/2+y,z
1/2+x,1/2-y,1/2+z
loop_
_atom_site_type_symbol
_atom_site_label
_atom_site_fract_x
_atom_site_fract_y
_atom_site_fract_z
Si Si1 0.085310 0.561706 0.514340
Si Si2 0.117826 0.986801 0.222824
Si Si3 0.837217 0.857868 0.929108
Si Si4 0.148620 0.827501 0.410073
Si Si5 0.388575 0.128551 0.783855
Si Si6 0.000522 0.095191 0.036448
Si Si7 0.172052 0.851080 0.862614
Si Si8 0.639931 0.779992 0.036569
O O1 0.350054 0.532043 0.680809
O O2 0.208689 0.589612 0.443366
O O3 0.851984 0.517940 0.394573
O O4 0.922903 0.609061 0.512480
O O5 0.020606 0.031325 0.080343
O O6 0.261758 0.932029 0.241620
O O7 0.155762 0.845730 0.099452
O O8 0.678812 0.809030 0.922990
O O9 0.885867 0.859968 0.808055
O O10 0.360584 0.835823 0.393522
O O11 0.149171 0.885192 0.479950
O O12 0.198556 0.782438 0.533572
O O13 0.864213 0.808438 0.221222
O O14 0.698298 0.118487 0.886659
O O15 0.118697 0.127100 0.204111
O O16 0.324341 0.792789 0.933433
#
# Coordination Sequence:
#
# PCOD9134708 Si02
#       8
#     4   4   4   4   4   4   4   4
#     4   9  19  36  60  89 129 171 225 268 329 395
#     4  10  19  40  60  87 132 176 217 276 327 387
#     4   9  20  40  65  93 128 175 217 279 335 399
#     4  11  24  43  67  99 129 177 218 283 334 404
#     4  10  22  41  62  92 133 169 229 273 328 399
#     4  11  23  39  63  96 132 172 227 275 329 403
#     4  10  21  39  65  96 132 172 219 277 335 403
#     4  10  22  42  68  94 133 170 220 275 347 396
#
# _framework density 24.078921999999999
#
# number of rings (size 3 to 8) (size 9 to 14) (size 15 to 20)
#    0.000    2.000    1.250    2.250    0.000    5.000 
#    9.000    8.750    0.000    0.000    0.000    0.000 
#    0.000    0.000    0.000    0.000    0.000    0.000 
#
# Total GULP energy -89207.579280 kJ/mol
# GULP energy per Si atom -5575.473705 kJ/mol
# Density = 2.402412 g / cm^3
# Si number density = 24.078922 Si / 1000 Ang^3
#
#
#
# Elastic Constant Matrix: (Units=GPa)
#
#
# Indices 1 2 3 4 5 6 
#
# 1 88.1593 6.8603 13.7123 0.0000 2.6199 0.0000
# 2 6.8603 81.8797 3.4178 0.0000 -8.8024 0.0000
# 3 13.7123 3.4178 87.7017 0.0000 11.6460 0.0000
# 4 0.0000 0.0000 0.0000 22.3047 0.0000 -8.7619
# 5 2.6199 -8.8024 11.6460 0.0000 30.8636 0.0000
# 6 0.0000 0.0000 0.0000 -8.7619 0.0000 16.1994
#
#
#
# Elastic Compliance Matrix: (Units=1/GPa)
#
#
# Indices 1 2 3 4 5 6 
#
# 1 0.011703 -0.000977 -0.001708 0.000000 -0.000627 0.000000
# 2 -0.000977 0.012768 -0.000884 0.000000 0.004058 0.000000
# 3 -0.001708 -0.000884 0.012336 0.000000 -0.004762 0.000000
# 4 0.000000 0.000000 0.000000 0.056930 0.000000 0.030792
# 5 -0.000627 0.004058 -0.004762 0.000000 0.035408 0.000000
# 6 0.000000 0.000000 0.000000 0.030792 0.000000 0.078385
#
#
# Mechanical properties :
#
#
# Convention : Reuss Voigt Hill
#
# Bulk Modulus (GPa) = 33.70423 33.96905 33.83664
# Shear Modulus (GPa) = 22.26591 29.45690 25.86140
#
# Velocity S-wave (km/s) = 3.04420 3.50143 3.28079
# Velocity P-wave (km/s) = 5.13653 5.52130 5.33239
#
# Compressibility (1/GPa) = 0.02966986
#
# Stress axis : x y z
#
# Youngs Moduli (GPa) = 85.44463 78.32080 81.06231
#
# Poissons Ratio (x) = 0.07650 0.13849
# Poissons Ratio (y) = 0.08345 0.07164
# Poissons Ratio (z) = 0.14598 0.06921
#
# Static dielectric constant tensor:
#      x y z
#    x 1.973320 0.000000 -0.047530 
#    y 0.000000 1.980970 0.000000 
#    z -0.047530 0.000000 2.052570 
# 
# From -- ./inp_files/13927.got.cif
#   From: 2010.05.17/outbox.cif.g08.bks.cpg/sg9_7_cif.got.tgz:13927.got - 2010.06.03 20:04:27.
