data_PCOD9134526
_publ_section_title
;
Structure prediction by ZEFSAII (Michael W. Deem and Ramdas Pophale) SiO2 
 PCOD9134526
Probable space group: C C
;
_chemical_formula_sum "Si O2"
_cell_formula_units_Z 28
_cell_length_a 14.978655
_cell_length_b 16.772422
_cell_length_c 8.523155
_cell_angle_alpha 90.000000
_cell_angle_beta 144.760788
_cell_angle_gamma 90.000000
_cell_volume 1235.487451
_symmetry_space_group_name_H-M "C C"
_symmetry_group_IT_number 9
_symmetry_cell_setting 'monoclinic'
loop_
_space_group_symop_operation_xyz
x,y,z
x,-y,1/2+z
1/2+x,1/2+y,z
1/2+x,1/2-y,1/2+z
loop_
_atom_site_type_symbol
_atom_site_label
_atom_site_fract_x
_atom_site_fract_y
_atom_site_fract_z
Si Si1 0.112030 0.290791 0.730020
Si Si2 0.001307 0.663516 0.405171
Si Si3 0.441407 0.476491 0.407657
Si Si4 0.218872 0.448857 0.361458
Si Si5 0.277496 0.043185 0.935570
Si Si6 0.454461 0.075078 0.880922
Si Si7 0.458433 0.675256 0.719690
O O1 0.001759 0.332910 0.446970
O O2 0.088076 0.341574 0.858793
O O3 0.063582 0.204105 0.724460
O O4 0.284103 0.303813 0.919770
O O5 0.980433 0.757740 0.387697
O O6 0.106958 0.626230 0.688921
O O7 0.848764 0.609677 0.156933
O O8 0.355922 0.437954 0.432342
O O9 0.598848 0.519763 0.682381
O O10 0.473679 0.410706 0.318517
O O11 0.309627 0.534716 0.150148
O O12 0.104591 0.522457 0.149288
O O13 0.323782 0.068021 0.827317
O O14 0.380557 0.965200 0.123758
#
# Coordination Sequence:
#
# PCOD9134526 Si02
#       7
#     4   4   4   4   4   4   4
#     4   9  18  36  60  85 115 165 201 242 299 372
#     4   8  19  37  60  79 121 161 196 238 303 374
#     4  12  22  36  63  99 119 154 208 266 295 359
#     4  11  20  38  63  89 122 159 208 247 303 365
#     4  10  21  36  62  92 122 154 208 253 306 353
#     4  10  19  40  58  88 122 167 193 250 304 382
#     4  10  19  37  62  86 121 162 206 242 310 369
#
# _framework density 22.663118999999998
#
# number of rings (size 3 to 8) (size 9 to 14) (size 15 to 20)
#    0.857    1.143    2.857    2.571    0.000    3.429 
#    0.000    0.000    6.286    1.714    0.000    0.000 
#    0.000    0.000    0.000    0.000    0.000    0.000 
#
# Total GULP energy -78080.977024 kJ/mol
# GULP energy per Si atom -5577.212645 kJ/mol
# Density = 2.261154 g / cm^3
# Si number density = 22.663119 Si / 1000 Ang^3
#
#
#
# Elastic Constant Matrix: (Units=GPa)
#
#
# Indices 1 2 3 4 5 6 
#
# 1 57.8539 8.7519 20.8607 0.0000 17.0491 0.0000
# 2 8.7519 75.9506 20.3137 0.0000 11.1963 0.0000
# 3 20.8607 20.3137 96.2801 0.0000 30.6050 0.0000
# 4 0.0000 0.0000 0.0000 22.8971 0.0000 14.6752
# 5 17.0491 11.1963 30.6050 0.0000 31.0746 0.0000
# 6 0.0000 0.0000 0.0000 14.6752 0.0000 7.8262
#
#
#
# Elastic Compliance Matrix: (Units=1/GPa)
#
#
# Indices 1 2 3 4 5 6 
#
# 1 0.020751 -0.000599 -0.001193 0.000000 -0.009995 0.000000
# 2 -0.000599 0.014179 -0.001954 0.000000 -0.002856 0.000000
# 3 -0.001193 -0.001954 0.015468 0.000000 -0.013876 0.000000
# 4 0.000000 0.000000 0.000000 -0.216417 0.000000 0.405809
# 5 -0.009995 -0.002856 -0.013876 0.000000 0.052359 0.000000
# 6 0.000000 0.000000 0.000000 0.405809 0.000000 -0.633167
#
#
# Mechanical properties :
#
#
# Convention : Reuss Voigt Hill
#
# Bulk Modulus (GPa) = 23.30645 36.65970 29.98308
# Shear Modulus (GPa) = -6.89623 24.37015 8.73696
#
# Velocity S-wave (km/s) = -1.74629 3.28277 1.96558
# Velocity P-wave (km/s) = 2.49803 5.52990 4.29068
#
# Compressibility (1/GPa) = 0.04290657
#
# Stress axis : x y z
#
# Youngs Moduli (GPa) = 48.19071 70.52651 64.65069
#
# Poissons Ratio (x) = 0.04223 0.07711
# Poissons Ratio (y) = 0.02886 0.12633
# Poissons Ratio (z) = 0.05747 0.13782
#
# Static dielectric constant tensor:
#      x y z
#    x 1.919430 0.000000 -0.001410 
#    y 0.000000 1.906910 0.000000 
#    z -0.001410 0.000000 1.839110 
# 
# From -- ./inp_files/11011.got.cif
#   From: 2010.05.17/outbox.cif.g08.bks.cpg/sg9_6_cif.got.tgz:11011.got - 2010.06.03 20:04:27.
