data_PCOD9134356
_publ_section_title
;
Structure prediction by ZEFSAII (Michael W. Deem and Ramdas Pophale) SiO2 
 PCOD9134356
Probable space group: C C
;
_chemical_formula_sum "Si O2"
_cell_formula_units_Z 32
_cell_length_a 11.552268
_cell_length_b 13.450929
_cell_length_c 14.538375
_cell_angle_alpha 90.000000
_cell_angle_beta 142.438203
_cell_angle_gamma 90.000000
_cell_volume 1377.185043
_symmetry_space_group_name_H-M "C C"
_symmetry_group_IT_number 9
_symmetry_cell_setting 'monoclinic'
loop_
_space_group_symop_operation_xyz
x,y,z
x,-y,1/2+z
1/2+x,1/2+y,z
1/2+x,1/2-y,1/2+z
loop_
_atom_site_type_symbol
_atom_site_label
_atom_site_fract_x
_atom_site_fract_y
_atom_site_fract_z
Si Si1 0.088690 0.106442 0.077180
Si Si2 0.990248 0.617564 0.083385
Si Si3 0.704435 0.114960 0.562266
Si Si4 0.923781 0.721146 0.578049
Si Si5 0.182168 0.557959 0.817771
Si Si6 0.449743 0.202271 0.238309
Si Si7 0.293765 0.948128 0.891185
Si Si8 0.230585 0.599804 0.054450
O O1 0.275836 0.122318 0.135830
O O2 0.161332 0.067841 0.221267
O O3 0.994642 0.214511 0.036129
O O4 0.904566 0.044109 0.936300
O O5 0.082052 0.532407 0.205425
O O6 0.994496 0.707446 0.157755
O O7 0.104087 0.632297 0.061018
O O8 0.799038 0.560586 0.930865
O O9 0.616194 0.166158 0.412710
O O10 0.848111 0.193657 0.698666
O O11 0.509067 0.079475 0.490061
O O12 0.816596 0.009314 0.629579
O O13 0.770000 0.637696 0.452716
O O14 0.850660 0.803979 0.602167
O O15 0.100490 0.660392 0.727540
O O16 0.135725 0.568600 0.896745
#
# Coordination Sequence:
#
# PCOD9134356 Si02
#       8
#     4   4   4   4   4   4   4   4
#     4  10  19  34  64  96 117 152 206 267 303 355
#     4  10  22  42  63  89 129 169 200 253 314 374
#     4  10  21  39  65  89 123 164 206 255 305 362
#     4  10  19  36  67  93 119 158 208 255 307 362
#     4  10  21  40  67  91 127 158 207 260 312 359
#     4  11  22  39  63  91 125 163 207 255 311 365
#     4   9  19  37  64  95 120 155 209 258 308 361
#     4  10  21  41  65  90 124 167 203 253 314 366
#
# _framework density 23.235803000000001
#
# number of rings (size 3 to 8) (size 9 to 14) (size 15 to 20)
#    0.000    2.000    2.500    1.500    1.750    0.000 
#   11.250    0.000   11.000    0.000    0.000    0.000 
#    0.000    0.000    0.000    0.000    0.000    0.000 
#
# Total GULP energy -89146.531899 kJ/mol
# GULP energy per Si atom -5571.658244 kJ/mol
# Density = 2.318292 g / cm^3
# Si number density = 23.235803 Si / 1000 Ang^3
#
#
#
# Elastic Constant Matrix: (Units=GPa)
#
#
# Indices 1 2 3 4 5 6 
#
# 1 94.3425 2.4912 15.9134 0.0006 -13.8280 0.0003
# 2 2.4912 64.5919 10.1280 0.0006 11.4942 0.0004
# 3 15.9134 10.1280 65.8763 0.0013 -0.7811 0.0009
# 4 0.0006 0.0006 0.0013 19.8579 0.0006 -1.5851
# 5 -13.8280 11.4942 -0.7811 0.0006 28.5132 0.0003
# 6 0.0003 0.0004 0.0009 -1.5851 0.0003 22.4941
#
#
#
# Elastic Compliance Matrix: (Units=1/GPa)
#
#
# Indices 1 2 3 4 5 6 
#
# 1 0.011986 -0.001152 -0.002645 0.000000 0.006204 0.000000
# 2 -0.001152 0.017263 -0.002466 0.000000 -0.007585 0.000000
# 3 -0.002645 -0.002466 0.016200 -0.000001 0.000155 -0.000001
# 4 0.000000 0.000000 -0.000001 0.050643 -0.000001 0.003569
# 5 0.006204 -0.007585 0.000155 -0.000001 0.041142 -0.000001
# 6 0.000000 0.000000 -0.000001 0.003569 -0.000001 0.044707
#
#
# Mechanical properties :
#
#
# Convention : Reuss Voigt Hill
#
# Bulk Modulus (GPa) = 30.37314 31.31953 30.84634
# Shear Modulus (GPa) = 24.33810 27.25825 25.79817
#
# Velocity S-wave (km/s) = 3.23993 3.42879 3.33570
# Velocity P-wave (km/s) = 5.20541 5.40220 5.30471
#
# Compressibility (1/GPa) = 0.03292383
#
# Stress axis : x y z
#
# Youngs Moduli (GPa) = 83.43362 57.92866 61.72931
#
# Poissons Ratio (x) = 0.06671 0.16325
# Poissons Ratio (y) = 0.09609 0.15221
# Poissons Ratio (z) = 0.22065 0.14284
#
# Static dielectric constant tensor:
#      x y z
#    x 1.993120 0.000000 0.013660 
#    y 0.000000 1.967430 0.000000 
#    z 0.013660 0.000000 1.928520 
# 
# From -- ./inp_files/24870.got.cif
#   From: 2010.05.17/outbox.cif.g08.bks.cpg/sg9_13_cif.got.tgz:24870.got - 2010.06.03 20:04:27.
