data_PCOD9134109
_publ_section_title
;
Structure prediction by ZEFSAII (Michael W. Deem and Ramdas Pophale) SiO2 
 PCOD9134109
Probable space group: C C
;
_chemical_formula_sum "Si O2"
_cell_formula_units_Z 28
_cell_length_a 14.493487
_cell_length_b 9.874566
_cell_length_c 8.094961
_cell_angle_alpha 90.000000
_cell_angle_beta 68.335895
_cell_angle_gamma 90.000000
_cell_volume 1076.692091
_symmetry_space_group_name_H-M "C C"
_symmetry_group_IT_number 9
_symmetry_cell_setting 'monoclinic'
loop_
_space_group_symop_operation_xyz
x,y,z
x,-y,1/2+z
1/2+x,1/2+y,z
1/2+x,1/2-y,1/2+z
loop_
_atom_site_type_symbol
_atom_site_label
_atom_site_fract_x
_atom_site_fract_y
_atom_site_fract_z
Si Si1 0.216630 0.368424 0.669560
Si Si2 0.370734 0.763192 0.855410
Si Si3 0.904337 0.991343 0.147721
Si Si4 0.184740 0.880850 0.819137
Si Si5 0.706726 0.677385 0.939448
Si Si6 0.053894 0.336698 0.549564
Si Si7 0.935347 0.229080 0.345330
O O1 0.296128 0.251598 0.557723
O O2 0.288253 0.483633 0.687659
O O3 0.162195 0.297470 0.858094
O O4 0.145932 0.417849 0.568872
O O5 0.405034 0.609569 0.803502
O O6 0.293060 0.817005 0.772541
O O7 0.469193 0.844699 0.745573
O O8 0.952206 0.135991 0.167633
O O9 0.937253 0.890419 0.981539
O O10 0.157731 0.843798 0.650520
O O11 0.111878 0.807485 0.995914
O O12 0.191812 0.037751 0.852325
O O13 0.824315 0.710678 0.892027
O O14 0.002570 0.341852 0.400618
#
# Coordination Sequence:
#
# PCOD9134109 Si02
#       7
#     4   4   4   4   4   4   4
#     4  10  22  40  66  93 134 166 219 265 332 382
#     4  10  20  41  63  91 131 169 215 270 322 383
#     4  10  18  36  66  92 124 170 199 273 324 376
#     4  11  22  40  67  88 141 167 220 267 323 386
#     4  11  23  43  65  97 130 184 208 269 338 386
#     4  10  22  41  64 102 122 174 216 273 315 391
#     4  10  21  39  67  93 128 164 227 253 336 378
#
# _framework density 26.005575
#
# number of rings (size 3 to 8) (size 9 to 14) (size 15 to 20)
#    0.000    1.714    4.286    1.714    0.000    4.571 
#    5.143    2.857    0.000    0.000    0.000    0.000 
#    0.000    0.000    0.000    0.000    0.000    0.000 
#
# Total GULP energy -77944.808907 kJ/mol
# GULP energy per Si atom -5567.486350 kJ/mol
# Density = 2.594638 g / cm^3
# Si number density = 26.005575 Si / 1000 Ang^3
#
#
#
# Elastic Constant Matrix: (Units=GPa)
#
#
# Indices 1 2 3 4 5 6 
#
# 1 147.5768 -4.4061 16.4224 0.0000 11.0235 0.0000
# 2 -4.4061 41.4306 14.4666 0.0000 2.2405 0.0000
# 3 16.4224 14.4666 104.0600 0.0000 7.9188 0.0000
# 4 0.0000 0.0000 0.0000 29.5327 0.0000 2.0845
# 5 11.0235 2.2405 7.9188 0.0000 39.0073 0.0000
# 6 0.0000 0.0000 0.0000 2.0845 0.0000 19.5170
#
#
#
# Elastic Compliance Matrix: (Units=1/GPa)
#
#
# Indices 1 2 3 4 5 6 
#
# 1 0.007079 0.001254 -0.001152 0.000000 -0.001839 0.000000
# 2 0.001254 0.025612 -0.003677 0.000000 -0.001079 0.000000
# 3 -0.001152 -0.003677 0.010423 0.000000 -0.001579 0.000000
# 4 0.000000 0.000000 0.000000 0.034118 0.000000 -0.003644
# 5 -0.001839 -0.001079 -0.001579 0.000000 0.026538 0.000000
# 6 0.000000 0.000000 0.000000 -0.003644 0.000000 0.051627
#
#
# Mechanical properties :
#
#
# Convention : Reuss Voigt Hill
#
# Bulk Modulus (GPa) = 27.80346 38.44815 33.12580
# Shear Modulus (GPa) = 28.64775 35.38368 32.01571
#
# Velocity S-wave (km/s) = 3.32264 3.69266 3.51252
# Velocity P-wave (km/s) = 5.04326 5.74436 5.40519
#
# Compressibility (1/GPa) = 0.03596674
#
# Stress axis : x y z
#
# Youngs Moduli (GPa) = 141.26100 39.04382 95.94264
#
# Poissons Ratio (x) = -0.04898 0.11049
# Poissons Ratio (y) = -0.17720 0.35273
# Poissons Ratio (z) = 0.16269 0.14354
#
# Static dielectric constant tensor:
#      x y z
#    x 2.121460 0.000000 0.027320 
#    y 0.000000 2.057640 0.000000 
#    z 0.027320 0.000000 2.198800 
# 
# From -- ./inp_files/8905.got.cif
#   From: 2010.05.17/outbox.cif.g08.bks.cpg/sg9_5_cif.got.tgz:8905.got - 2010.06.03 20:04:27.
