data_PCOD9134199
_publ_section_title
;
Structure prediction by ZEFSAII (Michael W. Deem and Ramdas Pophale) SiO2 
 PCOD9134199
Probable space group: C C
;
_chemical_formula_sum "Si O2"
_cell_formula_units_Z 32
_cell_length_a 8.350428
_cell_length_b 19.099497
_cell_length_c 14.303766
_cell_angle_alpha 90.000000
_cell_angle_beta 40.620664
_cell_angle_gamma 90.000000
_cell_volume 1485.231249
_symmetry_space_group_name_H-M "C C"
_symmetry_group_IT_number 9
_symmetry_cell_setting 'monoclinic'
loop_
_space_group_symop_operation_xyz
x,y,z
x,-y,1/2+z
1/2+x,1/2+y,z
1/2+x,1/2-y,1/2+z
loop_
_atom_site_type_symbol
_atom_site_label
_atom_site_fract_x
_atom_site_fract_y
_atom_site_fract_z
Si Si1 0.315820 0.609213 0.522020
Si Si2 0.306754 0.158583 0.802456
Si Si3 0.789488 0.029053 0.708882
Si Si4 0.546579 0.889656 0.484797
Si Si5 0.314199 0.701506 0.217469
Si Si6 0.987962 0.924596 0.760314
Si Si7 0.299233 0.597402 0.069009
Si Si8 0.899454 0.264931 0.443189
O O1 0.392092 0.586347 0.591743
O O2 0.394836 0.557563 0.404614
O O3 0.433339 0.683139 0.440693
O O4 0.019833 0.617898 0.653790
O O5 0.190758 0.224816 0.798677
O O6 0.097556 0.106808 0.933345
O O7 0.453107 0.200299 0.819388
O O8 0.973610 0.988227 0.694626
O O9 0.707817 0.968859 0.670662
O O10 0.606972 0.064359 0.865189
O O11 0.267773 0.902183 0.638732
O O12 0.550667 0.809191 0.450517
O O13 0.709835 0.903049 0.502867
O O14 0.320416 0.638992 0.291825
O O15 0.221972 0.665941 0.163255
O O16 0.604650 0.720858 0.079707
#
# Coordination Sequence:
#
# PCOD9134199 Si02
#       8
#     4   4   4   4   4   4   4   4
#     4  11  21  39  71  98 124 171 221 265 332 397
#     4  10  18  40  70  96 131 169 215 269 329 399
#     4  11  24  42  63  95 125 178 221 263 329 398
#     4  11  23  44  65  94 134 169 218 285 322 386
#     4   8  17  36  65  94 123 169 210 253 322 394
#     4  10  22  41  65  92 129 168 221 266 322 395
#     4  10  23  42  64  95 135 172 214 278 329 383
#     4   9  18  36  69  94 123 168 216 263 323 386
#
# _framework density 21.545466999999999
#
# number of rings (size 3 to 8) (size 9 to 14) (size 15 to 20)
#    0.000    2.000    2.500    1.500    0.000    1.000 
#   11.250    0.000    0.000    0.000    0.000    0.000 
#    0.000    0.000    0.000    0.000    0.000    0.000 
#
# Total GULP energy -89189.398478 kJ/mol
# GULP energy per Si atom -5574.337405 kJ/mol
# Density = 2.149643 g / cm^3
# Si number density = 21.545467 Si / 1000 Ang^3
#
#
#
# Elastic Constant Matrix: (Units=GPa)
#
#
# Indices 1 2 3 4 5 6 
#
# 1 73.6116 42.8371 43.0953 -0.0002 33.4703 -0.0001
# 2 42.8371 86.3380 23.5087 0.0000 15.6503 -0.0001
# 3 43.0953 23.5087 100.6919 -0.0005 38.6827 -0.0011
# 4 -0.0002 0.0000 -0.0005 33.1843 0.0002 6.1710
# 5 33.4703 15.6503 38.6827 0.0002 32.4501 0.0006
# 6 -0.0001 -0.0001 -0.0011 6.1710 0.0006 19.0181
#
#
#
# Elastic Compliance Matrix: (Units=1/GPa)
#
#
# Indices 1 2 3 4 5 6 
#
# 1 0.033333 -0.011235 -0.000953 0.000000 -0.027826 0.000001
# 2 -0.011235 0.016549 -0.000813 0.000000 0.004576 0.000000
# 3 -0.000953 -0.000813 0.018450 0.000000 -0.020618 0.000002
# 4 0.000000 0.000000 0.000000 0.032070 0.000000 -0.010406
# 5 -0.027826 0.004576 -0.020618 0.000000 0.081889 -0.000004
# 6 0.000001 0.000000 0.000002 -0.010406 -0.000004 0.055958
#
#
# Mechanical properties :
#
#
# Convention : Reuss Voigt Hill
#
# Bulk Modulus (GPa) = 23.62454 53.28041 38.45247
# Shear Modulus (GPa) = 17.96230 27.01053 22.48641
#
# Velocity S-wave (km/s) = 2.89051 3.54454 3.23410
# Velocity P-wave (km/s) = 4.70413 6.44474 5.64196
#
# Compressibility (1/GPa) = 0.04232887
#
# Stress axis : x y z
#
# Youngs Moduli (GPa) = 30.00018 60.42842 54.20050
#
# Poissons Ratio (x) = 0.67890 0.05167
# Poissons Ratio (y) = 0.33705 0.04408
# Poissons Ratio (z) = 0.02860 0.04915
#
# Static dielectric constant tensor:
#      x y z
#    x 1.769580 0.000000 0.058970 
#    y 0.000000 1.874830 0.000000 
#    z 0.058970 0.000000 1.802250 
# 
# From -- ./inp_files/23724.got.cif
#   From: 2010.05.17/outbox.cif.g08.bks.cpg/sg9_12_cif.got.tgz:23724.got - 2010.06.03 20:04:27.
