data_PCOD9134843
_publ_section_title
;
Structure prediction by ZEFSAII (Michael W. Deem and Ramdas Pophale) SiO2 
 PCOD9134843
Probable space group: C C
;
_chemical_formula_sum "Si O2"
_cell_formula_units_Z 24
_cell_length_a 18.009166
_cell_length_b 7.424023
_cell_length_c 19.252919
_cell_angle_alpha 90.000000
_cell_angle_beta 20.271917
_cell_angle_gamma 90.000000
_cell_volume 891.872022
_symmetry_space_group_name_H-M "C C"
_symmetry_group_IT_number 9
_symmetry_cell_setting 'monoclinic'
loop_
_space_group_symop_operation_xyz
x,y,z
x,-y,1/2+z
1/2+x,1/2+y,z
1/2+x,1/2-y,1/2+z
loop_
_atom_site_type_symbol
_atom_site_label
_atom_site_fract_x
_atom_site_fract_y
_atom_site_fract_z
Si Si1 0.451180 0.971255 0.900590
Si Si2 0.807224 0.609019 0.680568
Si Si3 0.641865 0.635149 0.067230
Si Si4 0.725909 0.936902 0.380228
Si Si5 0.352810 0.474971 0.127916
Si Si6 0.038072 0.543547 0.176294
O O1 0.665506 0.076660 0.738233
O O2 0.539285 0.873152 0.752673
O O3 0.362851 0.893626 0.049815
O O4 0.244881 0.065151 0.048318
O O5 0.795287 0.822088 0.704778
O O6 0.004141 0.529974 0.551333
O O7 0.587484 0.503296 0.890204
O O8 0.413903 0.567843 0.241882
O O9 0.651652 0.847959 0.072987
O O10 0.799708 0.536085 0.873889
O O11 0.820263 0.856231 0.225758
O O12 0.650740 0.839960 0.517949
#
# Coordination Sequence:
#
# PCOD9134843 Si02
#       6
#     4   4   4   4   4   4
#     4   9  23  34  49  82 114 150 177 218 270 329
#     4  11  21  34  54  81 115 144 178 220 274 330
#     4  10  20  31  52  81 111 143 176 221 273 316
#     4  11  19  32  51  84 114 140 175 222 282 331
#     4  11  21  34  54  81 115 144 178 220 274 330
#     4  10  20  31  52  81 111 143 176 221 273 316
#
# _framework density 26.909692
#
# number of rings (size 3 to 8) (size 9 to 14) (size 15 to 20)
#    1.000    0.667    5.000    2.000    2.333    0.000 
#    0.000    0.000    0.000    0.000    0.000   28.000 
#    0.000    0.000    0.000    0.000    0.000    0.000 
#
# Total GULP energy -66851.529470 kJ/mol
# GULP energy per Si atom -5570.960789 kJ/mol
# Density = 2.684844 g / cm^3
# Si number density = 26.909692 Si / 1000 Ang^3
#
#
#
# Elastic Constant Matrix: (Units=GPa)
#
#
# Indices 1 2 3 4 5 6 
#
# 1 192.1871 35.9168 106.9629 -0.0018 4.9970 0.0001
# 2 35.9168 89.7171 14.7563 -0.0012 -5.0024 0.0003
# 3 106.9629 14.7563 142.8824 -0.0054 25.2089 0.0009
# 4 -0.0018 -0.0012 -0.0054 -6.7111 -0.0001 -14.8145
# 5 4.9970 -5.0024 25.2089 -0.0001 78.4451 0.0006
# 6 0.0001 0.0003 0.0009 -14.8145 0.0006 31.6384
#
#
#
# Elastic Compliance Matrix: (Units=1/GPa)
#
#
# Indices 1 2 3 4 5 6 
#
# 1 0.009688 -0.002598 -0.007257 0.000002 0.001549 0.000001
# 2 -0.002598 0.012137 0.000557 -0.000001 0.000760 -0.000001
# 3 -0.007257 0.000557 0.013025 -0.000004 -0.003688 -0.000002
# 4 0.000002 -0.000001 -0.000004 -0.073271 0.000001 -0.034309
# 5 0.001549 0.000760 -0.003688 0.000001 0.013883 0.000000
# 6 0.000001 -0.000001 -0.000002 -0.034309 0.000000 0.015542
#
#
# Mechanical properties :
#
#
# Convention : Reuss Voigt Hill
#
# Bulk Modulus (GPa) = 61.52626 82.22874 71.87750
# Shear Modulus (GPa) = 332.96477 38.48450 185.72463
#
# Velocity S-wave (km/s) = 11.13565 3.78582 8.31670
# Velocity P-wave (km/s) = 13.72045 7.05220 10.90835
#
# Compressibility (1/GPa) = 0.01625322
#
# Stress axis : x y z
#
# Youngs Moduli (GPa) = 103.22457 82.39252 76.77750
#
# Poissons Ratio (x) = 0.21408 0.55719
# Poissons Ratio (y) = 0.26820 -0.04280
# Poissons Ratio (z) = 0.74913 -0.04593
#
# Static dielectric constant tensor:
#      x y z
#    x 2.158820 0.000000 0.104680 
#    y 0.000000 2.127970 0.000000 
#    z 0.104680 0.000000 2.181090 
# 
# From -- ./inp_files/34128.got.cif
#   From: 2010.05.17/outbox.cif.g08.bks.cpg/sg9_18_cif.got.tgz:34128.got - 2010.06.03 20:04:27.
