data_PCOD9134431
_publ_section_title
;
Structure prediction by ZEFSAII (Michael W. Deem and Ramdas Pophale) SiO2 
 PCOD9134431
Probable space group: C C
;
_chemical_formula_sum "Si O2"
_cell_formula_units_Z 32
_cell_length_a 9.948543
_cell_length_b 10.876566
_cell_length_c 17.346473
_cell_angle_alpha 90.000000
_cell_angle_beta 54.916198
_cell_angle_gamma 90.000000
_cell_volume 1535.965690
_symmetry_space_group_name_H-M "C C"
_symmetry_group_IT_number 9
_symmetry_cell_setting 'monoclinic'
loop_
_space_group_symop_operation_xyz
x,y,z
x,-y,1/2+z
1/2+x,1/2+y,z
1/2+x,1/2-y,1/2+z
loop_
_atom_site_type_symbol
_atom_site_label
_atom_site_fract_x
_atom_site_fract_y
_atom_site_fract_z
Si Si1 0.210870 0.449314 0.372060
Si Si2 0.509210 0.307105 0.210069
Si Si3 0.201975 0.963823 0.707706
Si Si4 0.722394 0.136605 0.243364
Si Si5 0.549071 0.130235 0.070109
Si Si6 0.504555 0.230513 0.739842
Si Si7 0.269991 0.465825 0.098869
Si Si8 0.953111 0.121279 0.396200
O O1 0.328590 0.350718 0.292539
O O2 0.144819 0.546746 0.332618
O O3 0.328366 0.537055 0.386028
O O4 0.085841 0.379967 0.468343
O O5 0.629899 0.418163 0.190144
O O6 0.579105 0.198853 0.241172
O O7 0.514473 0.260431 0.121014
O O8 0.394620 0.954510 0.641158
O O9 0.126246 0.846649 0.688395
O O10 0.127497 0.943889 0.818373
O O11 0.842445 0.237818 0.243009
O O12 0.828228 0.044781 0.153427
O O13 0.703228 0.071595 0.063469
O O14 0.614792 0.115130 0.679621
O O15 0.459533 0.249950 0.845934
O O16 0.391653 0.387583 0.003872
#
# Coordination Sequence:
#
# PCOD9134431 Si02
#       8
#     4   4   4   4   4   4   4   4
#     4   9  19  38  56  80 117 147 185 233 282 329
#     4  10  20  37  60  84 114 147 190 230 277 336
#     4   9  19  37  57  80 116 148 184 229 281 331
#     4  10  20  36  60  85 111 150 185 230 280 327
#     4  10  21  36  59  84 109 153 187 230 284 332
#     4   9  19  36  57  81 113 151 180 229 283 322
#     4  10  19  36  59  82 111 144 194 227 274 342
#     4   7  17  36  54  76 111 150 179 226 285 319
#
# _framework density 20.8338
#
# number of rings (size 3 to 8) (size 9 to 14) (size 15 to 20)
#    0.750    2.000    1.250    0.750    1.750    1.000 
#    4.500   12.500    2.750    0.000    0.000    0.000 
#    0.000    0.000    0.000    0.000    0.000    0.000 
#
# Total GULP energy -89087.310407 kJ/mol
# GULP energy per Si atom -5567.956900 kJ/mol
# Density = 2.078638 g / cm^3
# Si number density = 20.833800 Si / 1000 Ang^3
#
#
#
# Elastic Constant Matrix: (Units=GPa)
#
#
# Indices 1 2 3 4 5 6 
#
# 1 42.7621 2.6271 15.0910 0.0000 6.7994 0.0000
# 2 2.6271 59.3410 -3.9675 0.0000 8.1382 0.0000
# 3 15.0910 -3.9675 31.8242 0.0000 3.2755 0.0000
# 4 0.0000 0.0000 0.0000 -53.7872 0.0000 48.3011
# 5 6.7994 8.1382 3.2755 0.0000 23.2504 0.0000
# 6 0.0000 0.0000 0.0000 48.3011 0.0000 2.5093
#
#
#
# Elastic Compliance Matrix: (Units=1/GPa)
#
#
# Indices 1 2 3 4 5 6 
#
# 1 0.029165 -0.001337 -0.013361 0.000000 -0.006179 0.000000
# 2 -0.001337 0.018028 0.003542 0.000000 -0.006418 0.000000
# 3 -0.013361 0.003542 0.038483 0.000000 -0.002754 0.000000
# 4 0.000000 0.000000 0.000000 -0.001017 0.000000 0.019571
# 5 -0.006179 -0.006418 -0.002754 0.000000 0.047451 0.000000
# 6 0.000000 0.000000 0.000000 0.019571 0.000000 0.021794
#
#
# Mechanical properties :
#
#
# Convention : Reuss Voigt Hill
#
# Bulk Modulus (GPa) = 15.78159 17.93650 16.85904
# Shear Modulus (GPa) = 25.33728 2.40629 13.87179
#
# Velocity S-wave (km/s) = 3.49114 1.07587 2.58317
# Velocity P-wave (km/s) = 4.88284 3.18926 4.12392
#
# Compressibility (1/GPa) = 0.06336498
#
# Stress axis : x y z
#
# Youngs Moduli (GPa) = 34.28787 55.46934 25.98532
#
# Poissons Ratio (x) = 0.07417 0.34718
# Poissons Ratio (y) = 0.04585 -0.09204
# Poissons Ratio (z) = 0.45811 -0.19648
#
# Static dielectric constant tensor:
#      x y z
#    x 1.765860 0.000000 0.020340 
#    y 0.000000 1.842850 0.000000 
#    z 0.020340 0.000000 1.788770 
# 
# From -- ./inp_files/30020.got.cif
#   From: 2010.05.17/outbox.cif.g08.bks.cpg/sg9_16_cif.got.tgz:30020.got - 2010.06.03 20:04:27.
