data_PCOD9134368
_publ_section_title
;
Structure prediction by ZEFSAII (Michael W. Deem and Ramdas Pophale) SiO2 
 PCOD9134368
Probable space group: C C
;
_chemical_formula_sum "Si O2"
_cell_formula_units_Z 28
_cell_length_a 16.988074
_cell_length_b 21.109115
_cell_length_c 11.556321
_cell_angle_alpha 90.000000
_cell_angle_beta 159.266956
_cell_angle_gamma 90.000000
_cell_volume 1467.082538
_symmetry_space_group_name_H-M "C C"
_symmetry_group_IT_number 9
_symmetry_cell_setting 'monoclinic'
loop_
_space_group_symop_operation_xyz
x,y,z
x,-y,1/2+z
1/2+x,1/2+y,z
1/2+x,1/2-y,1/2+z
loop_
_atom_site_type_symbol
_atom_site_label
_atom_site_fract_x
_atom_site_fract_y
_atom_site_fract_z
Si Si1 0.904240 0.925824 0.234390
Si Si2 0.666082 0.172923 0.725535
Si Si3 0.611915 0.946151 0.620096
Si Si4 0.275667 0.980743 0.334644
Si Si5 0.584605 0.678634 0.134913
Si Si6 0.480223 0.925679 0.816161
Si Si7 0.034211 0.606629 0.770476
O O1 0.054636 0.984470 0.485897
O O2 0.027498 0.860906 0.439705
O O3 0.822301 0.937129 0.992144
O O4 0.677419 0.920339 0.994703
O O5 0.605699 0.246529 0.648597
O O6 0.478675 0.135694 0.393907
O O7 0.675182 0.140849 0.864466
O O8 0.894690 0.165101 0.968856
O O9 0.636301 0.906614 0.536177
O O10 0.389660 0.936562 0.393844
O O11 0.562456 0.017385 0.510162
O O12 0.443333 0.039423 0.596043
O O13 0.267954 0.944163 0.446738
O O14 0.819066 0.650175 0.495543
#
# Coordination Sequence:
#
# PCOD9134368 Si02
#       7
#     4   4   4   4   4   4   4
#     4   9  20  35  56  84 113 148 187 229 284 338
#     4  11  19  36  61  82 115 146 200 232 277 341
#     4  10  19  35  57  81 120 142 182 236 282 339
#     4   9  18  35  56  82 112 146 184 227 290 336
#     4  10  21  36  61  82 106 155 195 232 280 333
#     4   9  19  33  54  84 110 147 180 236 282 333
#     4  10  20  36  57  83 112 150 186 236 281 334
#
# _framework density 19.085495999999999
#
# number of rings (size 3 to 8) (size 9 to 14) (size 15 to 20)
#    0.000    2.286    2.857    0.000    0.000    4.571 
#    0.000    0.000    9.429    0.000    0.000    0.000 
#    0.000    0.000    0.000    0.000    0.000    0.000 
#
# Total GULP energy -78021.354658 kJ/mol
# GULP energy per Si atom -5572.953904 kJ/mol
# Density = 1.904206 g / cm^3
# Si number density = 19.085496 Si / 1000 Ang^3
#
#
#
# Elastic Constant Matrix: (Units=GPa)
#
#
# Indices 1 2 3 4 5 6 
#
# 1 121.8372 34.9685 53.9941 0.0000 -16.1553 0.0000
# 2 34.9685 76.8483 27.7325 0.0000 -16.3496 0.0000
# 3 53.9941 27.7325 83.8017 -0.0001 -30.5496 0.0001
# 4 0.0000 0.0000 -0.0001 14.5020 0.0000 -10.7169
# 5 -16.1553 -16.3496 -30.5496 0.0000 42.0266 0.0000
# 6 0.0000 0.0000 0.0001 -10.7169 0.0000 -4.4722
#
#
#
# Elastic Compliance Matrix: (Units=1/GPa)
#
#
# Indices 1 2 3 4 5 6 
#
# 1 0.012215 -0.003276 -0.007536 0.000000 -0.002057 0.000000
# 2 -0.003276 0.015937 -0.001853 0.000000 0.003593 0.000000
# 3 -0.007536 -0.001853 0.021881 0.000000 0.012288 0.000000
# 4 0.000000 0.000000 0.000000 0.024886 0.000000 -0.059635
# 5 -0.002057 0.003593 0.012288 0.000000 0.033334 0.000000
# 6 0.000000 0.000000 0.000000 -0.059635 0.000000 -0.080698
#
#
# Mechanical properties :
#
#
# Convention : Reuss Voigt Hill
#
# Bulk Modulus (GPa) = 40.48185 57.31970 48.90077
# Shear Modulus (GPa) = 81.80775 21.46410 51.63592
#
# Velocity S-wave (km/s) = 6.55415 3.35719 5.20709
# Velocity P-wave (km/s) = 8.86187 6.71758 7.86316
#
# Compressibility (1/GPa) = 0.02470243
#
# Stress axis : x y z
#
# Youngs Moduli (GPa) = 81.86753 62.74831 45.70178
#
# Poissons Ratio (x) = 0.20558 0.34440
# Poissons Ratio (y) = 0.26823 0.08468
# Poissons Ratio (z) = 0.61693 0.11627
#
# Static dielectric constant tensor:
#      x y z
#    x 1.755230 0.000000 0.019490 
#    y 0.000000 1.673670 0.000000 
#    z 0.019490 0.000000 1.698850 
# 
# From -- ./inp_files/5456.got.cif
#   From: 2010.05.17/outbox.cif.g08.bks.cpg/sg9_3_cif.got.tgz:5456.got - 2010.06.03 20:04:27.
