data_PCOD9134306
_publ_section_title
;
Structure prediction by ZEFSAII (Michael W. Deem and Ramdas Pophale) SiO2 
 PCOD9134306
Probable space group: C C
;
_chemical_formula_sum "Si O2"
_cell_formula_units_Z 32
_cell_length_a 12.717653
_cell_length_b 14.443291
_cell_length_c 16.106786
_cell_angle_alpha 90.000000
_cell_angle_beta 29.289733
_cell_angle_gamma 90.000000
_cell_volume 1447.410458
_symmetry_space_group_name_H-M "C C"
_symmetry_group_IT_number 9
_symmetry_cell_setting 'monoclinic'
loop_
_space_group_symop_operation_xyz
x,y,z
x,-y,1/2+z
1/2+x,1/2+y,z
1/2+x,1/2-y,1/2+z
loop_
_atom_site_type_symbol
_atom_site_label
_atom_site_fract_x
_atom_site_fract_y
_atom_site_fract_z
Si Si1 0.986580 0.984924 0.120870
Si Si2 0.850536 0.714678 0.689543
Si Si3 0.808174 0.349625 0.975001
Si Si4 0.983005 0.505827 0.483468
Si Si5 0.316667 0.310011 0.890225
Si Si6 0.592978 0.469352 0.366091
Si Si7 0.247995 0.658324 0.095341
Si Si8 0.236330 0.868859 0.549065
O O1 0.740168 0.005101 0.315797
O O2 0.139127 0.070806 0.041256
O O3 0.023021 0.978532 0.997479
O O4 0.089073 0.898615 0.098560
O O5 0.855520 0.768522 0.772190
O O6 0.668020 0.638472 0.823069
O O7 0.808178 0.788387 0.643888
O O8 0.073891 0.656566 0.542427
O O9 0.895562 0.400546 0.998354
O O10 0.997640 0.364940 0.779177
O O11 0.781887 0.241361 0.008189
O O12 0.804622 0.488779 0.677790
O O13 0.932622 0.423849 0.452833
O O14 0.532692 0.368316 0.753179
O O15 0.306193 0.230585 0.967025
O O16 0.362468 0.437304 0.487540
#
# Coordination Sequence:
#
# PCOD9134306 Si02
#       8
#     4   4   4   4   4   4   4   4
#     4  11  24  45  60  94 135 168 202 273 324 387
#     4  11  17  30  60  94 118 149 194 262 319 355
#     4  11  23  40  66  95 135 163 216 274 325 380
#     4  11  24  43  62  89 129 174 207 259 321 396
#     4  10  19  33  59  88 122 149 200 266 305 369
#     4  12  21  38  67  90 124 169 207 256 329 374
#     4  12  20  37  65  99 126 164 217 269 320 384
#     4  10  22  40  59  93 121 158 213 257 321 367
#
# _framework density 22.108447999999999
#
# number of rings (size 3 to 8) (size 9 to 14) (size 15 to 20)
#    0.000    1.000    6.250    1.500    0.000    0.000 
#   13.500    1.250    0.000    0.000    0.000    0.000 
#    0.000    0.000    0.000    0.000    0.000    0.000 
#
# Total GULP energy -89091.503460 kJ/mol
# GULP energy per Si atom -5568.218966 kJ/mol
# Density = 2.205813 g / cm^3
# Si number density = 22.108448 Si / 1000 Ang^3
#
#
#
# Elastic Constant Matrix: (Units=GPa)
#
#
# Indices 1 2 3 4 5 6 
#
# 1 38.0822 13.8460 22.9788 -0.0057 -13.8169 -0.0039
# 2 13.8460 13.9849 -3.4156 -0.0054 -5.3642 -0.0026
# 3 22.9788 -3.4156 124.0280 -0.0108 -4.8512 0.0057
# 4 -0.0057 -0.0054 -0.0108 31.7126 0.0055 -5.6982
# 5 -13.8169 -5.3642 -4.8512 0.0055 24.2521 0.0013
# 6 -0.0039 -0.0026 0.0057 -5.6982 0.0013 13.9008
#
#
#
# Elastic Compliance Matrix: (Units=1/GPa)
#
#
# Indices 1 2 3 4 5 6 
#
# 1 0.061077 -0.055724 -0.012066 -0.000005 0.020058 0.000008
# 2 -0.055724 0.129986 0.013895 0.000019 -0.000216 0.000010
# 3 -0.012066 0.013895 0.010615 0.000003 -0.001677 -0.000004
# 4 -0.000005 0.000019 0.000003 0.034040 -0.000006 0.013954
# 5 0.020058 -0.000216 -0.001677 -0.000006 0.052278 -0.000001
# 6 0.000008 0.000010 -0.000004 0.013954 -0.000001 0.077658
#
#
# Mechanical properties :
#
#
# Convention : Reuss Voigt Hill
#
# Bulk Modulus (GPa) = 10.65074 26.99039 18.82057
# Shear Modulus (GPa) = 9.90608 23.48548 16.69578
#
# Velocity S-wave (km/s) = 2.11906 3.26281 2.75103
# Velocity P-wave (km/s) = 3.28864 5.14094 4.31534
#
# Compressibility (1/GPa) = 0.09389019
#
# Stress axis : x y z
#
# Youngs Moduli (GPa) = 16.37276 7.69311 94.20468
#
# Poissons Ratio (x) = 0.42869 1.13666
# Poissons Ratio (y) = 0.91235 -1.30899
# Poissons Ratio (z) = 0.19755 -0.10690
#
# Static dielectric constant tensor:
#      x y z
#    x 1.918620 0.000000 -0.074360 
#    y 0.000000 1.812480 0.000010 
#    z -0.074360 0.000010 1.988020 
# 
# From -- ./inp_files/25041.got.cif
#   From: 2010.05.17/outbox.cif.g08.bks.cpg/sg9_13_cif.got.tgz:25041.got - 2010.06.03 20:04:27.
