data_PCOD9134288
_publ_section_title
;
Structure prediction by ZEFSAII (Michael W. Deem and Ramdas Pophale) SiO2 
 PCOD9134288
Probable space group: C C
;
_chemical_formula_sum "Si O2"
_cell_formula_units_Z 28
_cell_length_a 12.507313
_cell_length_b 18.192620
_cell_length_c 15.909880
_cell_angle_alpha 90.000000
_cell_angle_beta 24.337520
_cell_angle_gamma 90.000000
_cell_volume 1491.902643
_symmetry_space_group_name_H-M "C C"
_symmetry_group_IT_number 9
_symmetry_cell_setting 'monoclinic'
loop_
_space_group_symop_operation_xyz
x,y,z
x,-y,1/2+z
1/2+x,1/2+y,z
1/2+x,1/2-y,1/2+z
loop_
_atom_site_type_symbol
_atom_site_label
_atom_site_fract_x
_atom_site_fract_y
_atom_site_fract_z
Si Si1 0.918410 0.357552 0.554150
Si Si2 0.012779 0.191362 0.479444
Si Si3 0.819092 0.438342 0.271906
Si Si4 0.772290 0.019753 0.888018
Si Si5 0.779065 0.953139 0.580107
Si Si6 0.518790 0.108085 0.802695
Si Si7 0.724031 0.576597 0.452582
O O1 0.674685 0.344357 0.788026
O O2 0.056263 0.277896 0.454110
O O3 0.102362 0.417195 0.465192
O O4 0.854721 0.385304 0.505743
O O5 0.091171 0.148036 0.508118
O O6 0.716812 0.175163 0.668551
O O7 0.543679 0.420878 0.427716
O O8 0.777253 0.520888 0.337728
O O9 0.878324 0.392588 0.313762
O O10 0.079584 0.448248 0.028425
O O11 0.042581 0.028749 0.644460
O O12 0.827895 0.035238 0.945998
O O13 0.693042 0.033009 0.679278
O O14 0.511648 0.907451 0.782336
#
# Coordination Sequence:
#
# PCOD9134288 Si02
#       7
#     4   4   4   4   4   4   4
#     4  12  20  34  58  82 111 140 180 236 281 320
#     4  12  20  35  56  85 110 138 183 235 279 325
#     4  10  21  35  52  79 116 149 176 222 267 340
#     4  10  19  33  55  82 109 144 178 227 281 321
#     4  10  20  36  53  79 116 144 179 227 267 336
#     4  10  21  33  53  83 109 142 184 218 279 325
#     4  10  19  34  53  82 113 137 184 227 278 323
#
# _framework density 18.767980000000001
#
# number of rings (size 3 to 8) (size 9 to 14) (size 15 to 20)
#    0.000    1.714    7.143    0.000    0.000    8.000 
#    0.000    0.000    0.000    1.714    0.000    0.000 
#    0.000    0.000    0.000    0.000    0.000    0.000 
#
# Total GULP energy -77951.802370 kJ/mol
# GULP energy per Si atom -5567.985884 kJ/mol
# Density = 1.872526 g / cm^3
# Si number density = 18.767980 Si / 1000 Ang^3
#
#
#
# Elastic Constant Matrix: (Units=GPa)
#
#
# Indices 1 2 3 4 5 6 
#
# 1 93.9804 18.3136 46.7284 0.0476 -17.0286 -0.0436
# 2 18.3136 36.0601 -1.2981 0.0299 8.6604 -0.0424
# 3 46.7284 -1.2981 120.2837 -0.1061 8.7324 0.0161
# 4 0.0476 0.0299 -0.1061 20.8983 0.0200 7.1768
# 5 -17.0286 8.6604 8.7324 0.0200 38.8651 0.0116
# 6 -0.0436 -0.0424 0.0161 7.1768 0.0116 20.4858
#
#
#
# Elastic Compliance Matrix: (Units=1/GPa)
#
#
# Indices 1 2 3 4 5 6 
#
# 1 0.020532 -0.014170 -0.009161 -0.000104 0.014212 0.000050
# 2 -0.014170 0.039156 0.007128 0.000011 -0.016535 0.000051
# 3 -0.009161 0.007128 0.012561 0.000098 -0.008425 -0.000044
# 4 -0.000104 0.000011 0.000098 0.054396 -0.000092 -0.019057
# 5 0.014212 -0.016535 -0.008425 -0.000092 0.037535 0.000014
# 6 0.000050 0.000051 -0.000044 -0.019057 0.000014 0.055491
#
#
# Mechanical properties :
#
#
# Convention : Reuss Voigt Hill
#
# Bulk Modulus (GPa) = 25.09904 41.97911 33.53907
# Shear Modulus (GPa) = 18.84243 28.48855 23.66549
#
# Velocity S-wave (km/s) = 3.17198 3.90029 3.55484
# Velocity P-wave (km/s) = 5.17858 6.53445 5.89562
#
# Compressibility (1/GPa) = 0.03984216
#
# Stress axis : x y z
#
# Youngs Moduli (GPa) = 48.70410 25.53890 79.60958
#
# Poissons Ratio (x) = 0.36190 0.72932
# Poissons Ratio (y) = 0.69016 -0.56746
# Poissons Ratio (z) = 0.44619 -0.18204
#
# Static dielectric constant tensor:
#      x y z
#    x 1.674810 0.000000 -0.012920 
#    y 0.000000 1.646290 -0.000020 
#    z -0.012920 -0.000020 1.778850 
# 
# From -- ./inp_files/24977.got.cif
#   From: 2010.05.17/outbox.cif.g08.bks.cpg/sg9_13_cif.got.tgz:24977.got - 2010.06.03 20:04:27.
