data_PCOD9134838
_publ_section_title
;
Structure prediction by ZEFSAII (Michael W. Deem and Ramdas Pophale) SiO2 
 PCOD9134838
Probable space group: C C
;
_chemical_formula_sum "Si O2"
_cell_formula_units_Z 28
_cell_length_a 10.734537
_cell_length_b 8.796389
_cell_length_c 23.154371
_cell_angle_alpha 90.000000
_cell_angle_beta 147.515461
_cell_angle_gamma 90.000000
_cell_volume 1174.230200
_symmetry_space_group_name_H-M "C C"
_symmetry_group_IT_number 9
_symmetry_cell_setting 'monoclinic'
loop_
_space_group_symop_operation_xyz
x,y,z
x,-y,1/2+z
1/2+x,1/2+y,z
1/2+x,1/2-y,1/2+z
loop_
_atom_site_type_symbol
_atom_site_label
_atom_site_fract_x
_atom_site_fract_y
_atom_site_fract_z
Si Si1 0.571510 0.349069 0.507620
Si Si2 0.320472 0.042119 0.210773
Si Si3 0.489221 0.017860 0.602991
Si Si4 0.162167 0.734807 0.977172
Si Si5 0.243615 0.456462 0.811976
Si Si6 0.351152 0.694952 0.181023
Si Si7 0.367733 0.923831 0.862473
O O1 0.611019 0.407505 0.588009
O O2 0.781082 0.419844 0.550619
O O3 0.339150 0.432644 0.397366
O O4 0.528375 0.183483 0.464990
O O5 0.529690 0.124945 0.258565
O O6 0.321158 0.099375 0.275806
O O7 0.347350 0.858175 0.213615
O O8 0.657619 0.049227 0.723314
O O9 0.648263 0.914633 0.624999
O O10 0.367748 0.164496 0.527571
O O11 0.944398 0.841629 0.876793
O O12 0.032801 0.573582 0.922730
O O13 0.266771 0.736355 0.083189
O O14 0.600320 0.605935 0.281048
#
# Coordination Sequence:
#
# PCOD9134838 Si02
#       7
#     4   4   4   4   4   4   4
#     4  10  22  47  77 110 150 212 251 322 401 459
#     4  11  24  47  79 107 164 202 264 330 389 470
#     4  10  23  45  79 104 154 209 259 316 392 467
#     4  11  25  47  72 114 156 203 268 321 399 472
#     4  10  19  47  74 102 149 210 249 309 399 449
#     4  12  25  49  75 120 153 210 266 329 381 483
#     4  12  28  46  78 121 154 204 275 321 401 474
#
# _framework density 23.845407000000002
#
# number of rings (size 3 to 8) (size 9 to 14) (size 15 to 20)
#    0.000    1.143    5.714    0.857    2.000    8.000 
#   10.286    0.000    0.000    0.000    0.000    0.000 
#    0.000    0.000    0.000    0.000    0.000    0.000 
#
# Total GULP energy -77952.312181 kJ/mol
# GULP energy per Si atom -5568.022299 kJ/mol
# Density = 2.379113 g / cm^3
# Si number density = 23.845407 Si / 1000 Ang^3
#
#
#
# Elastic Constant Matrix: (Units=GPa)
#
#
# Indices 1 2 3 4 5 6 
#
# 1 60.9079 44.1110 17.9337 0.0000 -7.8490 0.0000
# 2 44.1110 145.0577 74.2781 0.0001 9.1503 0.0000
# 3 17.9337 74.2781 120.0049 0.0007 -4.3974 0.0000
# 4 0.0000 0.0001 0.0007 -172.5502 0.0002 8.1052
# 5 -7.8490 9.1503 -4.3974 0.0002 35.5470 0.0000
# 6 0.0000 0.0000 0.0000 8.1052 0.0000 36.4951
#
#
#
# Elastic Compliance Matrix: (Units=1/GPa)
#
#
# Indices 1 2 3 4 5 6 
#
# 1 0.022951 -0.008549 0.002138 0.000000 0.007533 0.000000
# 2 -0.008549 0.013700 -0.007434 0.000000 -0.006334 0.000000
# 3 0.002138 -0.007434 0.012760 0.000000 0.003964 0.000000
# 4 0.000000 0.000000 0.000000 -0.005736 0.000000 0.001274
# 5 0.007533 -0.006334 0.003964 0.000000 0.031916 0.000000
# 6 0.000000 0.000000 0.000000 0.001274 0.000000 0.027118
#
#
# Mechanical properties :
#
#
# Convention : Reuss Voigt Hill
#
# Bulk Modulus (GPa) = 46.04039 66.51291 56.27665
# Shear Modulus (GPa) = 36.32663 -7.45845 14.43409
#
# Velocity S-wave (km/s) = 3.90734 -1.77049 2.46299
# Velocity P-wave (km/s) = 6.30128 4.87590 5.63385
#
# Compressibility (1/GPa) = 0.02172006
#
# Stress axis : x y z
#
# Youngs Moduli (GPa) = 43.57113 72.99412 78.36876
#
# Poissons Ratio (x) = 0.62403 -0.16753
# Poissons Ratio (y) = 0.37249 0.58260
# Poissons Ratio (z) = -0.09314 0.54264
#
# Static dielectric constant tensor:
#      x y z
#    x 2.015380 0.000000 0.020690 
#    y 0.000000 2.073550 0.000000 
#    z 0.020690 0.000000 1.916830 
# 
# From -- ./inp_files/35297.got.cif
#   From: 2010.05.17/outbox.cif.g08.bks.cpg/sg9_18_cif.got.tgz:35297.got - 2010.06.03 20:04:27.
