data_PCOD9134100
_publ_section_title
;
Structure prediction by ZEFSAII (Michael W. Deem and Ramdas Pophale) SiO2 
 PCOD9134100
Probable space group: C C
;
_chemical_formula_sum "Si O2"
_cell_formula_units_Z 32
_cell_length_a 20.905770
_cell_length_b 10.552650
_cell_length_c 9.388429
_cell_angle_alpha 90.000000
_cell_angle_beta 33.675928
_cell_angle_gamma 90.000000
_cell_volume 1148.465997
_symmetry_space_group_name_H-M "C C"
_symmetry_group_IT_number 9
_symmetry_cell_setting 'monoclinic'
loop_
_space_group_symop_operation_xyz
x,y,z
x,-y,1/2+z
1/2+x,1/2+y,z
1/2+x,1/2-y,1/2+z
loop_
_atom_site_type_symbol
_atom_site_label
_atom_site_fract_x
_atom_site_fract_y
_atom_site_fract_z
Si Si1 0.923520 0.986364 0.260600
Si Si2 0.891432 0.618712 0.579422
Si Si3 0.449491 0.861801 0.629756
Si Si4 0.639340 0.324008 0.850404
Si Si5 0.714518 0.008167 0.936729
Si Si6 0.854264 0.214402 0.537210
Si Si7 0.598375 0.249885 0.245375
Si Si8 0.239976 0.282081 0.736756
O O1 0.828775 0.021067 0.315766
O O2 0.851303 0.870423 0.477224
O O3 0.947850 0.117212 0.300683
O O4 0.046819 0.932904 0.978303
O O5 0.915878 0.491017 0.614245
O O6 0.921119 0.618274 0.352132
O O7 0.764160 0.674369 0.806969
O O8 0.964086 0.733207 0.514482
O O9 0.577867 0.802115 0.399885
O O10 0.387499 0.764986 0.631968
O O11 0.779680 0.318768 0.587805
O O12 0.619603 0.320571 0.059531
O O13 0.756927 0.106860 0.740149
O O14 0.661805 0.888263 0.956180
O O15 0.630408 0.098561 0.177829
O O16 0.682296 0.289116 0.213311
#
# Coordination Sequence:
#
# PCOD9134100 Si02
#       8
#     4   4   4   4   4   4   4   4
#     4  10  18  36  63  92 121 163 219 285 339 402
#     4  11  23  38  64  86 131 174 211 273 344 397
#     4  11  23  42  59  92 134 176 224 277 336 430
#     4  10  19  38  61  91 125 162 219 278 337 400
#     4   9  18  32  59  85 120 153 217 276 323 393
#     4  10  21  37  64  90 125 175 217 281 347 403
#     4   9  19  33  58  87 114 159 213 267 322 393
#     4  10  19  36  56  87 118 162 218 267 332 402
#
# _framework density 27.863251999999999
#
# number of rings (size 3 to 8) (size 9 to 14) (size 15 to 20)
#    0.000    2.000    3.750    1.500    8.750    1.000 
#    0.000    3.750    2.750    0.000    0.000    0.000 
#    0.000    0.000    0.000    0.000    0.000    0.000 
#
# Total GULP energy -89190.160162 kJ/mol
# GULP energy per Si atom -5574.385010 kJ/mol
# Density = 2.779983 g / cm^3
# Si number density = 27.863252 Si / 1000 Ang^3
#
#
#
# Elastic Constant Matrix: (Units=GPa)
#
#
# Indices 1 2 3 4 5 6 
#
# 1 161.8406 28.9508 12.4922 0.0000 -3.6661 0.0000
# 2 28.9508 76.4817 21.7270 0.0000 8.3741 0.0000
# 3 12.4922 21.7270 42.4871 0.0000 -3.3566 0.0000
# 4 0.0000 0.0000 0.0000 32.8587 0.0000 5.9359
# 5 -3.6661 8.3741 -3.3566 0.0000 36.0413 0.0000
# 6 0.0000 0.0000 0.0000 5.9359 0.0000 50.1297
#
#
#
# Elastic Compliance Matrix: (Units=1/GPa)
#
#
# Indices 1 2 3 4 5 6 
#
# 1 0.006699 -0.002498 -0.000597 0.000000 0.001206 0.000000
# 2 -0.002498 0.016925 -0.008313 0.000000 -0.004961 0.000000
# 3 -0.000597 -0.008313 0.028319 0.000000 0.004508 0.000000
# 4 0.000000 0.000000 0.000000 0.031099 0.000000 -0.003682
# 5 0.001206 -0.004961 0.004508 0.000000 0.029441 0.000000
# 6 0.000000 0.000000 0.000000 -0.003682 0.000000 0.020384
#
#
# Mechanical properties :
#
#
# Convention : Reuss Voigt Hill
#
# Bulk Modulus (GPa) = 34.33119 45.23884 39.78501
# Shear Modulus (GPa) = 30.23106 38.31522 34.27314
#
# Velocity S-wave (km/s) = 3.29748 3.71228 3.51101
# Velocity P-wave (km/s) = 5.18130 5.88608 5.54490
#
# Compressibility (1/GPa) = 0.02912803
#
# Stress axis : x y z
#
# Youngs Moduli (GPa) = 149.27060 59.08283 35.31190
#
# Poissons Ratio (x) = 0.14761 0.02107
# Poissons Ratio (y) = 0.37294 0.29353
# Poissons Ratio (z) = 0.08908 0.49113
#
# Static dielectric constant tensor:
#      x y z
#    x 2.191220 0.000000 0.017530 
#    y 0.000000 2.232960 0.000000 
#    z 0.017530 0.000000 2.506590 
# 
# From -- ./inp_files/20182.got.cif
#   From: 2010.05.17/outbox.cif.g08.bks.cpg/sg9_11_cif.got.tgz:20182.got - 2010.06.03 20:04:27.
