data_PCOD9134996
_publ_section_title
;
Structure prediction by ZEFSAII (Michael W. Deem and Ramdas Pophale) SiO2 
 PCOD9134996
Probable space group: C C
;
_chemical_formula_sum "Si O2"
_cell_formula_units_Z 24
_cell_length_a 18.088952
_cell_length_b 9.220578
_cell_length_c 10.609222
_cell_angle_alpha 90.000000
_cell_angle_beta 30.629927
_cell_angle_gamma 90.000000
_cell_volume 901.553595
_symmetry_space_group_name_H-M "C C"
_symmetry_group_IT_number 9
_symmetry_cell_setting 'monoclinic'
loop_
_space_group_symop_operation_xyz
x,y,z
x,-y,1/2+z
1/2+x,1/2+y,z
1/2+x,1/2-y,1/2+z
loop_
_atom_site_type_symbol
_atom_site_label
_atom_site_fract_x
_atom_site_fract_y
_atom_site_fract_z
Si Si1 0.662090 0.273408 0.341190
Si Si2 0.230194 0.813901 0.531335
Si Si3 0.688479 0.779662 0.479188
Si Si4 0.400014 0.101128 0.292134
Si Si5 0.737642 0.996269 0.620476
Si Si6 0.500817 0.548056 0.916333
O O1 0.708321 0.279796 0.416545
O O2 0.526388 0.380552 0.515171
O O3 0.618444 0.115934 0.350700
O O4 0.800857 0.330106 0.053356
O O5 0.235063 0.664286 0.596860
O O6 0.089691 0.900866 0.784423
O O7 0.357613 0.931888 0.363398
O O8 0.566569 0.851538 0.567677
O O9 0.830027 0.672244 0.266287
O O10 0.584930 0.665692 0.705565
O O11 0.755221 0.914790 0.459951
O O12 0.854179 0.975743 0.559484
#
# Coordination Sequence:
#
# PCOD9134996 Si02
#       6
#     4   4   4   4   4   4
#     4   9  20  40  64  81 125 170 204 250 324 369
#     4  10  22  36  63  95 118 169 212 255 311 383
#     4   9  16  36  60  82 118 169 193 249 316 362
#     4   9  19  37  63  88 126 161 207 259 313 367
#     4  10  20  36  58  91 126 158 206 264 306 369
#     4   9  19  39  60  85 127 157 208 265 310 362
#
# _framework density 26.620714
#
# number of rings (size 3 to 8) (size 9 to 14) (size 15 to 20)
#    0.000    3.333    3.333    0.000    2.333    1.333 
#    0.000   13.333   14.667    0.000    0.000    0.000 
#    0.000    0.000    0.000    0.000    0.000    0.000 
#
# Total GULP energy -66941.726507 kJ/mol
# GULP energy per Si atom -5578.477209 kJ/mol
# Density = 2.656012 g / cm^3
# Si number density = 26.620714 Si / 1000 Ang^3
#
#
#
# Elastic Constant Matrix: (Units=GPa)
#
#
# Indices 1 2 3 4 5 6 
#
# 1 162.7917 71.9622 49.8379 0.0000 -21.1209 0.0000
# 2 71.9622 253.5032 40.6636 0.0000 -0.3106 0.0000
# 3 49.8379 40.6636 79.3325 0.0000 -11.9259 0.0000
# 4 0.0000 0.0000 0.0000 11.8460 0.0000 -0.0931
# 5 -21.1209 -0.3106 -11.9259 0.0000 37.5517 0.0000
# 6 0.0000 0.0000 0.0000 -0.0931 0.0000 52.2137
#
#
#
# Elastic Compliance Matrix: (Units=1/GPa)
#
#
# Indices 1 2 3 4 5 6 
#
# 1 0.008614 -0.001808 -0.003947 0.000000 0.003577 0.000000
# 2 -0.001808 0.004695 -0.001489 0.000000 -0.001451 0.000000
# 3 -0.003947 -0.001489 0.016290 0.000000 0.002941 0.000000
# 4 0.000000 0.000000 0.000000 0.084418 0.000000 0.000150
# 5 0.003577 -0.001451 0.002941 0.000000 0.029564 0.000000
# 6 0.000000 0.000000 0.000000 0.000150 0.000000 0.019152
#
#
# Mechanical properties :
#
#
# Convention : Reuss Voigt Hill
#
# Bulk Modulus (GPa) = 66.17517 91.17277 78.67397
# Shear Modulus (GPa) = 27.43347 42.53320 34.98333
#
# Velocity S-wave (km/s) = 3.21367 4.00152 3.62904
# Velocity P-wave (km/s) = 6.21954 7.46142 6.86860
#
# Compressibility (1/GPa) = 0.01511141
#
# Stress axis : x y z
#
# Youngs Moduli (GPa) = 116.08336 212.99416 61.38617
#
# Poissons Ratio (x) = 0.38506 0.24232
# Poissons Ratio (y) = 0.20986 0.09140
# Poissons Ratio (z) = 0.45823 0.31713
#
# Static dielectric constant tensor:
#      x y z
#    x 2.150690 0.000000 0.045740 
#    y 0.000000 2.150430 0.000000 
#    z 0.045740 0.000000 2.252060 
# 
# From -- ./inp_files/18992.got.cif
#   From: 2010.05.17/outbox.cif.g08.bks.cpg/sg9_10_cif.got.tgz:18992.got - 2010.06.03 20:04:27.
