data_PCOD9134187
_publ_section_title
;
Structure prediction by ZEFSAII (Michael W. Deem and Ramdas Pophale) SiO2 
 PCOD9134187
Probable space group: C C
;
_chemical_formula_sum "Si O2"
_cell_formula_units_Z 28
_cell_length_a 7.112983
_cell_length_b 10.747228
_cell_length_c 18.208117
_cell_angle_alpha 90.000000
_cell_angle_beta 47.431203
_cell_angle_gamma 90.000000
_cell_volume 1025.098824
_symmetry_space_group_name_H-M "C C"
_symmetry_group_IT_number 9
_symmetry_cell_setting 'monoclinic'
loop_
_space_group_symop_operation_xyz
x,y,z
x,-y,1/2+z
1/2+x,1/2+y,z
1/2+x,1/2-y,1/2+z
loop_
_atom_site_type_symbol
_atom_site_label
_atom_site_fract_x
_atom_site_fract_y
_atom_site_fract_z
Si Si1 0.732330 0.727454 0.848590
Si Si2 0.794142 0.007593 0.299936
Si Si3 0.223084 0.156266 0.633659
Si Si4 0.678409 0.801904 0.123015
Si Si5 0.478347 0.943118 0.502638
Si Si6 0.964311 0.345152 0.786062
Si Si7 0.479460 0.496913 0.964645
O O1 0.521133 0.748102 0.838697
O O2 0.615704 0.631202 0.936554
O O3 0.995091 0.683429 0.741442
O O4 0.796298 0.869478 0.850279
O O5 0.593410 0.917052 0.391865
O O6 0.066070 0.947755 0.220071
O O7 0.684196 0.056664 0.251897
O O8 0.474521 0.194863 0.610562
O O9 0.035066 0.275296 0.691408
O O10 0.316340 0.072408 0.541441
O O11 0.821381 0.671117 0.076899
O O12 0.876130 0.913145 0.058235
O O13 0.722155 0.968195 0.489386
O O14 0.694494 0.412504 0.866664
#
# Coordination Sequence:
#
# PCOD9134187 Si02
#       7
#     4   4   4   4   4   4   4
#     4   9  20  41  60  86 130 168 204 266 323 365
#     4  10  21  41  67  87 133 170 213 268 329 374
#     4  10  18  39  68  92 126 174 215 266 325 382
#     4  10  20  38  67  95 131 166 215 270 318 380
#     4  11  21  38  70  97 124 176 220 263 323 390
#     4   9  21  41  62  87 135 169 207 275 320 372
#     4  11  21  38  66  94 127 175 214 260 324 389
#
# _framework density 27.314440000000001
#
# number of rings (size 3 to 8) (size 9 to 14) (size 15 to 20)
#    0.857    1.143    1.429    3.429    0.000    0.000 
#   10.286    2.857    0.000    0.000    0.000    0.000 
#    0.000    0.000    0.000    0.000    0.000    0.000 
#
# Total GULP energy -78215.748050 kJ/mol
# GULP energy per Si atom -5586.839146 kJ/mol
# Density = 2.725227 g / cm^3
# Si number density = 27.314440 Si / 1000 Ang^3
#
#
#
# Elastic Constant Matrix: (Units=GPa)
#
#
# Indices 1 2 3 4 5 6 
#
# 1 106.5940 52.3388 40.6962 -0.0003 -44.3856 0.0000
# 2 52.3388 139.9390 72.3423 -0.0004 -21.4894 0.0000
# 3 40.6962 72.3423 142.8403 -0.0024 -23.8030 0.0007
# 4 -0.0003 -0.0004 -0.0024 83.1351 0.0009 -17.4382
# 5 -44.3856 -21.4894 -23.8030 0.0009 33.5938 -0.0003
# 6 0.0000 0.0000 0.0007 -17.4382 -0.0003 29.7012
#
#
#
# Elastic Compliance Matrix: (Units=1/GPa)
#
#
# Indices 1 2 3 4 5 6 
#
# 1 0.023052 -0.004540 0.000366 0.000000 0.027812 0.000000
# 2 -0.004540 0.010865 -0.004593 0.000000 -0.002303 0.000000
# 3 0.000366 -0.004593 0.009993 0.000000 0.004627 0.000000
# 4 0.000000 0.000000 0.000000 0.013718 0.000000 0.008054
# 5 0.027812 -0.002303 0.004627 0.000000 0.068320 0.000000
# 6 0.000000 0.000000 0.000000 0.008054 0.000000 0.038397
#
#
# Mechanical properties :
#
#
# Convention : Reuss Voigt Hill
#
# Bulk Modulus (GPa) = 37.91160 80.01422 58.96291
# Shear Modulus (GPa) = 26.22327 44.21908 35.22118
#
# Velocity S-wave (km/s) = 3.10183 4.02791 3.59482
# Velocity P-wave (km/s) = 5.17091 7.14069 6.23409
#
# Compressibility (1/GPa) = 0.02637715
#
# Stress axis : x y z
#
# Youngs Moduli (GPa) = 43.38063 92.04202 100.06505
#
# Poissons Ratio (x) = 0.41788 -0.03667
# Poissons Ratio (y) = 0.19695 0.45957
# Poissons Ratio (z) = -0.01590 0.42272
#
# Static dielectric constant tensor:
#      x y z
#    x 2.128660 0.000000 0.022940 
#    y 0.000000 2.178160 0.000000 
#    z 0.022940 0.000000 2.107530 
# 
# From -- ./inp_files/34974.got.cif
#   From: 2010.05.17/outbox.cif.g08.bks.cpg/sg9_18_cif.got.tgz:34974.got - 2010.06.03 20:04:27.
