data_PCOD9134269
_publ_section_title
;
Structure prediction by ZEFSAII (Michael W. Deem and Ramdas Pophale) SiO2 
 PCOD9134269
Probable space group: C C
;
_chemical_formula_sum "Si O2"
_cell_formula_units_Z 32
_cell_length_a 12.051393
_cell_length_b 27.958655
_cell_length_c 5.291152
_cell_angle_alpha 90.000000
_cell_angle_beta 56.819295
_cell_angle_gamma 90.000000
_cell_volume 1492.115983
_symmetry_space_group_name_H-M "C C"
_symmetry_group_IT_number 9
_symmetry_cell_setting 'monoclinic'
loop_
_space_group_symop_operation_xyz
x,y,z
x,-y,1/2+z
1/2+x,1/2+y,z
1/2+x,1/2-y,1/2+z
loop_
_atom_site_type_symbol
_atom_site_label
_atom_site_fract_x
_atom_site_fract_y
_atom_site_fract_z
Si Si1 0.136590 0.117118 0.700600
Si Si2 0.749619 0.650453 0.057594
Si Si3 0.421642 0.298714 0.457711
Si Si4 0.555454 0.155086 0.798893
Si Si5 0.541942 0.738179 0.310667
Si Si6 0.193309 0.627280 0.136670
Si Si7 0.806663 0.025375 0.843458
Si Si8 0.602978 0.513599 0.910846
O O1 0.188646 0.115444 0.349198
O O2 0.076037 0.068456 0.883286
O O3 0.027938 0.158347 0.838541
O O4 0.244378 0.131159 0.778095
O O5 0.656047 0.697555 0.176034
O O6 0.898719 0.659024 0.955477
O O7 0.443501 0.272532 0.697900
O O8 0.287827 0.326517 0.555278
O O9 0.463040 0.265209 0.173062
O O10 0.604440 0.209703 0.707245
O O11 0.618744 0.123278 0.497177
O O12 0.596240 0.136858 0.023179
O O13 0.275118 0.579597 0.960169
O O14 0.755385 0.008757 0.633398
O O15 0.964997 0.015209 0.618675
O O16 0.677749 0.492345 0.578970
#
# Coordination Sequence:
#
# PCOD9134269 Si02
#       8
#     4   4   4   4   4   4   4   4
#     4  10  20  39  63  94 124 162 209 260 333 375
#     4  10  23  41  65  86 129 174 214 265 310 390
#     4  10  21  38  62  95 126 158 213 277 320 379
#     4  12  26  43  63  92 132 184 218 262 319 398
#     4  10  23  41  63  91 121 172 221 270 321 367
#     4  12  25  40  66 100 132 171 216 272 334 392
#     4  10  21  38  62  95 129 163 197 265 339 390
#     4  10  19  32  60  95 125 154 192 263 328 387
#
# _framework density 21.446052999999999
#
# number of rings (size 3 to 8) (size 9 to 14) (size 15 to 20)
#    0.000    1.500    0.000    5.250    3.500    6.000 
#    0.000    0.000    0.000   15.000    0.000    0.000 
#    0.000    0.000    0.000    0.000    0.000    0.000 
#
# Total GULP energy -89338.921884 kJ/mol
# GULP energy per Si atom -5583.682618 kJ/mol
# Density = 2.139724 g / cm^3
# Si number density = 21.446053 Si / 1000 Ang^3
#
#
#
# Elastic Constant Matrix: (Units=GPa)
#
#
# Indices 1 2 3 4 5 6 
#
# 1 101.2353 5.7133 39.9186 0.0000 23.0762 0.0000
# 2 5.7133 63.3762 2.4833 0.0000 7.7241 0.0000
# 3 39.9186 2.4833 73.3199 0.0000 31.0565 0.0000
# 4 0.0000 0.0000 0.0000 34.7402 0.0000 2.1646
# 5 23.0762 7.7241 31.0565 0.0000 45.4608 0.0000
# 6 0.0000 0.0000 0.0000 2.1646 0.0000 14.4770
#
#
#
# Elastic Compliance Matrix: (Units=1/GPa)
#
#
# Indices 1 2 3 4 5 6 
#
# 1 0.012793 -0.000638 -0.005965 0.000000 -0.002311 0.000000
# 2 -0.000638 0.016183 0.001163 0.000000 -0.003221 0.000000
# 3 -0.005965 0.001163 0.022020 0.000000 -0.012213 0.000000
# 4 0.000000 0.000000 0.000000 0.029056 0.000000 -0.004344
# 5 -0.002311 -0.003221 -0.012213 0.000000 0.032060 0.000000
# 6 0.000000 0.000000 0.000000 -0.004344 0.000000 0.069725
#
#
# Mechanical properties :
#
#
# Convention : Reuss Voigt Hill
#
# Bulk Modulus (GPa) = 24.92683 37.12909 31.02796
# Shear Modulus (GPa) = 24.26161 31.59004 27.92583
#
# Velocity S-wave (km/s) = 3.36711 3.84213 3.61244
# Velocity P-wave (km/s) = 5.17347 6.08548 5.64791
#
# Compressibility (1/GPa) = 0.04011742
#
# Stress axis : x y z
#
# Youngs Moduli (GPa) = 78.17040 61.79241 45.41350
#
# Poissons Ratio (x) = 0.03942 0.27087
# Poissons Ratio (y) = 0.04987 -0.05283
# Poissons Ratio (z) = 0.46625 -0.07189
#
# Static dielectric constant tensor:
#      x y z
#    x 1.805100 0.000000 0.042070 
#    y 0.000000 1.783990 0.000000 
#    z 0.042070 0.000000 1.809370 
# 
# From -- ./inp_files/2268.got.cif
#   From: 2010.05.17/outbox.cif.g08.bks.cpg/sg9_2_cif.got.tgz:2268.got - 2010.06.03 20:04:27.
