data_PCOD9134654
_publ_section_title
;
Structure prediction by ZEFSAII (Michael W. Deem and Ramdas Pophale) SiO2 
 PCOD9134654
Probable space group: C C
;
_chemical_formula_sum "Si O2"
_cell_formula_units_Z 32
_cell_length_a 11.310107
_cell_length_b 8.475291
_cell_length_c 20.217609
_cell_angle_alpha 90.000000
_cell_angle_beta 132.492797
_cell_angle_gamma 90.000000
_cell_volume 1428.999356
_symmetry_space_group_name_H-M "C C"
_symmetry_group_IT_number 9
_symmetry_cell_setting 'monoclinic'
loop_
_space_group_symop_operation_xyz
x,y,z
x,-y,1/2+z
1/2+x,1/2+y,z
1/2+x,1/2-y,1/2+z
loop_
_atom_site_type_symbol
_atom_site_label
_atom_site_fract_x
_atom_site_fract_y
_atom_site_fract_z
Si Si1 0.503470 0.176095 0.583180
Si Si2 0.239606 0.200626 0.279172
Si Si3 0.291001 0.844701 0.322467
Si Si4 0.989511 0.879781 0.446953
Si Si5 0.211767 0.616929 0.391310
Si Si6 0.990710 0.648850 0.783896
Si Si7 0.745158 0.622971 0.579620
Si Si8 0.460383 0.829642 0.522030
O O1 0.655095 0.228795 0.683052
O O2 0.505203 0.258197 0.513302
O O3 0.341902 0.224189 0.561885
O O4 0.492835 0.986995 0.574213
O O5 0.412696 0.280863 0.357748
O O6 0.126547 0.249259 0.298991
O O7 0.233839 0.012054 0.274317
O O8 0.165052 0.733798 0.313017
O O9 0.383249 0.761327 0.297062
O O10 0.412236 0.878714 0.428911
O O11 0.854662 0.009860 0.414642
O O12 0.150338 0.983891 0.506654
O O13 0.304826 0.721323 0.481111
O O14 0.074942 0.493823 0.354881
O O15 0.880210 0.577412 0.684078
O O16 0.616161 0.722224 0.572654
#
# Coordination Sequence:
#
# PCOD9134654 Si02
#       8
#     4   4   4   4   4   4   4   4
#     4  11  22  41  61  86 129 153 204 257 292 365
#     4  10  22  38  63  91 114 167 200 245 311 352
#     4  10  20  40  61  83 121 156 197 250 297 360
#     4  10  19  39  60  86 120 154 202 244 301 361
#     4   8  20  36  60  90 113 160 200 236 307 356
#     4  10  21  38  62  89 120 155 207 244 301 362
#     4  10  23  38  59  92 116 163 200 246 309 351
#     4   9  21  40  58  87 123 158 200 242 310 353
#
# _framework density 22.393291999999999
#
# number of rings (size 3 to 8) (size 9 to 14) (size 15 to 20)
#    0.750    1.500    1.250    0.750    3.500    4.000 
#    0.000    6.250    0.000    0.000    0.000    0.000 
#    0.000    0.000    0.000    0.000    0.000    0.000 
#
# Total GULP energy -89216.788114 kJ/mol
# GULP energy per Si atom -5576.049257 kJ/mol
# Density = 2.234232 g / cm^3
# Si number density = 22.393292 Si / 1000 Ang^3
#
#
#
# Elastic Constant Matrix: (Units=GPa)
#
#
# Indices 1 2 3 4 5 6 
#
# 1 40.1574 -4.0484 11.9368 0.0000 6.0541 0.0000
# 2 -4.0484 60.7330 -4.4524 0.0000 4.3601 0.0000
# 3 11.9368 -4.4524 62.1911 0.0000 5.9180 0.0000
# 4 0.0000 0.0000 0.0000 28.4937 0.0000 -6.7045
# 5 6.0541 4.3601 5.9180 0.0000 21.7652 0.0000
# 6 0.0000 0.0000 0.0000 -6.7045 0.0000 15.9588
#
#
#
# Elastic Compliance Matrix: (Units=1/GPa)
#
#
# Indices 1 2 3 4 5 6 
#
# 1 0.027463 0.001992 -0.004480 0.000000 -0.006820 0.000000
# 2 0.001992 0.016998 0.001244 0.000000 -0.004297 0.000000
# 3 -0.004480 0.001244 0.017383 0.000000 -0.003730 0.000000
# 4 0.000000 0.000000 0.000000 0.038945 0.000000 0.016361
# 5 -0.006820 -0.004297 -0.003730 0.000000 0.049717 0.000000
# 6 0.000000 0.000000 0.000000 0.016361 0.000000 0.069535
#
#
# Mechanical properties :
#
#
# Convention : Reuss Voigt Hill
#
# Bulk Modulus (GPa) = 16.84769 18.88373 17.86571
# Shear Modulus (GPa) = 20.63439 23.88659 22.26049
#
# Velocity S-wave (km/s) = 3.03884 3.26956 3.15631
# Velocity P-wave (km/s) = 4.45563 4.76491 4.61286
#
# Compressibility (1/GPa) = 0.05935533
#
# Stress axis : x y z
#
# Youngs Moduli (GPa) = 36.41327 58.83061 57.52691
#
# Poissons Ratio (x) = -0.11718 0.25769
# Poissons Ratio (y) = -0.07253 -0.07154
# Poissons Ratio (z) = 0.16311 -0.07316
#
# Static dielectric constant tensor:
#      x y z
#    x 1.856350 0.000000 0.016080 
#    y 0.000000 1.842800 0.000000 
#    z 0.016080 0.000000 1.809770 
# 
# From -- ./inp_files/33223.got.cif
#   From: 2010.05.17/outbox.cif.g08.bks.cpg/sg9_17_cif.got.tgz:33223.got - 2010.06.03 20:04:27.
