data_PCOD9134884
_publ_section_title
;
Structure prediction by ZEFSAII (Michael W. Deem and Ramdas Pophale) SiO2 
 PCOD9134884
Probable space group: C C
;
_chemical_formula_sum "Si O2"
_cell_formula_units_Z 32
_cell_length_a 15.822622
_cell_length_b 22.253906
_cell_length_c 9.302298
_cell_angle_alpha 90.000000
_cell_angle_beta 29.365048
_cell_angle_gamma 90.000000
_cell_volume 1606.204321
_symmetry_space_group_name_H-M "C C"
_symmetry_group_IT_number 9
_symmetry_cell_setting 'monoclinic'
loop_
_space_group_symop_operation_xyz
x,y,z
x,-y,1/2+z
1/2+x,1/2+y,z
1/2+x,1/2-y,1/2+z
loop_
_atom_site_type_symbol
_atom_site_label
_atom_site_fract_x
_atom_site_fract_y
_atom_site_fract_z
Si Si1 0.384570 0.536091 0.830780
Si Si2 0.179864 0.509858 0.882825
Si Si3 0.968565 0.390978 0.214773
Si Si4 0.238266 0.331357 0.597747
Si Si5 0.361465 0.069085 0.362962
Si Si6 0.044066 0.738456 0.131649
Si Si7 0.735647 0.465999 0.362103
Si Si8 0.349882 0.172035 0.181915
O O1 0.355585 0.519384 0.708812
O O2 0.553148 0.500588 0.633589
O O3 0.228741 0.505314 0.148647
O O4 0.353636 0.607821 0.897782
O O5 0.074941 0.451717 0.092471
O O6 0.066535 0.568704 0.082510
O O7 0.799986 0.411098 0.369560
O O8 0.913273 0.360879 0.445346
O O9 0.100756 0.350563 0.924783
O O10 0.120511 0.306058 0.640482
O O11 0.374425 0.277378 0.429684
O O12 0.274641 0.051679 0.640644
O O13 0.283973 0.126744 0.403603
O O14 0.352462 0.018703 0.253223
O O15 0.997129 0.706277 0.052000
O O16 0.196620 0.784101 0.872312
#
# Coordination Sequence:
#
# PCOD9134884 Si02
#       8
#     4   4   4   4   4   4   4   4
#     4  11  21  35  55  85 120 148 186 238 289 355
#     4  10  20  34  55  84 115 152 187 226 293 368
#     4  10  22  40  60  86 119 156 197 247 308 367
#     4  10  22  41  62  86 119 158 205 255 302 354
#     4  11  20  37  59  83 119 157 193 238 292 361
#     4  10  23  40  62  86 113 161 213 257 309 353
#     4  11  22  35  58  90 118 154 191 231 298 373
#     4  11  22  40  61  86 119 158 206 260 305 357
#
# _framework density 19.922744999999999
#
# number of rings (size 3 to 8) (size 9 to 14) (size 15 to 20)
#    0.000    1.500    0.000    7.500    0.000    3.000 
#    0.000    1.250    0.000    0.000    0.000    0.000 
#    0.000    0.000    0.000    0.000    0.000    0.000 
#
# Total GULP energy -89102.831142 kJ/mol
# GULP energy per Si atom -5568.926946 kJ/mol
# Density = 1.987740 g / cm^3
# Si number density = 19.922745 Si / 1000 Ang^3
#
#
#
# Elastic Constant Matrix: (Units=GPa)
#
#
# Indices 1 2 3 4 5 6 
#
# 1 119.9556 62.9455 68.3640 0.0000 5.3970 0.0002
# 2 62.9455 99.7951 54.4199 0.0003 10.4791 -0.0002
# 3 68.3640 54.4199 75.5715 0.0015 -3.3034 0.0011
# 4 0.0000 0.0003 0.0015 27.2661 -0.0003 -1.3975
# 5 5.3970 10.4791 -3.3034 -0.0003 30.0761 0.0004
# 6 0.0002 -0.0002 0.0011 -1.3975 0.0004 37.0696
#
#
#
# Elastic Compliance Matrix: (Units=1/GPa)
#
#
# Indices 1 2 3 4 5 6 
#
# 1 0.018551 -0.003406 -0.014492 0.000001 -0.003734 0.000000
# 2 -0.003406 0.018780 -0.010753 0.000000 -0.007113 0.000001
# 3 -0.014492 -0.010753 0.034529 -0.000002 0.010140 -0.000001
# 4 0.000001 0.000000 -0.000002 0.036747 0.000000 0.001385
# 5 -0.003734 -0.007113 0.010140 0.000000 0.037511 -0.000001
# 6 0.000000 0.000001 -0.000001 0.001385 -0.000001 0.027028
#
#
# Mechanical properties :
#
#
# Convention : Reuss Voigt Hill
#
# Bulk Modulus (GPa) = 68.69522 74.08679 71.39100
# Shear Modulus (GPa) = 21.24939 26.18857 23.71898
#
# Velocity S-wave (km/s) = 3.26941 3.62954 3.45417
# Velocity P-wave (km/s) = 6.98625 7.40490 7.19862
#
# Compressibility (1/GPa) = 0.01455705
#
# Stress axis : x y z
#
# Youngs Moduli (GPa) = 53.90558 53.24901 28.96102
#
# Poissons Ratio (x) = 0.18137 0.41971
# Poissons Ratio (y) = 0.18361 0.31142
# Poissons Ratio (z) = 0.78121 0.57259
#
# Static dielectric constant tensor:
#      x y z
#    x 1.782440 0.000000 -0.101210 
#    y 0.000000 1.763820 0.000000 
#    z -0.101210 0.000000 1.743190 
# 
# From -- ./inp_files/6150.got.cif
#   From: 2010.05.17/outbox.cif.g08.bks.cpg/sg9_4_cif.got.tgz:6150.got - 2010.06.03 20:04:27.
