data_PCOD9134515
_publ_section_title
;
Structure prediction by ZEFSAII (Michael W. Deem and Ramdas Pophale) SiO2 
 PCOD9134515
Probable space group: C C
;
_chemical_formula_sum "Si O2"
_cell_formula_units_Z 32
_cell_length_a 18.106703
_cell_length_b 9.203585
_cell_length_c 8.643622
_cell_angle_alpha 90.000000
_cell_angle_beta 63.661856
_cell_angle_gamma 90.000000
_cell_volume 1290.900821
_symmetry_space_group_name_H-M "C C"
_symmetry_group_IT_number 9
_symmetry_cell_setting 'monoclinic'
loop_
_space_group_symop_operation_xyz
x,y,z
x,-y,1/2+z
1/2+x,1/2+y,z
1/2+x,1/2-y,1/2+z
loop_
_atom_site_type_symbol
_atom_site_label
_atom_site_fract_x
_atom_site_fract_y
_atom_site_fract_z
Si Si1 0.348360 0.425053 0.007530
Si Si2 0.455233 0.120898 0.733650
Si Si3 0.457646 0.618393 0.689966
Si Si4 0.580274 0.704194 0.326278
Si Si5 0.616304 0.054473 0.022412
Si Si6 0.710482 0.749182 0.981067
Si Si7 0.235142 0.289674 0.630483
Si Si8 0.391967 0.858014 0.954811
O O1 0.387212 0.366220 0.127098
O O2 0.296171 0.299242 0.975384
O O3 0.288464 0.561103 0.105303
O O4 0.420660 0.490914 0.831510
O O5 0.507671 0.237146 0.782015
O O6 0.408362 0.168455 0.621812
O O7 0.524528 0.006728 0.611086
O O8 0.403008 0.024405 0.900308
O O9 0.540071 0.613997 0.506203
O O10 0.457024 0.755288 0.804675
O O11 0.621228 0.848159 0.364969
O O12 0.652849 0.652434 0.144994
O O13 0.653165 0.158622 0.120968
O O14 0.668259 0.906956 0.984190
O O15 0.718664 0.696247 0.799088
O O16 0.302545 0.193597 0.479482
#
# Coordination Sequence:
#
# PCOD9134515 Si02
#       8
#     4   4   4   4   4   4   4   4
#     4  10  21  39  62  90 133 164 224 271 331 395
#     4  11  21  40  62  98 132 169 216 279 324 399
#     4  11  23  39  61 100 126 177 212 280 331 399
#     4  11  23  34  65  98 133 167 215 275 335 388
#     4  10  19  37  61  94 129 164 216 279 329 375
#     4  10  20  35  59  94 128 164 215 279 327 375
#     4  10  22  37  62  97 127 175 212 277 334 393
#     4  11  23  39  64  97 132 168 218 274 339 392
#
# _framework density 24.788893000000002
#
# number of rings (size 3 to 8) (size 9 to 14) (size 15 to 20)
#    0.000    1.500    3.750    2.250    7.000    0.000 
#    0.000    0.000    0.000    4.500    0.000    0.000 
#    0.000    0.000    0.000    0.000    0.000    0.000 
#
# Total GULP energy -89346.698462 kJ/mol
# GULP energy per Si atom -5584.168654 kJ/mol
# Density = 2.473247 g / cm^3
# Si number density = 24.788893 Si / 1000 Ang^3
#
#
#
# Elastic Constant Matrix: (Units=GPa)
#
#
# Indices 1 2 3 4 5 6 
#
# 1 68.8248 43.5764 19.2305 0.0000 18.7678 0.0000
# 2 43.5764 12.6959 24.9241 0.0000 -9.4697 0.0000
# 3 19.2305 24.9241 157.2351 0.0000 -2.2773 0.0000
# 4 0.0000 0.0000 0.0000 33.8424 0.0000 2.0776
# 5 18.7678 -9.4697 -2.2773 0.0000 42.8971 0.0000
# 6 0.0000 0.0000 0.0000 2.0776 0.0000 21.2616
#
#
#
# Elastic Compliance Matrix: (Units=1/GPa)
#
#
# Indices 1 2 3 4 5 6 
#
# 1 -0.004277 0.028000 -0.003802 0.000000 0.007851 0.000000
# 2 0.028000 -0.036439 0.002059 0.000000 -0.020185 0.000000
# 3 -0.003802 0.002059 0.006534 0.000000 0.002465 0.000000
# 4 0.000000 0.000000 0.000000 0.029727 0.000000 -0.002905
# 5 0.007851 -0.020185 0.002465 0.000000 0.015552 0.000000
# 6 0.000000 0.000000 0.000000 -0.002905 0.000000 0.047317
#
#
# Mechanical properties :
#
#
# Convention : Reuss Voigt Hill
#
# Bulk Modulus (GPa) = 54.54485 46.02420 50.28452
# Shear Modulus (GPa) = 416.36853 29.66855 223.01854
#
# Velocity S-wave (km/s) = 12.97422 3.46330 9.49539
# Velocity P-wave (km/s) = 15.70007 5.88212 11.85520
#
# Compressibility (1/GPa) = 0.01833354
#
# Stress axis : x y z
#
# Youngs Moduli (GPa) = -233.78921 -27.44301 153.04246
#
# Poissons Ratio (x) = 0.76841 0.58181
# Poissons Ratio (y) = 6.54618 -0.31515
# Poissons Ratio (z) = -0.88878 0.05651
#
# Static dielectric constant tensor:
#      x y z
#    x 1.931470 0.000000 -0.055770 
#    y 0.000000 1.959830 0.000000 
#    z -0.055770 0.000000 2.056780 
# 
# From -- ./inp_files/10741.got.cif
#   From: 2010.05.17/outbox.cif.g08.bks.cpg/sg9_6_cif.got.tgz:10741.got - 2010.06.03 20:04:27.
