data_PCOD9134229
_publ_section_title
;
Structure prediction by ZEFSAII (Michael W. Deem and Ramdas Pophale) SiO2 
 PCOD9134229
Probable space group: C C
;
_chemical_formula_sum "Si O2"
_cell_formula_units_Z 32
_cell_length_a 20.104733
_cell_length_b 13.871542
_cell_length_c 6.947507
_cell_angle_alpha 90.000000
_cell_angle_beta 57.981490
_cell_angle_gamma 90.000000
_cell_volume 1642.800494
_symmetry_space_group_name_H-M "C C"
_symmetry_group_IT_number 9
_symmetry_cell_setting 'monoclinic'
loop_
_space_group_symop_operation_xyz
x,y,z
x,-y,1/2+z
1/2+x,1/2+y,z
1/2+x,1/2-y,1/2+z
loop_
_atom_site_type_symbol
_atom_site_label
_atom_site_fract_x
_atom_site_fract_y
_atom_site_fract_z
Si Si1 0.576740 0.366293 0.926620
Si Si2 0.640336 0.133707 0.274507
Si Si3 0.299049 0.016532 0.316550
Si Si4 0.510463 0.803496 0.698728
Si Si5 0.706613 0.303496 0.002399
Si Si6 0.583372 0.925720 0.241481
Si Si7 0.633704 0.574280 0.959647
Si Si8 0.418027 0.016532 0.384578
O O1 0.581901 0.366934 0.690104
O O2 0.506386 0.305363 0.128715
O O3 0.653420 0.312724 0.894891
O O4 0.587516 0.477515 0.971103
O O5 0.563657 0.187276 0.306236
O O6 0.710690 0.194637 0.072412
O O7 0.635175 0.133066 0.511024
O O8 0.629560 0.022485 0.230025
O O9 0.282139 0.131581 0.349401
O O10 0.318806 0.997150 0.535940
O O11 0.215529 0.959569 0.435251
O O12 0.398271 0.997150 0.165187
O O13 0.557833 0.862140 0.460824
O O14 0.434937 0.868419 0.851726
O O15 0.659243 0.362140 0.240303
O O16 0.501547 0.959569 0.265876
#
# Coordination Sequence:
#
# PCOD9134229 Si02
#       8
#     4   4   4   4   4   4   4   4
#     4  10  19  31  49  72 102 131 168 203 249 295
#     4  10  19  31  49  72 102 131 168 203 249 295
#     4  11  18  30  49  70 104 130 157 196 253 300
#     4  10  20  32  47  73 103 133 165 204 245 305
#     4  10  20  32  47  73 103 133 165 204 245 305
#     4  11  18  33  50  73 105 132 161 207 253 292
#     4  11  18  33  50  73 105 132 161 207 253 292
#     4  11  18  30  49  70 104 130 157 196 253 300
#
# _framework density 19.478932
#
# number of rings (size 3 to 8) (size 9 to 14) (size 15 to 20)
#    0.000    1.500    7.500    2.250    0.000    0.000 
#    0.000    0.000    0.000    0.000    0.000    1.750 
#    0.000    0.000    0.000    0.000    0.000    0.000 
#
# Total GULP energy -89077.157125 kJ/mol
# GULP energy per Si atom -5567.322320 kJ/mol
# Density = 1.943460 g / cm^3
# Si number density = 19.478932 Si / 1000 Ang^3
#
#
#
# Elastic Constant Matrix: (Units=GPa)
#
#
# Indices 1 2 3 4 5 6 
#
# 1 57.5829 19.2763 6.3138 0.0000 6.0503 0.0000
# 2 19.2763 97.1830 36.9997 0.0000 -1.3490 0.0000
# 3 6.3138 36.9997 97.3480 0.0000 14.2450 0.0000
# 4 0.0000 0.0000 0.0000 37.6911 0.0000 -1.8077
# 5 6.0503 -1.3490 14.2450 0.0000 26.5989 0.0000
# 6 0.0000 0.0000 0.0000 -1.8077 0.0000 21.2873
#
#
#
# Elastic Compliance Matrix: (Units=1/GPa)
#
#
# Indices 1 2 3 4 5 6 
#
# 1 0.019237 -0.004330 0.001162 0.000000 -0.005217 0.000000
# 2 -0.004330 0.013282 -0.005436 0.000000 0.004570 0.000000
# 3 0.001162 -0.005436 0.013392 0.000000 -0.007712 0.000000
# 4 0.000000 0.000000 0.000000 0.026640 0.000000 0.002262
# 5 -0.005217 0.004570 -0.007712 0.000000 0.043144 0.000000
# 6 0.000000 0.000000 0.000000 0.002262 0.000000 0.047169
#
#
# Mechanical properties :
#
#
# Convention : Reuss Voigt Hill
#
# Bulk Modulus (GPa) = 34.84208 41.92152 38.38180
# Shear Modulus (GPa) = 26.36590 29.75040 28.05815
#
# Velocity S-wave (km/s) = 3.68307 3.91232 3.79942
# Velocity P-wave (km/s) = 6.00104 6.47893 6.24456
#
# Compressibility (1/GPa) = 0.02870092
#
# Stress axis : x y z
#
# Youngs Moduli (GPa) = 51.98399 75.29100 74.67354
#
# Poissons Ratio (x) = 0.32603 -0.08674
# Poissons Ratio (y) = 0.22511 0.40592
# Poissons Ratio (z) = -0.06039 0.40928
#
# Static dielectric constant tensor:
#      x y z
#    x 1.759810 0.000000 0.125370 
#    y 0.000000 1.713230 0.000000 
#    z 0.125370 0.000000 1.813370 
# 
# From -- ./inp_files/10783.got.cif
#   From: 2010.05.17/outbox.cif.g08.bks.cpg/sg9_6_cif.got.tgz:10783.got - 2010.06.03 20:04:27.
