data_PCOD9134052
_publ_section_title
;
Structure prediction by ZEFSAII (Michael W. Deem and Ramdas Pophale) SiO2 
 PCOD9134052
Probable space group: C C
;
_chemical_formula_sum "Si O2"
_cell_formula_units_Z 28
_cell_length_a 7.380217
_cell_length_b 16.252558
_cell_length_c 9.953358
_cell_angle_alpha 90.000000
_cell_angle_beta 117.633472
_cell_angle_gamma 90.000000
_cell_volume 1057.696941
_symmetry_space_group_name_H-M "C C"
_symmetry_group_IT_number 9
_symmetry_cell_setting 'monoclinic'
loop_
_space_group_symop_operation_xyz
x,y,z
x,-y,1/2+z
1/2+x,1/2+y,z
1/2+x,1/2-y,1/2+z
loop_
_atom_site_type_symbol
_atom_site_label
_atom_site_fract_x
_atom_site_fract_y
_atom_site_fract_z
Si Si1 0.326470 0.809981 0.292970
Si Si2 0.364914 0.566368 0.126502
Si Si3 0.858355 0.390988 0.039205
Si Si4 0.194234 0.359970 0.810772
Si Si5 0.813389 0.789150 0.409480
Si Si6 0.815595 0.886918 0.149588
Si Si7 0.906938 0.564254 0.026012
O O1 0.263164 0.865984 0.147071
O O2 0.192602 0.728692 0.242358
O O3 0.566764 0.790045 0.350339
O O4 0.301486 0.858334 0.422106
O O5 0.369484 0.596204 0.282031
O O6 0.434084 0.471806 0.154939
O O7 0.119269 0.558223 0.013724
O O8 0.419714 0.642405 0.046294
O O9 0.783856 0.480413 0.968876
O O10 0.098364 0.414117 0.141866
O O11 0.862043 0.306640 0.955342
O O12 0.988879 0.410489 0.702826
O O13 0.258990 0.351895 0.984907
O O14 0.871291 0.819178 0.280109
#
# Coordination Sequence:
#
# PCOD9134052 Si02
#       7
#     4   4   4   4   4   4   4
#     4  10  18  35  55  79 108 151 183 225 279 334
#     4   8  16  33  52  78 107 138 187 219 264 329
#     4  10  19  34  55  82 112 149 189 226 272 343
#     4  10  19  33  54  87 110 139 192 229 272 328
#     4  10  19  34  54  83 116 151 185 222 284 330
#     4  10  20  30  55  85 111 140 189 237 270 312
#     4   8  19  29  55  80 104 142 187 228 267 320
#
# _framework density 26.472612999999999
#
# number of rings (size 3 to 8) (size 9 to 14) (size 15 to 20)
#    0.857    1.714    1.429    0.857    6.000    1.143 
#    0.000    0.000    0.000    6.857    0.000    0.000 
#    0.000    0.000    0.000    0.000    0.000    0.000 
#
# Total GULP energy -78069.980336 kJ/mol
# GULP energy per Si atom -5576.427167 kJ/mol
# Density = 2.641236 g / cm^3
# Si number density = 26.472613 Si / 1000 Ang^3
#
#
#
# Elastic Constant Matrix: (Units=GPa)
#
#
# Indices 1 2 3 4 5 6 
#
# 1 71.7249 40.8064 28.2082 0.0000 9.3566 0.0000
# 2 40.8064 205.2000 61.4729 0.0000 -1.3963 0.0000
# 3 28.2082 61.4729 148.3885 0.0000 -29.1431 0.0000
# 4 0.0000 0.0000 0.0000 40.7778 0.0000 -2.7851
# 5 9.3566 -1.3963 -29.1431 0.0000 28.8428 0.0000
# 6 0.0000 0.0000 0.0000 -2.7851 0.0000 31.8186
#
#
#
# Elastic Compliance Matrix: (Units=1/GPa)
#
#
# Indices 1 2 3 4 5 6 
#
# 1 0.018541 -0.002359 -0.004680 0.000000 -0.010857 0.000000
# 2 -0.002359 0.006021 -0.002293 0.000000 -0.001260 0.000000
# 3 -0.004680 -0.002293 0.011047 0.000000 0.012569 0.000000
# 4 0.000000 0.000000 0.000000 0.024671 0.000000 0.002159
# 5 -0.010857 -0.001260 0.012569 0.000000 0.050832 0.000000
# 6 0.000000 0.000000 0.000000 0.002159 0.000000 0.031617
#
#
# Mechanical properties :
#
#
# Convention : Reuss Voigt Hill
#
# Bulk Modulus (GPa) = 59.01419 76.25426 67.63422
# Shear Modulus (GPa) = 29.93266 39.94292 34.93779
#
# Velocity S-wave (km/s) = 3.36624 3.88859 3.63681
# Velocity P-wave (km/s) = 6.11962 7.00207 6.57566
#
# Compressibility (1/GPa) = 0.01694508
#
# Stress axis : x y z
#
# Youngs Moduli (GPa) = 53.93426 166.08851 90.51969
#
# Poissons Ratio (x) = 0.39182 0.42360
# Poissons Ratio (y) = 0.12724 0.20760
# Poissons Ratio (z) = 0.25239 0.38090
#
# Static dielectric constant tensor:
#      x y z
#    x 2.149720 0.000000 0.062000 
#    y 0.000000 2.119170 0.000000 
#    z 0.062000 0.000000 2.097290 
# 
# From -- ./inp_files/16293.got.cif
#   From: 2010.05.17/outbox.cif.g08.bks.cpg/sg9_9_cif.got.tgz:16293.got - 2010.06.03 20:04:27.
