data_PCOD9134594
_publ_section_title
;
Structure prediction by ZEFSAII (Michael W. Deem and Ramdas Pophale) SiO2 
 PCOD9134594
Probable space group: C C
;
_chemical_formula_sum "Si O2"
_cell_formula_units_Z 32
_cell_length_a 14.400492
_cell_length_b 16.471309
_cell_length_c 10.537702
_cell_angle_alpha 90.000000
_cell_angle_beta 138.349219
_cell_angle_gamma 90.000000
_cell_volume 1661.132689
_symmetry_space_group_name_H-M "C C"
_symmetry_group_IT_number 9
_symmetry_cell_setting 'monoclinic'
loop_
_space_group_symop_operation_xyz
x,y,z
x,-y,1/2+z
1/2+x,1/2+y,z
1/2+x,1/2-y,1/2+z
loop_
_atom_site_type_symbol
_atom_site_label
_atom_site_fract_x
_atom_site_fract_y
_atom_site_fract_z
Si Si1 0.166930 0.829843 0.338350
Si Si2 0.499371 0.173671 0.189381
Si Si3 0.606234 0.886398 0.074622
Si Si4 0.101332 0.847233 0.550957
Si Si5 0.498343 0.052918 0.958105
Si Si6 0.402123 0.872377 0.109821
Si Si7 0.835436 0.235777 0.890783
Si Si8 0.719468 0.496756 0.784132
O O1 0.332403 0.810689 0.525007
O O2 0.088557 0.851200 0.388836
O O3 0.084724 0.748762 0.216018
O O4 0.166640 0.913289 0.259681
O O5 0.556691 0.153201 0.389593
O O6 0.518038 0.098700 0.111510
O O7 0.611121 0.982551 0.053610
O O8 0.502408 0.878127 0.089214
O O9 0.744696 0.843446 0.267515
O O10 0.251968 0.805504 0.728693
O O11 0.104638 0.936426 0.612067
O O12 0.988108 0.789926 0.500706
O O13 0.482480 0.111536 0.821803
O O14 0.347402 0.008541 0.816750
O O15 0.341252 0.780843 0.033319
O O16 0.288984 0.944621 0.970856
#
# Coordination Sequence:
#
# PCOD9134594 Si02
#       8
#     4   4   4   4   4   4   4   4
#     4  11  20  38  59  88 116 157 203 246 298 363
#     4  11  23  38  65  87 120 161 203 251 302 367
#     4  11  20  37  63  90 116 156 212 249 295 363
#     4  11  20  37  60  90 115 156 203 253 298 358
#     4  10  21  40  61  89 121 165 202 248 310 376
#     4  10  19  38  61  88 120 157 205 251 301 366
#     4  11  21  35  60  93 118 153 206 255 296 359
#     4   9  20  35  61  85 118 159 202 245 300 368
#
# _framework density 19.263964000000001
#
# number of rings (size 3 to 8) (size 9 to 14) (size 15 to 20)
#    0.000    1.500    2.500    6.000    0.000    0.000 
#    6.750    2.500    0.000    0.000    0.000    0.000 
#    0.000    0.000    0.000    0.000    0.000    0.000 
#
# Total GULP energy -89091.874380 kJ/mol
# GULP energy per Si atom -5568.242149 kJ/mol
# Density = 1.922012 g / cm^3
# Si number density = 19.263964 Si / 1000 Ang^3
#
#
#
# Elastic Constant Matrix: (Units=GPa)
#
#
# Indices 1 2 3 4 5 6 
#
# 1 40.7419 36.5794 21.7323 0.0000 -3.8702 0.0000
# 2 36.5794 127.2187 47.4872 0.0000 5.8350 0.0000
# 3 21.7323 47.4872 57.2224 0.0000 -6.2186 0.0000
# 4 0.0000 0.0000 0.0000 37.3051 0.0000 11.0150
# 5 -3.8702 5.8350 -6.2186 0.0000 22.1926 0.0000
# 6 0.0000 0.0000 0.0000 11.0150 0.0000 27.9534
#
#
#
# Elastic Compliance Matrix: (Units=1/GPa)
#
#
# Indices 1 2 3 4 5 6 
#
# 1 0.035915 -0.008440 -0.005893 0.000000 0.006831 0.000000
# 2 -0.008440 0.014150 -0.009387 0.000000 -0.007823 0.000000
# 3 -0.005893 -0.009387 0.028530 0.000000 0.009435 0.000000
# 4 0.000000 0.000000 0.000000 0.030336 0.000000 -0.011954
# 5 0.006831 -0.007823 0.009435 0.000000 0.050952 0.000000
# 6 0.000000 0.000000 0.000000 -0.011954 0.000000 0.040484
#
#
# Mechanical properties :
#
#
# Convention : Reuss Voigt Hill
#
# Bulk Modulus (GPa) = 32.09994 48.53120 40.31557
# Shear Modulus (GPa) = 19.36535 25.44915 22.40725
#
# Velocity S-wave (km/s) = 3.17403 3.63860 3.41423
# Velocity P-wave (km/s) = 5.48926 6.54981 6.04285
#
# Compressibility (1/GPa) = 0.03115271
#
# Stress axis : x y z
#
# Youngs Moduli (GPa) = 27.84338 70.67046 35.05124
#
# Poissons Ratio (x) = 0.59647 0.20657
# Poissons Ratio (y) = 0.23500 0.32904
# Poissons Ratio (z) = 0.16409 0.66342
#
# Static dielectric constant tensor:
#      x y z
#    x 1.667820 0.000000 0.000880 
#    y 0.000000 1.745570 0.000000 
#    z 0.000880 0.000000 1.714690 
# 
# From -- ./inp_files/8029.got.cif
#   From: 2010.05.17/outbox.cif.g08.bks.cpg/sg9_5_cif.got.tgz:8029.got - 2010.06.03 20:04:27.
