data_PCOD9134713
_publ_section_title
;
Structure prediction by ZEFSAII (Michael W. Deem and Ramdas Pophale) SiO2 
 PCOD9134713
Probable space group: C C
;
_chemical_formula_sum "Si O2"
_cell_formula_units_Z 28
_cell_length_a 16.586262
_cell_length_b 7.935384
_cell_length_c 9.449269
_cell_angle_alpha 90.000000
_cell_angle_beta 57.080141
_cell_angle_gamma 90.000000
_cell_volume 1043.998724
_symmetry_space_group_name_H-M "C C"
_symmetry_group_IT_number 9
_symmetry_cell_setting 'monoclinic'
loop_
_space_group_symop_operation_xyz
x,y,z
x,-y,1/2+z
1/2+x,1/2+y,z
1/2+x,1/2-y,1/2+z
loop_
_atom_site_type_symbol
_atom_site_label
_atom_site_fract_x
_atom_site_fract_y
_atom_site_fract_z
Si Si1 0.285750 0.463104 0.768020
Si Si2 0.278203 0.169509 0.313329
Si Si3 0.962697 0.973492 0.418384
Si Si4 0.756168 0.345546 0.500019
Si Si5 0.061264 0.489744 0.903163
Si Si6 0.038038 0.269178 0.175161
Si Si7 0.053105 0.182991 0.574615
O O1 0.321428 0.644740 0.792205
O O2 0.359383 0.420250 0.573724
O O3 0.281597 0.322475 0.890661
O O4 0.177415 0.480894 0.811507
O O5 0.167612 0.191894 0.466625
O O6 0.305175 0.003081 0.373485
O O7 0.280432 0.143029 0.142118
O O8 0.963653 0.144011 0.320795
O O9 0.023057 0.032084 0.498210
O O10 0.013873 0.840817 0.268150
O O11 0.639265 0.331364 0.600674
O O12 0.023697 0.329403 0.027744
O O13 0.019164 0.648235 0.030645
O O14 0.045424 0.557472 0.759809
#
# Coordination Sequence:
#
# PCOD9134713 Si02
#       7
#     4   4   4   4   4   4   4
#     4  10  24  40  64  95 130 167 209 273 322 379
#     4  11  21  45  67  96 129 171 225 263 315 395
#     4  11  22  38  62  89 128 156 207 264 326 366
#     4  11  22  42  67  96 125 174 222 263 317 393
#     4   9  20  38  62  85 122 159 218 252 305 386
#     4  10  19  40  62  91 121 165 216 259 312 386
#     4  10  20  39  60  88 121 164 207 256 311 385
#
# _framework density 26.819959000000001
#
# number of rings (size 3 to 8) (size 9 to 14) (size 15 to 20)
#    0.000    1.714    5.714    0.000    2.000    2.286 
#   10.286    1.429    0.000    0.000    0.000    0.000 
#    0.000    0.000    0.000    0.000    0.000    0.000 
#
# Total GULP energy -78454.887540 kJ/mol
# GULP energy per Si atom -5603.920539 kJ/mol
# Density = 2.675892 g / cm^3
# Si number density = 26.819959 Si / 1000 Ang^3
#
#
#
# Elastic Constant Matrix: (Units=GPa)
#
#
# Indices 1 2 3 4 5 6 
#
# 1 62.2012 -4.2871 50.6302 0.0000 -0.6625 0.0000
# 2 -4.2871 130.7292 66.5935 0.0000 14.2024 0.0000
# 3 50.6302 66.5935 235.4019 0.0000 17.3150 0.0000
# 4 0.0000 0.0000 0.0000 65.3013 0.0000 8.2907
# 5 -0.6625 14.2024 17.3150 0.0000 47.6761 0.0000
# 6 0.0000 0.0000 0.0000 8.2907 0.0000 15.4589
#
#
#
# Elastic Compliance Matrix: (Units=1/GPa)
#
#
# Indices 1 2 3 4 5 6 
#
# 1 0.020816 0.003355 -0.005521 0.000000 0.001295 0.000000
# 2 0.003355 0.009629 -0.003327 0.000000 -0.001614 0.000000
# 3 -0.005521 -0.003327 0.006483 0.000000 -0.001440 0.000000
# 4 0.000000 0.000000 0.000000 0.016433 0.000000 -0.008813
# 5 0.001295 -0.001614 -0.001440 0.000000 0.021997 0.000000
# 6 0.000000 0.000000 0.000000 -0.008813 0.000000 0.069414
#
#
# Mechanical properties :
#
#
# Convention : Reuss Voigt Hill
#
# Bulk Modulus (GPa) = 38.54940 72.68951 55.61945
# Shear Modulus (GPa) = 30.41253 46.71362 38.56308
#
# Velocity S-wave (km/s) = 3.37107 4.17795 3.79601
# Velocity P-wave (km/s) = 5.43661 7.10178 6.32424
#
# Compressibility (1/GPa) = 0.02594074
#
# Stress axis : x y z
#
# Youngs Moduli (GPa) = 48.03967 103.84814 154.25744
#
# Poissons Ratio (x) = -0.34836 0.85171
# Poissons Ratio (y) = -0.16115 0.51320
# Poissons Ratio (z) = 0.26524 0.34549
#
# Static dielectric constant tensor:
#      x y z
#    x 2.126940 0.000000 -0.004210 
#    y 0.000000 2.170360 0.000000 
#    z -0.004210 0.000000 2.012520 
# 
# From -- ./inp_files/11376.got.cif
#   From: 2010.05.17/outbox.cif.g08.bks.cpg/sg9_6_cif.got.tgz:11376.got - 2010.06.03 20:04:27.
