data_PCOD9134943
_publ_section_title
;
Structure prediction by ZEFSAII (Michael W. Deem and Ramdas Pophale) SiO2 
 PCOD9134943
Probable space group: C C
;
_chemical_formula_sum "Si O2"
_cell_formula_units_Z 32
_cell_length_a 32.086021
_cell_length_b 10.213561
_cell_length_c 9.796780
_cell_angle_alpha 90.000000
_cell_angle_beta 23.682519
_cell_angle_gamma 90.000000
_cell_volume 1289.567441
_symmetry_space_group_name_H-M "C C"
_symmetry_group_IT_number 9
_symmetry_cell_setting 'monoclinic'
loop_
_space_group_symop_operation_xyz
x,y,z
x,-y,1/2+z
1/2+x,1/2+y,z
1/2+x,1/2-y,1/2+z
loop_
_atom_site_type_symbol
_atom_site_label
_atom_site_fract_x
_atom_site_fract_y
_atom_site_fract_z
Si Si1 0.750000 0.210775 0.867050
Si Si2 0.290657 0.268018 0.531028
Si Si3 0.863553 0.950229 0.640760
Si Si4 0.480585 0.590110 0.513859
Si Si5 0.310923 0.818454 0.408438
Si Si6 0.127500 0.496041 0.574801
Si Si7 0.670223 0.632882 0.114480
Si Si8 0.028939 0.381221 0.614123
O O1 0.804499 0.303211 0.591213
O O2 0.811131 0.083960 0.744934
O O3 0.735471 0.280087 0.056476
O O4 0.659252 0.139532 0.054381
O O5 0.415792 0.288022 0.139192
O O6 0.225629 0.402369 0.769391
O O7 0.265879 0.176326 0.732081
O O8 0.919679 0.906552 0.337675
O O9 0.794339 0.832743 0.905467
O O10 0.945628 0.978427 0.514484
O O11 0.595454 0.566907 0.225833
O O12 0.225115 0.907539 0.590820
O O13 0.421651 0.855454 0.012894
O O14 0.090426 0.473925 0.533682
O O15 0.036696 0.554748 0.941564
O O16 0.594580 0.749742 0.391722
#
# Coordination Sequence:
#
# PCOD9134943 Si02
#       8
#     4   4   4   4   4   4   4   4
#     4  11  19  35  62  92 121 153 209 270 310 367
#     4  10  20  35  59  88 121 153 207 266 315 370
#     4  11  19  36  59  89 121 157 208 259 311 369
#     4  11  21  36  61  90 121 161 206 265 315 372
#     4  12  22  39  61  94 128 164 214 266 322 384
#     4  11  19  38  61  93 118 159 213 263 319 375
#     4  11  21  38  59  88 125 162 202 258 331 382
#     4  11  23  37  64  92 123 163 213 267 321 381
#
# _framework density 24.814523000000001
#
# number of rings (size 3 to 8) (size 9 to 14) (size 15 to 20)
#    0.000    1.000    7.500    1.500    0.000    0.000 
#    4.500    3.750    0.000    0.000    0.000    0.000 
#    0.000    0.000    0.000    0.000    0.000    0.000 
#
# Total GULP energy -89113.203230 kJ/mol
# GULP energy per Si atom -5569.575202 kJ/mol
# Density = 2.475804 g / cm^3
# Si number density = 24.814523 Si / 1000 Ang^3
#
#
#
# Elastic Constant Matrix: (Units=GPa)
#
#
# Indices 1 2 3 4 5 6 
#
# 1 163.4302 20.8643 27.7186 0.0000 19.2482 0.0000
# 2 20.8643 38.9717 7.3365 0.0000 -3.9679 0.0000
# 3 27.7186 7.3365 73.6459 0.0000 5.4440 0.0000
# 4 0.0000 0.0000 0.0000 15.2487 0.0000 -3.3411
# 5 19.2482 -3.9679 5.4440 0.0000 50.0965 0.0000
# 6 0.0000 0.0000 0.0000 -3.3411 0.0000 24.2898
#
#
#
# Elastic Compliance Matrix: (Units=1/GPa)
#
#
# Indices 1 2 3 4 5 6 
#
# 1 0.007309 -0.003799 -0.002160 0.000000 -0.002874 0.000000
# 2 -0.003799 0.028408 -0.001688 0.000000 0.003893 0.000000
# 3 -0.002160 -0.001688 0.014626 0.000000 -0.000893 0.000000
# 4 0.000000 0.000000 0.000000 0.067617 0.000000 0.009301
# 5 -0.002874 0.003893 -0.000893 0.000000 0.021471 0.000000
# 6 0.000000 0.000000 0.000000 0.009301 0.000000 0.042449
#
#
# Mechanical properties :
#
#
# Convention : Reuss Voigt Hill
#
# Bulk Modulus (GPa) = 28.53191 43.09851 35.81521
# Shear Modulus (GPa) = 23.94001 32.60221 28.27111
#
# Velocity S-wave (km/s) = 3.10942 3.62862 3.37901
# Velocity P-wave (km/s) = 4.94109 5.91285 5.44868
#
# Compressibility (1/GPa) = 0.03504847
#
# Stress axis : x y z
#
# Youngs Moduli (GPa) = 136.82393 35.20188 68.37326
#
# Poissons Ratio (x) = 0.13373 0.14768
# Poissons Ratio (y) = 0.51978 0.11541
# Poissons Ratio (z) = 0.29552 0.05942
#
# Static dielectric constant tensor:
#      x y z
#    x 2.019640 0.000000 -0.069980 
#    y 0.000000 2.085560 0.000000 
#    z -0.069980 0.000000 2.054630 
# 
# From -- ./inp_files/9728.got.cif
#   From: 2010.05.17/outbox.cif.g08.bks.cpg/sg9_5_cif.got.tgz:9728.got - 2010.06.03 20:04:27.
