data_PCOD9134621
_publ_section_title
;
Structure prediction by ZEFSAII (Michael W. Deem and Ramdas Pophale) SiO2 
 PCOD9134621
Probable space group: C C
;
_chemical_formula_sum "Si O2"
_cell_formula_units_Z 24
_cell_length_a 8.148711
_cell_length_b 11.394895
_cell_length_c 9.634023
_cell_angle_alpha 90.000000
_cell_angle_beta 88.562880
_cell_angle_gamma 90.000000
_cell_volume 894.273360
_symmetry_space_group_name_H-M "C C"
_symmetry_group_IT_number 9
_symmetry_cell_setting 'monoclinic'
loop_
_space_group_symop_operation_xyz
x,y,z
x,-y,1/2+z
1/2+x,1/2+y,z
1/2+x,1/2-y,1/2+z
loop_
_atom_site_type_symbol
_atom_site_label
_atom_site_fract_x
_atom_site_fract_y
_atom_site_fract_z
Si Si1 0.259760 0.389997 0.953780
Si Si2 0.683089 0.843044 0.242119
Si Si3 0.038748 0.903963 0.747460
Si Si4 0.994297 0.337001 0.515050
Si Si5 0.189478 0.971518 0.471680
Si Si6 0.548443 0.739733 0.791430
O O1 0.375092 0.445256 0.832524
O O2 0.092851 0.346691 0.888639
O O3 0.208287 0.426856 0.109261
O O4 0.378765 0.274923 0.977760
O O5 0.565273 0.731668 0.201685
O O6 0.600646 0.884027 0.385485
O O7 0.860215 0.791922 0.277238
O O8 0.065376 0.975552 0.604631
O O9 0.174017 0.920512 0.867787
O O10 0.858680 0.437352 0.542750
O O11 0.101461 0.286097 0.638315
O O12 0.139344 0.869410 0.362137
#
# Coordination Sequence:
#
# PCOD9134621 Si02
#       6
#     4   4   4   4   4   4
#     4   9  20  38  61  92 122 166 222 256 311 393
#     4  10  20  39  66  93 122 166 221 265 319 391
#     4  11  23  42  62  93 136 167 215 271 330 390
#     4   9  20  38  62  92 120 169 220 258 313 393
#     4  11  24  41  62  96 132 173 213 271 338 380
#     4  10  19  38  65  90 122 165 223 261 313 385
#
# _framework density 26.837430000000001
#
# number of rings (size 3 to 8) (size 9 to 14) (size 15 to 20)
#    0.000    2.000    5.000    0.000    9.333    1.333 
#    0.000    1.667    0.000    0.000    0.000    0.000 
#    0.000    0.000    0.000    0.000    0.000    0.000 
#
# Total GULP energy -67010.943858 kJ/mol
# GULP energy per Si atom -5584.245321 kJ/mol
# Density = 2.677635 g / cm^3
# Si number density = 26.837430 Si / 1000 Ang^3
#
#
#
# Elastic Constant Matrix: (Units=GPa)
#
#
# Indices 1 2 3 4 5 6 
#
# 1 77.0099 4.2394 48.0793 0.0000 -14.9298 0.0000
# 2 4.2394 64.7378 30.4355 0.0000 -9.1020 0.0000
# 3 48.0793 30.4355 228.2667 0.0000 -23.8643 0.0000
# 4 0.0000 0.0000 0.0000 39.6721 0.0000 -1.3674
# 5 -14.9298 -9.1020 -23.8643 0.0000 50.7534 0.0000
# 6 0.0000 0.0000 0.0000 -1.3674 0.0000 34.3122
#
#
#
# Elastic Compliance Matrix: (Units=1/GPa)
#
#
# Indices 1 2 3 4 5 6 
#
# 1 0.015466 0.000873 -0.003031 0.000000 0.003281 0.000000
# 2 0.000873 0.016729 -0.002181 0.000000 0.002231 0.000000
# 3 -0.003031 -0.002181 0.005444 0.000000 0.001277 0.000000
# 4 0.000000 0.000000 0.000000 0.025241 0.000000 0.001006
# 5 0.003281 0.002231 0.001277 0.000000 0.021669 0.000000
# 6 0.000000 0.000000 0.000000 0.001006 0.000000 0.029184
#
#
# Mechanical properties :
#
#
# Convention : Reuss Voigt Hill
#
# Bulk Modulus (GPa) = 34.52953 59.50255 47.01604
# Shear Modulus (GPa) = 37.86060 44.09820 40.97940
#
# Velocity S-wave (km/s) = 3.76005 4.05799 3.91186
# Velocity P-wave (km/s) = 5.63425 6.64650 6.16120
#
# Compressibility (1/GPa) = 0.02896072
#
# Stress axis : x y z
#
# Youngs Moduli (GPa) = 64.65952 59.77671 183.70348
#
# Poissons Ratio (x) = -0.05221 0.55680
# Poissons Ratio (y) = -0.05648 0.40069
# Poissons Ratio (z) = 0.19598 0.13039
#
# Static dielectric constant tensor:
#      x y z
#    x 2.126020 0.000000 -0.039400 
#    y 0.000000 2.207240 0.000000 
#    z -0.039400 0.000000 2.147450 
# 
# From -- ./inp_files/4945.got.cif
#   From: 2010.05.17/outbox.cif.g08.bks.cpg/sg9_3_cif.got.tgz:4945.got - 2010.06.03 20:04:27.
