data_PCOD9134582
_publ_section_title
;
Structure prediction by ZEFSAII (Michael W. Deem and Ramdas Pophale) SiO2 
 PCOD9134582
Probable space group: C C
;
_chemical_formula_sum "Si O2"
_cell_formula_units_Z 28
_cell_length_a 8.674472
_cell_length_b 14.569256
_cell_length_c 15.096105
_cell_angle_alpha 90.000000
_cell_angle_beta 139.831651
_cell_angle_gamma 90.000000
_cell_volume 1230.634412
_symmetry_space_group_name_H-M "C C"
_symmetry_group_IT_number 9
_symmetry_cell_setting 'monoclinic'
loop_
_space_group_symop_operation_xyz
x,y,z
x,-y,1/2+z
1/2+x,1/2+y,z
1/2+x,1/2-y,1/2+z
loop_
_atom_site_type_symbol
_atom_site_label
_atom_site_fract_x
_atom_site_fract_y
_atom_site_fract_z
Si Si1 0.452090 0.883571 0.673020
Si Si2 0.220294 0.497010 0.931391
Si Si3 0.264099 0.778060 0.312459
Si Si4 0.145944 0.600535 0.066502
Si Si5 0.506365 0.761291 0.152848
Si Si6 0.128780 0.859093 0.061782
Si Si7 0.431380 0.327160 0.439937
O O1 0.512057 0.946598 0.784241
O O2 0.531040 0.780123 0.734494
O O3 0.612152 0.910799 0.657057
O O4 0.177087 0.877397 0.522920
O O5 0.258698 0.597764 0.908933
O O6 0.190149 0.512457 0.023306
O O7 0.463601 0.442637 0.016679
O O8 0.387806 0.860840 0.419329
O O9 0.205661 0.811302 0.188044
O O10 0.464749 0.701538 0.423438
O O11 0.356420 0.676276 0.134618
O O12 0.373665 0.857604 0.115795
O O13 0.775727 0.771833 0.302284
O O14 0.494068 0.741849 0.045251
#
# Coordination Sequence:
#
# PCOD9134582 Si02
#       7
#     4   4   4   4   4   4   4
#     4  11  24  44  69 105 141 187 238 299 354 427
#     4  10  25  42  68 102 147 183 237 295 367 414
#     4  10  19  37  72  95 126 178 247 271 351 415
#     4  10  22  44  73  98 139 194 234 291 359 429
#     4  10  21  42  71  99 136 184 239 277 353 419
#     4  10  19  38  72  96 131 186 229 295 336 434
#     4  11  26  41  67 105 144 180 236 300 344 432
#
# _framework density 22.752493000000001
#
# number of rings (size 3 to 8) (size 9 to 14) (size 15 to 20)
#    0.000    1.714    2.857    2.571    8.000    0.000 
#    2.571    1.429    0.000    0.000    0.000    0.000 
#    0.000    0.000    0.000    0.000    0.000    0.000 
#
# Total GULP energy -77975.140353 kJ/mol
# GULP energy per Si atom -5569.652882 kJ/mol
# Density = 2.270071 g / cm^3
# Si number density = 22.752493 Si / 1000 Ang^3
#
#
#
# Elastic Constant Matrix: (Units=GPa)
#
#
# Indices 1 2 3 4 5 6 
#
# 1 87.6819 23.6695 38.2479 0.0000 -0.2650 0.0000
# 2 23.6695 56.6401 41.4024 0.0000 -7.8825 0.0000
# 3 38.2479 41.4024 162.7141 0.0001 -5.0419 0.0000
# 4 0.0000 0.0000 0.0001 15.5981 0.0000 -3.0870
# 5 -0.2650 -7.8825 -5.0419 0.0000 28.5148 0.0000
# 6 0.0000 0.0000 0.0000 -3.0870 0.0000 22.4047
#
#
#
# Elastic Compliance Matrix: (Units=1/GPa)
#
#
# Indices 1 2 3 4 5 6 
#
# 1 0.013483 -0.004281 -0.002124 0.000000 -0.001434 0.000000
# 2 -0.004281 0.023796 -0.004873 0.000000 0.005677 0.000000
# 3 -0.002124 -0.004873 0.007886 0.000000 0.000028 0.000000
# 4 0.000000 0.000000 0.000000 0.065907 0.000000 0.009081
# 5 -0.001434 0.005677 0.000028 0.000000 0.036630 0.000000
# 6 0.000000 0.000000 0.000000 0.009081 0.000000 0.045885
#
#
# Mechanical properties :
#
#
# Convention : Reuss Voigt Hill
#
# Bulk Modulus (GPa) = 44.23106 57.07509 50.65307
# Shear Modulus (GPa) = 22.35338 26.88461 24.61899
#
# Velocity S-wave (km/s) = 3.13782 3.44119 3.29300
# Velocity P-wave (km/s) = 5.71053 6.39755 6.06378
#
# Compressibility (1/GPa) = 0.02260855
#
# Stress axis : x y z
#
# Youngs Moduli (GPa) = 74.16803 42.02358 126.80975
#
# Poissons Ratio (x) = 0.17990 0.26940
# Poissons Ratio (y) = 0.31752 0.61790
# Poissons Ratio (z) = 0.15757 0.20477
#
# Static dielectric constant tensor:
#      x y z
#    x 1.924570 0.000000 0.035960 
#    y 0.000000 1.914880 0.000000 
#    z 0.035960 0.000000 1.868640 
# 
# From -- ./inp_files/14512.got.cif
#   From: 2010.05.17/outbox.cif.g08.bks.cpg/sg9_8_cif.got.tgz:14512.got - 2010.06.03 20:04:27.
