data_PCOD9134037
_publ_section_title
;
Structure prediction by ZEFSAII (Michael W. Deem and Ramdas Pophale) SiO2 
 PCOD9134037
Probable space group: C C
;
_chemical_formula_sum "Si O2"
_cell_formula_units_Z 32
_cell_length_a 11.942497
_cell_length_b 13.412582
_cell_length_c 10.916368
_cell_angle_alpha 90.000000
_cell_angle_beta 45.143438
_cell_angle_gamma 90.000000
_cell_volume 1239.524812
_symmetry_space_group_name_H-M "C C"
_symmetry_group_IT_number 9
_symmetry_cell_setting 'monoclinic'
loop_
_space_group_symop_operation_xyz
x,y,z
x,-y,1/2+z
1/2+x,1/2+y,z
1/2+x,1/2-y,1/2+z
loop_
_atom_site_type_symbol
_atom_site_label
_atom_site_fract_x
_atom_site_fract_y
_atom_site_fract_z
Si Si1 0.754470 0.614840 0.313940
Si Si2 0.197946 0.325832 0.102878
Si Si3 0.899632 0.116045 0.142098
Si Si4 0.079166 0.686146 0.968617
Si Si5 0.146489 0.773535 0.285368
Si Si6 0.047126 0.120256 0.264194
Si Si7 0.630464 0.982668 0.940879
Si Si8 0.393543 0.102696 0.447317
O O1 0.644480 0.705558 0.446219
O O2 0.649628 0.566642 0.287972
O O3 0.833109 0.556860 0.365996
O O4 0.896723 0.674610 0.139746
O O5 0.121141 0.340471 0.295561
O O6 0.144177 0.211218 0.127186
O O7 0.386934 0.338835 0.951176
O O8 0.135645 0.401266 0.045964
O O9 0.787488 0.215029 0.250845
O O10 0.983961 0.065608 0.193979
O O11 0.760039 0.037283 0.233320
O O12 0.029578 0.154405 0.949652
O O13 0.157237 0.591429 0.976062
O O14 0.029861 0.687615 0.322535
O O15 0.245286 0.838347 0.115562
O O16 0.466202 0.968530 0.995119
#
# Coordination Sequence:
#
# PCOD9134037 Si02
#       8
#     4   4   4   4   4   4   4   4
#     4  11  23  39  65  88 124 170 218 250 313 394
#     4  10  20  37  64  91 124 159 216 265 312 380
#     4   9  17  33  60  93 123 159 208 264 311 375
#     4  11  24  42  65  90 125 175 214 267 313 389
#     4   9  17  32  57  91 128 163 212 259 311 377
#     4  10  18  34  62  90 117 159 211 257 303 377
#     4  10  23  39  62  94 126 166 207 275 332 361
#     4  10  20  36  59  93 127 169 214 257 319 381
#
# _framework density 25.816344999999998
#
# number of rings (size 3 to 8) (size 9 to 14) (size 15 to 20)
#    0.000    2.000    0.000    6.750    1.750    1.000 
#    0.000    2.500   13.750    0.000    0.000    0.000 
#    0.000    0.000    0.000    0.000    0.000    0.000 
#
# Total GULP energy -89299.780864 kJ/mol
# GULP energy per Si atom -5581.236304 kJ/mol
# Density = 2.575759 g / cm^3
# Si number density = 25.816345 Si / 1000 Ang^3
#
#
#
# Elastic Constant Matrix: (Units=GPa)
#
#
# Indices 1 2 3 4 5 6 
#
# 1 158.8509 10.4522 35.8515 0.0000 -0.9714 0.0000
# 2 10.4522 51.9836 -13.2687 0.0000 -5.9297 0.0000
# 3 35.8515 -13.2687 103.8924 0.0000 -32.5714 0.0000
# 4 0.0000 0.0000 0.0000 25.5739 0.0000 -10.5149
# 5 -0.9714 -5.9297 -32.5714 0.0000 41.4643 0.0000
# 6 0.0000 0.0000 0.0000 -10.5149 0.0000 16.2976
#
#
#
# Elastic Compliance Matrix: (Units=1/GPa)
#
#
# Indices 1 2 3 4 5 6 
#
# 1 0.007356 -0.002869 -0.003953 0.000000 -0.003343 0.000000
# 2 -0.002869 0.022382 0.006409 0.000000 0.008168 0.000000
# 3 -0.003953 0.006409 0.016009 0.000000 0.013399 0.000000
# 4 0.000000 0.000000 0.000000 0.053220 0.000000 0.034337
# 5 -0.003343 0.008168 0.013399 0.000000 0.035733 0.000000
# 6 0.000000 0.000000 0.000000 0.034337 0.000000 0.083512
#
#
# Mechanical properties :
#
#
# Convention : Reuss Voigt Hill
#
# Bulk Modulus (GPa) = 22.26145 42.31075 32.28610
# Shear Modulus (GPa) = 21.36660 35.44662 28.40661
#
# Velocity S-wave (km/s) = 2.87999 3.70946 3.32073
# Velocity P-wave (km/s) = 4.43857 5.89674 5.21883
#
# Compressibility (1/GPa) = 0.04492070
#
# Stress axis : x y z
#
# Youngs Moduli (GPa) = 135.94895 44.67974 62.46530
#
# Poissons Ratio (x) = 0.12820 0.24692
# Poissons Ratio (y) = 0.39008 -0.40037
# Poissons Ratio (z) = 0.53739 -0.28637
#
# Static dielectric constant tensor:
#      x y z
#    x 2.093520 0.000000 0.049880 
#    y 0.000000 2.073560 0.000000 
#    z 0.049880 0.000000 2.046410 
# 
# From -- ./inp_files/17035.got.cif
#   From: 2010.05.17/outbox.cif.g08.bks.cpg/sg9_9_cif.got.tgz:17035.got - 2010.06.03 20:04:27.
