data_PCOD9134436
_publ_section_title
;
Structure prediction by ZEFSAII (Michael W. Deem and Ramdas Pophale) SiO2 
 PCOD9134436
Probable space group: C C
;
_chemical_formula_sum "Si O2"
_cell_formula_units_Z 28
_cell_length_a 15.313110
_cell_length_b 10.378289
_cell_length_c 11.759428
_cell_angle_alpha 90.000000
_cell_angle_beta 35.819211
_cell_angle_gamma 90.000000
_cell_volume 1093.708619
_symmetry_space_group_name_H-M "C C"
_symmetry_group_IT_number 9
_symmetry_cell_setting 'monoclinic'
loop_
_space_group_symop_operation_xyz
x,y,z
x,-y,1/2+z
1/2+x,1/2+y,z
1/2+x,1/2-y,1/2+z
loop_
_atom_site_type_symbol
_atom_site_label
_atom_site_fract_x
_atom_site_fract_y
_atom_site_fract_z
Si Si1 0.919870 0.330710 0.135400
Si Si2 0.706115 0.881581 0.451748
Si Si3 0.422823 0.973997 0.346167
Si Si4 0.840846 0.179848 0.021491
Si Si5 0.633716 0.049815 0.801121
Si Si6 0.995714 0.056305 0.137692
Si Si7 0.609236 0.469746 0.267246
O O1 0.852452 0.406912 0.311685
O O2 0.996188 0.207585 0.112595
O O3 0.806873 0.267818 0.164867
O O4 0.031175 0.435304 0.962969
O O5 0.545973 0.922525 0.672463
O O6 0.677932 0.848913 0.350623
O O7 0.825336 0.999527 0.317182
O O8 0.785743 0.784312 0.454331
O O9 0.285646 0.019532 0.565884
O O10 0.533499 0.889506 0.308234
O O11 0.772233 0.036695 0.112907
O O12 0.018802 0.164856 0.845086
O O13 0.052314 0.033759 0.206997
O O14 0.067697 0.994915 0.943872
#
# Coordination Sequence:
#
# PCOD9134436 Si02
#       7
#     4   4   4   4   4   4   4
#     4  10  21  35  63  95 123 163 231 264 317 386
#     4   9  18  38  60  87 125 178 217 261 339 394
#     4  10  23  33  57  95 133 168 211 284 329 384
#     4   9  19  37  60  92 124 174 220 267 313 403
#     4  10  19  36  59  90 128 169 212 261 332 394
#     4  10  21  39  65  94 125 177 226 269 324 412
#     4  10  21  36  60  97 132 167 219 276 340 383
#
# _framework density 25.600971000000001
#
# number of rings (size 3 to 8) (size 9 to 14) (size 15 to 20)
#    0.000    2.286    2.857    0.000    6.000    1.143 
#    0.000    0.000    0.000   17.143   11.143    0.000 
#    0.000    0.000    0.000    0.000    0.000    0.000 
#
# Total GULP energy -78004.731366 kJ/mol
# GULP energy per Si atom -5571.766526 kJ/mol
# Density = 2.554270 g / cm^3
# Si number density = 25.600971 Si / 1000 Ang^3
#
#
#
# Elastic Constant Matrix: (Units=GPa)
#
#
# Indices 1 2 3 4 5 6 
#
# 1 187.0308 25.0563 40.2567 0.0000 27.9855 0.0000
# 2 25.0563 36.5519 28.7044 0.0000 12.4760 0.0000
# 3 40.2567 28.7044 184.1834 0.0000 2.3721 0.0000
# 4 0.0000 0.0000 0.0000 20.0399 0.0000 12.5591
# 5 27.9855 12.4760 2.3721 0.0000 53.0265 0.0000
# 6 0.0000 0.0000 0.0000 12.5591 0.0000 40.5406
#
#
#
# Elastic Compliance Matrix: (Units=1/GPa)
#
#
# Indices 1 2 3 4 5 6 
#
# 1 0.006303 -0.002689 -0.000924 0.000000 -0.002652 0.000000
# 2 -0.002689 0.035262 -0.004822 0.000000 -0.006661 0.000000
# 3 -0.000924 -0.004822 0.006366 0.000000 0.001338 0.000000
# 4 0.000000 0.000000 0.000000 0.061922 0.000000 -0.019183
# 5 -0.002652 -0.006661 0.001338 0.000000 0.021766 0.000000
# 6 0.000000 0.000000 0.000000 -0.019183 0.000000 0.030609
#
#
# Mechanical properties :
#
#
# Convention : Reuss Voigt Hill
#
# Bulk Modulus (GPa) = 32.19624 66.20010 49.19817
# Shear Modulus (GPa) = 26.39181 43.63800 35.01490
#
# Velocity S-wave (km/s) = 3.21423 4.13309 3.70228
# Velocity P-wave (km/s) = 5.13600 6.97791 6.12657
#
# Compressibility (1/GPa) = 0.03105953
#
# Stress axis : x y z
#
# Youngs Moduli (GPa) = 158.65899 28.35886 157.09323
#
# Poissons Ratio (x) = 0.07627 0.14520
# Poissons Ratio (y) = 0.42670 0.75749
# Poissons Ratio (z) = 0.14665 0.13674
#
# Static dielectric constant tensor:
#      x y z
#    x 2.103940 0.000000 0.032020 
#    y 0.000000 2.030110 0.000000 
#    z 0.032020 0.000000 2.080560 
# 
# From -- ./inp_files/18320.got.cif
#   From: 2010.05.17/outbox.cif.g08.bks.cpg/sg9_10_cif.got.tgz:18320.got - 2010.06.03 20:04:27.
