data_PCOD9134561
_publ_section_title
;
Structure prediction by ZEFSAII (Michael W. Deem and Ramdas Pophale) SiO2 
 PCOD9134561
Probable space group: C C
;
_chemical_formula_sum "Si O2"
_cell_formula_units_Z 28
_cell_length_a 18.861179
_cell_length_b 7.133499
_cell_length_c 15.458977
_cell_angle_alpha 90.000000
_cell_angle_beta 151.046070
_cell_angle_gamma 90.000000
_cell_volume 1006.915073
_symmetry_space_group_name_H-M "C C"
_symmetry_group_IT_number 9
_symmetry_cell_setting 'monoclinic'
loop_
_space_group_symop_operation_xyz
x,y,z
x,-y,1/2+z
1/2+x,1/2+y,z
1/2+x,1/2-y,1/2+z
loop_
_atom_site_type_symbol
_atom_site_label
_atom_site_fract_x
_atom_site_fract_y
_atom_site_fract_z
Si Si1 0.658590 0.859246 0.629380
Si Si2 0.348206 0.478606 0.187927
Si Si3 0.358933 0.911646 0.139091
Si Si4 0.659331 0.655010 0.259211
Si Si5 0.673799 0.438992 0.584654
Si Si6 0.445880 0.308632 0.024501
Si Si7 0.617161 0.966398 0.813642
O O1 0.736581 0.013675 0.651607
O O2 0.663853 0.662075 0.587006
O O3 0.499139 0.833692 0.503201
O O4 0.773886 0.831697 0.831639
O O5 0.505977 0.391547 0.379476
O O6 0.362821 0.699518 0.178897
O O7 0.271379 0.409492 0.018325
O O8 0.267423 0.911633 0.951197
O O9 0.289048 0.063087 0.129736
O O10 0.526729 0.948084 0.297065
O O11 0.620249 0.864995 0.246974
O O12 0.720499 0.644177 0.227167
O O13 0.521834 0.512765 0.104428
O O14 0.517708 0.205468 0.180531
#
# Coordination Sequence:
#
# PCOD9134561 Si02
#       7
#     4   4   4   4   4   4   4
#     4  10  19  37  65  93 127 172 224 263 327 407
#     4  10  19  38  64  96 128 175 221 267 337 410
#     4  10  21  39  68  98 134 177 228 278 341 408
#     4  10  22  43  68  97 139 177 222 283 345 400
#     4  10  20  39  68  96 136 181 220 278 350 404
#     4  11  23  40  66  97 130 175 223 275 337 400
#     4  11  24  40  69 101 128 175 230 280 333 409
#
# _framework density 27.807708000000002
#
# number of rings (size 3 to 8) (size 9 to 14) (size 15 to 20)
#    0.000    1.714    2.857    4.286    2.000    3.429 
#    0.000    1.429    9.429    3.429    0.000    0.000 
#    0.000    0.000    0.000    0.000    0.000    0.000 
#
# Total GULP energy -78345.215157 kJ/mol
# GULP energy per Si atom -5596.086797 kJ/mol
# Density = 2.774442 g / cm^3
# Si number density = 27.807708 Si / 1000 Ang^3
#
#
#
# Elastic Constant Matrix: (Units=GPa)
#
#
# Indices 1 2 3 4 5 6 
#
# 1 126.3446 44.5090 36.0248 0.0000 -11.1823 0.0000
# 2 44.5090 88.4202 27.4600 0.0000 -2.4817 0.0000
# 3 36.0248 27.4600 186.6752 0.0000 -14.0110 0.0000
# 4 0.0000 0.0000 0.0000 34.4095 0.0000 -8.8838
# 5 -11.1823 -2.4817 -14.0110 0.0000 44.4925 0.0000
# 6 0.0000 0.0000 0.0000 -8.8838 0.0000 51.4807
#
#
#
# Elastic Compliance Matrix: (Units=1/GPa)
#
#
# Indices 1 2 3 4 5 6 
#
# 1 0.010041 -0.004656 -0.001109 0.000000 0.001915 0.000000
# 2 -0.004656 0.014011 -0.001220 0.000000 -0.000773 0.000000
# 3 -0.001109 -0.001220 0.005863 0.000000 0.001499 0.000000
# 4 0.000000 0.000000 0.000000 0.030417 0.000000 0.005249
# 5 0.001915 -0.000773 0.001499 0.000000 0.023386 0.000000
# 6 0.000000 0.000000 0.000000 0.005249 0.000000 0.020331
#
#
# Mechanical properties :
#
#
# Convention : Reuss Voigt Hill
#
# Bulk Modulus (GPa) = 62.72264 68.60305 65.66284
# Shear Modulus (GPa) = 40.54038 45.63963 43.09000
#
# Velocity S-wave (km/s) = 3.82237 4.05564 3.94073
# Velocity P-wave (km/s) = 6.48733 6.83045 6.66110
#
# Compressibility (1/GPa) = 0.01594321
#
# Stress axis : x y z
#
# Youngs Moduli (GPa) = 99.59325 71.37351 170.56115
#
# Poissons Ratio (x) = 0.33233 0.18916
# Poissons Ratio (y) = 0.46373 0.20816
# Poissons Ratio (z) = 0.11046 0.08711
#
# Static dielectric constant tensor:
#      x y z
#    x 2.278210 0.000000 -0.077080 
#    y 0.000000 2.141580 0.000000 
#    z -0.077080 0.000000 2.101810 
# 
# From -- ./inp_files/26739.got.cif
#   From: 2010.05.17/outbox.cif.g08.bks.cpg/sg9_14_cif.got.tgz:26739.got - 2010.06.03 20:04:27.
