data_PCOD9134315
_publ_section_title
;
Structure prediction by ZEFSAII (Michael W. Deem and Ramdas Pophale) SiO2 
 PCOD9134315
Probable space group: C C
;
_chemical_formula_sum "Si O2"
_cell_formula_units_Z 32
_cell_length_a 18.138101
_cell_length_b 11.598291
_cell_length_c 8.070200
_cell_angle_alpha 90.000000
_cell_angle_beta 109.589550
_cell_angle_gamma 90.000000
_cell_volume 1599.468537
_symmetry_space_group_name_H-M "C C"
_symmetry_group_IT_number 9
_symmetry_cell_setting 'monoclinic'
loop_
_space_group_symop_operation_xyz
x,y,z
x,-y,1/2+z
1/2+x,1/2+y,z
1/2+x,1/2-y,1/2+z
loop_
_atom_site_type_symbol
_atom_site_label
_atom_site_fract_x
_atom_site_fract_y
_atom_site_fract_z
Si Si1 0.483610 0.878978 0.441210
Si Si2 0.317962 0.556661 0.348107
Si Si3 0.978915 0.873580 0.799981
Si Si4 0.598179 0.831919 0.011988
Si Si5 0.529069 0.600267 0.961995
Si Si6 0.429251 0.890288 0.776674
Si Si7 0.644895 0.043670 0.205379
Si Si8 0.363051 0.662920 0.731490
O O1 0.489185 0.757617 0.357588
O O2 0.449033 0.869244 0.599597
O O3 0.572849 0.919514 0.535522
O O4 0.429851 0.972732 0.306348
O O5 0.390994 0.596938 0.292830
O O6 0.231385 0.577926 0.214237
O O7 0.325708 0.617386 0.532451
O O8 0.328991 0.417832 0.350351
O O9 0.994276 0.888717 0.618825
O O10 0.037872 0.964822 0.932081
O O11 0.504528 0.854566 0.944088
O O12 0.630267 0.893052 0.869501
O O13 0.599273 0.692789 0.001968
O O14 0.636878 0.903730 0.190673
O O15 0.456645 0.636356 0.787454
O O16 0.360271 0.799758 0.762232
#
# Coordination Sequence:
#
# PCOD9134315 Si02
#       8
#     4   4   4   4   4   4   4   4
#     4  10  21  36  58  87 118 157 201 251 301 355
#     4  11  20  35  58  89 119 161 197 247 303 357
#     4  11  22  36  61  91 119 153 203 253 306 360
#     4   9  20  35  55  85 121 152 195 246 301 350
#     4  10  22  35  57  89 117 154 200 251 302 349
#     4   9  19  34  53  83 115 149 198 247 295 344
#     4  10  21  35  59  86 122 160 198 246 300 361
#     4  10  19  34  53  84 121 150 192 247 298 348
#
# _framework density 20.006647000000001
#
# number of rings (size 3 to 8) (size 9 to 14) (size 15 to 20)
#    0.000    2.000    1.250    3.750   12.250    0.000 
#    0.000    0.000    0.000    3.000    0.000    0.000 
#    0.000    0.000    0.000    0.000    0.000    0.000 
#
# Total GULP energy -89114.342578 kJ/mol
# GULP energy per Si atom -5569.646411 kJ/mol
# Density = 1.996111 g / cm^3
# Si number density = 20.006647 Si / 1000 Ang^3
#
#
#
# Elastic Constant Matrix: (Units=GPa)
#
#
# Indices 1 2 3 4 5 6 
#
# 1 55.7170 31.9168 19.1344 0.0000 5.0881 0.0000
# 2 31.9168 169.9143 46.2592 0.0000 -0.4082 0.0000
# 3 19.1344 46.2592 76.4231 0.0000 -8.4635 0.0000
# 4 0.0000 0.0000 0.0000 29.0465 0.0000 -6.1288
# 5 5.0881 -0.4082 -8.4635 0.0000 20.7785 0.0000
# 6 0.0000 0.0000 0.0000 -6.1288 0.0000 14.3822
#
#
#
# Elastic Compliance Matrix: (Units=1/GPa)
#
#
# Indices 1 2 3 4 5 6 
#
# 1 0.021813 -0.002885 -0.004516 0.000000 -0.007238 0.000000
# 2 -0.002885 0.007484 -0.003889 0.000000 -0.000730 0.000000
# 3 -0.004516 -0.003889 0.017472 0.000000 0.008146 0.000000
# 4 0.000000 0.000000 0.000000 0.037829 0.000000 0.016120
# 5 -0.007238 -0.000730 0.008146 0.000000 0.053203 0.000000
# 6 0.000000 0.000000 0.000000 0.016120 0.000000 0.076400
#
#
# Mechanical properties :
#
#
# Convention : Reuss Voigt Hill
#
# Bulk Modulus (GPa) = 41.34284 55.18614 48.26449
# Shear Modulus (GPa) = 20.42121 26.49104 23.45613
#
# Velocity S-wave (km/s) = 3.19834 3.64278 3.42777
# Velocity P-wave (km/s) = 5.86077 6.73327 6.31211
#
# Compressibility (1/GPa) = 0.02418798
#
# Stress axis : x y z
#
# Youngs Moduli (GPa) = 45.84526 133.61450 57.23473
#
# Poissons Ratio (x) = 0.38548 0.25850
# Poissons Ratio (y) = 0.13227 0.22257
# Poissons Ratio (z) = 0.20706 0.51960
#
# Static dielectric constant tensor:
#      x y z
#    x 1.708420 0.000000 -0.007490 
#    y 0.000000 1.865640 0.000000 
#    z -0.007490 0.000000 1.734500 
# 
# From -- ./inp_files/10684.got.cif
#   From: 2010.05.17/outbox.cif.g08.bks.cpg/sg9_6_cif.got.tgz:10684.got - 2010.06.03 20:04:27.
