data_PCOD9134332
_publ_section_title
;
Structure prediction by ZEFSAII (Michael W. Deem and Ramdas Pophale) SiO2 
 PCOD9134332
Probable space group: C C
;
_chemical_formula_sum "Si O2"
_cell_formula_units_Z 28
_cell_length_a 23.068377
_cell_length_b 7.750409
_cell_length_c 17.480730
_cell_angle_alpha 90.000000
_cell_angle_beta 160.402210
_cell_angle_gamma 90.000000
_cell_volume 1048.296193
_symmetry_space_group_name_H-M "C C"
_symmetry_group_IT_number 9
_symmetry_cell_setting 'monoclinic'
loop_
_space_group_symop_operation_xyz
x,y,z
x,-y,1/2+z
1/2+x,1/2+y,z
1/2+x,1/2-y,1/2+z
loop_
_atom_site_type_symbol
_atom_site_label
_atom_site_fract_x
_atom_site_fract_y
_atom_site_fract_z
Si Si1 0.882140 0.918371 0.971880
Si Si2 0.018753 0.449360 0.527731
Si Si3 0.656998 0.346325 0.022737
Si Si4 0.226232 0.047959 0.953044
Si Si5 0.591265 0.948781 0.942902
Si Si6 0.458554 0.452115 0.397537
Si Si7 0.200204 0.251470 0.295950
O O1 0.694619 0.835350 0.754573
O O2 0.916015 0.957190 0.925288
O O3 0.852271 0.110645 0.971132
O O4 0.056710 0.840757 0.222287
O O5 0.053664 0.527308 0.486376
O O6 0.044165 0.608675 0.617417
O O7 0.831830 0.369071 0.290531
O O8 0.688863 0.459431 0.987825
O O9 0.618389 0.149235 0.952399
O O10 0.504362 0.421566 0.885459
O O11 0.233109 0.891238 0.899957
O O12 0.417042 0.128933 0.191679
O O13 0.774301 0.858526 0.153003
O O14 0.628512 0.345146 0.631202
#
# Coordination Sequence:
#
# PCOD9134332 Si02
#       7
#     4   4   4   4   4   4   4
#     4   8  18  35  56  86 111 145 196 253 289 345
#     4   8  19  35  56  84 113 157 197 245 291 355
#     4  11  21  32  55  91 122 155 190 251 304 360
#     4  10  19  34  57  86 121 142 200 256 303 326
#     4  10  20  36  52  88 122 157 186 244 299 370
#     4  10  20  33  56  87 116 157 196 244 304 353
#     4   9  19  35  62  86 111 153 205 253 288 345
#
# _framework density 26.710007000000001
#
# number of rings (size 3 to 8) (size 9 to 14) (size 15 to 20)
#    0.857    1.714    0.000    2.571    4.000    0.000 
#    0.000    0.000    0.000    0.000  133.714    0.000 
#    0.000    0.000    0.000    0.000    0.000    0.000 
#
# Total GULP energy -78168.846346 kJ/mol
# GULP energy per Si atom -5583.489025 kJ/mol
# Density = 2.664921 g / cm^3
# Si number density = 26.710007 Si / 1000 Ang^3
#
#
#
# Elastic Constant Matrix: (Units=GPa)
#
#
# Indices 1 2 3 4 5 6 
#
# 1 89.8343 28.1858 19.2817 0.0000 20.1805 0.0000
# 2 28.1858 39.6927 -1.1153 0.0000 7.8366 0.0000
# 3 19.2817 -1.1153 211.8540 0.0000 21.8705 0.0000
# 4 0.0000 0.0000 0.0000 22.4789 0.0000 9.1602
# 5 20.1805 7.8366 21.8705 0.0000 30.6334 0.0000
# 6 0.0000 0.0000 0.0000 9.1602 0.0000 48.3993
#
#
#
# Elastic Compliance Matrix: (Units=1/GPa)
#
#
# Indices 1 2 3 4 5 6 
#
# 1 0.016113 -0.009975 -0.000741 0.000000 -0.007534 0.000000
# 2 -0.009975 0.032872 0.001372 0.000000 -0.002817 0.000000
# 3 -0.000741 0.001372 0.005161 0.000000 -0.003547 0.000000
# 4 0.000000 0.000000 0.000000 0.048204 0.000000 -0.009123
# 5 -0.007534 -0.002817 -0.003547 0.000000 0.040860 0.000000
# 6 0.000000 0.000000 0.000000 -0.009123 0.000000 0.022388
#
#
# Mechanical properties :
#
#
# Convention : Reuss Voigt Hill
#
# Bulk Modulus (GPa) = 28.20381 48.23171 38.21776
# Shear Modulus (GPa) = 25.49639 39.97090 32.73365
#
# Velocity S-wave (km/s) = 3.09295 3.87263 3.50454
# Velocity P-wave (km/s) = 4.83087 6.17196 5.54213
#
# Compressibility (1/GPa) = 0.03545620
#
# Stress axis : x y z
#
# Youngs Moduli (GPa) = 62.06239 30.42137 193.75621
#
# Poissons Ratio (x) = 0.30346 0.14363
# Poissons Ratio (y) = 0.61908 -0.26579
# Poissons Ratio (z) = 0.04601 -0.04173
#
# Static dielectric constant tensor:
#      x y z
#    x 1.997180 0.000000 -0.022440 
#    y 0.000000 2.189160 0.000000 
#    z -0.022440 0.000000 2.228790 
# 
# From -- ./inp_files/31586.got.cif
#   From: 2010.05.17/outbox.cif.g08.bks.cpg/sg9_16_cif.got.tgz:31586.got - 2010.06.03 20:04:27.
