data_PCOD9134835
_publ_section_title
;
Structure prediction by ZEFSAII (Michael W. Deem and Ramdas Pophale) SiO2 
 PCOD9134835
Probable space group: C C
;
_chemical_formula_sum "Si O2"
_cell_formula_units_Z 28
_cell_length_a 9.712432
_cell_length_b 12.944882
_cell_length_c 12.090608
_cell_angle_alpha 90.000000
_cell_angle_beta 53.538928
_cell_angle_gamma 90.000000
_cell_volume 1222.562682
_symmetry_space_group_name_H-M "C C"
_symmetry_group_IT_number 9
_symmetry_cell_setting 'monoclinic'
loop_
_space_group_symop_operation_xyz
x,y,z
x,-y,1/2+z
1/2+x,1/2+y,z
1/2+x,1/2-y,1/2+z
loop_
_atom_site_type_symbol
_atom_site_label
_atom_site_fract_x
_atom_site_fract_y
_atom_site_fract_z
Si Si1 0.022670 0.359868 0.300980
Si Si2 0.894533 0.523460 0.202323
Si Si3 0.137140 0.823800 0.585564
Si Si4 0.106100 0.688070 0.985046
Si Si5 0.040872 0.085959 0.484649
Si Si6 0.149554 0.047979 0.675760
Si Si7 0.421138 0.623396 0.976740
O O1 0.100610 0.273134 0.182208
O O2 0.137370 0.374934 0.356264
O O3 0.007401 0.462965 0.235379
O O4 0.825872 0.336139 0.438035
O O5 0.714210 0.543799 0.346778
O O6 0.848059 0.453945 0.117083
O O7 0.964378 0.630195 0.124296
O O8 0.002065 0.827564 0.548225
O O9 0.108871 0.925646 0.675767
O O10 0.032530 0.793154 0.967017
O O11 0.265753 0.683527 0.992580
O O12 0.085668 0.090270 0.591678
O O13 0.900626 0.000115 0.518276
O O14 0.057043 0.114286 0.813032
#
# Coordination Sequence:
#
# PCOD9134835 Si02
#       7
#     4   4   4   4   4   4   4
#     4  12  25  45  74 105 150 190 247 308 376 441
#     4  11  22  45  67  99 143 188 236 296 379 439
#     4  11  24  46  73 105 146 200 239 308 382 447
#     4  12  27  41  74 114 135 192 254 304 373 458
#     4  10  23  44  70  97 149 190 232 306 367 442
#     4  10  19  45  71  91 141 194 230 292 380 429
#     4  10  24  44  71 109 142 190 246 304 373 450
#
# _framework density 22.902711
#
# number of rings (size 3 to 8) (size 9 to 14) (size 15 to 20)
#    0.000    1.143    5.714    1.714    4.000    4.571 
#    0.000    0.000    0.000    0.000    0.000    0.000 
#    0.000    0.000    0.000    0.000    0.000    0.000 
#
# Total GULP energy -78025.536474 kJ/mol
# GULP energy per Si atom -5573.252605 kJ/mol
# Density = 2.285058 g / cm^3
# Si number density = 22.902711 Si / 1000 Ang^3
#
#
#
# Elastic Constant Matrix: (Units=GPa)
#
#
# Indices 1 2 3 4 5 6 
#
# 1 116.7822 3.0772 16.0425 0.0000 25.2066 0.0000
# 2 3.0772 61.8269 4.5043 0.0000 -4.3780 0.0000
# 3 16.0425 4.5043 71.5594 0.0000 9.5529 0.0000
# 4 0.0000 0.0000 0.0000 66.0961 0.0000 -18.6870
# 5 25.2066 -4.3780 9.5529 0.0000 49.7379 0.0000
# 6 0.0000 0.0000 0.0000 -18.6870 0.0000 54.6580
#
#
#
# Elastic Compliance Matrix: (Units=1/GPa)
#
#
# Indices 1 2 3 4 5 6 
#
# 1 0.009815 -0.000714 -0.001522 0.000000 -0.004745 0.000000
# 2 -0.000714 0.016437 -0.001145 0.000000 0.002028 0.000000
# 3 -0.001522 -0.001145 0.014674 0.000000 -0.002148 0.000000
# 4 0.000000 0.000000 0.000000 0.016748 0.000000 0.005726
# 5 -0.004745 0.002028 -0.002148 0.000000 0.023101 0.000000
# 6 0.000000 0.000000 0.000000 0.005726 0.000000 0.020253
#
#
# Mechanical properties :
#
#
# Convention : Reuss Voigt Hill
#
# Bulk Modulus (GPa) = 29.27054 33.04629 31.15842
# Shear Modulus (GPa) = 41.95371 49.20137 45.57754
#
# Velocity S-wave (km/s) = 4.28462 4.63998 4.46584
# Velocity P-wave (km/s) = 6.10618 6.57010 6.34238
#
# Compressibility (1/GPa) = 0.03416404
#
# Stress axis : x y z
#
# Youngs Moduli (GPa) = 101.88569 60.83912 68.14564
#
# Poissons Ratio (x) = 0.04341 0.10372
# Poissons Ratio (y) = 0.07270 0.07806
# Poissons Ratio (z) = 0.15508 0.06969
#
# Static dielectric constant tensor:
#      x y z
#    x 1.949660 0.000000 0.019250 
#    y 0.000000 1.451610 0.000000 
#    z 0.019250 0.000000 1.878480 
# 
# From -- ./inp_files/14693.got.cif
#   From: 2010.05.17/outbox.cif.g08.bks.cpg/sg9_8_cif.got.tgz:14693.got - 2010.06.03 20:04:27.
