data_PCOD9134318
_publ_section_title
;
Structure prediction by ZEFSAII (Michael W. Deem and Ramdas Pophale) SiO2 
 PCOD9134318
Probable space group: C C
;
_chemical_formula_sum "Si O2"
_cell_formula_units_Z 32
_cell_length_a 22.464141
_cell_length_b 10.914445
_cell_length_c 8.081806
_cell_angle_alpha 90.000000
_cell_angle_beta 47.789807
_cell_angle_gamma 90.000000
_cell_volume 1467.687155
_symmetry_space_group_name_H-M "C C"
_symmetry_group_IT_number 9
_symmetry_cell_setting 'monoclinic'
loop_
_space_group_symop_operation_xyz
x,y,z
x,-y,1/2+z
1/2+x,1/2+y,z
1/2+x,1/2-y,1/2+z
loop_
_atom_site_type_symbol
_atom_site_label
_atom_site_fract_x
_atom_site_fract_y
_atom_site_fract_z
Si Si1 0.829880 0.677468 0.223550
Si Si2 0.858024 0.853160 0.449913
Si Si3 0.585607 0.607093 0.301047
Si Si4 0.368691 0.926269 0.296553
Si Si5 0.490214 0.762710 0.919417
Si Si6 0.725662 0.716074 0.876217
Si Si7 0.658005 0.657702 0.636451
Si Si8 0.976245 0.947102 0.717183
O O1 0.845763 0.804991 0.286435
O O2 0.853197 0.570578 0.311749
O O3 0.734261 0.676077 0.379400
O O4 0.866408 0.634899 0.981993
O O5 0.931188 0.768915 0.380224
O O6 0.779474 0.830228 0.710058
O O7 0.891091 0.989818 0.399216
O O8 0.633623 0.483420 0.166043
O O9 0.538216 0.557615 0.550709
O O10 0.514077 0.620162 0.302654
O O11 0.651309 0.713316 0.146256
O O12 0.454216 0.887184 0.060282
O O13 0.295353 0.868614 0.326050
O O14 0.472685 0.650044 0.077799
O O15 0.585688 0.749370 0.725147
O O16 0.685032 0.673161 0.778311
#
# Coordination Sequence:
#
# PCOD9134318 Si02
#       8
#     4   4   4   4   4   4   4   4
#     4  11  23  36  59  86 117 157 193 241 289 347
#     4  10  22  37  52  88 124 152 187 245 293 342
#     4  11  19  31  58  87 115 148 189 241 287 336
#     4  11  23  36  56  89 122 152 195 240 293 342
#     4  10  21  37  56  87 120 155 188 246 290 340
#     4  10  20  34  53  83 123 148 185 238 291 331
#     4  10  19  34  55  89 114 148 188 242 292 325
#     4  11  21  35  59  89 121 148 191 241 293 343
#
# _framework density 21.803011000000001
#
# number of rings (size 3 to 8) (size 9 to 14) (size 15 to 20)
#    0.000    1.500    6.250    2.250    3.500    0.000 
#    0.000    0.000    0.000    0.000   68.250    0.000 
#    0.000    0.000    0.000    0.000    0.000    0.000 
#
# Total GULP energy -89170.556818 kJ/mol
# GULP energy per Si atom -5573.159801 kJ/mol
# Density = 2.175339 g / cm^3
# Si number density = 21.803011 Si / 1000 Ang^3
#
#
#
# Elastic Constant Matrix: (Units=GPa)
#
#
# Indices 1 2 3 4 5 6 
#
# 1 66.6358 7.7697 7.9194 0.0000 -1.1388 0.0000
# 2 7.7697 34.5639 23.0288 0.0000 -21.9584 0.0000
# 3 7.9194 23.0288 72.8092 0.0000 -24.1837 0.0000
# 4 0.0000 0.0000 0.0000 35.4546 0.0000 -13.0515
# 5 -1.1388 -21.9584 -24.1837 0.0000 37.9585 0.0000
# 6 0.0000 0.0000 0.0000 -13.0515 0.0000 29.7505
#
#
#
# Elastic Compliance Matrix: (Units=1/GPa)
#
#
# Indices 1 2 3 4 5 6 
#
# 1 0.015637 -0.004574 -0.001239 0.000000 -0.002966 0.000000
# 2 -0.004574 0.050266 -0.007342 0.000000 0.024263 0.000000
# 3 -0.001239 -0.007342 0.018733 0.000000 0.007650 0.000000
# 4 0.000000 0.000000 0.000000 0.033637 0.000000 0.014757
# 5 -0.002966 0.024263 0.007650 0.000000 0.045166 0.000000
# 6 0.000000 0.000000 0.000000 0.014757 0.000000 0.040087
#
#
# Mechanical properties :
#
#
# Convention : Reuss Voigt Hill
#
# Bulk Modulus (GPa) = 17.14529 27.93830 22.54180
# Shear Modulus (GPa) = 20.05794 29.65212 24.85503
#
# Velocity S-wave (km/s) = 3.03638 3.69182 3.38002
# Velocity P-wave (km/s) = 4.49150 5.56907 5.05906
#
# Compressibility (1/GPa) = 0.05832505
#
# Stress axis : x y z
#
# Youngs Moduli (GPa) = 63.95151 19.89402 53.38279
#
# Poissons Ratio (x) = 0.09099 0.06617
# Poissons Ratio (y) = 0.29250 0.39194
# Poissons Ratio (z) = 0.07927 0.14606
#
# Static dielectric constant tensor:
#      x y z
#    x 1.843430 0.000000 0.009230 
#    y 0.000000 1.773570 0.000000 
#    z 0.009230 0.000000 1.898830 
# 
# From -- ./inp_files/9272.got.cif
#   From: 2010.05.17/outbox.cif.g08.bks.cpg/sg9_5_cif.got.tgz:9272.got - 2010.06.03 20:04:27.
