data_PCOD9134516
_publ_section_title
;
Structure prediction by ZEFSAII (Michael W. Deem and Ramdas Pophale) SiO2 
 PCOD9134516
Probable space group: C C
;
_chemical_formula_sum "Si O2"
_cell_formula_units_Z 32
_cell_length_a 9.458558
_cell_length_b 14.424033
_cell_length_c 9.308053
_cell_angle_alpha 90.000000
_cell_angle_beta 105.656104
_cell_angle_gamma 90.000000
_cell_volume 1222.787870
_symmetry_space_group_name_H-M "C C"
_symmetry_group_IT_number 9
_symmetry_cell_setting 'monoclinic'
loop_
_space_group_symop_operation_xyz
x,y,z
x,-y,1/2+z
1/2+x,1/2+y,z
1/2+x,1/2-y,1/2+z
loop_
_atom_site_type_symbol
_atom_site_label
_atom_site_fract_x
_atom_site_fract_y
_atom_site_fract_z
Si Si1 0.804810 0.066696 0.312840
Si Si2 0.561933 0.409355 0.053214
Si Si3 0.112751 0.616707 0.750161
Si Si4 0.366464 0.014268 0.529867
Si Si5 0.001476 0.236353 0.014935
Si Si6 0.905683 0.372958 0.771630
Si Si7 0.088290 0.079706 0.203830
Si Si8 0.685519 0.790139 0.569221
O O1 0.698814 0.143761 0.213592
O O2 0.885427 0.070862 0.488940
O O3 0.955844 0.094312 0.274112
O O4 0.729120 0.967787 0.268171
O O5 0.695233 0.455841 0.992064
O O6 0.606471 0.470080 0.202625
O O7 0.591348 0.301339 0.069509
O O8 0.954000 0.575051 0.670276
O O9 0.117558 0.698691 0.632512
O O10 0.125450 0.655615 0.913850
O O11 0.443630 0.046144 0.401830
O O12 0.395131 0.912284 0.606177
O O13 0.847324 0.242341 0.060006
O O14 0.035674 0.127411 0.038443
O O15 0.980408 0.280618 0.852791
O O16 0.734996 0.364061 0.765508
#
# Coordination Sequence:
#
# PCOD9134516 Si02
#       8
#     4   4   4   4   4   4   4   4
#     4  11  22  38  63  94 132 159 220 274 332 387
#     4  11  21  41  64  94 124 172 224 259 332 395
#     4  11  23  37  65  96 127 169 217 270 331 395
#     4  10  22  38  67  96 131 176 223 278 321 407
#     4  10  19  37  61  98 123 170 223 264 323 399
#     4  10  19  38  65  97 130 176 232 266 338 395
#     4  10  21  37  68  93 130 171 219 279 324 402
#     4  11  21  38  67  92 123 173 220 272 323 408
#
# _framework density 26.169706000000001
#
# number of rings (size 3 to 8) (size 9 to 14) (size 15 to 20)
#    0.000    1.500    3.750    3.750    3.500    0.000 
#    0.000    0.000   11.000    0.000    0.000    0.000 
#    0.000    0.000    0.000    0.000    0.000    0.000 
#
# Total GULP energy -89100.798028 kJ/mol
# GULP energy per Si atom -5568.799877 kJ/mol
# Density = 2.611014 g / cm^3
# Si number density = 26.169706 Si / 1000 Ang^3
#
#
#
# Elastic Constant Matrix: (Units=GPa)
#
#
# Indices 1 2 3 4 5 6 
#
# 1 49.4950 12.1567 16.5045 0.0000 28.3657 0.0000
# 2 12.1567 110.0772 33.8523 0.0000 28.4967 0.0000
# 3 16.5045 33.8523 84.7605 0.0000 21.8157 0.0000
# 4 0.0000 0.0000 0.0000 45.3331 0.0000 9.5537
# 5 28.3657 28.4967 21.8157 0.0000 43.4344 0.0000
# 6 0.0000 0.0000 0.0000 9.5537 0.0000 28.0310
#
#
#
# Elastic Compliance Matrix: (Units=1/GPa)
#
#
# Indices 1 2 3 4 5 6 
#
# 1 0.032977 0.002697 -0.001723 0.000000 -0.022440 0.000000
# 2 0.002697 0.011820 -0.003212 0.000000 -0.007903 0.000000
# 3 -0.001723 -0.003212 0.014453 0.000000 -0.004027 0.000000
# 4 0.000000 0.000000 0.000000 0.023766 0.000000 -0.008100
# 5 -0.022440 -0.007903 -0.004027 0.000000 0.044886 0.000000
# 6 0.000000 0.000000 0.000000 -0.008100 0.000000 0.038436
#
#
# Mechanical properties :
#
#
# Convention : Reuss Voigt Hill
#
# Bulk Modulus (GPa) = 18.25652 41.03997 29.64825
# Shear Modulus (GPa) = 26.44515 35.48099 30.96307
#
# Velocity S-wave (km/s) = 3.18232 3.68612 3.44345
# Velocity P-wave (km/s) = 4.52706 5.81661 5.21187
#
# Compressibility (1/GPa) = 0.05477494
#
# Stress axis : x y z
#
# Youngs Moduli (GPa) = 30.32449 84.59891 69.19167
#
# Poissons Ratio (x) = -0.22819 0.11920
# Poissons Ratio (y) = -0.08179 0.22224
# Poissons Ratio (z) = 0.05224 0.27173
#
# Static dielectric constant tensor:
#      x y z
#    x 2.098080 0.000000 -0.020320 
#    y 0.000000 2.074080 0.000000 
#    z -0.020320 0.000000 2.647770 
# 
# From -- ./inp_files/16800.got.cif
#   From: 2010.05.17/outbox.cif.g08.bks.cpg/sg9_9_cif.got.tgz:16800.got - 2010.06.03 20:04:27.
