data_PCOD9134873
_publ_section_title
;
Structure prediction by ZEFSAII (Michael W. Deem and Ramdas Pophale) SiO2 
 PCOD9134873
Probable space group: C C
;
_chemical_formula_sum "Si O2"
_cell_formula_units_Z 32
_cell_length_a 20.249458
_cell_length_b 12.937859
_cell_length_c 12.392817
_cell_angle_alpha 90.000000
_cell_angle_beta 157.891046
_cell_angle_gamma 90.000000
_cell_volume 1221.967796
_symmetry_space_group_name_H-M "C C"
_symmetry_group_IT_number 9
_symmetry_cell_setting 'monoclinic'
loop_
_space_group_symop_operation_xyz
x,y,z
x,-y,1/2+z
1/2+x,1/2+y,z
1/2+x,1/2-y,1/2+z
loop_
_atom_site_type_symbol
_atom_site_label
_atom_site_fract_x
_atom_site_fract_y
_atom_site_fract_z
Si Si1 0.938770 0.130175 0.586360
Si Si2 0.188819 0.428876 0.887563
Si Si3 0.455704 0.080973 0.327380
Si Si4 0.161268 0.209642 0.553930
Si Si5 0.941361 0.356000 0.329799
Si Si6 0.218011 0.718478 0.628590
Si Si7 0.161588 0.951120 0.235526
Si Si8 0.403762 0.901034 0.983470
O O1 0.843101 0.062695 0.533893
O O2 0.801665 0.209594 0.321466
O O3 0.082685 0.201273 0.865793
O O4 0.017342 0.058182 0.610029
O O5 0.048716 0.357803 0.607190
O O6 0.254139 0.366052 0.090387
O O7 0.086641 0.533810 0.768261
O O8 0.613507 0.159276 0.564426
O O9 0.358266 0.062148 0.291795
O O10 0.505863 0.964283 0.379289
O O11 0.322341 0.113363 0.033240
O O12 0.989058 0.277705 0.307515
O O13 0.245944 0.168350 0.573049
O O14 0.118944 0.112675 0.565522
O O15 0.381535 0.780083 0.924545
O O16 0.252018 0.057041 0.333260
#
# Coordination Sequence:
#
# PCOD9134873 Si02
#       8
#     4   4   4   4   4   4   4   4
#     4  11  19  32  64  97 131 176 228 291 359 423
#     4  10  20  38  60 103 139 171 231 307 352 427
#     4  11  21  38  64 100 135 178 231 294 359 427
#     4  11  17  34  59  95 121 167 223 281 338 414
#     4  10  20  33  62  94 130 168 229 281 351 419
#     4  12  20  38  70 105 132 190 244 291 368 438
#     4  12  20  38  66  94 136 178 225 295 354 422
#     4  11  23  39  67 104 140 180 239 298 363 432
#
# _framework density 26.187270999999999
#
# number of rings (size 3 to 8) (size 9 to 14) (size 15 to 20)
#    0.000    1.000    8.750    1.500    0.000    0.000 
#    0.000    7.500    5.500    0.000    3.250    0.000 
#    0.000    0.000    0.000    0.000    0.000    0.000 
#
# Total GULP energy -89260.361226 kJ/mol
# GULP energy per Si atom -5578.772577 kJ/mol
# Density = 2.612767 g / cm^3
# Si number density = 26.187271 Si / 1000 Ang^3
#
#
#
# Elastic Constant Matrix: (Units=GPa)
#
#
# Indices 1 2 3 4 5 6 
#
# 1 175.4685 55.0203 53.8743 0.0000 40.4752 0.0000
# 2 55.0203 113.4641 46.9083 0.0000 23.3848 0.0000
# 3 53.8743 46.9083 39.5416 0.0000 9.0251 0.0000
# 4 0.0000 0.0000 0.0000 33.2855 0.0000 11.9970
# 5 40.4752 23.3848 9.0251 0.0000 46.6053 0.0000
# 6 0.0000 0.0000 0.0000 11.9970 0.0000 33.5864
#
#
#
# Elastic Compliance Matrix: (Units=1/GPa)
#
#
# Indices 1 2 3 4 5 6 
#
# 1 0.012664 0.003951 -0.019855 0.000000 -0.009135 0.000000
# 2 0.003951 0.019680 -0.026880 0.000000 -0.008100 0.000000
# 3 -0.019855 -0.026880 0.080786 0.000000 0.015087 0.000000
# 4 0.000000 0.000000 0.000000 0.034483 0.000000 -0.012317
# 5 -0.009135 -0.008100 0.015087 0.000000 0.030533 0.000000
# 6 0.000000 0.000000 0.000000 -0.012317 0.000000 0.034174
#
#
# Mechanical properties :
#
#
# Convention : Reuss Voigt Hill
#
# Bulk Modulus (GPa) = 36.28393 71.12000 53.70196
# Shear Modulus (GPa) = 16.28264 34.20687 25.24475
#
# Velocity S-wave (km/s) = 2.49625 3.61812 3.10822
# Velocity P-wave (km/s) = 4.71105 6.68368 5.78211
#
# Compressibility (1/GPa) = 0.02756041
#
# Stress axis : x y z
#
# Youngs Moduli (GPa) = 78.96550 50.81366 12.37833
#
# Poissons Ratio (x) = -0.20074 0.24578
# Poissons Ratio (y) = -0.31196 0.33273
# Poissons Ratio (z) = 1.56790 1.36586
#
# Static dielectric constant tensor:
#      x y z
#    x 2.064350 0.000000 -0.019130 
#    y 0.000000 2.199130 0.000000 
#    z -0.019130 0.000000 2.147630 
# 
# From -- ./inp_files/27400.got.cif
#   From: 2010.05.17/outbox.cif.g08.bks.cpg/sg9_14_cif.got.tgz:27400.got - 2010.06.03 20:04:27.
