data_PCOD9134703
_publ_section_title
;
Structure prediction by ZEFSAII (Michael W. Deem and Ramdas Pophale) SiO2 
 PCOD9134703
Probable space group: C C
;
_chemical_formula_sum "Si O2"
_cell_formula_units_Z 32
_cell_length_a 9.918719
_cell_length_b 12.171525
_cell_length_c 19.633231
_cell_angle_alpha 90.000000
_cell_angle_beta 144.904363
_cell_angle_gamma 90.000000
_cell_volume 1362.752888
_symmetry_space_group_name_H-M "C C"
_symmetry_group_IT_number 9
_symmetry_cell_setting 'monoclinic'
loop_
_space_group_symop_operation_xyz
x,y,z
x,-y,1/2+z
1/2+x,1/2+y,z
1/2+x,1/2-y,1/2+z
loop_
_atom_site_type_symbol
_atom_site_label
_atom_site_fract_x
_atom_site_fract_y
_atom_site_fract_z
Si Si1 0.389450 0.530366 0.983700
Si Si2 0.668442 0.884138 0.120303
Si Si3 0.443660 0.894323 0.382672
Si Si4 0.810159 0.375556 0.859535
Si Si5 0.767766 0.129339 0.127180
Si Si6 0.583290 0.046900 0.740876
Si Si7 0.160280 0.171644 0.642811
Si Si8 0.356541 0.155621 0.221086
O O1 0.141724 0.556931 0.914866
O O2 0.336803 0.559286 0.883072
O O3 0.453794 0.405163 0.029881
O O4 0.596168 0.602271 0.102543
O O5 0.848436 0.783569 0.199653
O O6 0.754956 0.997852 0.122028
O O7 0.597779 0.922958 0.167378
O O8 0.460389 0.836308 0.985991
O O9 0.613227 0.824181 0.500575
O O10 0.239906 0.849865 0.252126
O O11 0.326000 0.992962 0.375123
O O12 0.539935 0.342411 0.745983
O O13 0.902933 0.349989 0.821777
O O14 0.636969 0.197538 0.131010
O O15 0.509953 0.923853 0.736016
O O16 0.379362 0.124930 0.687912
#
# Coordination Sequence:
#
# PCOD9134703 Si02
#       8
#     4   4   4   4   4   4   4   4
#     4  10  19  39  70  93 124 165 232 279 327 414
#     4  11  28  43  62 103 144 175 228 286 347 416
#     4  10  19  40  63  93 122 166 224 267 333 408
#     4  11  22  44  67  92 131 179 230 274 346 411
#     4  11  24  40  62  96 133 172 213 286 340 403
#     4  10  23  44  66 102 130 174 234 276 347 412
#     4  10  21  38  68  93 122 173 222 276 333 404
#     4  11  22  44  72  96 130 188 223 284 349 412
#
# _framework density 23.48188
#
# number of rings (size 3 to 8) (size 9 to 14) (size 15 to 20)
#    0.000    1.500    5.000    0.750    5.250    3.000 
#   11.250    0.000    0.000    0.000    0.000    0.000 
#    0.000    0.000    0.000    0.000    0.000    0.000 
#
# Total GULP energy -89165.162087 kJ/mol
# GULP energy per Si atom -5572.822630 kJ/mol
# Density = 2.342843 g / cm^3
# Si number density = 23.481880 Si / 1000 Ang^3
#
#
#
# Elastic Constant Matrix: (Units=GPa)
#
#
# Indices 1 2 3 4 5 6 
#
# 1 59.2639 13.9008 40.3339 -0.0002 -17.2792 -0.0001
# 2 13.9008 107.4482 10.0929 -0.0001 -6.2701 0.0000
# 3 40.3339 10.0929 146.0327 -0.0004 -32.2717 -0.0004
# 4 -0.0002 -0.0001 -0.0004 18.6543 -0.0003 -3.8157
# 5 -17.2792 -6.2701 -32.2717 -0.0003 31.7992 -0.0002
# 6 -0.0001 0.0000 -0.0004 -3.8157 -0.0002 18.6271
#
#
#
# Elastic Compliance Matrix: (Units=1/GPa)
#
#
# Indices 1 2 3 4 5 6 
#
# 1 0.022527 -0.002069 -0.004465 0.000000 0.007301 0.000000
# 2 -0.002069 0.009616 0.000100 0.000000 0.000873 0.000000
# 3 -0.004465 0.000100 0.009723 0.000000 0.007461 0.000000
# 4 0.000000 0.000000 0.000000 0.055951 0.000001 0.011461
# 5 0.007301 0.000873 0.007461 0.000001 0.043158 0.000001
# 6 0.000000 0.000000 0.000000 0.011461 0.000001 0.056033
#
#
# Mechanical properties :
#
#
# Convention : Reuss Voigt Hill
#
# Bulk Modulus (GPa) = 34.48662 49.04442 41.76552
# Shear Modulus (GPa) = 22.77459 30.37725 26.57592
#
# Velocity S-wave (km/s) = 3.11767 3.60063 3.36782
# Velocity P-wave (km/s) = 5.26100 6.18203 5.74002
#
# Compressibility (1/GPa) = 0.02899675
#
# Stress axis : x y z
#
# Youngs Moduli (GPa) = 44.39181 103.99287 102.84934
#
# Poissons Ratio (x) = 0.21514 0.45926
# Poissons Ratio (y) = 0.09184 -0.01026
# Poissons Ratio (z) = 0.19823 -0.01037
#
# Static dielectric constant tensor:
#      x y z
#    x 1.917400 0.000000 -0.065100 
#    y 0.000000 1.993930 0.000000 
#    z -0.065100 0.000000 2.014630 
# 
# From -- ./inp_files/20266.got.cif
#   From: 2010.05.17/outbox.cif.g08.bks.cpg/sg9_11_cif.got.tgz:20266.got - 2010.06.03 20:04:27.
