data_PCOD9134762
_publ_section_title
;
Structure prediction by ZEFSAII (Michael W. Deem and Ramdas Pophale) SiO2 
 PCOD9134762
Probable space group: C C
;
_chemical_formula_sum "Si O2"
_cell_formula_units_Z 28
_cell_length_a 16.151981
_cell_length_b 9.413617
_cell_length_c 8.550756
_cell_angle_alpha 90.000000
_cell_angle_beta 62.366243
_cell_angle_gamma 90.000000
_cell_volume 1151.824919
_symmetry_space_group_name_H-M "C C"
_symmetry_group_IT_number 9
_symmetry_cell_setting 'monoclinic'
loop_
_space_group_symop_operation_xyz
x,y,z
x,-y,1/2+z
1/2+x,1/2+y,z
1/2+x,1/2-y,1/2+z
loop_
_atom_site_type_symbol
_atom_site_label
_atom_site_fract_x
_atom_site_fract_y
_atom_site_fract_z
Si Si1 0.753930 0.388229 0.175080
Si Si2 0.063800 0.778966 0.857700
Si Si3 0.366317 0.562500 0.242409
Si Si4 0.620047 0.528776 0.044927
Si Si5 0.263262 0.660449 0.630252
Si Si6 0.398227 0.704633 0.924549
Si Si7 0.897651 0.388067 0.651798
O O1 0.705811 0.482251 0.082975
O O2 0.671358 0.373753 0.371850
O O3 0.847862 0.460859 0.167456
O O4 0.792018 0.248537 0.059662
O O5 0.052226 0.884061 0.719770
O O6 0.154313 0.687807 0.734106
O O7 0.979910 0.672028 0.969845
O O8 0.084244 0.887858 0.984734
O O9 0.311366 0.655453 0.417696
O O10 0.293678 0.481536 0.192109
O O11 0.406671 0.428007 0.301727
O O12 0.432528 0.648163 0.063056
O O13 0.310834 0.786519 0.685649
O O14 0.430768 0.843084 0.797725
#
# Coordination Sequence:
#
# PCOD9134762 Si02
#       7
#     4   4   4   4   4   4   4
#     4  11  19  40  69  96 129 183 227 273 346 411
#     4  11  23  39  64  99 133 176 233 284 335 404
#     4   9  20  35  64  88 121 178 225 261 344 399
#     4  10  20  38  69  93 134 181 234 277 331 413
#     4  10  19  41  59  88 131 172 215 285 339 398
#     4  10  20  36  62  94 126 172 224 275 329 410
#     4  11  23  39  65  98 134 168 228 287 338 405
#
# _framework density 24.309251
#
# number of rings (size 3 to 8) (size 9 to 14) (size 15 to 20)
#    0.000    1.714    4.286    1.714    0.000    4.571 
#    2.571    1.429    0.000    0.000    0.000    0.000 
#    0.000    0.000    0.000    0.000    0.000    0.000 
#
# Total GULP energy -78130.412444 kJ/mol
# GULP energy per Si atom -5580.743746 kJ/mol
# Density = 2.425392 g / cm^3
# Si number density = 24.309251 Si / 1000 Ang^3
#
#
#
# Elastic Constant Matrix: (Units=GPa)
#
#
# Indices 1 2 3 4 5 6 
#
# 1 69.8341 17.3491 44.7471 0.0000 4.2001 0.0000
# 2 17.3491 60.6423 33.7101 0.0000 3.5728 0.0000
# 3 44.7471 33.7101 167.4466 0.0000 8.6876 0.0000
# 4 0.0000 0.0000 0.0000 44.1401 0.0000 -4.3805
# 5 4.2001 3.5728 8.6876 0.0000 47.9573 0.0000
# 6 0.0000 0.0000 0.0000 -4.3805 0.0000 29.8675
#
#
#
# Elastic Compliance Matrix: (Units=1/GPa)
#
#
# Indices 1 2 3 4 5 6 
#
# 1 0.017689 -0.002719 -0.004149 0.000000 -0.000595 0.000000
# 2 -0.002719 0.019010 -0.003068 0.000000 -0.000622 0.000000
# 3 -0.004149 -0.003068 0.007740 0.000000 -0.000810 0.000000
# 4 0.000000 0.000000 0.000000 0.022990 0.000000 0.003372
# 5 -0.000595 -0.000622 -0.000810 0.000000 0.021097 0.000000
# 6 0.000000 0.000000 0.000000 0.003372 0.000000 0.033976
#
#
# Mechanical properties :
#
#
# Convention : Reuss Voigt Hill
#
# Bulk Modulus (GPa) = 40.70423 54.39284 47.54853
# Shear Modulus (GPa) = 33.20828 37.86741 35.53784
#
# Velocity S-wave (km/s) = 3.70006 3.95110 3.82764
# Velocity P-wave (km/s) = 5.91900 6.57563 6.25593
#
# Compressibility (1/GPa) = 0.02456747
#
# Stress axis : x y z
#
# Youngs Moduli (GPa) = 56.53083 52.60297 129.19105
#
# Poissons Ratio (x) = 0.14305 0.53599
# Poissons Ratio (y) = 0.15373 0.39638
# Poissons Ratio (z) = 0.23454 0.16139
#
# Static dielectric constant tensor:
#      x y z
#    x 1.987570 0.000000 0.052210 
#    y 0.000000 2.002450 0.000000 
#    z 0.052210 0.000000 1.993130 
# 
# From -- ./inp_files/8920.got.cif
#   From: 2010.05.17/outbox.cif.g08.bks.cpg/sg9_5_cif.got.tgz:8920.got - 2010.06.03 20:04:27.
