data_PCOD9134495
_publ_section_title
;
Structure prediction by ZEFSAII (Michael W. Deem and Ramdas Pophale) SiO2 
 PCOD9134495
Probable space group: C C
;
_chemical_formula_sum "Si O2"
_cell_formula_units_Z 32
_cell_length_a 21.394834
_cell_length_b 11.615207
_cell_length_c 11.548132
_cell_angle_alpha 90.000000
_cell_angle_beta 28.748547
_cell_angle_gamma 90.000000
_cell_volume 1380.264997
_symmetry_space_group_name_H-M "C C"
_symmetry_group_IT_number 9
_symmetry_cell_setting 'monoclinic'
loop_
_space_group_symop_operation_xyz
x,y,z
x,-y,1/2+z
1/2+x,1/2+y,z
1/2+x,1/2-y,1/2+z
loop_
_atom_site_type_symbol
_atom_site_label
_atom_site_fract_x
_atom_site_fract_y
_atom_site_fract_z
Si Si1 0.099030 0.392543 0.103300
Si Si2 0.248013 0.612793 0.816614
Si Si3 0.996575 0.043420 0.136746
Si Si4 0.626862 0.225422 0.794786
Si Si5 0.365554 0.692525 0.831212
Si Si6 0.853961 0.757347 0.595807
Si Si7 0.886117 0.695178 0.783324
Si Si8 0.020860 0.020510 0.842224
O O1 0.072194 0.341896 0.272941
O O2 0.980755 0.378763 0.207922
O O3 0.147435 0.521901 0.030445
O O4 0.223214 0.321404 0.852045
O O5 0.199732 0.649606 0.770930
O O6 0.269011 0.708510 0.880611
O O7 0.389435 0.555894 0.569751
O O8 0.934597 0.171056 0.224050
O O9 0.880954 0.945833 0.332190
O O10 0.074444 0.027099 0.131725
O O11 0.071864 0.022868 0.892367
O O12 0.737719 0.309712 0.565955
O O13 0.508325 0.278137 0.056005
O O14 0.330976 0.767658 0.998906
O O15 0.889946 0.670685 0.639869
O O16 0.971159 0.849873 0.401476
#
# Coordination Sequence:
#
# PCOD9134495 Si02
#       8
#     4   4   4   4   4   4   4   4
#     4  10  22  35  62  89 118 166 204 250 298 366
#     4  10  20  34  56  85 119 156 200 252 298 357
#     4   9  16  29  53  79 111 150 188 240 292 342
#     4  11  21  35  58  93 116 158 203 255 308 354
#     4  10  20  35  59  92 119 153 206 255 297 361
#     4   8  18  33  53  83 115 153 199 241 297 348
#     4  10  19  37  58  88 125 153 203 248 305 365
#     4   8  14  26  49  75 103 141 185 231 273 339
#
# _framework density 23.183952999999999
#
# number of rings (size 3 to 8) (size 9 to 14) (size 15 to 20)
#    0.000    2.500    1.250    3.000    5.250    1.000 
#    0.000    0.000    2.750    3.000    0.000    0.000 
#    0.000    0.000    0.000    0.000    0.000    0.000 
#
# Total GULP energy -89254.573526 kJ/mol
# GULP energy per Si atom -5578.410845 kJ/mol
# Density = 2.313119 g / cm^3
# Si number density = 23.183953 Si / 1000 Ang^3
#
#
#
# Elastic Constant Matrix: (Units=GPa)
#
#
# Indices 1 2 3 4 5 6 
#
# 1 163.9855 5.2079 46.3548 0.0000 34.6710 0.0000
# 2 5.2079 9.2781 15.1821 0.0000 2.1122 0.0000
# 3 46.3548 15.1821 50.8018 0.0000 19.7033 0.0000
# 4 0.0000 0.0000 0.0000 13.6799 0.0000 -3.3874
# 5 34.6710 2.1122 19.7033 0.0000 32.6495 0.0000
# 6 0.0000 0.0000 0.0000 -3.3874 0.0000 21.9193
#
#
#
# Elastic Compliance Matrix: (Units=1/GPa)
#
#
# Indices 1 2 3 4 5 6 
#
# 1 0.009847 0.014460 -0.011604 0.000000 -0.004389 0.000000
# 2 0.014460 0.260997 -0.102735 0.000000 0.029758 0.000000
# 3 -0.011604 -0.102735 0.070002 0.000000 -0.023276 0.000000
# 4 0.000000 0.000000 0.000000 0.076009 0.000000 0.011746
# 5 -0.004389 0.029758 -0.023276 0.000000 0.047411 0.000000
# 6 0.000000 0.000000 0.000000 0.011746 0.000000 0.047437
#
#
# Mechanical properties :
#
#
# Convention : Reuss Voigt Hill
#
# Bulk Modulus (GPa) = 7.08769 39.72833 23.40801
# Shear Modulus (GPa) = 6.59204 24.13779 15.36492
#
# Velocity S-wave (km/s) = 1.68806 3.23017 2.57717
# Velocity P-wave (km/s) = 2.61977 5.57543 4.35595
#
# Compressibility (1/GPa) = 0.14108967
#
# Stress axis : x y z
#
# Youngs Moduli (GPa) = 101.55248 3.83146 14.28525
#
# Poissons Ratio (x) = -0.05540 0.16577
# Poissons Ratio (y) = -1.46847 1.46759
# Poissons Ratio (z) = 1.17843 0.39362
#
# Static dielectric constant tensor:
#      x y z
#    x 1.987000 0.000000 0.042210 
#    y 0.000000 1.928140 0.000000 
#    z 0.042210 0.000000 1.845760 
# 
# From -- ./inp_files/16733.got.cif
#   From: 2010.05.17/outbox.cif.g08.bks.cpg/sg9_9_cif.got.tgz:16733.got - 2010.06.03 20:04:27.
