data_PCOD9134040
_publ_section_title
;
Structure prediction by ZEFSAII (Michael W. Deem and Ramdas Pophale) SiO2 
 PCOD9134040
Probable space group: C C
;
_chemical_formula_sum "Si O2"
_cell_formula_units_Z 28
_cell_length_a 7.147249
_cell_length_b 12.974753
_cell_length_c 12.853934
_cell_angle_alpha 90.000000
_cell_angle_beta 117.544051
_cell_angle_gamma 90.000000
_cell_volume 1056.888130
_symmetry_space_group_name_H-M "C C"
_symmetry_group_IT_number 9
_symmetry_cell_setting 'monoclinic'
loop_
_space_group_symop_operation_xyz
x,y,z
x,-y,1/2+z
1/2+x,1/2+y,z
1/2+x,1/2-y,1/2+z
loop_
_atom_site_type_symbol
_atom_site_label
_atom_site_fract_x
_atom_site_fract_y
_atom_site_fract_z
Si Si1 0.105730 0.908818 0.652750
Si Si2 0.396672 0.069588 0.922270
Si Si3 0.913092 0.718516 0.109205
Si Si4 0.752818 0.135695 0.884865
Si Si5 0.971356 0.029737 0.336326
Si Si6 0.489776 0.165756 0.477687
Si Si7 0.708644 0.373763 0.092522
O O1 0.296127 0.830263 0.678088
O O2 0.991860 0.909485 0.734528
O O3 0.919746 0.895276 0.519788
O O4 0.208927 0.020006 0.655344
O O5 0.518643 0.135816 0.869285
O O6 0.146462 0.060899 0.865833
O O7 0.455353 0.121401 0.046229
O O8 0.468238 0.950762 0.932944
O O9 0.724437 0.793466 0.021610
O O10 0.117654 0.788186 0.146798
O O11 0.836271 0.249948 0.886209
O O12 0.770702 0.040601 0.809270
O O13 0.049054 0.099428 0.453198
O O14 0.415361 0.159970 0.580581
#
# Coordination Sequence:
#
# PCOD9134040 Si02
#       7
#     4   4   4   4   4   4   4
#     4  10  21  42  63  89 128 159 203 258 302 360
#     4  11  20  38  65  86 121 163 198 249 308 357
#     4  11  20  38  65  87 119 168 200 248 309 360
#     4  10  20  39  63  84 120 165 198 248 302 367
#     4  10  21  42  60  93 127 157 204 260 299 361
#     4  10  18  34  63  83 113 159 195 240 305 354
#     4  10  20  39  63  86 122 161 202 247 307 365
#
# _framework density 26.492868999999999
#
# number of rings (size 3 to 8) (size 9 to 14) (size 15 to 20)
#    0.000    1.714    7.143    1.714    0.000    0.000 
#    7.714    2.857    0.000    0.000    0.000    0.000 
#    0.000    0.000    0.000    0.000    0.000    0.000 
#
# Total GULP energy -78271.316089 kJ/mol
# GULP energy per Si atom -5590.808292 kJ/mol
# Density = 2.643257 g / cm^3
# Si number density = 26.492869 Si / 1000 Ang^3
#
#
#
# Elastic Constant Matrix: (Units=GPa)
#
#
# Indices 1 2 3 4 5 6 
#
# 1 114.6922 29.8848 34.5915 0.0000 -20.2678 0.0000
# 2 29.8848 99.1113 39.6467 0.0000 -2.4585 0.0000
# 3 34.5915 39.6467 98.1246 0.0000 -26.1584 0.0000
# 4 0.0000 0.0000 0.0000 22.1439 0.0000 -9.3103
# 5 -20.2678 -2.4585 -26.1584 0.0000 30.1971 0.0000
# 6 0.0000 0.0000 0.0000 -9.3103 0.0000 47.4912
#
#
#
# Elastic Compliance Matrix: (Units=1/GPa)
#
#
# Indices 1 2 3 4 5 6 
#
# 1 0.010825 -0.002666 -0.001118 0.000000 0.006080 0.000000
# 2 -0.002666 0.013116 -0.005919 0.000000 -0.005849 0.000000
# 3 -0.001118 -0.005919 0.016446 0.000000 0.013014 0.000000
# 4 0.000000 0.000000 0.000000 0.049216 0.000000 0.009648
# 5 0.006080 -0.005849 0.013014 0.000000 0.047994 0.000000
# 6 0.000000 0.000000 0.000000 0.009648 0.000000 0.022948
#
#
# Mechanical properties :
#
#
# Convention : Reuss Voigt Hill
#
# Bulk Modulus (GPa) = 47.66091 57.79711 52.72901
# Shear Modulus (GPa) = 26.74578 33.82012 30.28295
#
# Velocity S-wave (km/s) = 3.18078 3.57679 3.38459
# Velocity P-wave (km/s) = 5.61418 6.23870 5.93466
#
# Compressibility (1/GPa) = 0.02098155
#
# Stress axis : x y z
#
# Youngs Moduli (GPa) = 92.37579 76.24204 60.80449
#
# Poissons Ratio (x) = 0.20326 0.06799
# Poissons Ratio (y) = 0.24628 0.35989
# Poissons Ratio (z) = 0.10329 0.45126
#
# Static dielectric constant tensor:
#      x y z
#    x 2.033640 0.000000 0.049520 
#    y 0.000000 2.051480 0.000000 
#    z 0.049520 0.000000 2.184500 
# 
# From -- ./inp_files/23082.got.cif
#   From: 2010.05.17/outbox.cif.g08.bks.cpg/sg9_12_cif.got.tgz:23082.got - 2010.06.03 20:04:27.
