data_PCOD9134588
_publ_section_title
;
Structure prediction by ZEFSAII (Michael W. Deem and Ramdas Pophale) SiO2 
 PCOD9134588
Probable space group: C C
;
_chemical_formula_sum "Si O2"
_cell_formula_units_Z 32
_cell_length_a 7.776386
_cell_length_b 22.735649
_cell_length_c 13.197833
_cell_angle_alpha 90.000000
_cell_angle_beta 34.540875
_cell_angle_gamma 90.000000
_cell_volume 1323.019600
_symmetry_space_group_name_H-M "C C"
_symmetry_group_IT_number 9
_symmetry_cell_setting 'monoclinic'
loop_
_space_group_symop_operation_xyz
x,y,z
x,-y,1/2+z
1/2+x,1/2+y,z
1/2+x,1/2-y,1/2+z
loop_
_atom_site_type_symbol
_atom_site_label
_atom_site_fract_x
_atom_site_fract_y
_atom_site_fract_z
Si Si1 0.070130 0.210626 0.936270
Si Si2 0.123476 0.589913 0.447843
Si Si3 0.933527 0.115545 0.603578
Si Si4 0.353277 0.482669 0.648824
Si Si5 0.898210 0.443523 0.260300
Si Si6 0.110539 0.833106 0.828204
Si Si7 0.632603 0.685499 0.679451
Si Si8 0.201212 0.778462 0.588797
O O1 0.056321 0.176965 0.835395
O O2 0.368808 0.251328 0.774860
O O3 0.134451 0.185594 0.017833
O O4 0.762796 0.249402 0.096999
O O5 0.245787 0.549759 0.300347
O O6 0.404862 0.618774 0.370098
O O7 0.916558 0.557004 0.631235
O O8 0.915013 0.643475 0.514320
O O9 0.985380 0.048018 0.612509
O O10 0.615420 0.108694 0.696739
O O11 0.184215 0.136694 0.399966
O O12 0.895007 0.161990 0.712618
O O13 0.582648 0.445811 0.469506
O O14 0.071972 0.498764 0.714415
O O15 0.917685 0.776368 0.958645
O O16 0.313374 0.810472 0.636413
#
# Coordination Sequence:
#
# PCOD9134588 Si02
#       8
#     4   4   4   4   4   4   4   4
#     4   9  18  31  60  91 127 166 226 264 335 405
#     4  11  21  38  70  92 131 176 219 279 329 396
#     4   9  23  40  62  94 133 168 217 279 335 395
#     4  10  22  43  67  93 132 171 226 280 329 401
#     4   9  23  43  65  94 127 173 230 275 332 403
#     4  10  19  38  59  91 125 169 218 274 326 397
#     4  11  20  39  63  94 139 172 218 288 331 403
#     4   9  16  34  60  87 122 167 218 269 325 404
#
# _framework density 24.187097000000001
#
# number of rings (size 3 to 8) (size 9 to 14) (size 15 to 20)
#    0.750    1.500    3.750    0.750    0.000    4.000 
#    2.250    0.000   13.750    0.000    0.000    0.000 
#    0.000    0.000    0.000    0.000    0.000    0.000 
#
# Total GULP energy -89254.296947 kJ/mol
# GULP energy per Si atom -5578.393559 kJ/mol
# Density = 2.413205 g / cm^3
# Si number density = 24.187097 Si / 1000 Ang^3
#
#
#
# Elastic Constant Matrix: (Units=GPa)
#
#
# Indices 1 2 3 4 5 6 
#
# 1 53.3090 12.1256 40.5524 0.0000 33.1677 0.0000
# 2 12.1256 85.2256 58.9905 0.0000 29.5920 0.0000
# 3 40.5524 58.9905 166.9306 0.0000 51.0218 0.0000
# 4 0.0000 0.0000 0.0000 45.1927 0.0000 15.7910
# 5 33.1677 29.5920 51.0218 0.0000 42.7941 0.0000
# 6 0.0000 0.0000 0.0000 15.7910 0.0000 27.9530
#
#
#
# Elastic Compliance Matrix: (Units=1/GPa)
#
#
# Indices 1 2 3 4 5 6 
#
# 1 0.039147 0.007265 -0.001995 0.000000 -0.032985 0.000000
# 2 0.007265 0.018165 -0.004128 0.000000 -0.013269 0.000000
# 3 -0.001995 -0.004128 0.010367 0.000000 -0.007959 0.000000
# 4 0.000000 0.000000 0.000000 0.027569 0.000000 -0.015574
# 5 -0.032985 -0.013269 -0.007959 0.000000 0.067598 0.000000
# 6 0.000000 0.000000 0.000000 -0.015574 0.000000 0.044572
#
#
# Mechanical properties :
#
#
# Convention : Reuss Voigt Hill
#
# Bulk Modulus (GPa) = 14.29380 58.75580 36.52480
# Shear Modulus (GPa) = 21.88613 36.10773 28.99693
#
# Velocity S-wave (km/s) = 3.01137 3.86793 3.46621
# Velocity P-wave (km/s) = 4.24424 6.65529 5.58151
#
# Compressibility (1/GPa) = 0.06996041
#
# Stress axis : x y z
#
# Youngs Moduli (GPa) = 25.54498 55.05161 96.46386
#
# Poissons Ratio (x) = -0.39992 0.19246
# Poissons Ratio (y) = -0.18557 0.39822
# Poissons Ratio (z) = 0.05097 0.22726
#
# Static dielectric constant tensor:
#      x y z
#    x 2.032010 0.000000 0.011880 
#    y 0.000000 1.956850 0.000000 
#    z 0.011880 0.000000 1.949240 
# 
# From -- ./inp_files/15632.got.cif
#   From: 2010.05.17/outbox.cif.g08.bks.cpg/sg9_8_cif.got.tgz:15632.got - 2010.06.03 20:04:27.
