data_PCOD9134631
_publ_section_title
;
Structure prediction by ZEFSAII (Michael W. Deem and Ramdas Pophale) SiO2 
 PCOD9134631
Probable space group: C C
;
_chemical_formula_sum "Si O2"
_cell_formula_units_Z 32
_cell_length_a 23.830148
_cell_length_b 9.584460
_cell_length_c 13.065253
_cell_angle_alpha 90.000000
_cell_angle_beta 26.121362
_cell_angle_gamma 90.000000
_cell_volume 1313.818007
_symmetry_space_group_name_H-M "C C"
_symmetry_group_IT_number 9
_symmetry_cell_setting 'monoclinic'
loop_
_space_group_symop_operation_xyz
x,y,z
x,-y,1/2+z
1/2+x,1/2+y,z
1/2+x,1/2-y,1/2+z
loop_
_atom_site_type_symbol
_atom_site_label
_atom_site_fract_x
_atom_site_fract_y
_atom_site_fract_z
Si Si1 0.262860 0.989821 0.152810
Si Si2 0.193908 0.153972 0.569341
Si Si3 0.484067 0.613673 0.590181
Si Si4 0.815541 0.877935 0.767999
Si Si5 0.601043 0.270150 0.545264
Si Si6 0.452436 0.530773 0.860167
Si Si7 0.915224 0.361389 0.559381
Si Si8 0.025567 0.357177 0.958742
O O1 0.132011 0.073477 0.350304
O O2 0.379300 0.081372 0.004862
O O3 0.281098 0.916973 0.013294
O O4 0.212145 0.871437 0.315589
O O5 0.068099 0.067052 0.747959
O O6 0.272108 0.156265 0.338367
O O7 0.141668 0.298491 0.699625
O O8 0.382260 0.491388 0.730794
O O9 0.454733 0.635397 0.759384
O O10 0.472360 0.723551 0.517621
O O11 0.671272 0.823016 0.016030
O O12 0.829401 0.944261 0.631175
O O13 0.906016 0.743169 0.629784
O O14 0.488835 0.375149 0.763436
O O15 0.557007 0.174911 0.524211
O O16 0.989643 0.487892 0.489974
#
# Coordination Sequence:
#
# PCOD9134631 Si02
#       8
#     4   4   4   4   4   4   4   4
#     4  10  20  41  61  91 128 172 211 271 338 399
#     4  10  20  39  70  88 123 177 221 260 334 399
#     4  11  23  39  61  97 137 163 217 286 334 397
#     4  11  20  39  68  90 125 180 215 269 346 391
#     4  10  19  38  66  91 128 164 227 275 317 414
#     4  10  19  39  67  90 128 174 217 276 335 399
#     4  12  24  40  67  96 135 173 216 284 341 397
#     4  10  21  39  64  95 122 169 228 263 321 418
#
# _framework density 24.356494000000001
#
# number of rings (size 3 to 8) (size 9 to 14) (size 15 to 20)
#    0.000    1.500    8.750    0.000    3.500    1.000 
#    2.250    1.250    0.000    0.000    0.000    0.000 
#    0.000    0.000    0.000    0.000    0.000    0.000 
#
# Total GULP energy -89325.010687 kJ/mol
# GULP energy per Si atom -5582.813168 kJ/mol
# Density = 2.430106 g / cm^3
# Si number density = 24.356494 Si / 1000 Ang^3
#
#
#
# Elastic Constant Matrix: (Units=GPa)
#
#
# Indices 1 2 3 4 5 6 
#
# 1 129.0431 54.0211 25.4033 0.0000 -20.4512 0.0000
# 2 54.0211 111.1297 14.3944 0.0000 -26.6363 0.0000
# 3 25.4033 14.3944 32.9922 0.0000 -7.6218 0.0000
# 4 0.0000 0.0000 0.0000 30.8613 0.0000 -13.9390
# 5 -20.4512 -26.6363 -7.6218 0.0000 39.5111 0.0000
# 6 0.0000 0.0000 0.0000 -13.9390 0.0000 1.1934
#
#
#
# Elastic Compliance Matrix: (Units=1/GPa)
#
#
# Indices 1 2 3 4 5 6 
#
# 1 0.010974 -0.004117 -0.006262 0.000000 0.001697 0.000000
# 2 -0.004117 0.012600 -0.000897 0.000000 0.006190 0.000000
# 3 -0.006262 -0.000897 0.036250 0.000000 0.003147 0.000000
# 4 0.000000 0.000000 0.000000 -0.007578 0.000000 -0.088520
# 5 0.001697 0.006190 0.003147 0.000000 0.030968 0.000000
# 6 0.000000 0.000000 0.000000 -0.088520 0.000000 -0.195986
#
#
# Mechanical properties :
#
#
# Convention : Reuss Voigt Hill
#
# Bulk Modulus (GPa) = 26.82969 51.20029 39.01499
# Shear Modulus (GPa) = -64.27059 26.26958 -19.00051
#
# Velocity S-wave (km/s) = -5.14245 3.28768 -2.79606
# Velocity P-wave (km/s) = 4.92142 5.95640 2.37259
#
# Compressibility (1/GPa) = 0.03727214
#
# Stress axis : x y z
#
# Youngs Moduli (GPa) = 91.12062 79.36733 27.58619
#
# Poissons Ratio (x) = 0.32675 0.17274
# Poissons Ratio (y) = 0.37514 0.02475
# Poissons Ratio (z) = 0.57058 0.07121
#
# Static dielectric constant tensor:
#      x y z
#    x 2.019800 0.000000 0.058990 
#    y 0.000000 2.011310 0.000000 
#    z 0.058990 0.000000 1.974470 
# 
# From -- ./inp_files/25508.got.cif
#   From: 2010.05.17/outbox.cif.g08.bks.cpg/sg9_13_cif.got.tgz:25508.got - 2010.06.03 20:04:27.
