data_PCOD9134616
_publ_section_title
;
Structure prediction by ZEFSAII (Michael W. Deem and Ramdas Pophale) SiO2 
 PCOD9134616
Probable space group: C C
;
_chemical_formula_sum "Si O2"
_cell_formula_units_Z 28
_cell_length_a 14.346123
_cell_length_b 7.517063
_cell_length_c 10.312270
_cell_angle_alpha 90.000000
_cell_angle_beta 91.668911
_cell_angle_gamma 90.000000
_cell_volume 1111.610788
_symmetry_space_group_name_H-M "C C"
_symmetry_group_IT_number 9
_symmetry_cell_setting 'monoclinic'
loop_
_space_group_symop_operation_xyz
x,y,z
x,-y,1/2+z
1/2+x,1/2+y,z
1/2+x,1/2-y,1/2+z
loop_
_atom_site_type_symbol
_atom_site_label
_atom_site_fract_x
_atom_site_fract_y
_atom_site_fract_z
Si Si1 0.885860 0.641103 0.856450
Si Si2 0.178810 0.236965 0.427879
Si Si3 0.219889 0.798180 0.209707
Si Si4 0.523309 0.994861 0.542211
Si Si5 0.510008 0.689792 0.726731
Si Si6 0.835613 0.999466 0.841570
Si Si7 0.546120 0.323495 0.689390
O O1 0.790761 0.575630 0.789577
O O2 0.858120 0.824919 0.931285
O O3 0.956770 0.730076 0.754999
O O4 0.938503 0.494225 0.939765
O O5 0.209022 0.138114 0.561280
O O6 0.618221 0.274062 0.270238
O O7 0.124655 0.154690 0.302898
O O8 0.100557 0.372325 0.480216
O O9 0.277041 0.609317 0.225542
O O10 0.022294 0.983457 0.133285
O O11 0.484243 0.873240 0.657814
O O12 0.569326 0.177827 0.584520
O O13 0.430878 0.605164 0.813797
O O14 0.764861 0.143449 0.889847
#
# Coordination Sequence:
#
# PCOD9134616 Si02
#       7
#     4   4   4   4   4   4   4
#     4   8  20  40  62  92 136 166 224 282 327 414
#     4  10  19  38  64  96 130 170 220 285 331 407
#     4   9  20  40  64  94 136 173 227 277 337 417
#     4  10  21  41  70  90 133 176 219 282 339 404
#     4  10  21  42  66  93 136 176 223 281 336 406
#     4   9  20  37  66  95 130 179 224 271 349 405
#     4  10  21  42  64  98 127 172 227 276 341 403
#
# _framework density 25.188673999999999
#
# number of rings (size 3 to 8) (size 9 to 14) (size 15 to 20)
#    0.857    1.714    0.000    1.714    2.000    0.000 
#    5.143   20.000    0.000    0.000    0.000    0.000 
#    0.000    0.000    0.000    0.000    0.000    0.000 
#
# Total GULP energy -78034.198777 kJ/mol
# GULP energy per Si atom -5573.871341 kJ/mol
# Density = 2.513134 g / cm^3
# Si number density = 25.188674 Si / 1000 Ang^3
#
#
#
# Elastic Constant Matrix: (Units=GPa)
#
#
# Indices 1 2 3 4 5 6 
#
# 1 149.7181 11.1490 41.4844 0.0000 26.0062 0.0000
# 2 11.1490 107.5699 19.3376 0.0000 7.1467 0.0000
# 3 41.4844 19.3376 65.9034 0.0000 30.0016 0.0000
# 4 0.0000 0.0000 0.0000 3.9919 0.0000 4.6886
# 5 26.0062 7.1467 30.0016 0.0000 29.8365 0.0000
# 6 0.0000 0.0000 0.0000 4.6886 0.0000 34.3068
#
#
#
# Elastic Compliance Matrix: (Units=1/GPa)
#
#
# Indices 1 2 3 4 5 6 
#
# 1 0.008301 0.000024 -0.003570 0.000000 -0.003651 0.000000
# 2 0.000024 0.009830 -0.003353 0.000000 0.000996 0.000000
# 3 -0.003570 -0.003353 0.030655 0.000000 -0.026910 0.000000
# 4 0.000000 0.000000 0.000000 0.298409 0.000000 -0.040783
# 5 -0.003651 0.000996 -0.026910 0.000000 0.063519 0.000000
# 6 0.000000 0.000000 0.000000 -0.040783 0.000000 0.034722
#
#
# Mechanical properties :
#
#
# Convention : Reuss Voigt Hill
#
# Bulk Modulus (GPa) = 28.58086 51.90371 40.24229
# Shear Modulus (GPa) = 10.61802 30.37507 20.49654
#
# Velocity S-wave (km/s) = 2.05537 3.47638 2.85567
# Velocity P-wave (km/s) = 4.12360 6.06336 5.18500
#
# Compressibility (1/GPa) = 0.03498845
#
# Stress axis : x y z
#
# Youngs Moduli (GPa) = 120.46974 101.72551 32.62086
#
# Poissons Ratio (x) = -0.00244 0.11646
# Poissons Ratio (y) = -0.00289 0.10938
# Poissons Ratio (z) = 0.43009 0.34108
#
# Static dielectric constant tensor:
#      x y z
#    x 2.025750 0.000000 -0.004880 
#    y 0.000000 2.010470 0.000000 
#    z -0.004880 0.000000 2.160950 
# 
# From -- ./inp_files/16184.got.cif
#   From: 2010.05.17/outbox.cif.g08.bks.cpg/sg9_9_cif.got.tgz:16184.got - 2010.06.03 20:04:27.
