data_PCOD9134577
_publ_section_title
;
Structure prediction by ZEFSAII (Michael W. Deem and Ramdas Pophale) SiO2 
 PCOD9134577
Probable space group: C C
;
_chemical_formula_sum "Si O2"
_cell_formula_units_Z 32
_cell_length_a 9.137342
_cell_length_b 9.992196
_cell_length_c 15.142408
_cell_angle_alpha 90.000000
_cell_angle_beta 64.485121
_cell_angle_gamma 90.000000
_cell_volume 1247.700087
_symmetry_space_group_name_H-M "C C"
_symmetry_group_IT_number 9
_symmetry_cell_setting 'monoclinic'
loop_
_space_group_symop_operation_xyz
x,y,z
x,-y,1/2+z
1/2+x,1/2+y,z
1/2+x,1/2-y,1/2+z
loop_
_atom_site_type_symbol
_atom_site_label
_atom_site_fract_x
_atom_site_fract_y
_atom_site_fract_z
Si Si1 0.200660 0.369556 0.908060
Si Si2 0.731457 0.035497 0.068997
Si Si3 0.049590 0.273923 0.729129
Si Si4 0.550658 0.535497 0.592808
Si Si5 0.723132 0.385182 0.324910
Si Si6 0.581455 0.369556 0.753744
Si Si7 0.232525 0.773923 0.932676
Si Si8 0.058983 0.614818 0.836894
O O1 0.135633 0.218411 0.915405
O O2 0.391057 0.370292 0.830902
O O3 0.124212 0.476329 0.859384
O O4 0.180930 0.422998 0.012049
O O5 0.595091 0.086605 0.172053
O O6 0.891058 1.000000 0.080902
O O7 0.764617 0.164507 0.999361
O O8 0.203388 0.212945 0.743793
O O9 0.891058 0.276032 0.830902
O O10 0.017498 0.164508 0.662444
O O11 0.601185 0.422998 0.649756
O O12 0.687024 0.586605 0.489751
O O13 0.657903 0.523671 0.302420
O O14 0.891058 0.406235 0.330902
O O15 0.646482 0.218411 0.746399
O O16 0.078727 0.712945 0.918012
#
# Coordination Sequence:
#
# PCOD9134577 Si02
#       8
#     4   4   4   4   4   4   4   4
#     4  10  21  38  63  93 125 169 219 270 330 395
#     4  10  19  37  68  96 127 176 226 273 334 404
#     4  10  22  39  63  97 133 173 223 279 338 400
#     4  10  19  37  68  96 127 176 226 273 334 404
#     4  10  20  36  60  90 126 169 216 266 327 394
#     4  10  21  38  63  93 125 169 219 270 330 395
#     4  10  22  39  63  97 133 173 223 279 338 400
#     4  10  20  36  60  90 126 169 216 266 327 394
#
# _framework density 25.647189999999998
#
# number of rings (size 3 to 8) (size 9 to 14) (size 15 to 20)
#    0.000    2.000    0.000    6.000    0.000    2.000 
#    0.000    1.250    0.000   64.500    0.000    7.000 
#    0.000    0.000    0.000    0.000    0.000    0.000 
#
# Total GULP energy -89489.460485 kJ/mol
# GULP energy per Si atom -5593.091280 kJ/mol
# Density = 2.558882 g / cm^3
# Si number density = 25.647190 Si / 1000 Ang^3
#
#
#
# Elastic Constant Matrix: (Units=GPa)
#
#
# Indices 1 2 3 4 5 6 
#
# 1 177.0408 66.9125 70.4453 0.0000 46.8336 0.0000
# 2 66.9125 145.3394 31.7315 0.0000 19.1372 0.0000
# 3 70.4453 31.7315 145.5436 0.0000 9.7824 0.0000
# 4 0.0000 0.0000 0.0000 47.6936 0.0000 8.9685
# 5 46.8336 19.1372 9.7824 0.0000 50.6407 0.0000
# 6 0.0000 0.0000 0.0000 8.9685 0.0000 38.6802
#
#
#
# Elastic Compliance Matrix: (Units=1/GPa)
#
#
# Indices 1 2 3 4 5 6 
#
# 1 0.010306 -0.002893 -0.003840 0.000000 -0.007696 0.000000
# 2 -0.002893 0.008351 -0.000393 0.000000 -0.000405 0.000000
# 3 -0.003840 -0.000393 0.008679 0.000000 0.002023 0.000000
# 4 0.000000 0.000000 0.000000 0.021923 0.000000 -0.005083
# 5 -0.007696 -0.000405 0.002023 0.000000 0.026626 0.000000
# 6 0.000000 0.000000 0.000000 -0.005083 0.000000 0.027032
#
#
# Mechanical properties :
#
#
# Convention : Reuss Voigt Hill
#
# Bulk Modulus (GPa) = 76.43183 89.56693 82.99938
# Shear Modulus (GPa) = 41.14179 47.32522 44.23351
#
# Velocity S-wave (km/s) = 4.00952 4.30029 4.15745
# Velocity P-wave (km/s) = 7.16247 7.72367 7.44836
#
# Compressibility (1/GPa) = 0.01308355
#
# Stress axis : x y z
#
# Youngs Moduli (GPa) = 97.03493 119.73976 115.21765
#
# Poissons Ratio (x) = 0.34639 0.44245
# Poissons Ratio (y) = 0.28071 0.04533
# Poissons Ratio (z) = 0.37262 0.04711
#
# Static dielectric constant tensor:
#      x y z
#    x 2.034520 0.000000 0.031310 
#    y 0.000000 2.088620 0.000000 
#    z 0.031310 0.000000 2.062720 
# 
# From -- ./inp_files/24354.got.cif
#   From: 2010.05.17/outbox.cif.g08.bks.cpg/sg9_13_cif.got.tgz:24354.got - 2010.06.03 20:04:27.
