data_PCOD9134009
_publ_section_title
;
Structure prediction by ZEFSAII (Michael W. Deem and Ramdas Pophale) SiO2 
 PCOD9134009
Probable space group: C C
;
_chemical_formula_sum "Si O2"
_cell_formula_units_Z 28
_cell_length_a 7.337246
_cell_length_b 15.048769
_cell_length_c 14.016700
_cell_angle_alpha 90.000000
_cell_angle_beta 137.553480
_cell_angle_gamma 90.000000
_cell_volume 1044.528707
_symmetry_space_group_name_H-M "C C"
_symmetry_group_IT_number 9
_symmetry_cell_setting 'monoclinic'
loop_
_space_group_symop_operation_xyz
x,y,z
x,-y,1/2+z
1/2+x,1/2+y,z
1/2+x,1/2-y,1/2+z
loop_
_atom_site_type_symbol
_atom_site_label
_atom_site_fract_x
_atom_site_fract_y
_atom_site_fract_z
Si Si1 0.456930 0.884450 0.562900
Si Si2 0.187071 0.893271 0.655055
Si Si3 0.489632 0.719208 0.819307
Si Si4 0.200421 0.291449 0.411783
Si Si5 0.737999 0.954288 0.189464
Si Si6 0.479528 0.612433 0.379183
Si Si7 0.281807 0.081228 0.675491
O O1 0.245256 0.908497 0.565366
O O2 0.713071 0.850448 0.722863
O O3 0.303371 0.808161 0.446217
O O4 0.572846 0.975349 0.560972
O O5 0.404920 0.818957 0.765086
O O6 0.895570 0.848477 0.556189
O O7 0.223262 0.991091 0.711191
O O8 0.352166 0.708208 0.869486
O O9 0.349407 0.641072 0.701322
O O10 0.192626 0.189004 0.438750
O O11 0.913486 0.339563 0.286075
O O12 0.526682 0.938950 0.194938
O O13 0.974458 0.015939 0.326319
O O14 0.520458 0.599586 0.508162
#
# Coordination Sequence:
#
# PCOD9134009 Si02
#       7
#     4   4   4   4   4   4   4
#     4   8  19  31  51  83 106 143 188 217 269 310
#     4  10  20  34  56  81 107 149 185 219 268 329
#     4  10  18  34  56  80 116 142 180 225 272 322
#     4  10  20  33  54  82 106 144 182 224 277 317
#     4   8  16  31  52  78 103 140 184 216 258 314
#     4  10  19  33  57  82 112 137 193 222 265 326
#     4  10  18  34  56  80 106 145 182 229 263 320
#
# _framework density 26.806349999999998
#
# number of rings (size 3 to 8) (size 9 to 14) (size 15 to 20)
#    0.857    1.714    0.000    5.143    0.000    1.143 
#    0.000    0.000    3.143    5.143    0.000    0.000 
#    0.000    0.000    0.000    0.000    0.000    0.000 
#
# Total GULP energy -78052.178862 kJ/mol
# GULP energy per Si atom -5575.155633 kJ/mol
# Density = 2.674534 g / cm^3
# Si number density = 26.806350 Si / 1000 Ang^3
#
#
#
# Elastic Constant Matrix: (Units=GPa)
#
#
# Indices 1 2 3 4 5 6 
#
# 1 44.1253 12.0444 18.7010 0.0002 -5.5253 0.0000
# 2 12.0444 153.9435 72.4628 -0.0002 9.9235 -0.0001
# 3 18.7010 72.4628 156.3467 0.0008 22.5959 0.0004
# 4 0.0002 -0.0002 0.0008 50.1172 0.0005 0.9087
# 5 -5.5253 9.9235 22.5959 0.0005 26.5744 0.0001
# 6 0.0000 -0.0001 0.0004 0.9087 0.0001 30.9270
#
#
#
# Elastic Compliance Matrix: (Units=1/GPa)
#
#
# Indices 1 2 3 4 5 6 
#
# 1 0.025707 -0.000680 -0.004069 0.000000 0.009059 0.000000
# 2 -0.000680 0.008327 -0.003772 0.000000 -0.000044 0.000000
# 3 -0.004069 -0.003772 0.009747 0.000000 -0.007726 0.000000
# 4 0.000000 0.000000 0.000000 0.019964 0.000000 -0.000587
# 5 0.009059 -0.000044 -0.007726 0.000000 0.046099 0.000000
# 6 0.000000 0.000000 0.000000 -0.000587 0.000000 0.032351
#
#
# Mechanical properties :
#
#
# Convention : Reuss Voigt Hill
#
# Bulk Modulus (GPa) = 37.39654 62.31467 49.85560
# Shear Modulus (GPa) = 29.73513 38.27087 34.00300
#
# Velocity S-wave (km/s) = 3.33416 3.78256 3.56542
# Velocity P-wave (km/s) = 5.36685 6.50951 5.96560
#
# Compressibility (1/GPa) = 0.02674044
#
# Stress axis : x y z
#
# Youngs Moduli (GPa) = 38.89971 120.08595 102.59089
#
# Poissons Ratio (x) = 0.08165 0.41744
# Poissons Ratio (y) = 0.02645 0.38696
# Poissons Ratio (z) = 0.15828 0.45295
#
# Static dielectric constant tensor:
#      x y z
#    x 2.159920 0.000000 0.013070 
#    y 0.000000 2.239390 0.000000 
#    z 0.013070 0.000000 2.143240 
# 
# From -- ./inp_files/33388.got.cif
#   From: 2010.05.17/outbox.cif.g08.bks.cpg/sg9_17_cif.got.tgz:33388.got - 2010.06.03 20:04:27.
