data_PCOD9134330
_publ_section_title
;
Structure prediction by ZEFSAII (Michael W. Deem and Ramdas Pophale) SiO2 
 PCOD9134330
Probable space group: C C
;
_chemical_formula_sum "Si O2"
_cell_formula_units_Z 28
_cell_length_a 15.762993
_cell_length_b 14.116249
_cell_length_c 7.965675
_cell_angle_alpha 90.000000
_cell_angle_beta 143.382112
_cell_angle_gamma 90.000000
_cell_volume 1057.239007
_symmetry_space_group_name_H-M "C C"
_symmetry_group_IT_number 9
_symmetry_cell_setting 'monoclinic'
loop_
_space_group_symop_operation_xyz
x,y,z
x,-y,1/2+z
1/2+x,1/2+y,z
1/2+x,1/2-y,1/2+z
loop_
_atom_site_type_symbol
_atom_site_label
_atom_site_fract_x
_atom_site_fract_y
_atom_site_fract_z
Si Si1 0.609710 0.046564 0.688670
Si Si2 0.569176 0.553923 0.822325
Si Si3 0.340323 0.160014 0.386185
Si Si4 0.956343 0.788626 0.307771
Si Si5 0.720194 0.225478 0.964722
Si Si6 0.668111 0.622659 0.624174
Si Si7 0.501411 0.119927 0.165916
O O1 0.475275 0.092968 0.574056
O O2 0.734916 0.112927 0.962534
O O3 0.582751 0.076798 0.455987
O O4 0.588385 0.934205 0.661875
O O5 0.704939 0.594211 0.140707
O O6 0.442705 0.603801 0.725740
O O7 0.586590 0.441540 0.856538
O O8 0.589715 0.594460 0.669712
O O9 0.335427 0.238588 0.227298
O O10 0.343976 0.214440 0.569470
O O11 0.089311 0.761258 0.638795
O O12 0.990394 0.730436 0.191337
O O13 0.681679 0.269422 0.082802
O O14 0.834298 0.592651 0.899951
#
# Coordination Sequence:
#
# PCOD9134330 Si02
#       7
#     4   4   4   4   4   4   4
#     4  10  20  34  54  87 108 146 178 233 278 332
#     4  11  20  33  57  84 118 139 191 231 284 326
#     4   9  16  35  53  77 113 146 181 226 283 325
#     4   9  20  36  53  84 110 154 176 239 278 332
#     4   9  21  33  54  81 118 144 184 229 288 325
#     4  12  20  35  58  90 108 148 185 245 273 329
#     4  10  19  34  57  83 111 137 189 227 280 317
#
# _framework density 26.484078
#
# number of rings (size 3 to 8) (size 9 to 14) (size 15 to 20)
#    0.000    2.286    4.286    1.714    2.000    1.143 
#    2.571    0.000    0.000   15.429   14.857    0.000 
#    0.000    0.000    0.000    0.000    0.000    0.000 
#
# Total GULP energy -78083.168724 kJ/mol
# GULP energy per Si atom -5577.369195 kJ/mol
# Density = 2.642380 g / cm^3
# Si number density = 26.484078 Si / 1000 Ang^3
#
#
#
# Elastic Constant Matrix: (Units=GPa)
#
#
# Indices 1 2 3 4 5 6 
#
# 1 42.1924 12.9229 7.0212 0.0000 -2.3759 0.0000
# 2 12.9229 102.8824 9.3609 0.0000 -13.5465 0.0000
# 3 7.0212 9.3609 36.1510 0.0000 -9.6320 0.0000
# 4 0.0000 0.0000 0.0000 17.9805 0.0000 -0.7006
# 5 -2.3759 -13.5465 -9.6320 0.0000 32.7784 0.0000
# 6 0.0000 0.0000 0.0000 -0.7006 0.0000 37.4243
#
#
#
# Elastic Compliance Matrix: (Units=1/GPa)
#
#
# Indices 1 2 3 4 5 6 
#
# 1 0.025263 -0.002861 -0.004332 0.000000 -0.000624 0.000000
# 2 -0.002861 0.010696 -0.001184 0.000000 0.003865 0.000000
# 3 -0.004332 -0.001184 0.031025 0.000000 0.008313 0.000000
# 4 0.000000 0.000000 0.000000 0.055657 0.000000 0.001042
# 5 -0.000624 0.003865 0.008313 0.000000 0.034503 0.000000
# 6 0.000000 0.000000 0.000000 0.001042 0.000000 0.026740
#
#
# Mechanical properties :
#
#
# Convention : Reuss Voigt Hill
#
# Bulk Modulus (GPa) = 19.90889 26.64844 23.27867
# Shear Modulus (GPa) = 23.00110 27.76468 25.38289
#
# Velocity S-wave (km/s) = 2.95021 3.24134 3.09920
# Velocity P-wave (km/s) = 4.37477 4.90839 4.64924
#
# Compressibility (1/GPa) = 0.05022881
#
# Stress axis : x y z
#
# Youngs Moduli (GPa) = 39.58348 93.49399 32.23241
#
# Poissons Ratio (x) = 0.26752 0.13963
# Poissons Ratio (y) = 0.11326 0.03817
# Poissons Ratio (z) = 0.17148 0.11070
#
# Static dielectric constant tensor:
#      x y z
#    x 2.173000 0.000000 0.034130 
#    y 0.000000 2.176660 0.000000 
#    z 0.034130 0.000000 2.135590 
# 
# From -- ./inp_files/11694.got.cif
#   From: 2010.05.17/outbox.cif.g08.bks.cpg/sg9_6_cif.got.tgz:11694.got - 2010.06.03 20:04:27.
