data_PCOD9134027
_publ_section_title
;
Structure prediction by ZEFSAII (Michael W. Deem and Ramdas Pophale) SiO2 
 PCOD9134027
Probable space group: C C
;
_chemical_formula_sum "Si O2"
_cell_formula_units_Z 28
_cell_length_a 13.560334
_cell_length_b 16.503881
_cell_length_c 5.115213
_cell_angle_alpha 90.000000
_cell_angle_beta 73.558605
_cell_angle_gamma 90.000000
_cell_volume 1097.964993
_symmetry_space_group_name_H-M "C C"
_symmetry_group_IT_number 9
_symmetry_cell_setting 'monoclinic'
loop_
_space_group_symop_operation_xyz
x,y,z
x,-y,1/2+z
1/2+x,1/2+y,z
1/2+x,1/2-y,1/2+z
loop_
_atom_site_type_symbol
_atom_site_label
_atom_site_fract_x
_atom_site_fract_y
_atom_site_fract_z
Si Si1 0.872380 0.711726 0.259130
Si Si2 0.569329 0.166587 0.334950
Si Si3 0.201901 0.661161 0.727593
Si Si4 0.868742 0.049517 0.397371
Si Si5 0.585399 0.400990 0.756808
Si Si6 0.876653 0.388660 0.232525
Si Si7 0.676678 0.578543 0.692581
O O1 0.795512 0.778622 0.217199
O O2 0.987264 0.598896 0.512057
O O3 0.990488 0.729432 0.253535
O O4 0.881831 0.642730 0.023848
O O5 0.625699 0.192028 0.558288
O O6 0.332769 0.182187 0.573769
O O7 0.644577 0.141793 0.043294
O O8 0.259092 0.585422 0.551987
O O9 0.965014 0.108045 0.389439
O O10 0.879948 0.026019 0.086781
O O11 0.607790 0.497794 0.703623
O O12 0.624677 0.368227 0.454815
O O13 0.660929 0.376390 0.931100
O O14 0.786314 0.450936 0.229434
#
# Coordination Sequence:
#
# PCOD9134027 Si02
#       7
#     4   4   4   4   4   4   4
#     4  10  22  43  62  99 126 165 217 257 314 400
#     4  10  22  44  63  90 135 166 211 266 306 382
#     4  12  24  43  71  89 130 179 203 271 331 366
#     4  12  23  44  64  92 129 164 223 269 315 385
#     4  10  19  36  58  91 129 156 207 266 317 364
#     4  10  20  40  65  90 134 163 209 254 319 388
#     4  10  18  34  61  85 123 173 188 253 332 349
#
# _framework density 25.501721
#
# number of rings (size 3 to 8) (size 9 to 14) (size 15 to 20)
#    0.857    0.571    4.286    2.571    0.000    0.000 
#    7.714    0.000   18.857    0.000    0.000    0.000 
#    0.000    0.000    0.000    0.000    0.000    0.000 
#
# Total GULP energy -78055.570874 kJ/mol
# GULP energy per Si atom -5575.397920 kJ/mol
# Density = 2.544368 g / cm^3
# Si number density = 25.501721 Si / 1000 Ang^3
#
#
#
# Elastic Constant Matrix: (Units=GPa)
#
#
# Indices 1 2 3 4 5 6 
#
# 1 124.9835 13.2024 37.8651 0.0000 5.6647 0.0000
# 2 13.2024 18.0002 5.1381 0.0000 -1.3494 0.0000
# 3 37.8651 5.1381 174.2267 0.0000 2.4546 0.0000
# 4 0.0000 0.0000 0.0000 9.8067 0.0000 1.6305
# 5 5.6647 -1.3494 2.4546 0.0000 63.9464 0.0000
# 6 0.0000 0.0000 0.0000 1.6305 0.0000 26.5874
#
#
#
# Elastic Compliance Matrix: (Units=1/GPa)
#
#
# Indices 1 2 3 4 5 6 
#
# 1 0.009260 -0.006341 -0.001813 0.000000 -0.000885 0.000000
# 2 -0.006341 0.060468 -0.000431 0.000000 0.001854 0.000000
# 3 -0.001813 -0.000431 0.006148 0.000000 -0.000084 0.000000
# 4 0.000000 0.000000 0.000000 0.103022 0.000000 -0.006318
# 5 -0.000885 0.001854 -0.000084 0.000000 0.015759 0.000000
# 6 0.000000 0.000000 0.000000 -0.006318 0.000000 0.037999
#
#
# Mechanical properties :
#
#
# Convention : Reuss Voigt Hill
#
# Bulk Modulus (GPa) = 17.03430 47.73574 32.38502
# Shear Modulus (GPa) = 18.56018 37.46843 28.01431
#
# Velocity S-wave (km/s) = 2.70071 3.83724 3.31800
# Velocity P-wave (km/s) = 4.05207 6.19611 5.23503
#
# Compressibility (1/GPa) = 0.05870509
#
# Stress axis : x y z
#
# Youngs Moduli (GPa) = 107.98861 16.53779 162.66510
#
# Poissons Ratio (x) = 0.10486 0.29493
# Poissons Ratio (y) = 0.68473 0.07016
# Poissons Ratio (z) = 0.19579 0.00713
#
# Static dielectric constant tensor:
#      x y z
#    x 2.139740 0.000000 -0.105140 
#    y 0.000000 2.247300 0.000000 
#    z -0.105140 0.000000 2.112740 
# 
# From -- ./inp_files/1770.got.cif
#   From: 2010.05.17/outbox.cif.g08.bks.cpg/sg9_1_cif.got.tgz:1770.got - 2010.06.03 20:04:27.
