data_PCOD9134849
_publ_section_title
;
Structure prediction by ZEFSAII (Michael W. Deem and Ramdas Pophale) SiO2 
 PCOD9134849
Probable space group: C C
;
_chemical_formula_sum "Si O2"
_cell_formula_units_Z 28
_cell_length_a 24.901911
_cell_length_b 12.624481
_cell_length_c 5.377201
_cell_angle_alpha 90.000000
_cell_angle_beta 50.280643
_cell_angle_gamma 90.000000
_cell_volume 1300.267050
_symmetry_space_group_name_H-M "C C"
_symmetry_group_IT_number 9
_symmetry_cell_setting 'monoclinic'
loop_
_space_group_symop_operation_xyz
x,y,z
x,-y,1/2+z
1/2+x,1/2+y,z
1/2+x,1/2-y,1/2+z
loop_
_atom_site_type_symbol
_atom_site_label
_atom_site_fract_x
_atom_site_fract_y
_atom_site_fract_z
Si Si1 0.351450 0.544177 0.245570
Si Si2 0.031027 0.651020 0.404811
Si Si3 0.918654 0.465353 0.735890
Si Si4 0.050141 0.069514 0.365543
Si Si5 0.194403 0.459428 0.769426
Si Si6 0.112689 0.717293 0.663115
Si Si7 0.932194 0.769249 0.374876
O O1 0.382818 0.524102 0.425288
O O2 0.272036 0.504362 0.507259
O O3 0.362365 0.665221 0.135657
O O4 0.066436 0.680257 0.561164
O O5 0.990324 0.537818 0.522586
O O6 0.968874 0.734584 0.524491
O O7 0.080323 0.671702 0.016635
O O8 0.881396 0.493983 0.592618
O O9 0.926910 0.340212 0.742187
O O10 0.112223 0.156573 0.180197
O O11 0.983757 0.147986 0.589670
O O12 0.051021 0.997307 0.609743
O O13 0.160851 0.476494 0.598183
O O14 0.185847 0.339728 0.886027
#
# Coordination Sequence:
#
# PCOD9134849 Si02
#       7
#     4   4   4   4   4   4   4
#     4  10  22  39  57  83 112 148 195 243 290 337
#     4  10  21  34  53  86 119 151 186 223 293 361
#     4  10  20  32  48  78 114 147 184 217 270 350
#     4  11  22  34  49  79 113 148 186 219 285 357
#     4  10  22  38  59  86 110 143 196 248 290 331
#     4  11  22  36  56  80 116 155 187 240 287 339
#     4  10  21  35  56  80 118 156 184 234 289 349
#
# _framework density 21.534037000000001
#
# number of rings (size 3 to 8) (size 9 to 14) (size 15 to 20)
#    0.000    1.714    0.000    6.000    0.000   14.857 
#    0.000    0.000    0.000    0.000    0.000   48.000 
#    0.000    0.000    0.000    0.000    0.000    0.000 
#
# Total GULP energy -78037.231167 kJ/mol
# GULP energy per Si atom -5574.087941 kJ/mol
# Density = 2.148502 g / cm^3
# Si number density = 21.534037 Si / 1000 Ang^3
#
#
#
# Elastic Constant Matrix: (Units=GPa)
#
#
# Indices 1 2 3 4 5 6 
#
# 1 51.8763 35.3377 52.8822 0.0000 21.6204 0.0000
# 2 35.3377 189.1673 78.5635 0.0000 3.6012 0.0000
# 3 52.8822 78.5635 115.3230 0.0000 48.2249 0.0000
# 4 0.0000 0.0000 0.0000 52.9536 0.0000 1.1655
# 5 21.6204 3.6012 48.2249 0.0000 48.8894 0.0000
# 6 0.0000 0.0000 0.0000 1.1655 0.0000 32.4218
#
#
#
# Elastic Compliance Matrix: (Units=1/GPa)
#
#
# Indices 1 2 3 4 5 6 
#
# 1 0.036225 0.000407 -0.017323 0.000000 0.001037 0.000000
# 2 0.000407 0.009451 -0.010654 0.000000 0.009632 0.000000
# 3 -0.017323 -0.010654 0.034622 0.000000 -0.025706 0.000000
# 4 0.000000 0.000000 0.000000 0.018899 0.000000 -0.000679
# 5 0.001037 0.009632 -0.025706 0.000000 0.044643 0.000000
# 6 0.000000 0.000000 0.000000 -0.000679 0.000000 0.030868
#
#
# Mechanical properties :
#
#
# Convention : Reuss Voigt Hill
#
# Bulk Modulus (GPa) = 39.74386 76.65926 58.20156
# Shear Modulus (GPa) = 20.98775 39.49184 30.23980
#
# Velocity S-wave (km/s) = 3.12530 4.28708 3.75144
# Velocity P-wave (km/s) = 5.61424 7.75770 6.77132
#
# Compressibility (1/GPa) = 0.02516112
#
# Stress axis : x y z
#
# Youngs Moduli (GPa) = 27.60488 105.80428 28.88322
#
# Poissons Ratio (x) = -0.04311 0.50034
# Poissons Ratio (y) = -0.01125 0.30771
# Poissons Ratio (z) = 0.47819 1.12720
#
# Static dielectric constant tensor:
#      x y z
#    x 2.088560 0.000000 -0.027260 
#    y 0.000000 1.807650 0.000000 
#    z -0.027260 0.000000 1.866000 
# 
# From -- ./inp_files/3472.got.cif
#   From: 2010.05.17/outbox.cif.g08.bks.cpg/sg9_2_cif.got.tgz:3472.got - 2010.06.03 20:04:27.
