data_PCOD9134398
_publ_section_title
;
Structure prediction by ZEFSAII (Michael W. Deem and Ramdas Pophale) SiO2 
 PCOD9134398
Probable space group: C C
;
_chemical_formula_sum "Si O2"
_cell_formula_units_Z 32
_cell_length_a 8.150363
_cell_length_b 16.981796
_cell_length_c 19.756500
_cell_angle_alpha 90.000000
_cell_angle_beta 146.267563
_cell_angle_gamma 90.000000
_cell_volume 1518.484092
_symmetry_space_group_name_H-M "C C"
_symmetry_group_IT_number 9
_symmetry_cell_setting 'monoclinic'
loop_
_space_group_symop_operation_xyz
x,y,z
x,-y,1/2+z
1/2+x,1/2+y,z
1/2+x,1/2-y,1/2+z
loop_
_atom_site_type_symbol
_atom_site_label
_atom_site_fract_x
_atom_site_fract_y
_atom_site_fract_z
Si Si1 0.802530 0.834816 0.287950
Si Si2 0.269329 0.150138 0.701226
Si Si3 0.451622 0.707069 0.335087
Si Si4 0.248982 0.630232 0.126155
Si Si5 0.373023 0.272750 0.958486
Si Si6 0.504131 0.870787 0.044932
Si Si7 0.564907 0.480672 0.210694
Si Si8 0.695844 0.523681 0.914973
O O1 0.555527 0.821350 0.258551
O O2 0.637356 0.839825 0.159896
O O3 0.070371 0.772482 0.374414
O O4 0.923006 0.923006 0.342511
O O5 0.291064 0.207823 0.772875
O O6 0.990034 0.170173 0.557819
O O7 0.275173 0.060928 0.728843
O O8 0.329595 0.658067 0.229206
O O9 0.368105 0.686423 0.383842
O O10 0.809174 0.700877 0.448641
O O11 0.491263 0.572804 0.175733
O O12 0.126630 0.704302 0.042664
O O13 0.974250 0.571824 0.037150
O O14 0.774417 0.922343 0.106148
O O15 0.245071 0.936801 0.959611
O O16 0.683047 0.476463 0.328424
#
# Coordination Sequence:
#
# PCOD9134398 Si02
#       8
#     4   4   4   4   4   4   4   4
#     4  10  21  40  60  87 131 167 207 274 320 383
#     4  11  23  37  63  93 127 166 217 266 329 381
#     4  11  20  37  62  89 121 166 216 260 320 388
#     4   9  19  36  63  90 118 166 214 263 321 382
#     4  10  22  41  62  92 132 166 218 266 324 396
#     4  10  19  35  63  86 117 168 209 255 320 386
#     4  10  20  37  62  89 122 164 218 264 320 389
#     4   9  18  37  61  86 118 161 213 256 322 383
#
# _framework density 21.073647999999999
#
# number of rings (size 3 to 8) (size 9 to 14) (size 15 to 20)
#    0.000    2.000    2.500    2.250    1.750    0.000 
#    2.250    3.750    5.500    0.000    0.000    0.000 
#    0.000    0.000    0.000    0.000    0.000    0.000 
#
# Total GULP energy -89071.520699 kJ/mol
# GULP energy per Si atom -5566.970044 kJ/mol
# Density = 2.102568 g / cm^3
# Si number density = 21.073648 Si / 1000 Ang^3
#
#
#
# Elastic Constant Matrix: (Units=GPa)
#
#
# Indices 1 2 3 4 5 6 
#
# 1 61.6753 27.1369 25.0729 0.0004 3.2437 0.0003
# 2 27.1369 80.9350 27.4805 -0.0001 -5.8529 0.0007
# 3 25.0729 27.4805 109.3589 -0.0003 -2.6479 0.0023
# 4 0.0004 -0.0001 -0.0003 30.5321 0.0004 1.4275
# 5 3.2437 -5.8529 -2.6479 0.0004 14.7828 -0.0001
# 6 0.0003 0.0007 0.0023 1.4275 -0.0001 33.6455
#
#
#
# Elastic Compliance Matrix: (Units=1/GPa)
#
#
# Indices 1 2 3 4 5 6 
#
# 1 0.020791 -0.006391 -0.003347 0.000000 -0.007692 0.000000
# 2 -0.006391 0.015815 -0.002333 0.000000 0.007246 0.000000
# 3 -0.003347 -0.002333 0.010539 0.000000 0.001698 -0.000001
# 4 0.000000 0.000000 0.000000 0.032817 -0.000001 -0.001392
# 5 -0.007692 0.007246 0.001698 -0.000001 0.072507 0.000000
# 6 0.000000 0.000000 -0.000001 -0.001392 0.000000 0.029781
#
#
# Mechanical properties :
#
#
# Convention : Reuss Voigt Hill
#
# Bulk Modulus (GPa) = 43.47413 45.70555 44.58984
# Shear Modulus (GPa) = 23.35793 27.27734 25.31764
#
# Velocity S-wave (km/s) = 3.33287 3.60165 3.46987
# Velocity P-wave (km/s) = 5.95694 6.24752 6.10396
#
# Compressibility (1/GPa) = 0.02300219
#
# Stress axis : x y z
#
# Youngs Moduli (GPa) = 48.09735 63.23253 94.88507
#
# Poissons Ratio (x) = 0.40411 0.31759
# Poissons Ratio (y) = 0.30739 0.22140
# Poissons Ratio (z) = 0.16099 0.14754
#
# Static dielectric constant tensor:
#      x y z
#    x 1.760260 0.000020 0.038670 
#    y 0.000020 2.187180 0.000010 
#    z 0.038670 0.000010 1.787690 
# 
# From -- ./inp_files/15109.got.cif
#   From: 2010.05.17/outbox.cif.g08.bks.cpg/sg9_8_cif.got.tgz:15109.got - 2010.06.03 20:04:27.
