data_PCOD9134570
_publ_section_title
;
Structure prediction by ZEFSAII (Michael W. Deem and Ramdas Pophale) SiO2 
 PCOD9134570
Probable space group: C C
;
_chemical_formula_sum "Si O2"
_cell_formula_units_Z 32
_cell_length_a 12.328592
_cell_length_b 17.318648
_cell_length_c 9.302847
_cell_angle_alpha 90.000000
_cell_angle_beta 120.994257
_cell_angle_gamma 90.000000
_cell_volume 1702.688067
_symmetry_space_group_name_H-M "C C"
_symmetry_group_IT_number 9
_symmetry_cell_setting 'monoclinic'
loop_
_space_group_symop_operation_xyz
x,y,z
x,-y,1/2+z
1/2+x,1/2+y,z
1/2+x,1/2-y,1/2+z
loop_
_atom_site_type_symbol
_atom_site_label
_atom_site_fract_x
_atom_site_fract_y
_atom_site_fract_z
Si Si1 0.155570 0.343303 0.709280
Si Si2 0.883597 0.588270 0.056164
Si Si3 0.504632 0.538168 0.050229
Si Si4 0.083155 0.820760 0.060352
Si Si5 0.491395 0.681470 0.829476
Si Si6 0.247190 0.249880 0.038475
Si Si7 0.393724 0.590508 0.274765
Si Si8 0.266077 0.962143 0.187864
O O1 0.123996 0.267718 0.594445
O O2 0.245185 0.398121 0.679386
O O3 0.028017 0.384652 0.674592
O O4 0.235806 0.309964 0.898758
O O5 0.800009 0.665465 0.028234
O O6 0.835199 0.516668 0.119569
O O7 0.860751 0.562644 0.877317
O O8 0.492574 0.605646 0.925578
O O9 0.434434 0.466626 0.929653
O O10 0.443863 0.560362 0.158739
O O11 0.650603 0.514223 0.170274
O O12 0.192194 0.882856 0.093435
O O13 0.037879 0.834280 0.196172
O O14 0.969860 0.832510 0.870931
O O15 0.351802 0.717940 0.719696
O O16 0.599528 0.736009 0.973674
#
# Coordination Sequence:
#
# PCOD9134570 Si02
#       8
#     4   4   4   4   4   4   4   4
#     4  11  22  39  66  89 126 169 213 258 320 385
#     4  12  22  38  64  92 127 163 213 260 323 384
#     4  11  23  40  65  90 122 165 213 264 315 382
#     4  10  19  37  67  87 116 166 211 258 310 383
#     4  11  20  40  68  95 122 164 219 266 317 386
#     4  11  20  39  70  92 118 169 216 261 315 389
#     4  11  23  39  61  91 121 163 214 258 312 385
#     4  11  21  38  61  94 120 159 209 263 314 382
#
# _framework density 18.793813
#
# number of rings (size 3 to 8) (size 9 to 14) (size 15 to 20)
#    0.000    1.000    7.500    3.000    0.000    1.000 
#    2.250    0.000    0.000    0.000    0.000    0.000 
#    0.000    0.000    0.000    0.000    0.000    0.000 
#
# Total GULP energy -89226.321493 kJ/mol
# GULP energy per Si atom -5576.645093 kJ/mol
# Density = 1.875104 g / cm^3
# Si number density = 18.793813 Si / 1000 Ang^3
#
#
#
# Elastic Constant Matrix: (Units=GPa)
#
#
# Indices 1 2 3 4 5 6 
#
# 1 84.0344 29.9637 23.1632 0.0000 20.9861 0.0000
# 2 29.9637 53.2797 14.7534 0.0000 13.1848 0.0000
# 3 23.1632 14.7534 55.1408 0.0000 20.0608 0.0000
# 4 0.0000 0.0000 0.0000 25.2722 0.0000 -6.8576
# 5 20.9861 13.1848 20.0608 0.0000 25.6018 0.0000
# 6 0.0000 0.0000 0.0000 -6.8576 0.0000 10.8468
#
#
#
# Elastic Compliance Matrix: (Units=1/GPa)
#
#
# Indices 1 2 3 4 5 6 
#
# 1 0.017146 -0.006860 -0.002153 0.000000 -0.008835 0.000000
# 2 -0.006860 0.024487 -0.001578 0.000000 -0.005751 0.000000
# 3 -0.002153 -0.001578 0.025911 0.000000 -0.017726 0.000000
# 4 0.000000 0.000000 0.000000 0.047763 0.000000 0.030197
# 5 -0.008835 -0.005751 -0.017726 0.000000 0.063153 0.000000
# 6 0.000000 0.000000 0.000000 0.030197 0.000000 0.111285
#
#
# Mechanical properties :
#
#
# Convention : Reuss Voigt Hill
#
# Bulk Modulus (GPa) = 21.56926 36.46839 29.01883
# Shear Modulus (GPa) = 15.31962 20.64913 17.98437
#
# Velocity S-wave (km/s) = 2.85817 3.31829 3.09679
# Velocity P-wave (km/s) = 4.73221 5.84192 5.31610
#
# Compressibility (1/GPa) = 0.04636228
#
# Stress axis : x y z
#
# Youngs Moduli (GPa) = 58.32383 40.83813 38.59421
#
# Poissons Ratio (x) = 0.28015 0.08309
# Poissons Ratio (y) = 0.40011 0.06089
# Poissons Ratio (z) = 0.12556 0.06443
#
# Static dielectric constant tensor:
#      x y z
#    x 1.673440 0.000000 0.030800 
#    y 0.000000 1.695220 0.000000 
#    z 0.030800 0.000000 1.645550 
# 
# From -- ./inp_files/8055.got.cif
#   From: 2010.05.17/outbox.cif.g08.bks.cpg/sg9_5_cif.got.tgz:8055.got - 2010.06.03 20:04:27.
