data_PCOD9134013
_publ_section_title
;
Structure prediction by ZEFSAII (Michael W. Deem and Ramdas Pophale) SiO2 
 PCOD9134013
Probable space group: C C
;
_chemical_formula_sum "Si O2"
_cell_formula_units_Z 32
_cell_length_a 10.454549
_cell_length_b 18.426558
_cell_length_c 8.751390
_cell_angle_alpha 90.000000
_cell_angle_beta 113.629181
_cell_angle_gamma 90.000000
_cell_volume 1544.533295
_symmetry_space_group_name_H-M "C C"
_symmetry_group_IT_number 9
_symmetry_cell_setting 'monoclinic'
loop_
_space_group_symop_operation_xyz
x,y,z
x,-y,1/2+z
1/2+x,1/2+y,z
1/2+x,1/2-y,1/2+z
loop_
_atom_site_type_symbol
_atom_site_label
_atom_site_fract_x
_atom_site_fract_y
_atom_site_fract_z
Si Si1 0.698290 0.272441 0.385280
Si Si2 0.625985 0.561744 0.271110
Si Si3 0.895219 0.942844 0.915290
Si Si4 0.198722 0.659667 0.143383
Si Si5 0.811416 0.531135 0.625648
Si Si6 0.900878 0.399349 0.464219
Si Si7 0.383637 0.395573 0.476089
Si Si8 0.903262 0.825207 0.169779
O O1 0.740518 0.233429 0.247015
O O2 0.761901 0.352283 0.421393
O O3 0.774566 0.223576 0.549421
O O4 0.531863 0.277719 0.295171
O O5 0.505782 0.538646 0.334608
O O6 0.746626 0.577966 0.454230
O O7 0.693589 0.504742 0.183404
O O8 0.539297 0.617135 0.122383
O O9 0.760508 0.906345 0.774029
O O10 0.949563 0.879275 0.054407
O O11 0.861063 0.017955 0.980812
O O12 0.274098 0.650189 0.019527
O O13 0.033963 0.650534 0.056266
O O14 0.890455 0.465976 0.576985
O O15 0.904637 0.573492 0.791469
O O16 0.365992 0.376085 0.292700
#
# Coordination Sequence:
#
# PCOD9134013 Si02
#       8
#     4   4   4   4   4   4   4   4
#     4  11  23  45  66  87 131 179 214 254 323 393
#     4  10  18  34  57  98 124 153 207 250 332 364
#     4  10  21  37  68  96 127 162 208 277 323 368
#     4  10  24  42  60  94 127 176 212 252 329 389
#     4  10  22  36  64 100 124 162 204 271 326 383
#     4  11  23  44  65  92 133 165 216 262 329 386
#     4  11  22  39  66  98 124 160 221 276 314 378
#     4  11  23  43  68  95 128 175 216 264 320 387
#
# _framework density 20.718232
#
# number of rings (size 3 to 8) (size 9 to 14) (size 15 to 20)
#    0.000    1.500    2.500    3.000    5.250    0.000 
#    2.250    3.750    0.000    0.000    0.000    0.000 
#    0.000    0.000    0.000    0.000    0.000    0.000 
#
# Total GULP energy -89180.545976 kJ/mol
# GULP energy per Si atom -5573.784124 kJ/mol
# Density = 2.067108 g / cm^3
# Si number density = 20.718232 Si / 1000 Ang^3
#
#
#
# Elastic Constant Matrix: (Units=GPa)
#
#
# Indices 1 2 3 4 5 6 
#
# 1 30.4369 -9.3422 15.6297 0.0000 12.1197 0.0000
# 2 -9.3422 45.3555 20.5368 0.0000 1.6054 0.0000
# 3 15.6297 20.5368 126.9208 0.0000 -1.1530 0.0000
# 4 0.0000 0.0000 0.0000 22.6310 0.0000 3.4725
# 5 12.1197 1.6054 -1.1530 0.0000 26.0005 0.0000
# 6 0.0000 0.0000 0.0000 3.4725 0.0000 11.6394
#
#
#
# Elastic Compliance Matrix: (Units=1/GPa)
#
#
# Indices 1 2 3 4 5 6 
#
# 1 0.052998 0.016081 -0.009366 0.000000 -0.026113 0.000000
# 2 0.016081 0.028741 -0.006718 0.000000 -0.009569 0.000000
# 3 -0.009366 -0.006718 0.010167 0.000000 0.005231 0.000000
# 4 0.000000 0.000000 0.000000 0.046307 0.000000 -0.013815
# 5 -0.026113 -0.009569 0.005231 0.000000 0.051456 0.000000
# 6 0.000000 0.000000 0.000000 -0.013815 0.000000 0.090037
#
#
# Mechanical properties :
#
#
# Convention : Reuss Voigt Hill
#
# Bulk Modulus (GPa) = 10.88121 28.48464 19.68293
# Shear Modulus (GPa) = 16.11120 23.78011 19.94565
#
# Velocity S-wave (km/s) = 2.79163 3.39158 3.10612
# Velocity P-wave (km/s) = 3.95656 5.39588 4.73127
#
# Compressibility (1/GPa) = 0.09190155
#
# Stress axis : x y z
#
# Youngs Moduli (GPa) = 18.86862 34.79359 98.35946
#
# Poissons Ratio (x) = -0.55953 0.92121
# Poissons Ratio (y) = -0.30343 0.66076
# Poissons Ratio (z) = 0.17672 0.23374
#
# Static dielectric constant tensor:
#      x y z
#    x 1.737540 0.000000 0.029080 
#    y 0.000000 1.729560 0.000000 
#    z 0.029080 0.000000 1.780680 
# 
# From -- ./inp_files/8036.got.cif
#   From: 2010.05.17/outbox.cif.g08.bks.cpg/sg9_5_cif.got.tgz:8036.got - 2010.06.03 20:04:27.
