data_PCOD9134871
_publ_section_title
;
Structure prediction by ZEFSAII (Michael W. Deem and Ramdas Pophale) SiO2 
 PCOD9134871
Probable space group: C C
;
_chemical_formula_sum "Si O2"
_cell_formula_units_Z 32
_cell_length_a 19.327220
_cell_length_b 13.990092
_cell_length_c 8.339990
_cell_angle_alpha 90.000000
_cell_angle_beta 48.376928
_cell_angle_gamma 90.000000
_cell_volume 1685.716397
_symmetry_space_group_name_H-M "C C"
_symmetry_group_IT_number 9
_symmetry_cell_setting 'monoclinic'
loop_
_space_group_symop_operation_xyz
x,y,z
x,-y,1/2+z
1/2+x,1/2+y,z
1/2+x,1/2-y,1/2+z
loop_
_atom_site_type_symbol
_atom_site_label
_atom_site_fract_x
_atom_site_fract_y
_atom_site_fract_z
Si Si1 0.467420 0.895247 0.516330
Si Si2 0.905861 0.579432 0.458721
Si Si3 0.900377 0.969569 0.067249
Si Si4 0.592344 0.218870 0.616700
Si Si5 0.463386 0.356854 0.665951
Si Si6 0.589246 0.069173 0.353023
Si Si7 0.788976 0.895477 0.524746
Si Si8 0.795786 0.737494 0.779973
O O1 0.511576 0.801298 0.370493
O O2 0.412352 0.964431 0.475642
O O3 0.556850 0.960533 0.424240
O O4 0.408444 0.890366 0.769485
O O5 0.826569 0.631297 0.682698
O O6 0.003113 0.613349 0.388549
O O7 0.863665 0.906744 0.270517
O O8 0.961229 0.057730 0.040322
O O9 0.948896 0.907843 0.858277
O O10 0.813772 0.021470 0.114216
O O11 0.554847 0.294501 0.544574
O O12 0.599394 0.119170 0.509456
O O13 0.694363 0.250264 0.513579
O O14 0.376231 0.288199 0.759679
O O15 0.686519 0.084511 0.118669
O O16 0.792219 0.797834 0.619056
#
# Coordination Sequence:
#
# PCOD9134871 Si02
#       8
#     4   4   4   4   4   4   4   4
#     4  10  20  33  59  84 111 153 193 234 296 346
#     4  10  20  35  55  83 116 149 187 236 292 348
#     4   9  20  33  55  77 108 147 182 236 287 343
#     4  11  21  37  57  84 116 154 190 244 292 348
#     4  10  20  39  57  78 114 146 195 234 290 346
#     4   9  18  32  53  81 113 140 180 235 290 342
#     4   9  19  29  51  81 107 138 180 227 289 337
#     4  10  22  36  55  84 117 147 185 242 290 344
#
# _framework density 18.983028000000001
#
# number of rings (size 3 to 8) (size 9 to 14) (size 15 to 20)
#    0.750    1.500    2.500    0.000   10.500    0.000 
#    0.000    1.250    0.000    0.000    0.000    0.000 
#    0.000    0.000    0.000    0.000    0.000    0.000 
#
# Total GULP energy -89074.188125 kJ/mol
# GULP energy per Si atom -5567.136758 kJ/mol
# Density = 1.893982 g / cm^3
# Si number density = 18.983028 Si / 1000 Ang^3
#
#
#
# Elastic Constant Matrix: (Units=GPa)
#
#
# Indices 1 2 3 4 5 6 
#
# 1 41.5529 11.4242 3.2625 0.0000 -2.3640 0.0000
# 2 11.4242 51.5080 19.9962 0.0000 -9.1503 0.0000
# 3 3.2625 19.9962 48.3575 0.0000 17.1901 0.0000
# 4 0.0000 0.0000 0.0000 25.4373 0.0000 -1.5324
# 5 -2.3640 -9.1503 17.1901 0.0000 19.3947 0.0000
# 6 0.0000 0.0000 0.0000 -1.5324 0.0000 15.0336
#
#
#
# Elastic Compliance Matrix: (Units=1/GPa)
#
#
# Indices 1 2 3 4 5 6 
#
# 1 0.025657 -0.006334 0.001225 0.000000 -0.000947 0.000000
# 2 -0.006334 0.044408 -0.036660 0.000000 0.052672 0.000000
# 3 0.001225 -0.036660 0.061103 0.000000 -0.071304 0.000000
# 4 0.000000 0.000000 0.000000 0.039555 0.000000 0.004032
# 5 -0.000947 0.052672 -0.071304 0.000000 0.139494 0.000000
# 6 0.000000 0.000000 0.000000 0.004032 0.000000 0.066929
#
#
# Mechanical properties :
#
#
# Convention : Reuss Voigt Hill
#
# Bulk Modulus (GPa) = 20.99520 23.42047 22.20783
# Shear Modulus (GPa) = 10.49183 19.08884 14.79034
#
# Velocity S-wave (km/s) = 2.35350 3.17452 2.79433
# Velocity P-wave (km/s) = 4.29759 5.07948 4.70481
#
# Compressibility (1/GPa) = 0.04762994
#
# Stress axis : x y z
#
# Youngs Moduli (GPa) = 38.97548 22.51824 16.36588
#
# Poissons Ratio (x) = 0.14264 -0.02005
# Poissons Ratio (y) = 0.24688 0.59997
# Poissons Ratio (z) = -0.04774 0.82551
#
# Static dielectric constant tensor:
#      x y z
#    x 1.669010 0.000000 0.012300 
#    y 0.000000 1.678640 0.000000 
#    z 0.012300 0.000000 1.692610 
# 
# From -- ./inp_files/11678.got.cif
#   From: 2010.05.17/outbox.cif.g08.bks.cpg/sg9_6_cif.got.tgz:11678.got - 2010.06.03 20:04:27.
