data_PCOD9134747
_publ_section_title
;
Structure prediction by ZEFSAII (Michael W. Deem and Ramdas Pophale) SiO2 
 PCOD9134747
Probable space group: C C
;
_chemical_formula_sum "Si O2"
_cell_formula_units_Z 32
_cell_length_a 18.335136
_cell_length_b 9.224396
_cell_length_c 12.967133
_cell_angle_alpha 90.000000
_cell_angle_beta 41.081170
_cell_angle_gamma 90.000000
_cell_volume 1441.171677
_symmetry_space_group_name_H-M "C C"
_symmetry_group_IT_number 9
_symmetry_cell_setting 'monoclinic'
loop_
_space_group_symop_operation_xyz
x,y,z
x,-y,1/2+z
1/2+x,1/2+y,z
1/2+x,1/2-y,1/2+z
loop_
_atom_site_type_symbol
_atom_site_label
_atom_site_fract_x
_atom_site_fract_y
_atom_site_fract_z
Si Si1 0.576560 0.298911 0.010020
Si Si2 0.491548 0.558513 0.779502
Si Si3 0.618982 0.037280 0.104907
Si Si4 0.378861 0.064435 0.929655
Si Si5 0.291466 0.757329 0.704090
Si Si6 0.289187 0.771059 0.957173
Si Si7 0.413508 0.505540 0.071601
Si Si8 0.330983 0.333194 0.844351
O O1 0.591665 0.398877 0.097626
O O2 0.577284 0.133719 0.050553
O O3 0.468807 0.377931 0.080666
O O4 0.664187 0.303618 0.824763
O O5 0.403297 0.688192 0.862391
O O6 0.425734 0.419190 0.808040
O O7 0.500845 0.543093 0.891042
O O8 0.507878 0.974508 0.272729
O O9 0.689977 0.159679 0.091167
O O10 0.712371 0.915583 0.980726
O O11 0.335046 0.174670 0.887810
O O12 0.303501 0.921914 0.999246
O O13 0.365952 0.141725 0.053721
O O14 0.292350 0.779194 0.827915
O O15 0.308034 0.590952 0.649535
O O16 0.372546 0.639278 0.183193
#
# Coordination Sequence:
#
# PCOD9134747 Si02
#       8
#     4   4   4   4   4   4   4   4
#     4  10  20  40  68  93 132 187 220 272 353 415
#     4  10  19  40  68  93 134 184 220 282 348 406
#     4  10  21  45  69  92 143 190 214 287 359 400
#     4  12  24  42  70 109 133 177 249 289 333 418
#     4  11  22  40  68  96 133 185 227 277 342 419
#     4  10  22  45  67  94 144 184 227 287 350 416
#     4  11  20  40  70  99 136 181 228 279 356 406
#     4  10  22  42  66 104 137 170 237 299 323 412
#
# _framework density 22.204156999999999
#
# number of rings (size 3 to 8) (size 9 to 14) (size 15 to 20)
#    0.000    1.500    7.500    0.000    0.000    4.000 
#    9.000    0.000    2.750    0.000    0.000    0.000 
#    0.000    0.000    0.000    0.000    0.000    0.000 
#
# Total GULP energy -89090.513003 kJ/mol
# GULP energy per Si atom -5568.157063 kJ/mol
# Density = 2.215362 g / cm^3
# Si number density = 22.204157 Si / 1000 Ang^3
#
#
#
# Elastic Constant Matrix: (Units=GPa)
#
#
# Indices 1 2 3 4 5 6 
#
# 1 26.9089 18.3271 19.3066 0.0000 1.3941 0.0000
# 2 18.3271 98.4053 30.0948 0.0000 1.7381 0.0000
# 3 19.3066 30.0948 143.6993 0.0000 1.6226 0.0000
# 4 0.0000 0.0000 0.0000 34.2333 0.0000 -1.9460
# 5 1.3941 1.7381 1.6226 0.0000 34.0590 0.0000
# 6 0.0000 0.0000 0.0000 -1.9460 0.0000 30.1472
#
#
#
# Elastic Compliance Matrix: (Units=1/GPa)
#
#
# Indices 1 2 3 4 5 6 
#
# 1 0.045305 -0.007007 -0.004605 0.000000 -0.001278 0.000000
# 2 -0.007007 0.011948 -0.001558 0.000000 -0.000249 0.000000
# 3 -0.004605 -0.001558 0.007905 0.000000 -0.000109 0.000000
# 4 0.000000 0.000000 0.000000 0.029319 0.000000 0.001892
# 5 -0.001278 -0.000249 -0.000109 0.000000 0.029431 0.000000
# 6 0.000000 0.000000 0.000000 0.001892 0.000000 0.033293
#
#
# Mechanical properties :
#
#
# Convention : Reuss Voigt Hill
#
# Bulk Modulus (GPa) = 25.76109 44.94116 35.35113
# Shear Modulus (GPa) = 25.44796 33.10689 29.27742
#
# Velocity S-wave (km/s) = 3.38907 3.86556 3.63513
# Velocity P-wave (km/s) = 5.19052 6.34093 5.79434
#
# Compressibility (1/GPa) = 0.03881824
#
# Stress axis : x y z
#
# Youngs Moduli (GPa) = 22.07275 83.69694 126.49888
#
# Poissons Ratio (x) = 0.58644 0.58253
# Poissons Ratio (y) = 0.15466 0.19709
# Poissons Ratio (z) = 0.10165 0.13040
#
# Static dielectric constant tensor:
#      x y z
#    x 2.064380 0.000000 -0.088920 
#    y 0.000000 1.847400 0.000000 
#    z -0.088920 0.000000 1.868850 
# 
# From -- ./inp_files/27735.got.cif
#   From: 2010.05.17/outbox.cif.g08.bks.cpg/sg9_14_cif.got.tgz:27735.got - 2010.06.03 20:04:27.
