data_PCOD9134320
_publ_section_title
;
Structure prediction by ZEFSAII (Michael W. Deem and Ramdas Pophale) SiO2 
 PCOD9134320
Probable space group: C C
;
_chemical_formula_sum "Si O2"
_cell_formula_units_Z 32
_cell_length_a 12.193529
_cell_length_b 22.140858
_cell_length_c 7.747073
_cell_angle_alpha 90.000000
_cell_angle_beta 139.307240
_cell_angle_gamma 90.000000
_cell_volume 1363.674871
_symmetry_space_group_name_H-M "C C"
_symmetry_group_IT_number 9
_symmetry_cell_setting 'monoclinic'
loop_
_space_group_symop_operation_xyz
x,y,z
x,-y,1/2+z
1/2+x,1/2+y,z
1/2+x,1/2-y,1/2+z
loop_
_atom_site_type_symbol
_atom_site_label
_atom_site_fract_x
_atom_site_fract_y
_atom_site_fract_z
Si Si1 0.016000 0.693230 0.962320
Si Si2 0.927595 0.073972 0.987870
Si Si3 0.046940 0.558718 0.652470
Si Si4 0.054305 0.432020 0.574597
Si Si5 0.874384 0.680127 0.423636
Si Si6 0.995485 0.805696 0.449522
Si Si7 0.947633 0.942908 0.121141
Si Si8 0.399671 0.680399 0.457905
O O1 0.982631 0.633446 0.038738
O O2 0.891736 0.686576 0.651888
O O3 0.996957 0.759672 0.017244
O O4 0.214031 0.683823 0.152701
O O5 0.728924 0.064065 0.779286
O O6 0.958628 0.145375 0.058200
O O7 0.992609 0.071255 0.869882
O O8 0.002010 0.012001 0.154676
O O9 0.964827 0.493463 0.523172
O O10 0.067695 0.565913 0.882763
O O11 0.942536 0.614705 0.459506
O O12 0.243059 0.439950 0.871670
O O13 0.979140 0.736824 0.484758
O O14 0.688451 0.686186 0.131636
O O15 0.879545 0.814716 0.142614
O O16 0.986719 0.885929 0.041546
#
# Coordination Sequence:
#
# PCOD9134320 Si02
#       8
#     4   4   4   4   4   4   4   4
#     4  10  21  38  57  81 110 144 186 228 273 332
#     4  10  19  34  56  81 109 146 187 228 271 329
#     4  10  19  34  56  81 109 146 187 228 271 329
#     4   9  18  32  54  82 108 142 187 225 270 331
#     4  11  23  38  57  84 113 146 186 231 281 332
#     4  11  23  38  57  84 113 146 186 231 281 332
#     4   9  18  32  54  82 108 142 187 225 270 331
#     4  10  21  38  57  81 110 144 186 228 273 332
#
# _framework density 23.466004999999999
#
# number of rings (size 3 to 8) (size 9 to 14) (size 15 to 20)
#    0.000    2.000    0.000    5.250    0.000    6.000 
#    0.000    6.250    0.000    0.000    0.000    0.000 
#    0.000    0.000    0.000    0.000    0.000    0.000 
#
# Total GULP energy -89196.011417 kJ/mol
# GULP energy per Si atom -5574.750714 kJ/mol
# Density = 2.341260 g / cm^3
# Si number density = 23.466005 Si / 1000 Ang^3
#
#
#
# Elastic Constant Matrix: (Units=GPa)
#
#
# Indices 1 2 3 4 5 6 
#
# 1 13.3959 3.8486 3.3018 0.0000 3.7621 0.0000
# 2 3.8486 149.1495 16.1212 0.0000 18.2381 0.0000
# 3 3.3018 16.1212 43.2219 0.0000 -0.7059 0.0000
# 4 0.0000 0.0000 0.0000 28.5574 0.0000 1.0199
# 5 3.7621 18.2381 -0.7059 0.0000 16.7423 0.0000
# 6 0.0000 0.0000 0.0000 1.0199 0.0000 38.6505
#
#
#
# Elastic Compliance Matrix: (Units=1/GPa)
#
#
# Indices 1 2 3 4 5 6 
#
# 1 0.081617 0.001066 -0.006956 0.000000 -0.019795 0.000000
# 2 0.001066 0.008165 -0.003278 0.000000 -0.009273 0.000000
# 3 -0.006956 -0.003278 0.024992 0.000000 0.006188 0.000000
# 4 0.000000 0.000000 0.000000 0.035050 0.000000 -0.000925
# 5 -0.019795 -0.009273 0.006188 0.000000 0.074539 0.000000
# 6 0.000000 0.000000 0.000000 -0.000925 0.000000 0.025897
#
#
# Mechanical properties :
#
#
# Convention : Reuss Voigt Hill
#
# Bulk Modulus (GPa) = 10.36932 28.03448 19.20190
# Shear Modulus (GPa) = 16.62547 28.95640 22.79093
#
# Velocity S-wave (km/s) = 2.66464 3.51661 3.11984
# Velocity P-wave (km/s) = 3.72767 5.33493 4.60201
#
# Compressibility (1/GPa) = 0.09643832
#
# Stress axis : x y z
#
# Youngs Moduli (GPa) = 12.25230 122.46781 40.01326
#
# Poissons Ratio (x) = -0.13059 0.27833
# Poissons Ratio (y) = -0.01307 0.13118
# Poissons Ratio (z) = 0.08523 0.40151
#
# Static dielectric constant tensor:
#      x y z
#    x 1.884990 0.000000 -0.025660 
#    y 0.000000 2.082670 0.000000 
#    z -0.025660 0.000000 1.868110 
# 
# From -- ./inp_files/10059.got.cif
#   From: 2010.05.17/outbox.cif.g08.bks.cpg/sg9_6_cif.got.tgz:10059.got - 2010.06.03 20:04:27.
