data_PCOD9134757
_publ_section_title
;
Structure prediction by ZEFSAII (Michael W. Deem and Ramdas Pophale) SiO2 
 PCOD9134757
Probable space group: C C
;
_chemical_formula_sum "Si O2"
_cell_formula_units_Z 24
_cell_length_a 6.643239
_cell_length_b 18.903829
_cell_length_c 10.894445
_cell_angle_alpha 90.000000
_cell_angle_beta 123.305638
_cell_angle_gamma 90.000000
_cell_volume 1143.438695
_symmetry_space_group_name_H-M "C C"
_symmetry_group_IT_number 9
_symmetry_cell_setting 'monoclinic'
loop_
_space_group_symop_operation_xyz
x,y,z
x,-y,1/2+z
1/2+x,1/2+y,z
1/2+x,1/2-y,1/2+z
loop_
_atom_site_type_symbol
_atom_site_label
_atom_site_fract_x
_atom_site_fract_y
_atom_site_fract_z
Si Si1 0.476150 0.097864 0.839100
Si Si2 0.961796 0.350622 0.605734
Si Si3 0.190732 0.217607 0.617299
Si Si4 0.474258 0.566150 0.932952
Si Si5 0.605800 0.514440 0.226840
Si Si6 0.473459 0.342254 0.802953
O O1 0.274085 0.153723 0.730450
O O2 0.365049 0.020143 0.787131
O O3 0.532543 0.114918 0.998400
O O4 0.721119 0.105984 0.846916
O O5 0.703643 0.384402 0.541931
O O6 0.967778 0.265595 0.591030
O O7 0.206032 0.365448 0.764334
O O8 0.402587 0.276227 0.692458
O O9 0.130747 0.187044 0.465710
O O10 0.468296 0.513679 0.049754
O O11 0.511423 0.530125 0.813060
O O12 0.597285 0.593960 0.274342
#
# Coordination Sequence:
#
# PCOD9134757 Si02
#       6
#     4   4   4   4   4   4
#     4  11  22  42  68  98 143 180 233 289 351 420
#     4   9  20  41  66  90 137 179 228 295 340 410
#     4  10  19  40  72  95 133 189 226 290 350 413
#     4  11  24  43  69 101 141 189 228 292 354 424
#     4  11  25  40  68 104 141 181 233 292 353 415
#     4  10  20  40  71  96 135 184 230 286 352 410
#
# _framework density 20.989318000000001
#
# number of rings (size 3 to 8) (size 9 to 14) (size 15 to 20)
#    1.000    0.667    3.333    1.000    2.333    1.333 
#    0.000   10.000    0.000    0.000    0.000    0.000 
#    0.000    0.000    0.000    0.000    0.000    0.000 
#
# Total GULP energy -66812.999383 kJ/mol
# GULP energy per Si atom -5567.749949 kJ/mol
# Density = 2.094155 g / cm^3
# Si number density = 20.989318 Si / 1000 Ang^3
#
#
#
# Elastic Constant Matrix: (Units=GPa)
#
#
# Indices 1 2 3 4 5 6 
#
# 1 76.5502 34.7577 9.6526 0.0000 0.4041 0.0000
# 2 34.7577 90.0842 20.1079 0.0000 11.2777 0.0000
# 3 9.6526 20.1079 47.5676 0.0000 3.2306 0.0000
# 4 0.0000 0.0000 0.0000 34.6367 0.0000 9.7621
# 5 0.4041 11.2777 3.2306 0.0000 17.4285 0.0000
# 6 0.0000 0.0000 0.0000 9.7621 0.0000 21.3735
#
#
#
# Elastic Compliance Matrix: (Units=1/GPa)
#
#
# Indices 1 2 3 4 5 6 
#
# 1 0.016112 -0.006545 -0.000775 0.000000 0.004005 0.000000
# 2 -0.006545 0.015838 -0.004741 0.000000 -0.009218 0.000000
# 3 -0.000775 -0.004741 0.023267 0.000000 -0.001227 0.000000
# 4 0.000000 0.000000 0.000000 0.033137 0.000000 -0.015135
# 5 0.004005 -0.009218 -0.001227 0.000000 0.063477 0.000000
# 6 0.000000 0.000000 0.000000 -0.015135 0.000000 0.053700
#
#
# Mechanical properties :
#
#
# Convention : Reuss Voigt Hill
#
# Bulk Modulus (GPa) = 32.15858 38.13759 35.14809
# Shear Modulus (GPa) = 20.83184 24.66664 22.74924
#
# Velocity S-wave (km/s) = 3.15381 3.43184 3.29576
# Velocity P-wave (km/s) = 5.34946 5.82347 5.59149
#
# Compressibility (1/GPa) = 0.03109590
#
# Stress axis : x y z
#
# Youngs Moduli (GPa) = 62.06712 63.13826 42.97858
#
# Poissons Ratio (x) = 0.41323 0.03330
# Poissons Ratio (y) = 0.40622 0.20376
# Poissons Ratio (z) = 0.04809 0.29934
#
# Static dielectric constant tensor:
#      x y z
#    x 1.791040 0.000000 0.007450 
#    y 0.000000 1.797350 0.000000 
#    z 0.007450 0.000000 1.764660 
# 
# From -- ./inp_files/13406.got.cif
#   From: 2010.05.17/outbox.cif.g08.bks.cpg/sg9_7_cif.got.tgz:13406.got - 2010.06.03 20:04:27.
