data_PCOD9134167
_publ_section_title
;
Structure prediction by ZEFSAII (Michael W. Deem and Ramdas Pophale) SiO2 
 PCOD9134167
Probable space group: C C
;
_chemical_formula_sum "Si O2"
_cell_formula_units_Z 32
_cell_length_a 8.730009
_cell_length_b 25.449923
_cell_length_c 11.859685
_cell_angle_alpha 90.000000
_cell_angle_beta 140.002326
_cell_angle_gamma 90.000000
_cell_volume 1693.638831
_symmetry_space_group_name_H-M "C C"
_symmetry_group_IT_number 9
_symmetry_cell_setting 'monoclinic'
loop_
_space_group_symop_operation_xyz
x,y,z
x,-y,1/2+z
1/2+x,1/2+y,z
1/2+x,1/2-y,1/2+z
loop_
_atom_site_type_symbol
_atom_site_label
_atom_site_fract_x
_atom_site_fract_y
_atom_site_fract_z
Si Si1 0.871490 0.408119 0.670090
Si Si2 0.597478 0.392587 0.833990
Si Si3 0.542602 0.915755 0.514154
Si Si4 0.934302 0.372850 0.224481
Si Si5 0.326757 0.186266 0.311649
Si Si6 0.518109 0.963196 0.961283
Si Si7 0.857210 0.083001 0.832979
Si Si8 0.210030 0.306488 0.219299
O O1 0.955871 0.403771 0.590601
O O2 0.857775 0.351610 0.723069
O O3 0.036739 0.443569 0.843617
O O4 0.609188 0.435131 0.520892
O O5 0.618131 0.339485 0.770346
O O6 0.792167 0.431458 0.886587
O O7 0.329155 0.411520 0.675903
O O8 0.698915 0.383521 0.017600
O O9 0.427050 0.878509 0.353514
O O10 0.475407 0.975419 0.447071
O O11 0.140312 0.414455 0.300226
O O12 0.045233 0.319017 0.236070
O O13 0.290984 0.247015 0.264529
O O14 0.552885 0.182141 0.521086
O O15 0.748758 0.946825 0.164965
O O16 0.895176 0.145329 0.826846
#
# Coordination Sequence:
#
# PCOD9134167 Si02
#       8
#     4   4   4   4   4   4   4   4
#     4  11  23  38  57  89 122 152 195 251 297 352
#     4   9  21  42  57  85 119 153 200 251 281 367
#     4  12  25  35  62  85 126 159 190 255 308 336
#     4   8  19  39  58  89 115 148 204 236 289 353
#     4  10  18  38  65  89 116 149 210 239 296 354
#     4  10  23  40  56  85 115 160 211 236 290 360
#     4   9  19  40  62  85 117 151 208 241 285 358
#     4   9  18  34  71  89 108 158 200 251 276 354
#
# _framework density 18.894228999999999
#
# number of rings (size 3 to 8) (size 9 to 14) (size 15 to 20)
#    0.750    1.500    2.500    2.250    7.000    1.000 
#    0.000    0.000    5.500    0.000    0.000    0.000 
#    0.000    0.000    0.000    0.000    0.000    0.000 
#
# Total GULP energy -89131.846547 kJ/mol
# GULP energy per Si atom -5570.740409 kJ/mol
# Density = 1.885122 g / cm^3
# Si number density = 18.894229 Si / 1000 Ang^3
#
#
#
# Elastic Constant Matrix: (Units=GPa)
#
#
# Indices 1 2 3 4 5 6 
#
# 1 46.3957 9.2233 31.1944 0.0000 -37.2097 0.0000
# 2 9.2233 63.7533 23.0440 0.0000 -17.6412 0.0000
# 3 31.1944 23.0440 73.6207 0.0000 -31.9120 0.0000
# 4 0.0000 0.0000 0.0000 24.6734 0.0000 -1.8706
# 5 -37.2097 -17.6412 -31.9120 0.0000 38.4591 0.0000
# 6 0.0000 0.0000 0.0000 -1.8706 0.0000 6.8939
#
#
#
# Elastic Compliance Matrix: (Units=1/GPa)
#
#
# Indices 1 2 3 4 5 6 
#
# 1 0.108227 0.015789 -0.003548 0.000000 0.109010 0.000000
# 2 0.015789 0.020766 -0.003810 0.000000 0.021641 0.000000
# 3 -0.003548 -0.003810 0.021916 0.000000 0.013005 0.000000
# 4 0.000000 0.000000 0.000000 0.041381 0.000000 0.011228
# 5 0.109010 0.021641 0.013005 0.000000 0.152188 0.000000
# 6 0.000000 0.000000 0.000000 0.011228 0.000000 0.148102
#
#
# Mechanical properties :
#
#
# Convention : Reuss Voigt Hill
#
# Bulk Modulus (GPa) = 5.96045 34.52145 20.24095
# Shear Modulus (GPa) = 9.40482 22.02580 15.71531
#
# Velocity S-wave (km/s) = 2.23348 3.41800 2.88714
# Velocity P-wave (km/s) = 3.13253 5.82130 4.67441
#
# Compressibility (1/GPa) = 0.16777268
#
# Stress axis : x y z
#
# Youngs Moduli (GPa) = 9.23982 48.15454 45.62832
#
# Poissons Ratio (x) = -0.76032 0.16189
# Poissons Ratio (y) = -0.14589 0.17384
# Poissons Ratio (z) = 0.03278 0.18346
#
# Static dielectric constant tensor:
#      x y z
#    x 1.666270 0.000000 -0.007360 
#    y 0.000000 1.683010 0.000000 
#    z -0.007360 0.000000 1.682570 
# 
# From -- ./inp_files/15697.got.cif
#   From: 2010.05.17/outbox.cif.g08.bks.cpg/sg9_8_cif.got.tgz:15697.got - 2010.06.03 20:04:27.
