data_PCOD9134984
_publ_section_title
;
Structure prediction by ZEFSAII (Michael W. Deem and Ramdas Pophale) SiO2 
 PCOD9134984
Probable space group: C C
;
_chemical_formula_sum "Si O2"
_cell_formula_units_Z 32
_cell_length_a 13.688925
_cell_length_b 13.977686
_cell_length_c 19.035756
_cell_angle_alpha 90.000000
_cell_angle_beta 25.009048
_cell_angle_gamma 90.000000
_cell_volume 1539.820363
_symmetry_space_group_name_H-M "C C"
_symmetry_group_IT_number 9
_symmetry_cell_setting 'monoclinic'
loop_
_space_group_symop_operation_xyz
x,y,z
x,-y,1/2+z
1/2+x,1/2+y,z
1/2+x,1/2-y,1/2+z
loop_
_atom_site_type_symbol
_atom_site_label
_atom_site_fract_x
_atom_site_fract_y
_atom_site_fract_z
Si Si1 0.186260 0.696515 0.657820
Si Si2 0.936181 0.657397 0.093999
Si Si3 0.498686 0.044662 0.515774
Si Si4 0.897267 0.708043 0.486590
Si Si5 0.705481 0.801186 0.984589
Si Si6 0.891050 0.160760 0.112144
Si Si7 0.923454 0.793238 0.221389
Si Si8 0.828940 0.046809 0.681980
O O1 0.336154 0.784078 0.592693
O O2 0.240572 0.669385 0.542494
O O3 0.217962 0.608343 0.691179
O O4 0.931037 0.739977 0.819936
O O5 0.841501 0.706295 0.225776
O O6 0.880290 0.545490 0.129223
O O7 0.214047 0.674068 0.907854
O O8 0.344262 0.121646 0.575754
O O9 0.653754 0.107941 0.468034
O O10 0.644541 0.993490 0.358721
O O11 0.976189 0.795236 0.483929
O O12 0.661293 0.732216 0.602689
O O13 0.113198 0.675170 0.298701
O O14 0.500018 0.725004 0.103177
O O15 0.952093 0.049612 0.077303
O O16 0.975648 0.878888 0.132304
#
# Coordination Sequence:
#
# PCOD9134984 Si02
#       8
#     4   4   4   4   4   4   4   4
#     4  11  22  39  62  88 118 157 197 241 295 350
#     4  10  21  38  55  81 115 144 188 241 282 340
#     4   9  20  37  57  84 115 149 193 240 288 345
#     4  10  20  36  56  79 108 148 185 228 287 341
#     4  11  22  39  62  88 118 157 197 241 295 350
#     4  10  21  38  55  81 115 144 188 241 282 340
#     4  10  20  36  56  79 108 148 185 228 287 341
#     4   9  20  37  57  84 115 149 193 240 288 345
#
# _framework density 20.781645000000001
#
# number of rings (size 3 to 8) (size 9 to 14) (size 15 to 20)
#    0.000    2.000    0.000    5.250    0.000    6.000 
#    0.000   11.250    0.000    0.000    0.000    0.000 
#    0.000    0.000    0.000    0.000    0.000    0.000 
#
# Total GULP energy -89234.353328 kJ/mol
# GULP energy per Si atom -5577.147083 kJ/mol
# Density = 2.073434 g / cm^3
# Si number density = 20.781645 Si / 1000 Ang^3
#
#
#
# Elastic Constant Matrix: (Units=GPa)
#
#
# Indices 1 2 3 4 5 6 
#
# 1 85.9889 25.3767 -8.8843 -0.0017 2.3786 0.0057
# 2 25.3767 137.4791 -11.9345 -0.0277 9.8992 0.0068
# 3 -8.8843 -11.9345 29.8720 -0.0701 -7.4747 0.0217
# 4 -0.0017 -0.0277 -0.0701 26.5705 0.0042 0.5319
# 5 2.3786 9.8992 -7.4747 0.0042 30.6011 -0.0016
# 6 0.0057 0.0068 0.0217 0.5319 -0.0016 13.4334
#
#
#
# Elastic Compliance Matrix: (Units=1/GPa)
#
#
# Indices 1 2 3 4 5 6 
#
# 1 0.012543 -0.002086 0.003006 0.000007 0.000434 -0.000009
# 2 -0.002086 0.007978 0.002089 0.000014 -0.001908 -0.000007
# 3 0.003006 0.002089 0.037255 0.000101 0.008190 -0.000065
# 4 0.000007 0.000014 0.000101 0.037666 0.000014 -0.001492
# 5 0.000434 -0.001908 0.008190 0.000014 0.035263 -0.000009
# 6 -0.000009 -0.000007 -0.000065 -0.001492 -0.000009 0.074501
#
#
# Mechanical properties :
#
#
# Convention : Reuss Voigt Hill
#
# Bulk Modulus (GPa) = 15.67514 29.16175 22.41845
# Shear Modulus (GPa) = 22.68084 30.70648 26.69366
#
# Velocity S-wave (km/s) = 3.30720 3.84810 3.58786
# Velocity P-wave (km/s) = 4.70559 5.81435 5.28911
#
# Compressibility (1/GPa) = 0.06379527
#
# Stress axis : x y z
#
# Youngs Moduli (GPa) = 79.72266 125.35086 26.84229
#
# Poissons Ratio (x) = 0.26144 -0.08069
# Poissons Ratio (y) = 0.16627 -0.05609
# Poissons Ratio (z) = -0.23964 -0.26192
#
# Static dielectric constant tensor:
#      x y z
#    x 1.762150 0.000000 0.044340 
#    y 0.000000 1.784250 0.000010 
#    z 0.044340 0.000010 1.772520 
# 
# From -- ./inp_files/30138.got.cif
#   From: 2010.05.17/outbox.cif.g08.bks.cpg/sg9_16_cif.got.tgz:30138.got - 2010.06.03 20:04:27.
