data_PCOD9134122
_publ_section_title
;
Structure prediction by ZEFSAII (Michael W. Deem and Ramdas Pophale) SiO2 
 PCOD9134122
Probable space group: C C
;
_chemical_formula_sum "Si O2"
_cell_formula_units_Z 32
_cell_length_a 15.317892
_cell_length_b 11.354169
_cell_length_c 14.600816
_cell_angle_alpha 90.000000
_cell_angle_beta 143.014073
_cell_angle_gamma 90.000000
_cell_volume 1527.752194
_symmetry_space_group_name_H-M "C C"
_symmetry_group_IT_number 9
_symmetry_cell_setting 'monoclinic'
loop_
_space_group_symop_operation_xyz
x,y,z
x,-y,1/2+z
1/2+x,1/2+y,z
1/2+x,1/2-y,1/2+z
loop_
_atom_site_type_symbol
_atom_site_label
_atom_site_fract_x
_atom_site_fract_y
_atom_site_fract_z
Si Si1 0.870950 0.761883 0.754140
Si Si2 0.485200 0.023779 0.156180
Si Si3 0.752699 0.679457 0.461636
Si Si4 0.832592 0.967176 0.215435
Si Si5 0.287592 0.592236 0.876323
Si Si6 0.522794 0.492027 0.213443
Si Si7 0.006553 0.522138 0.881257
Si Si8 0.801627 0.610846 0.854064
O O1 0.788312 0.732252 0.590934
O O2 0.889372 0.899859 0.780023
O O3 0.786717 0.720865 0.774525
O O4 0.001606 0.665158 0.861808
O O5 0.649055 0.994004 0.266506
O O6 0.473496 0.037723 0.256061
O O7 0.385995 0.908797 0.052435
O O8 0.413996 0.122969 0.032474
O O9 0.610092 0.599775 0.334148
O O10 0.931102 0.923835 0.213883
O O11 0.840536 0.898372 0.316762
O O12 0.663691 0.980849 0.045666
O O13 0.242069 0.716867 0.879918
O O14 0.411087 0.542906 0.046382
O O15 0.647903 0.421816 0.266576
O O16 0.879418 0.514027 0.851203
#
# Coordination Sequence:
#
# PCOD9134122 Si02
#       8
#     4   4   4   4   4   4   4   4
#     4   9  20  37  62  88 115 158 204 245 292 359
#     4  10  18  37  60  84 121 159 200 243 298 365
#     4  10  21  37  61  86 121 157 199 246 303 354
#     4  12  23  34  62  95 123 155 206 254 301 346
#     4  12  22  34  57  94 126 153 198 258 302 344
#     4  11  24  36  59  97 123 153 200 262 297 348
#     4   9  19  37  60  89 119 160 200 240 305 362
#     4   9  21  38  59  91 124 159 197 246 312 354
#
# _framework density 20.945803999999999
#
# number of rings (size 3 to 8) (size 9 to 14) (size 15 to 20)
#    0.750    1.000    3.750    0.750    5.250    0.000 
#    0.000    0.000    0.000    9.000    0.000    0.000 
#    0.000    0.000    0.000    0.000    0.000    0.000 
#
# Total GULP energy -89249.516412 kJ/mol
# GULP energy per Si atom -5578.094776 kJ/mol
# Density = 2.089813 g / cm^3
# Si number density = 20.945804 Si / 1000 Ang^3
#
#
#
# Elastic Constant Matrix: (Units=GPa)
#
#
# Indices 1 2 3 4 5 6 
#
# 1 161.7585 11.4658 37.8948 0.0000 -5.0678 0.0000
# 2 11.4658 20.6747 7.0841 0.0000 -6.8902 0.0000
# 3 37.8948 7.0841 47.3586 0.0000 6.6948 0.0000
# 4 0.0000 0.0000 0.0000 11.6201 0.0000 0.0698
# 5 -5.0678 -6.8902 6.6948 0.0000 44.1257 0.0000
# 6 0.0000 0.0000 0.0000 0.0698 0.0000 1.4789
#
#
#
# Elastic Compliance Matrix: (Units=1/GPa)
#
#
# Indices 1 2 3 4 5 6 
#
# 1 0.007807 -0.001672 -0.006220 0.000000 0.001579 0.000000
# 2 -0.001672 0.055386 -0.008321 0.000000 0.009719 0.000000
# 3 -0.006220 -0.008321 0.028227 0.000000 -0.006296 0.000000
# 4 0.000000 0.000000 0.000000 0.086082 0.000000 -0.004065
# 5 0.001579 0.009719 -0.006296 0.000000 0.025317 0.000000
# 6 0.000000 0.000000 0.000000 -0.004065 0.000000 0.676375
#
#
# Mechanical properties :
#
#
# Convention : Reuss Voigt Hill
#
# Bulk Modulus (GPa) = 16.95082 38.07569 27.51326
# Shear Modulus (GPa) = 5.36893 23.00142 14.18517
#
# Velocity S-wave (km/s) = 1.60275 3.31741 2.60519
# Velocity P-wave (km/s) = 3.39637 5.73509 4.71310
#
# Compressibility (1/GPa) = 0.05899418
#
# Stress axis : x y z
#
# Youngs Moduli (GPa) = 128.08593 18.05519 35.42648
#
# Poissons Ratio (x) = 0.03019 0.22036
# Poissons Ratio (y) = 0.21417 0.29478
# Poissons Ratio (z) = 0.79673 0.15023
#
# Static dielectric constant tensor:
#      x y z
#    x 1.827660 0.000000 0.014330 
#    y 0.000000 1.826150 0.000000 
#    z 0.014330 0.000000 1.750060 
# 
# From -- ./inp_files/25976.got.cif
#   From: 2010.05.17/outbox.cif.g08.bks.cpg/sg9_13_cif.got.tgz:25976.got - 2010.06.03 20:04:27.
