data_PCOD9134172
_publ_section_title
;
Structure prediction by ZEFSAII (Michael W. Deem and Ramdas Pophale) SiO2 
 PCOD9134172
Probable space group: C C
;
_chemical_formula_sum "Si O2"
_cell_formula_units_Z 32
_cell_length_a 8.849018
_cell_length_b 22.231208
_cell_length_c 11.181807
_cell_angle_alpha 90.000000
_cell_angle_beta 143.163778
_cell_angle_gamma 90.000000
_cell_volume 1318.805749
_symmetry_space_group_name_H-M "C C"
_symmetry_group_IT_number 9
_symmetry_cell_setting 'monoclinic'
loop_
_space_group_symop_operation_xyz
x,y,z
x,-y,1/2+z
1/2+x,1/2+y,z
1/2+x,1/2-y,1/2+z
loop_
_atom_site_type_symbol
_atom_site_label
_atom_site_fract_x
_atom_site_fract_y
_atom_site_fract_z
Si Si1 0.577710 0.480662 0.129330
Si Si2 0.674743 0.078781 0.880842
Si Si3 0.747243 0.544080 0.998672
Si Si4 0.638689 0.113814 0.112458
Si Si5 0.663865 0.367846 0.044690
Si Si6 0.494483 0.238732 0.293934
Si Si7 0.991581 0.250845 0.549193
Si Si8 0.049150 0.844071 0.494065
O O1 0.738855 0.507135 0.117601
O O2 0.661102 0.488913 0.321088
O O3 0.574875 0.409534 0.100875
O O4 0.317437 0.517107 0.943854
O O5 0.427281 0.106831 0.661696
O O6 0.591512 0.076337 0.964465
O O7 0.888231 0.129815 0.999420
O O8 0.567146 0.601106 0.911338
O O9 0.010372 0.576385 0.136238
O O10 0.508819 0.178749 0.021373
O O11 0.934278 0.122173 0.310658
O O12 0.651694 0.298912 0.078344
O O13 0.695344 0.238320 0.298793
O O14 0.331716 0.177837 0.207233
O O15 0.418413 0.289282 0.342862
O O16 0.800012 0.234406 0.550677
#
# Coordination Sequence:
#
# PCOD9134172 Si02
#       8
#     4   4   4   4   4   4   4   4
#     4  11  26  47  76 104 149 205 252 320 383 441
#     4  11  27  48  63 109 151 191 256 316 377 458
#     4  11  22  48  78 108 148 200 258 323 372 457
#     4  12  24  44  77 109 149 194 252 317 385 459
#     4  12  25  43  74 105 147 198 248 310 389 449
#     4  10  18  38  68 101 136 192 237 296 375 451
#     4  11  20  40  69 109 140 188 247 299 375 467
#     4  10  22  42  69 101 152 190 248 313 380 452
#
# _framework density 24.264375999999999
#
# number of rings (size 3 to 8) (size 9 to 14) (size 15 to 20)
#    0.000    1.000    5.000    2.250    1.750    1.000 
#    4.500    0.000    2.750    0.000    0.000    0.000 
#    0.000    0.000    0.000    0.000    0.000    0.000 
#
# Total GULP energy -89139.579243 kJ/mol
# GULP energy per Si atom -5571.223703 kJ/mol
# Density = 2.420915 g / cm^3
# Si number density = 24.264376 Si / 1000 Ang^3
#
#
#
# Elastic Constant Matrix: (Units=GPa)
#
#
# Indices 1 2 3 4 5 6 
#
# 1 102.1133 43.2436 36.1694 0.0000 7.0873 0.0000
# 2 43.2436 120.5884 20.1068 0.0000 9.2325 0.0000
# 3 36.1694 20.1068 128.3777 0.0000 20.4680 0.0000
# 4 0.0000 0.0000 0.0000 38.9662 0.0000 0.6223
# 5 7.0873 9.2325 20.4680 0.0000 47.5982 0.0000
# 6 0.0000 0.0000 0.0000 0.6223 0.0000 36.0295
#
#
#
# Elastic Compliance Matrix: (Units=1/GPa)
#
#
# Indices 1 2 3 4 5 6 
#
# 1 0.012517 -0.004014 -0.002925 0.000000 0.000173 0.000000
# 2 -0.004014 0.009862 -0.000219 0.000000 -0.001221 0.000000
# 3 -0.002925 -0.000219 0.009203 0.000000 -0.003479 0.000000
# 4 0.000000 0.000000 0.000000 0.025670 0.000000 -0.000443
# 5 0.000173 -0.001221 -0.003479 0.000000 0.022716 0.000000
# 6 0.000000 0.000000 0.000000 -0.000443 0.000000 0.027763
#
#
# Mechanical properties :
#
#
# Convention : Reuss Voigt Hill
#
# Bulk Modulus (GPa) = 57.92106 61.12433 59.52270
# Shear Modulus (GPa) = 39.12242 41.28941 40.20592
#
# Velocity S-wave (km/s) = 4.01975 4.12958 4.07503
# Velocity P-wave (km/s) = 6.74294 6.92702 6.83560
#
# Compressibility (1/GPa) = 0.01726488
#
# Stress axis : x y z
#
# Youngs Moduli (GPa) = 79.88993 101.39748 108.66296
#
# Poissons Ratio (x) = 0.40703 0.31789
# Poissons Ratio (y) = 0.32069 0.02380
# Poissons Ratio (z) = 0.23372 0.02221
#
# Static dielectric constant tensor:
#      x y z
#    x 1.897850 0.000000 0.016260 
#    y 0.000000 1.875640 0.000000 
#    z 0.016260 0.000000 2.183610 
# 
# From -- ./inp_files/15646.got.cif
#   From: 2010.05.17/outbox.cif.g08.bks.cpg/sg9_8_cif.got.tgz:15646.got - 2010.06.03 20:04:27.
