data_PCOD9134237
_publ_section_title
;
Structure prediction by ZEFSAII (Michael W. Deem and Ramdas Pophale) SiO2 
 PCOD9134237
Probable space group: C C
;
_chemical_formula_sum "Si O2"
_cell_formula_units_Z 24
_cell_length_a 13.834703
_cell_length_b 15.839044
_cell_length_c 11.469627
_cell_angle_alpha 90.000000
_cell_angle_beta 22.765886
_cell_angle_gamma 90.000000
_cell_volume 972.571694
_symmetry_space_group_name_H-M "C C"
_symmetry_group_IT_number 9
_symmetry_cell_setting 'monoclinic'
loop_
_space_group_symop_operation_xyz
x,y,z
x,-y,1/2+z
1/2+x,1/2+y,z
1/2+x,1/2-y,1/2+z
loop_
_atom_site_type_symbol
_atom_site_label
_atom_site_fract_x
_atom_site_fract_y
_atom_site_fract_z
Si Si1 0.505160 0.724861 0.819050
Si Si2 0.075125 0.057046 0.872953
Si Si3 0.810404 0.677224 0.768059
Si Si4 0.379058 0.208575 0.129945
Si Si5 0.111978 0.664876 0.631812
Si Si6 0.091039 0.541409 0.847220
O O1 0.530148 0.626658 0.821818
O O2 0.779187 0.756294 0.485228
O O3 0.440179 0.782661 0.008246
O O4 0.091624 0.117376 0.967712
O O5 0.352261 0.013777 0.566298
O O6 0.829824 0.000222 0.142540
O O7 0.739990 0.756876 0.924675
O O8 0.976213 0.622933 0.671502
O O9 0.589272 0.268429 0.952434
O O10 0.432922 0.206838 0.929452
O O11 0.457964 0.113101 0.074512
O O12 0.217347 0.591522 0.597050
#
# Coordination Sequence:
#
# PCOD9134237 Si02
#       6
#     4   4   4   4   4   4
#     4  10  19  31  52  81 108 150 202 230 288 351
#     4  11  21  36  49  80 128 161 183 250 313 353
#     4  11  19  33  61  88 111 164 206 242 285 379
#     4  10  19  33  54  75 110 149 202 225 292 351
#     4  10  19  32  55  85 113 158 204 238 293 367
#     4  10  23  35  49  79 130 160 183 247 319 349
#
# _framework density 24.676843000000002
#
# number of rings (size 3 to 8) (size 9 to 14) (size 15 to 20)
#    1.000    0.667    5.000    3.000    0.000    1.333 
#    0.000    0.000    0.000    0.000    0.000    0.000 
#    0.000   53.333    0.000    0.000    0.000    0.000 
#
# Total GULP energy -66829.922150 kJ/mol
# GULP energy per Si atom -5569.160179 kJ/mol
# Density = 2.462068 g / cm^3
# Si number density = 24.676843 Si / 1000 Ang^3
#
#
#
# Elastic Constant Matrix: (Units=GPa)
#
#
# Indices 1 2 3 4 5 6 
#
# 1 95.8152 29.2710 58.3129 -0.0108 -33.0926 0.0103
# 2 29.2710 112.6304 42.3483 0.0110 -20.0775 0.0009
# 3 58.3129 42.3483 135.8986 -0.0013 -12.1289 0.0094
# 4 -0.0108 0.0110 -0.0013 39.6911 0.0046 -22.2352
# 5 -33.0926 -20.0775 -12.1289 0.0046 53.7311 -0.0080
# 6 0.0103 0.0009 0.0094 -22.2352 -0.0080 19.7424
#
#
#
# Elastic Compliance Matrix: (Units=1/GPa)
#
#
# Indices 1 2 3 4 5 6 
#
# 1 0.017871 -0.000467 -0.006691 0.000007 0.009322 0.000005
# 2 -0.000467 0.010607 -0.002834 -0.000006 0.003036 -0.000004
# 3 -0.006691 -0.002834 0.010869 -0.000005 -0.002726 -0.000008
# 4 0.000007 -0.000006 -0.000005 0.068267 0.000006 0.076886
# 5 0.009322 0.003036 -0.002726 0.000006 0.024871 0.000013
# 6 0.000005 -0.000004 -0.000008 0.076886 0.000013 0.137247
#
#
# Mechanical properties :
#
#
# Convention : Reuss Voigt Hill
#
# Bulk Modulus (GPa) = 51.64358 67.13429 59.38894
# Shear Modulus (GPa) = 16.88222 36.92705 26.90464
#
# Velocity S-wave (km/s) = 2.61843 3.87256 3.30552
# Velocity P-wave (km/s) = 5.48771 6.87460 6.21993
#
# Compressibility (1/GPa) = 0.01936349
#
# Stress axis : x y z
#
# Youngs Moduli (GPa) = 55.95669 94.28009 92.00345
#
# Poissons Ratio (x) = 0.04403 0.61558
# Poissons Ratio (y) = 0.02613 0.26073
# Poissons Ratio (z) = 0.37439 0.26718
#
# Static dielectric constant tensor:
#      x y z
#    x 2.037770 -0.000010 -0.093230 
#    y -0.000010 2.027080 0.000010 
#    z -0.093230 0.000010 2.189620 
# 
# From -- ./inp_files/26881.got.cif
#   From: 2010.05.17/outbox.cif.g08.bks.cpg/sg9_14_cif.got.tgz:26881.got - 2010.06.03 20:04:27.
