data_PCOD9134362
_publ_section_title
;
Structure prediction by ZEFSAII (Michael W. Deem and Ramdas Pophale) SiO2 
 PCOD9134362
Probable space group: C C
;
_chemical_formula_sum "Si O2"
_cell_formula_units_Z 32
_cell_length_a 7.572184
_cell_length_b 23.098776
_cell_length_c 13.148118
_cell_angle_alpha 90.000000
_cell_angle_beta 142.516259
_cell_angle_gamma 90.000000
_cell_volume 1399.459030
_symmetry_space_group_name_H-M "C C"
_symmetry_group_IT_number 9
_symmetry_cell_setting 'monoclinic'
loop_
_space_group_symop_operation_xyz
x,y,z
x,-y,1/2+z
1/2+x,1/2+y,z
1/2+x,1/2-y,1/2+z
loop_
_atom_site_type_symbol
_atom_site_label
_atom_site_fract_x
_atom_site_fract_y
_atom_site_fract_z
Si Si1 0.631860 0.824410 0.037610
Si Si2 0.282360 0.664063 0.191052
Si Si3 0.374535 0.996395 0.954022
Si Si4 0.736644 0.391407 0.014437
Si Si5 0.661844 0.627636 0.868143
Si Si6 0.264344 0.380867 0.383305
Si Si7 0.907091 0.045973 0.123843
Si Si8 0.616263 0.287255 0.673969
O O1 0.644894 0.769445 0.119465
O O2 0.959214 0.848861 0.184267
O O3 0.429261 0.868682 0.007196
O O4 0.439925 0.809363 0.850898
O O5 0.437758 0.644782 0.367288
O O6 0.356971 0.605738 0.161267
O O7 0.449588 0.715278 0.207537
O O8 0.935606 0.668127 0.024867
O O9 0.244935 0.960054 0.989734
O O10 0.237813 0.970124 0.789300
O O11 0.288838 0.063650 0.912627
O O12 0.719254 0.997903 0.097173
O O13 0.926800 0.377554 0.200080
O O14 0.445522 0.621741 0.863492
O O15 0.314039 0.439987 0.468015
O O16 0.408709 0.329757 0.514718
#
# Coordination Sequence:
#
# PCOD9134362 Si02
#       8
#     4   4   4   4   4   4   4   4
#     4  10  19  35  60  84 109 147 187 229 286 343
#     4   8  18  36  56  78 107 143 185 229 280 335
#     4  10  19  35  54  76 113 158 194 234 281 329
#     4   9  18  34  55  79 110 151 191 229 279 335
#     4  10  20  36  58  84 114 148 190 239 283 336
#     4  10  20  34  54  84 114 144 189 236 281 341
#     4   9  18  32  51  75 108 147 188 229 277 333
#     4  10  20  38  60  82 111 148 186 235 289 344
#
# _framework density 22.865977000000001
#
# number of rings (size 3 to 8) (size 9 to 14) (size 15 to 20)
#    0.000    2.500    0.000    3.750    0.000    1.000 
#    0.000   10.000    0.000    0.000    0.000    0.000 
#    0.000    0.000    0.000    0.000    0.000    0.000 
#
# Total GULP energy -89099.417834 kJ/mol
# GULP energy per Si atom -5568.713615 kJ/mol
# Density = 2.281393 g / cm^3
# Si number density = 22.865977 Si / 1000 Ang^3
#
#
#
# Elastic Constant Matrix: (Units=GPa)
#
#
# Indices 1 2 3 4 5 6 
#
# 1 23.6015 -0.3569 14.2633 0.0000 4.4946 0.0000
# 2 -0.3569 66.2636 35.0008 0.0000 -1.3866 0.0000
# 3 14.2633 35.0008 191.9226 0.0000 7.2934 0.0000
# 4 0.0000 0.0000 0.0000 37.4997 0.0000 2.5991
# 5 4.4946 -1.3866 7.2934 0.0000 28.5707 0.0000
# 6 0.0000 0.0000 0.0000 2.5991 0.0000 12.5390
#
#
#
# Elastic Compliance Matrix: (Units=1/GPa)
#
#
# Indices 1 2 3 4 5 6 
#
# 1 0.045709 0.001977 -0.003522 0.000000 -0.006196 0.000000
# 2 0.001977 0.016858 -0.003272 0.000000 0.001343 0.000000
# 3 -0.003522 -0.003272 0.006113 0.000000 -0.001165 0.000000
# 4 0.000000 0.000000 0.000000 0.027056 0.000000 -0.005608
# 5 -0.006196 0.001343 -0.001165 0.000000 0.036338 0.000000
# 6 0.000000 0.000000 0.000000 -0.005608 0.000000 0.080913
#
#
# Mechanical properties :
#
#
# Convention : Reuss Voigt Hill
#
# Bulk Modulus (GPa) = 16.93618 42.17800 29.55709
# Shear Modulus (GPa) = 20.63521 31.24725 25.94123
#
# Velocity S-wave (km/s) = 3.00733 3.70068 3.37187
# Velocity P-wave (km/s) = 4.41378 6.06184 5.30223
#
# Compressibility (1/GPa) = 0.05904518
#
# Stress axis : x y z
#
# Youngs Moduli (GPa) = 21.87776 59.31730 163.57900
#
# Poissons Ratio (x) = -0.11727 0.57613
# Poissons Ratio (y) = -0.04325 0.53530
# Poissons Ratio (z) = 0.07705 0.19411
#
# Static dielectric constant tensor:
#      x y z
#    x 1.871340 0.000000 -0.027670 
#    y 0.000000 1.983830 0.000000 
#    z -0.027670 0.000000 2.007460 
# 
# From -- ./inp_files/6092.got.cif
#   From: 2010.05.17/outbox.cif.g08.bks.cpg/sg9_4_cif.got.tgz:6092.got - 2010.06.03 20:04:27.
