data_PCOD9134198
_publ_section_title
;
Structure prediction by ZEFSAII (Michael W. Deem and Ramdas Pophale) SiO2 
 PCOD9134198
Probable space group: C C
;
_chemical_formula_sum "Si O2"
_cell_formula_units_Z 32
_cell_length_a 11.206184
_cell_length_b 8.841236
_cell_length_c 13.757701
_cell_angle_alpha 90.000000
_cell_angle_beta 99.589012
_cell_angle_gamma 90.000000
_cell_volume 1344.020359
_symmetry_space_group_name_H-M "C C"
_symmetry_group_IT_number 9
_symmetry_cell_setting 'monoclinic'
loop_
_space_group_symop_operation_xyz
x,y,z
x,-y,1/2+z
1/2+x,1/2+y,z
1/2+x,1/2-y,1/2+z
loop_
_atom_site_type_symbol
_atom_site_label
_atom_site_fract_x
_atom_site_fract_y
_atom_site_fract_z
Si Si1 0.879270 0.214861 0.412130
Si Si2 0.931545 0.896259 0.432074
Si Si3 0.119247 0.972490 0.616112
Si Si4 0.296453 0.868566 0.007836
Si Si5 0.247427 0.980272 0.306918
Si Si6 0.529972 0.918589 0.567809
Si Si7 0.437938 0.773449 0.749396
Si Si8 0.742059 0.150447 0.593415
O O1 0.809692 0.319276 0.326876
O O2 0.994578 0.305995 0.473749
O O3 0.796288 0.187765 0.495693
O O4 0.898213 0.049443 0.373024
O O5 0.827610 0.794361 0.468117
O O6 0.991428 0.786959 0.358878
O O7 0.003731 0.964199 0.533295
O O8 0.168020 0.801689 0.610704
O O9 0.211323 0.099627 0.587200
O O10 0.124235 0.008170 0.730078
O O11 0.230337 0.959626 0.912994
O O12 0.423172 0.954462 0.046230
O O13 0.347585 0.090443 0.271123
O O14 0.516797 0.836735 0.670658
O O15 0.655631 0.006435 0.578787
O O16 0.350119 0.650456 0.686266
#
# Coordination Sequence:
#
# PCOD9134198 Si02
#       8
#     4   4   4   4   4   4   4   4
#     4  10  22  42  60  98 141 174 230 292 343 418
#     4  11  24  41  63  98 141 177 227 290 350 409
#     4  11  20  40  69  98 131 182 232 280 351 422
#     4  10  19  39  66  94 135 174 224 289 336 416
#     4   9  18  39  67  89 132 182 220 281 350 404
#     4  10  18  40  70  94 130 183 230 283 356 415
#     4   9  20  41  63  99 135 172 236 283 345 430
#     4  10  19  40  70  96 129 178 229 288 351 418
#
# _framework density 23.809163999999999
#
# number of rings (size 3 to 8) (size 9 to 14) (size 15 to 20)
#    0.000    2.000    6.250    0.000    0.000    1.000 
#   13.500    3.750    0.000    0.000    0.000    0.000 
#    0.000    0.000    0.000    0.000    0.000    0.000 
#
# Total GULP energy -89378.572790 kJ/mol
# GULP energy per Si atom -5586.160799 kJ/mol
# Density = 2.375497 g / cm^3
# Si number density = 23.809164 Si / 1000 Ang^3
#
#
#
# Elastic Constant Matrix: (Units=GPa)
#
#
# Indices 1 2 3 4 5 6 
#
# 1 52.2031 48.8242 27.6279 0.0000 16.9147 0.0000
# 2 48.8242 133.9995 39.2952 0.0000 9.6842 0.0000
# 3 27.6279 39.2952 111.5433 0.0000 18.6545 0.0000
# 4 0.0000 0.0000 0.0000 39.4465 0.0000 2.3310
# 5 16.9147 9.6842 18.6545 0.0000 28.4571 0.0000
# 6 0.0000 0.0000 0.0000 2.3310 0.0000 45.1137
#
#
#
# Elastic Compliance Matrix: (Units=1/GPa)
#
#
# Indices 1 2 3 4 5 6 
#
# 1 0.036228 -0.011367 -0.002262 0.000000 -0.016182 0.000000
# 2 -0.011367 0.011916 -0.002060 0.000000 0.004052 0.000000
# 3 -0.002262 -0.002060 0.011129 0.000000 -0.005250 0.000000
# 4 0.000000 0.000000 0.000000 0.025428 0.000000 -0.001314
# 5 -0.016182 0.004052 -0.005250 0.000000 0.046822 0.000000
# 6 0.000000 0.000000 0.000000 -0.001314 0.000000 0.022234
#
#
# Mechanical properties :
#
#
# Convention : Reuss Voigt Hill
#
# Bulk Modulus (GPa) = 35.85002 58.80450 47.32726
# Shear Modulus (GPa) = 25.71567 34.73670 30.22618
#
# Velocity S-wave (km/s) = 3.29001 3.82378 3.56690
# Velocity P-wave (km/s) = 5.43343 6.65184 6.07327
#
# Compressibility (1/GPa) = 0.02789399
#
# Stress axis : x y z
#
# Youngs Moduli (GPa) = 27.60290 83.92297 89.85428
#
# Poissons Ratio (x) = 0.95397 0.20329
# Poissons Ratio (y) = 0.31377 0.18509
# Poissons Ratio (z) = 0.06245 0.17287
#
# Static dielectric constant tensor:
#      x y z
#    x 1.965230 0.000000 0.022500 
#    y 0.000000 1.960430 0.000000 
#    z 0.022500 0.000000 1.886140 
# 
# From -- ./inp_files/24377.got.cif
#   From: 2010.05.17/outbox.cif.g08.bks.cpg/sg9_13_cif.got.tgz:24377.got - 2010.06.03 20:04:27.
