data_PCOD9134657
_publ_section_title
;
Structure prediction by ZEFSAII (Michael W. Deem and Ramdas Pophale) SiO2 
 PCOD9134657
Probable space group: C C
;
_chemical_formula_sum "Si O2"
_cell_formula_units_Z 32
_cell_length_a 13.996279
_cell_length_b 12.668969
_cell_length_c 13.598736
_cell_angle_alpha 90.000000
_cell_angle_beta 138.322314
_cell_angle_gamma 90.000000
_cell_volume 1603.372960
_symmetry_space_group_name_H-M "C C"
_symmetry_group_IT_number 9
_symmetry_cell_setting 'monoclinic'
loop_
_space_group_symop_operation_xyz
x,y,z
x,-y,1/2+z
1/2+x,1/2+y,z
1/2+x,1/2-y,1/2+z
loop_
_atom_site_type_symbol
_atom_site_label
_atom_site_fract_x
_atom_site_fract_y
_atom_site_fract_z
Si Si1 0.528240 0.325212 0.519700
Si Si2 0.261063 0.442050 0.525294
Si Si3 0.099324 0.048469 0.255504
Si Si4 0.418202 0.842308 0.701799
Si Si5 0.523797 0.950224 0.188185
Si Si6 0.809013 0.725877 0.502398
Si Si7 0.574765 0.900159 0.012932
Si Si8 0.621811 0.661894 0.882015
O O1 0.597958 0.415950 0.640554
O O2 0.384065 0.286951 0.466905
O O3 0.619903 0.215552 0.588048
O O4 0.522652 0.364206 0.402510
O O5 0.431133 0.456714 0.654694
O O6 0.178953 0.458596 0.358219
O O7 0.246577 0.315114 0.526551
O O8 0.184833 0.524802 0.539729
O O9 0.190821 0.140837 0.378344
O O10 0.150933 0.934399 0.331351
O O11 0.447397 0.867787 0.839303
O O12 0.541793 0.759120 0.769980
O O13 0.269021 0.801143 0.545764
O O14 0.436579 0.954648 0.666217
O O15 0.441809 0.841018 0.149014
O O16 0.525571 0.958971 0.072579
#
# Coordination Sequence:
#
# PCOD9134657 Si02
#       8
#     4   4   4   4   4   4   4   4
#     4   9  22  37  63  91 121 166 207 257 310 381
#     4  10  21  35  61  94 126 164 203 263 314 368
#     4  11  23  37  62  95 127 161 214 274 309 373
#     4  10  23  40  63  91 123 173 207 267 320 381
#     4  10  20  40  63  86 128 172 207 253 323 384
#     4  10  19  39  60  90 126 163 209 258 314 369
#     4   9  20  39  67  88 123 168 211 244 313 392
#     4  11  24  39  65  91 128 161 220 264 321 378
#
# _framework density 19.957927000000002
#
# number of rings (size 3 to 8) (size 9 to 14) (size 15 to 20)
#    0.000    2.000    1.250    2.250   10.500    2.000 
#    2.250    1.250    8.250    0.000    0.000    0.000 
#    0.000    0.000    0.000    0.000    0.000    0.000 
#
# Total GULP energy -89069.671078 kJ/mol
# GULP energy per Si atom -5566.854442 kJ/mol
# Density = 1.991250 g / cm^3
# Si number density = 19.957927 Si / 1000 Ang^3
#
#
#
# Elastic Constant Matrix: (Units=GPa)
#
#
# Indices 1 2 3 4 5 6 
#
# 1 44.5186 30.9020 14.0331 0.0000 -4.0501 0.0000
# 2 30.9020 64.7320 6.6966 0.0000 -12.7540 0.0000
# 3 14.0331 6.6966 85.7802 0.0000 13.9050 0.0000
# 4 0.0000 0.0000 0.0000 35.3761 0.0000 -1.7898
# 5 -4.0501 -12.7540 13.9050 0.0000 34.5978 0.0000
# 6 0.0000 0.0000 0.0000 -1.7898 0.0000 40.6506
#
#
#
# Elastic Compliance Matrix: (Units=1/GPa)
#
#
# Indices 1 2 3 4 5 6 
#
# 1 0.035228 -0.016379 -0.004465 0.000000 -0.000120 0.000000
# 2 -0.016379 0.024772 -0.000453 0.000000 0.007397 0.000000
# 3 -0.004465 -0.000453 0.013409 0.000000 -0.006079 0.000000
# 4 0.000000 0.000000 0.000000 0.028331 0.000000 0.001247
# 5 -0.000120 0.007397 -0.006079 0.000000 0.034059 0.000000
# 6 0.000000 0.000000 0.000000 0.001247 0.000000 0.024655
#
#
# Mechanical properties :
#
#
# Convention : Reuss Voigt Hill
#
# Bulk Modulus (GPa) = 32.45281 33.14381 32.79831
# Shear Modulus (GPa) = 23.43892 31.68485 27.56188
#
# Velocity S-wave (km/s) = 3.43069 3.98877 3.72021
# Velocity P-wave (km/s) = 5.65586 6.15277 5.90954
#
# Compressibility (1/GPa) = 0.03081398
#
# Stress axis : x y z
#
# Youngs Moduli (GPa) = 28.38615 40.36871 74.57705
#
# Poissons Ratio (x) = 0.66120 0.33299
# Poissons Ratio (y) = 0.46494 0.03381
# Poissons Ratio (z) = 0.12675 0.01830
#
# Static dielectric constant tensor:
#      x y z
#    x 1.746360 0.000000 0.036370 
#    y 0.000000 1.731940 0.000000 
#    z 0.036370 0.000000 1.786800 
# 
# From -- ./inp_files/25915.got.cif
#   From: 2010.05.17/outbox.cif.g08.bks.cpg/sg9_13_cif.got.tgz:25915.got - 2010.06.03 20:04:27.
