data_PCOD9134153
_publ_section_title
;
Structure prediction by ZEFSAII (Michael W. Deem and Ramdas Pophale) SiO2 
 PCOD9134153
Probable space group: C C
;
_chemical_formula_sum "Si O2"
_cell_formula_units_Z 32
_cell_length_a 11.571559
_cell_length_b 8.334267
_cell_length_c 28.056519
_cell_angle_alpha 90.000000
_cell_angle_beta 26.321727
_cell_angle_gamma 90.000000
_cell_volume 1199.774547
_symmetry_space_group_name_H-M "C C"
_symmetry_group_IT_number 9
_symmetry_cell_setting 'monoclinic'
loop_
_space_group_symop_operation_xyz
x,y,z
x,-y,1/2+z
1/2+x,1/2+y,z
1/2+x,1/2-y,1/2+z
loop_
_atom_site_type_symbol
_atom_site_label
_atom_site_fract_x
_atom_site_fract_y
_atom_site_fract_z
Si Si1 0.827500 0.433306 0.041360
Si Si2 0.346483 0.925004 0.630556
Si Si3 0.590902 0.662783 0.985279
Si Si4 0.826316 0.351442 0.863896
Si Si5 0.206246 0.895964 0.270540
Si Si6 0.788111 0.085672 0.700245
Si Si7 0.799165 0.161041 0.317871
Si Si8 0.019880 0.227036 0.384279
O O1 0.951045 0.532779 0.039641
O O2 0.555674 0.488234 0.121006
O O3 0.826501 0.252327 0.066072
O O4 0.019200 0.421550 0.925078
O O5 0.391858 0.033844 0.660329
O O6 0.362245 0.739644 0.640419
O O7 0.038477 0.955683 0.734893
O O8 0.635242 0.474675 0.962793
O O9 0.778200 0.737547 0.874520
O O10 0.717940 0.728297 0.986620
O O11 0.650573 0.279042 0.887228
O O12 0.970321 0.214075 0.839605
O O13 0.084351 0.458915 0.753261
O O14 0.341607 0.783007 0.259441
O O15 0.077452 0.048209 0.343741
O O16 0.666370 0.153609 0.794169
#
# Coordination Sequence:
#
# PCOD9134153 Si02
#       8
#     4   4   4   4   4   4   4   4
#     4  10  21  37  64  90 125 168 213 262 316 377
#     4  11  21  39  62  91 122 167 215 251 316 381
#     4   9  20  39  59  85 123 166 200 257 320 369
#     4  11  20  35  62  89 116 159 205 258 314 374
#     4  11  20  34  64  88 114 159 205 253 310 373
#     4  10  20  35  57  87 118 160 201 258 315 363
#     4  10  20  41  61  87 129 163 203 265 316 369
#     4  10  18  38  59  85 121 156 206 254 309 378
#
# _framework density 26.671676000000001
#
# number of rings (size 3 to 8) (size 9 to 14) (size 15 to 20)
#    0.750    1.000    5.000    1.500    0.000    4.000 
#    0.000    3.750    0.000   13.500    0.000    0.000 
#    0.000    0.000    0.000    0.000    0.000    0.000 
#
# Total GULP energy -89418.699169 kJ/mol
# GULP energy per Si atom -5588.668698 kJ/mol
# Density = 2.661097 g / cm^3
# Si number density = 26.671676 Si / 1000 Ang^3
#
#
#
# Elastic Constant Matrix: (Units=GPa)
#
#
# Indices 1 2 3 4 5 6 
#
# 1 144.1696 40.3900 17.6942 -0.0055 1.8178 0.0032
# 2 40.3900 90.4567 26.4716 -0.0532 27.6153 -0.0215
# 3 17.6942 26.4716 39.3215 -0.0652 5.8081 -0.0370
# 4 -0.0055 -0.0532 -0.0652 38.3967 -0.0192 9.8788
# 5 1.8178 27.6153 5.8081 -0.0192 35.1588 0.0043
# 6 0.0032 -0.0215 -0.0370 9.8788 0.0043 64.5455
#
#
#
# Elastic Compliance Matrix: (Units=1/GPa)
#
#
# Indices 1 2 3 4 5 6 
#
# 1 0.008250 -0.004257 -0.001309 -0.000005 0.003134 -0.000002
# 2 -0.004257 0.019974 -0.009477 0.000004 -0.013903 0.000002
# 3 -0.001309 -0.009477 0.032074 0.000040 0.002213 0.000009
# 4 -0.000005 0.000004 0.000040 0.027112 0.000006 -0.004149
# 5 0.003134 -0.013903 0.002213 0.000006 0.038834 -0.000007
# 6 -0.000002 0.000002 0.000009 -0.004149 -0.000007 0.016128
#
#
# Mechanical properties :
#
#
# Convention : Reuss Voigt Hill
#
# Bulk Modulus (GPa) = 33.10151 49.22883 41.16517
# Shear Modulus (GPa) = 27.39287 40.24632 33.81960
#
# Velocity S-wave (km/s) = 3.20822 3.88874 3.56476
# Velocity P-wave (km/s) = 5.11481 6.21775 5.69305
#
# Compressibility (1/GPa) = 0.03021010
#
# Stress axis : x y z
#
# Youngs Moduli (GPa) = 121.20963 50.06598 31.17809
#
# Poissons Ratio (x) = 0.21315 0.04082
# Poissons Ratio (y) = 0.51603 0.29548
# Poissons Ratio (z) = 0.15870 0.47448
#
# Static dielectric constant tensor:
#      x y z
#    x 2.073540 0.000000 0.001280 
#    y 0.000000 2.166360 0.000010 
#    z 0.001280 0.000010 2.128160 
# 
# From -- ./inp_files/37272.got.cif
#   From: 2010.05.17/outbox.cif.g08.bks.cpg/sg9_19_cif.got.tgz:37272.got - 2010.06.03 20:04:27.
