data_PCOD9134073
_publ_section_title
;
Structure prediction by ZEFSAII (Michael W. Deem and Ramdas Pophale) SiO2 
 PCOD9134073
Probable space group: C C
;
_chemical_formula_sum "Si O2"
_cell_formula_units_Z 32
_cell_length_a 14.754171
_cell_length_b 10.979821
_cell_length_c 13.512633
_cell_angle_alpha 90.000000
_cell_angle_beta 44.359131
_cell_angle_gamma 90.000000
_cell_volume 1530.462205
_symmetry_space_group_name_H-M "C C"
_symmetry_group_IT_number 9
_symmetry_cell_setting 'monoclinic'
loop_
_space_group_symop_operation_xyz
x,y,z
x,-y,1/2+z
1/2+x,1/2+y,z
1/2+x,1/2-y,1/2+z
loop_
_atom_site_type_symbol
_atom_site_label
_atom_site_fract_x
_atom_site_fract_y
_atom_site_fract_z
Si Si1 0.182540 0.534702 0.494990
Si Si2 0.416885 0.367253 0.581494
Si Si3 0.027265 0.885123 0.937994
Si Si4 0.507310 0.887731 0.511833
Si Si5 0.965546 0.429971 0.325452
Si Si6 0.165439 0.253980 0.848713
Si Si7 0.779939 0.505979 0.323533
Si Si8 0.954038 0.853659 0.787079
O O1 0.141464 0.417045 0.463426
O O2 0.149951 0.649584 0.449524
O O3 0.331587 0.558434 0.402271
O O4 0.090260 0.541233 0.661325
O O5 0.428233 0.507120 0.541182
O O6 0.270976 0.316454 0.694363
O O7 0.520319 0.289828 0.436374
O O8 0.469517 0.361021 0.655857
O O9 0.156283 0.913208 0.898339
O O10 0.053692 0.886688 0.798112
O O11 0.981674 0.753344 0.009385
O O12 0.502932 0.949906 0.408492
O O13 0.395597 0.947900 0.664072
O O14 0.841238 0.504102 0.384577
O O15 0.930038 0.288381 0.331035
O O16 0.236662 0.130260 0.827935
#
# Coordination Sequence:
#
# PCOD9134073 Si02
#       8
#     4   4   4   4   4   4   4   4
#     4  10  19  35  63  85 122 147 204 251 299 344
#     4  10  19  36  64  86 124 146 204 255 296 346
#     4  10  24  37  60  91 120 158 200 243 308 359
#     4  10  23  38  60  88 121 160 199 242 311 362
#     4  10  19  37  62  89 109 160 208 245 290 355
#     4  10  18  35  61  91 108 154 198 253 298 329
#     4  10  20  38  62  85 123 151 203 253 300 350
#     4  10  20  36  62  91 111 156 208 248 286 351
#
# _framework density 20.908718
#
# number of rings (size 3 to 8) (size 9 to 14) (size 15 to 20)
#    0.000    2.000    3.750    0.750    0.000   10.000 
#    0.000    0.000   35.750    0.000    0.000    0.000 
#    0.000    0.000    0.000    0.000    0.000    0.000 
#
# Total GULP energy -89173.688230 kJ/mol
# GULP energy per Si atom -5573.355514 kJ/mol
# Density = 2.086113 g / cm^3
# Si number density = 20.908718 Si / 1000 Ang^3
#
#
#
# Elastic Constant Matrix: (Units=GPa)
#
#
# Indices 1 2 3 4 5 6 
#
# 1 71.8426 12.8610 33.9385 0.0000 0.7144 0.0000
# 2 12.8610 57.9840 25.6942 0.0000 8.6074 0.0000
# 3 33.9385 25.6942 66.3557 0.0000 -9.0596 0.0000
# 4 0.0000 0.0000 0.0000 29.8581 0.0000 -1.4963
# 5 0.7144 8.6074 -9.0596 0.0000 27.3012 0.0000
# 6 0.0000 0.0000 0.0000 -1.4963 0.0000 21.8681
#
#
#
# Elastic Compliance Matrix: (Units=1/GPa)
#
#
# Indices 1 2 3 4 5 6 
#
# 1 0.018795 0.001226 -0.010692 0.000000 -0.004426 0.000000
# 2 0.001226 0.023663 -0.011326 0.000000 -0.011251 0.000000
# 3 -0.010692 -0.011326 0.026658 0.000000 0.012697 0.000000
# 4 0.000000 0.000000 0.000000 0.033607 0.000000 0.002299
# 5 -0.004426 -0.011251 0.012697 0.000000 0.044505 0.000000
# 6 0.000000 0.000000 0.000000 0.002299 0.000000 0.045886
#
#
# Mechanical properties :
#
#
# Convention : Reuss Voigt Hill
#
# Bulk Modulus (GPa) = 36.32103 37.90774 37.11438
# Shear Modulus (GPa) = 20.50233 24.05139 22.27686
#
# Velocity S-wave (km/s) = 3.13479 3.39529 3.26764
# Velocity P-wave (km/s) = 5.52372 5.79139 5.65914
#
# Compressibility (1/GPa) = 0.02753226
#
# Stress axis : x y z
#
# Youngs Moduli (GPa) = 53.20655 42.25970 37.51218
#
# Poissons Ratio (x) = -0.05182 0.40108
# Poissons Ratio (y) = -0.06524 0.42487
# Poissons Ratio (z) = 0.56888 0.47864
#
# Static dielectric constant tensor:
#      x y z
#    x 1.799940 0.000000 -0.010650 
#    y 0.000000 1.750910 0.000000 
#    z -0.010650 0.000000 1.754730 
# 
# From -- ./inp_files/18210.got.cif
#   From: 2010.05.17/outbox.cif.g08.bks.cpg/sg9_10_cif.got.tgz:18210.got - 2010.06.03 20:04:27.
