data_PCOD9134524
_publ_section_title
;
Structure prediction by ZEFSAII (Michael W. Deem and Ramdas Pophale) SiO2 
 PCOD9134524
Probable space group: C C
;
_chemical_formula_sum "Si O2"
_cell_formula_units_Z 28
_cell_length_a 19.709348
_cell_length_b 9.476513
_cell_length_c 8.810152
_cell_angle_alpha 90.000000
_cell_angle_beta 142.968038
_cell_angle_gamma 90.000000
_cell_volume 991.034014
_symmetry_space_group_name_H-M "C C"
_symmetry_group_IT_number 9
_symmetry_cell_setting 'monoclinic'
loop_
_space_group_symop_operation_xyz
x,y,z
x,-y,1/2+z
1/2+x,1/2+y,z
1/2+x,1/2-y,1/2+z
loop_
_atom_site_type_symbol
_atom_site_label
_atom_site_fract_x
_atom_site_fract_y
_atom_site_fract_z
Si Si1 0.181510 0.195897 0.504740
Si Si2 0.385244 0.568006 0.713110
Si Si3 0.221213 0.924489 0.386459
Si Si4 0.436168 0.751489 0.347442
Si Si5 0.155274 0.423650 0.242239
Si Si6 0.324853 0.240474 0.356575
Si Si7 0.456765 0.855381 0.681990
O O1 0.154712 0.157905 0.632646
O O2 0.314870 0.227879 0.718321
O O3 0.129189 0.342174 0.352406
O O4 0.163279 0.063006 0.356244
O O5 0.441167 0.416195 0.830356
O O6 0.252827 0.541401 0.432569
O O7 0.384532 0.630864 0.879251
O O8 0.439518 0.308319 0.208991
O O9 0.269593 0.849769 0.624018
O O10 0.337975 0.934825 0.499458
O O11 0.507285 0.834393 0.601851
O O12 0.414337 0.807667 0.140833
O O13 0.221969 0.303056 0.266498
O O14 0.043402 0.434121 0.946232
#
# Coordination Sequence:
#
# PCOD9134524 Si02
#       7
#     4   4   4   4   4   4   4
#     4   9  18  34  59  82 121 155 197 247 317 364
#     4   9  18  37  62  83 124 168 195 262 322 363
#     4  10  19  37  62  83 117 168 192 248 322 375
#     4   9  17  33  59  85 115 162 200 248 312 376
#     4  10  21  39  60  93 123 157 215 259 303 392
#     4   9  18  34  61  84 117 165 207 239 325 375
#     4  10  21  38  61  92 123 157 216 253 311 387
#
# _framework density 28.253319000000001
#
# number of rings (size 3 to 8) (size 9 to 14) (size 15 to 20)
#    0.000    2.857    0.000    3.429    0.000    2.286 
#   10.286    2.857    0.000    0.000    0.000    0.000 
#    0.000    0.000    0.000    0.000    0.000    0.000 
#
# Total GULP energy -78183.050040 kJ/mol
# GULP energy per Si atom -5584.503574 kJ/mol
# Density = 2.818901 g / cm^3
# Si number density = 28.253319 Si / 1000 Ang^3
#
#
#
# Elastic Constant Matrix: (Units=GPa)
#
#
# Indices 1 2 3 4 5 6 
#
# 1 102.8573 35.1551 52.2545 0.0000 -17.0826 0.0000
# 2 35.1551 141.0387 50.3882 0.0000 -26.6549 0.0000
# 3 52.2545 50.3882 162.1223 0.0000 -30.3724 0.0000
# 4 0.0000 0.0000 0.0000 29.6342 0.0000 -11.3683
# 5 -17.0826 -26.6549 -30.3724 0.0000 63.5782 0.0000
# 6 0.0000 0.0000 0.0000 -11.3683 0.0000 25.6945
#
#
#
# Elastic Compliance Matrix: (Units=1/GPa)
#
#
# Indices 1 2 3 4 5 6 
#
# 1 0.012082 -0.001682 -0.003180 0.000000 0.001022 0.000000
# 2 -0.001682 0.008550 -0.001678 0.000000 0.002331 0.000000
# 3 -0.003180 -0.001678 0.008153 0.000000 0.002337 0.000000
# 4 0.000000 0.000000 0.000000 0.040643 0.000000 0.017982
# 5 0.001022 0.002331 0.002337 0.000000 0.018097 0.000000
# 6 0.000000 0.000000 0.000000 0.017982 0.000000 0.046875
#
#
# Mechanical properties :
#
#
# Convention : Reuss Voigt Hill
#
# Bulk Modulus (GPa) = 63.68193 75.73491 69.70842
# Shear Modulus (GPa) = 32.74065 41.66274 37.20170
#
# Velocity S-wave (km/s) = 3.40784 3.84424 3.63260
# Velocity P-wave (km/s) = 6.17034 6.82408 6.50543
#
# Compressibility (1/GPa) = 0.01570304
#
# Stress axis : x y z
#
# Youngs Moduli (GPa) = 82.76437 116.96319 122.66127
#
# Poissons Ratio (x) = 0.19678 0.39007
# Poissons Ratio (y) = 0.13925 0.20587
# Poissons Ratio (z) = 0.26319 0.19631
#
# Static dielectric constant tensor:
#      x y z
#    x 2.270300 0.000000 0.040360 
#    y 0.000000 2.248900 0.000000 
#    z 0.040360 0.000000 2.503030 
# 
# From -- ./inp_files/12170.got.cif
#   From: 2010.05.17/outbox.cif.g08.bks.cpg/sg9_7_cif.got.tgz:12170.got - 2010.06.03 20:04:27.
