data_PCOD9134234
_publ_section_title
;
Structure prediction by ZEFSAII (Michael W. Deem and Ramdas Pophale) SiO2 
 PCOD9134234
Probable space group: C C
;
_chemical_formula_sum "Si O2"
_cell_formula_units_Z 32
_cell_length_a 20.637310
_cell_length_b 9.748806
_cell_length_c 7.172074
_cell_angle_alpha 90.000000
_cell_angle_beta 50.470378
_cell_angle_gamma 90.000000
_cell_volume 1112.935888
_symmetry_space_group_name_H-M "C C"
_symmetry_group_IT_number 9
_symmetry_cell_setting 'monoclinic'
loop_
_space_group_symop_operation_xyz
x,y,z
x,-y,1/2+z
1/2+x,1/2+y,z
1/2+x,1/2-y,1/2+z
loop_
_atom_site_type_symbol
_atom_site_label
_atom_site_fract_x
_atom_site_fract_y
_atom_site_fract_z
Si Si1 0.647410 0.382876 0.371020
Si Si2 0.888619 0.331283 0.239016
Si Si3 0.813057 0.307411 0.971135
Si Si4 0.562539 0.141139 0.292100
Si Si5 0.208448 0.851083 0.677209
Si Si6 0.734886 0.091327 0.895527
Si Si7 0.480180 0.713746 0.600306
Si Si8 0.917909 0.060051 0.402406
O O1 0.731871 0.398634 0.083823
O O2 0.592630 0.273712 0.359264
O O3 0.678579 0.331537 0.516609
O O4 0.636862 0.547716 0.396823
O O5 0.850925 0.332133 0.101872
O O6 0.809707 0.383416 0.502625
O O7 0.904038 0.174410 0.270537
O O8 0.978543 0.405488 0.056141
O O9 0.764731 0.163497 0.032902
O O10 0.896126 0.300392 0.694554
O O11 0.533664 0.193345 0.139888
O O12 0.641615 0.037447 0.119867
O O13 0.211644 0.707644 0.785097
O O14 0.826307 0.038725 0.664659
O O15 0.494007 0.630669 0.382983
O O16 0.447994 0.586331 0.781957
#
# Coordination Sequence:
#
# PCOD9134234 Si02
#       8
#     4   4   4   4   4   4   4   4
#     4  10  19  31  52  77 106 137 176 219 262 309
#     4   9  19  34  52  75 107 139 174 214 266 318
#     4   8  16  32  50  72 100 138 172 208 258 320
#     4  10  20  34  54  82 110 136 176 232 270 298
#     4  10  20  34  52  77 108 145 176 209 264 329
#     4   9  19  34  52  75 107 139 174 214 266 318
#     4  10  19  31  52  77 106 137 176 219 262 309
#     4  10  20  34  52  77 108 145 176 209 264 329
#
# _framework density 28.752777999999999
#
# number of rings (size 3 to 8) (size 9 to 14) (size 15 to 20)
#    0.000    2.500    0.000    3.000    0.000    5.000 
#    0.000    0.000    0.000   13.500    0.000    0.000 
#    0.000    0.000    0.000    0.000    0.000    0.000 
#
# Total GULP energy -89195.544687 kJ/mol
# GULP energy per Si atom -5574.721543 kJ/mol
# Density = 2.868733 g / cm^3
# Si number density = 28.752778 Si / 1000 Ang^3
#
#
#
# Elastic Constant Matrix: (Units=GPa)
#
#
# Indices 1 2 3 4 5 6 
#
# 1 186.8445 40.2062 39.7673 0.0000 -9.8188 0.0000
# 2 40.2062 61.8618 14.0624 0.0000 4.8296 0.0000
# 3 39.7673 14.0624 103.9881 0.0000 -44.7488 0.0000
# 4 0.0000 0.0000 0.0000 17.4026 0.0000 8.4232
# 5 -9.8188 4.8296 -44.7488 0.0000 76.7496 0.0000
# 6 0.0000 0.0000 0.0000 8.4232 0.0000 30.9696
#
#
#
# Elastic Compliance Matrix: (Units=1/GPa)
#
#
# Indices 1 2 3 4 5 6 
#
# 1 0.006605 -0.003816 -0.002060 0.000000 -0.000116 0.000000
# 2 -0.003816 0.019475 -0.002552 0.000000 -0.003202 0.000000
# 3 -0.002060 -0.002552 0.014291 0.000000 0.008229 0.000000
# 4 0.000000 0.000000 0.000000 0.066174 0.000000 -0.017998
# 5 -0.000116 -0.003202 0.008229 0.000000 0.018014 0.000000
# 6 0.000000 0.000000 0.000000 -0.017998 0.000000 0.037185
#
#
# Mechanical properties :
#
#
# Convention : Reuss Voigt Hill
#
# Bulk Modulus (GPa) = 42.52524 60.08516 51.30520
# Shear Modulus (GPa) = 26.81849 42.26826 34.54337
#
# Velocity S-wave (km/s) = 3.05737 3.83829 3.46987
# Velocity P-wave (km/s) = 5.22355 6.37070 5.82543
#
# Compressibility (1/GPa) = 0.02351544
#
# Stress axis : x y z
#
# Youngs Moduli (GPa) = 151.38907 51.34726 69.97602
#
# Poissons Ratio (x) = 0.19593 0.14415
# Poissons Ratio (y) = 0.57768 0.17859
# Poissons Ratio (z) = 0.31185 0.13105
#
# Static dielectric constant tensor:
#      x y z
#    x 2.200090 0.000000 -0.048130 
#    y 0.000000 2.559090 0.000000 
#    z -0.048130 0.000000 2.513050 
# 
# From -- ./inp_files/9418.got.cif
#   From: 2010.05.17/outbox.cif.g08.bks.cpg/sg9_5_cif.got.tgz:9418.got - 2010.06.03 20:04:27.
