data_PCOD9134728
_publ_section_title
;
Structure prediction by ZEFSAII (Michael W. Deem and Ramdas Pophale) SiO2 
 PCOD9134728
Probable space group: C C
;
_chemical_formula_sum "Si O2"
_cell_formula_units_Z 32
_cell_length_a 12.815847
_cell_length_b 8.034725
_cell_length_c 13.548593
_cell_angle_alpha 90.000000
_cell_angle_beta 66.179015
_cell_angle_gamma 90.000000
_cell_volume 1276.275076
_symmetry_space_group_name_H-M "C C"
_symmetry_group_IT_number 9
_symmetry_cell_setting 'monoclinic'
loop_
_space_group_symop_operation_xyz
x,y,z
x,-y,1/2+z
1/2+x,1/2+y,z
1/2+x,1/2-y,1/2+z
loop_
_atom_site_type_symbol
_atom_site_label
_atom_site_fract_x
_atom_site_fract_y
_atom_site_fract_z
Si Si1 0.712980 0.610699 0.448340
Si Si2 0.099908 0.459249 0.968345
Si Si3 0.723326 0.693904 0.231896
Si Si4 0.814176 0.111405 0.509593
Si Si5 0.948647 0.587381 0.867247
Si Si6 0.495534 0.607351 0.033269
Si Si7 0.570609 0.573950 0.686559
Si Si8 0.971771 0.406690 0.685274
O O1 0.711761 0.735003 0.354398
O O2 0.837944 0.531700 0.408532
O O3 0.616205 0.475429 0.453692
O O4 0.675418 0.634159 0.576220
O O5 0.226629 0.415919 0.953680
O O6 0.055621 0.597515 0.061080
O O7 0.020149 0.299824 0.020813
O O8 0.059240 0.513290 0.877291
O O9 0.744680 0.823243 0.133201
O O10 0.625521 0.562428 0.237658
O O11 0.846288 0.604796 0.188965
O O12 0.905071 0.248340 0.437460
O O13 0.888631 0.952269 0.510634
O O14 0.982518 0.578464 0.740330
O O15 0.484963 0.524944 0.145844
O O16 0.505286 0.744249 0.738613
#
# Coordination Sequence:
#
# PCOD9134728 Si02
#       8
#     4   4   4   4   4   4   4   4
#     4   9  20  38  68  94 127 176 218 264 340 388
#     4  12  24  44  66  97 133 175 220 289 327 410
#     4  11  19  39  70  92 133 179 216 272 338 405
#     4  12  22  45  66  94 138 178 219 280 337 402
#     4  11  23  44  68  97 133 175 221 281 342 400
#     4  10  22  41  67  93 131 170 222 273 330 394
#     4  10  19  40  65  93 129 176 216 270 329 403
#     4  11  25  39  70  98 132 175 228 275 347 396
#
# _framework density 25.072963999999999
#
# number of rings (size 3 to 8) (size 9 to 14) (size 15 to 20)
#    0.750    0.500    6.250    0.000    1.750    3.000 
#    0.000    0.000    0.000    0.000    0.000    0.000 
#    0.000    0.000    0.000    0.000    0.000    0.000 
#
# Total GULP energy -89257.618333 kJ/mol
# GULP energy per Si atom -5578.601146 kJ/mol
# Density = 2.501590 g / cm^3
# Si number density = 25.072964 Si / 1000 Ang^3
#
#
#
# Elastic Constant Matrix: (Units=GPa)
#
#
# Indices 1 2 3 4 5 6 
#
# 1 137.7215 65.2006 33.2934 0.0000 17.1790 0.0000
# 2 65.2006 40.9707 -34.6171 0.0000 1.3747 0.0000
# 3 33.2934 -34.6171 42.1186 0.0000 3.9260 0.0000
# 4 0.0000 0.0000 0.0000 15.4678 0.0000 0.3933
# 5 17.1790 1.3747 3.9260 0.0000 18.5672 0.0000
# 6 0.0000 0.0000 0.0000 0.3933 0.0000 44.5853
#
#
#
# Elastic Compliance Matrix: (Units=1/GPa)
#
#
# Indices 1 2 3 4 5 6 
#
# 1 -0.001675 0.013127 0.012301 0.000000 -0.002023 0.000000
# 2 0.013127 -0.014825 -0.021964 0.000000 -0.006403 0.000000
# 3 0.012301 -0.021964 -0.003186 0.000000 -0.009081 0.000000
# 4 0.000000 0.000000 0.000000 0.064665 0.000000 -0.000570
# 5 -0.002023 -0.006403 -0.009081 0.000000 0.058125 0.000000
# 6 0.000000 0.000000 0.000000 -0.000570 0.000000 0.022434
#
#
# Mechanical properties :
#
#
# Convention : Reuss Voigt Hill
#
# Bulk Modulus (GPa) = -78.38605 38.72941 -19.82832
# Shear Modulus (GPa) = 43.72267 26.18633 34.95450
#
# Velocity S-wave (km/s) = 4.18043 3.23523 3.73783
# Velocity P-wave (km/s) = 2.83367 5.42548 3.27156
#
# Compressibility (1/GPa) = -0.01275737
#
# Stress axis : x y z
#
# Youngs Moduli (GPa) = -597.10274 -67.45541 -313.83143
#
# Poissons Ratio (x) = 0.88546 3.86049
# Poissons Ratio (y) = 7.83794 -6.89286
# Poissons Ratio (z) = 7.34505 -1.48156
#
# Static dielectric constant tensor:
#      x y z
#    x 1.922500 0.000000 -0.005240 
#    y 0.000000 1.991380 0.000000 
#    z -0.005240 0.000000 2.028200 
# 
# From -- ./inp_files/24356.got.cif
#   From: 2010.05.17/outbox.cif.g08.bks.cpg/sg9_13_cif.got.tgz:24356.got - 2010.06.03 20:04:27.
