data_PCOD9134469
_publ_section_title
;
Structure prediction by ZEFSAII (Michael W. Deem and Ramdas Pophale) SiO2 
 PCOD9134469
Probable space group: C C
;
_chemical_formula_sum "Si O2"
_cell_formula_units_Z 32
_cell_length_a 7.137077
_cell_length_b 17.061687
_cell_length_c 19.235562
_cell_angle_alpha 90.000000
_cell_angle_beta 146.010231
_cell_angle_gamma 90.000000
_cell_volume 1309.464983
_symmetry_space_group_name_H-M "C C"
_symmetry_group_IT_number 9
_symmetry_cell_setting 'monoclinic'
loop_
_space_group_symop_operation_xyz
x,y,z
x,-y,1/2+z
1/2+x,1/2+y,z
1/2+x,1/2-y,1/2+z
loop_
_atom_site_type_symbol
_atom_site_label
_atom_site_fract_x
_atom_site_fract_y
_atom_site_fract_z
Si Si1 0.141190 0.739038 0.084240
Si Si2 0.886266 0.927128 0.670305
Si Si3 0.261624 0.253045 0.101448
Si Si4 0.874537 0.530702 0.900972
Si Si5 0.148448 0.826310 0.950585
Si Si6 0.193659 0.809407 0.334556
Si Si7 0.867380 0.998329 0.860417
Si Si8 0.296798 0.069475 0.106086
O O1 0.399372 0.666343 0.159735
O O2 0.034695 0.767381 0.126158
O O3 0.220947 0.805986 0.053819
O O4 0.796082 0.701607 0.945768
O O5 0.710871 0.973200 0.551434
O O6 0.598417 0.930779 0.641544
O O7 0.227634 0.963998 0.805489
O O8 0.335227 0.307447 0.191209
O O9 0.223635 0.159954 0.101834
O O10 0.404034 0.208998 0.473466
O O11 0.890238 0.614914 0.868838
O O12 0.558007 0.545212 0.857471
O O13 0.822866 0.772133 0.841233
O O14 0.060527 0.915361 0.914580
O O15 0.976892 0.032890 0.968421
O O16 0.479562 0.979796 0.723603
#
# Coordination Sequence:
#
# PCOD9134469 Si02
#       8
#     4   4   4   4   4   4   4   4
#     4   8  19  40  56  88 129 152 206 270 304 371
#     4   8  15  29  56  82 112 162 196 248 305 366
#     4  11  20  39  66  89 124 172 208 264 322 371
#     4   9  17  30  58  85 117 158 205 246 311 366
#     4  10  22  39  65  92 122 166 217 255 322 380
#     4   9  20  39  58  90 130 158 215 269 300 391
#     4  10  19  36  63  93 120 169 209 259 315 389
#     4   9  18  34  60  85 128 159 210 257 315 372
#
# _framework density 24.437463999999999
#
# number of rings (size 3 to 8) (size 9 to 14) (size 15 to 20)
#    0.750    2.000    1.250    0.750    5.250    0.000 
#    2.250    0.000    8.250    0.000    0.000    0.000 
#    0.000    0.000    0.000    0.000    0.000    0.000 
#
# Total GULP energy -89077.046467 kJ/mol
# GULP energy per Si atom -5567.315404 kJ/mol
# Density = 2.438184 g / cm^3
# Si number density = 24.437464 Si / 1000 Ang^3
#
#
#
# Elastic Constant Matrix: (Units=GPa)
#
#
# Indices 1 2 3 4 5 6 
#
# 1 51.3986 3.5279 19.3037 -0.0011 -3.8124 -0.0018
# 2 3.5279 74.9810 36.0121 0.0012 -3.7798 -0.0005
# 3 19.3037 36.0121 130.4079 -0.0106 -16.5095 -0.0059
# 4 -0.0011 0.0012 -0.0106 34.9289 -0.0032 -18.3717
# 5 -3.8124 -3.7798 -16.5095 -0.0032 16.2472 -0.0030
# 6 -0.0018 -0.0005 -0.0059 -18.3717 -0.0030 -6.1645
#
#
#
# Elastic Compliance Matrix: (Units=1/GPa)
#
#
# Indices 1 2 3 4 5 6 
#
# 1 0.020677 0.000550 -0.002963 -0.000001 0.001969 -0.000002
# 2 0.000550 0.015401 -0.004435 0.000000 -0.000795 0.000004
# 3 -0.002963 -0.004435 0.010458 -0.000001 0.008900 -0.000010
# 4 -0.000001 0.000000 -0.000001 0.011151 -0.000005 -0.033232
# 5 0.001969 -0.000795 0.008900 -0.000005 0.070870 -0.000027
# 6 -0.000002 0.000004 -0.000010 -0.033232 -0.000027 -0.063181
#
#
# Mechanical properties :
#
#
# Convention : Reuss Voigt Hill
#
# Bulk Modulus (GPa) = 30.45160 41.60831 36.02995
# Shear Modulus (GPa) = 55.54372 22.19857 38.87114
#
# Velocity S-wave (km/s) = 4.77266 3.01721 3.99261
# Velocity P-wave (km/s) = 6.54669 5.40384 6.00252
#
# Compressibility (1/GPa) = 0.03283900
#
# Stress axis : x y z
#
# Youngs Moduli (GPa) = 48.36297 64.93170 95.61768
#
# Poissons Ratio (x) = -0.03569 0.28334
# Poissons Ratio (y) = -0.02658 0.42405
# Poissons Ratio (z) = 0.14331 0.28796
#
# Static dielectric constant tensor:
#      x y z
#    x 1.993290 0.000000 0.011930 
#    y 0.000000 1.912110 0.000000 
#    z 0.011930 0.000000 2.098090 
# 
# From -- ./inp_files/16916.got.cif
#   From: 2010.05.17/outbox.cif.g08.bks.cpg/sg9_9_cif.got.tgz:16916.got - 2010.06.03 20:04:27.
