data_PCOD9134367
_publ_section_title
;
Structure prediction by ZEFSAII (Michael W. Deem and Ramdas Pophale) SiO2 
 PCOD9134367
Probable space group: C C
;
_chemical_formula_sum "Si O2"
_cell_formula_units_Z 32
_cell_length_a 11.810143
_cell_length_b 26.205380
_cell_length_c 12.907306
_cell_angle_alpha 90.000000
_cell_angle_beta 156.162277
_cell_angle_gamma 90.000000
_cell_volume 1614.437507
_symmetry_space_group_name_H-M "C C"
_symmetry_group_IT_number 9
_symmetry_cell_setting 'monoclinic'
loop_
_space_group_symop_operation_xyz
x,y,z
x,-y,1/2+z
1/2+x,1/2+y,z
1/2+x,1/2-y,1/2+z
loop_
_atom_site_type_symbol
_atom_site_label
_atom_site_fract_x
_atom_site_fract_y
_atom_site_fract_z
Si Si1 0.144280 0.266496 0.563630
Si Si2 0.633291 0.437286 0.025108
Si Si3 0.917278 0.541984 0.323792
Si Si4 0.896896 0.981699 0.085376
Si Si5 0.036224 0.383566 0.523449
Si Si6 0.436967 0.961053 0.075732
Si Si7 0.576096 0.884363 0.786998
Si Si8 0.870159 0.223533 0.544484
O O1 0.122024 0.325673 0.569815
O O2 0.018305 0.232535 0.555354
O O3 0.955838 0.251624 0.310606
O O4 0.699189 0.496018 0.116800
O O5 0.809393 0.403083 0.252585
O O6 0.776038 0.430753 0.031132
O O7 0.312913 0.419179 0.750418
O O8 0.215508 0.517122 0.539179
O O9 0.943510 0.559460 0.464369
O O10 0.889874 0.589602 0.221418
O O11 0.823239 0.926163 0.982168
O O12 0.219371 0.991885 0.375931
O O13 0.731148 0.020883 0.870800
O O14 0.932308 0.381131 0.555146
O O15 0.723192 0.830758 0.932398
O O16 0.615407 0.264102 0.330010
#
# Coordination Sequence:
#
# PCOD9134367 Si02
#       8
#     4   4   4   4   4   4   4   4
#     4  10  19  35  56  85 121 149 185 251 313 362
#     4  11  24  36  57  85 118 170 196 247 288 357
#     4   9  22  40  58  84 119 164 204 248 292 354
#     4   9  22  34  59  82 112 160 202 235 299 332
#     4  12  22  37  59  88 124 153 201 237 314 364
#     4  11  20  43  53  81 122 159 203 246 277 355
#     4  10  21  38  59  91 116 162 193 243 311 364
#     4  10  20  35  55  84 124 145 188 249 314 366
#
# _framework density 19.821145999999999
#
# number of rings (size 3 to 8) (size 9 to 14) (size 15 to 20)
#    0.750    1.000    2.500    3.750    1.750    3.000 
#    0.000    0.000    0.000    0.000    0.000    5.250 
#    0.000    0.000    0.000    0.000    0.000    0.000 
#
# Total GULP energy -89203.236539 kJ/mol
# GULP energy per Si atom -5575.202284 kJ/mol
# Density = 1.977603 g / cm^3
# Si number density = 19.821146 Si / 1000 Ang^3
#
#
#
# Elastic Constant Matrix: (Units=GPa)
#
#
# Indices 1 2 3 4 5 6 
#
# 1 101.7501 7.9209 14.3220 -0.0008 -22.7475 0.0009
# 2 7.9209 66.3024 -0.1821 -0.0004 -4.2984 0.0000
# 3 14.3220 -0.1821 90.8472 -0.0031 -7.0561 0.0017
# 4 -0.0008 -0.0004 -0.0031 22.9172 -0.0008 2.5153
# 5 -22.7475 -4.2984 -7.0561 -0.0008 29.3204 0.0007
# 6 0.0009 0.0000 0.0017 2.5153 0.0007 16.6061
#
#
#
# Elastic Compliance Matrix: (Units=1/GPa)
#
#
# Indices 1 2 3 4 5 6 
#
# 1 0.012065 -0.000865 -0.001209 0.000001 0.008942 -0.000001
# 2 -0.000865 0.015293 0.000295 0.000000 0.001642 0.000000
# 3 -0.001209 0.000295 0.011341 0.000002 0.001834 -0.000001
# 4 0.000001 0.000000 0.000002 0.044373 0.000002 -0.006721
# 5 0.008942 0.001642 0.001834 0.000002 0.041726 -0.000003
# 6 -0.000001 0.000000 -0.000001 -0.006721 -0.000003 0.061237
#
#
# Mechanical properties :
#
#
# Convention : Reuss Voigt Hill
#
# Bulk Modulus (GPa) = 28.45776 33.66901 31.06339
# Shear Modulus (GPa) = 24.83769 29.55799 27.19784
#
# Velocity S-wave (km/s) = 3.54374 3.86584 3.70829
# Velocity P-wave (km/s) = 5.57966 6.07862 5.83447
#
# Compressibility (1/GPa) = 0.03513979
#
# Stress axis : x y z
#
# Youngs Moduli (GPa) = 82.88639 65.38945 88.17417
#
# Poissons Ratio (x) = 0.05656 0.10662
# Poissons Ratio (y) = 0.07169 -0.02597
# Poissons Ratio (z) = 0.10022 -0.01926
#
# Static dielectric constant tensor:
#      x y z
#    x 1.773880 0.000000 0.009420 
#    y 0.000000 1.707260 0.000000 
#    z 0.009420 0.000000 1.781140 
# 
# From -- ./inp_files/26193.got.cif
#   From: 2010.05.17/outbox.cif.g08.bks.cpg/sg9_14_cif.got.tgz:26193.got - 2010.06.03 20:04:27.
