data_PCOD9134650
_publ_section_title
;
Structure prediction by ZEFSAII (Michael W. Deem and Ramdas Pophale) SiO2 
 PCOD9134650
Probable space group: C C
;
_chemical_formula_sum "Si O2"
_cell_formula_units_Z 28
_cell_length_a 7.428613
_cell_length_b 16.202561
_cell_length_c 10.751020
_cell_angle_alpha 90.000000
_cell_angle_beta 118.749008
_cell_angle_gamma 90.000000
_cell_volume 1134.512942
_symmetry_space_group_name_H-M "C C"
_symmetry_group_IT_number 9
_symmetry_cell_setting 'monoclinic'
loop_
_space_group_symop_operation_xyz
x,y,z
x,-y,1/2+z
1/2+x,1/2+y,z
1/2+x,1/2-y,1/2+z
loop_
_atom_site_type_symbol
_atom_site_label
_atom_site_fract_x
_atom_site_fract_y
_atom_site_fract_z
Si Si1 0.307080 0.429499 0.563290
Si Si2 0.141558 0.046162 0.771135
Si Si3 0.278991 0.392450 0.278196
Si Si4 0.851590 0.669089 0.665792
Si Si5 0.150763 0.561750 0.341577
Si Si6 0.905574 0.380589 0.564755
Si Si7 0.423528 0.722550 0.432935
O O1 0.518899 0.463859 0.691278
O O2 0.344377 0.379731 0.445456
O O3 0.177476 0.510610 0.475887
O O4 0.139596 0.381088 0.587189
O O5 0.282839 0.083129 0.709679
O O6 0.962779 0.113593 0.742840
O O7 0.271012 0.053468 0.942196
O O8 0.223359 0.490150 0.269756
O O9 0.072524 0.344571 0.178398
O O10 0.662438 0.699432 0.522889
O O11 0.883262 0.731168 0.790653
O O12 0.302140 0.637844 0.399234
O O13 0.936995 0.595836 0.218230
O O14 0.844780 0.287407 0.511365
#
# Coordination Sequence:
#
# PCOD9134650 Si02
#       7
#     4   4   4   4   4   4   4
#     4  10  19  39  59  91 122 158 215 261 307 382
#     4  11  21  38  63  86 128 163 203 267 318 362
#     4  10  22  38  63  93 126 155 219 265 309 379
#     4  11  22  41  65  90 128 169 208 267 319 377
#     4  10  20  35  63  91 117 165 214 248 316 380
#     4  11  22  38  61  94 127 165 208 266 319 375
#     4  11  20  37  66  85 124 173 207 252 326 379
#
# _framework density 24.680197
#
# number of rings (size 3 to 8) (size 9 to 14) (size 15 to 20)
#    0.857    0.571    7.143    0.000    0.000    3.429 
#    0.000    2.857    0.000    0.000    0.000    0.000 
#    0.000    0.000    0.000    0.000    0.000    0.000 
#
# Total GULP energy -78152.214912 kJ/mol
# GULP energy per Si atom -5582.301065 kJ/mol
# Density = 2.462402 g / cm^3
# Si number density = 24.680197 Si / 1000 Ang^3
#
#
#
# Elastic Constant Matrix: (Units=GPa)
#
#
# Indices 1 2 3 4 5 6 
#
# 1 80.5253 -1.6277 12.6146 0.0000 18.3803 0.0000
# 2 -1.6277 95.4438 31.7212 0.0000 10.7516 0.0000
# 3 12.6146 31.7212 147.0462 0.0000 31.0777 0.0000
# 4 0.0000 0.0000 0.0000 36.1602 0.0000 10.0334
# 5 18.3803 10.7516 31.0777 0.0000 29.3354 0.0000
# 6 0.0000 0.0000 0.0000 10.0334 0.0000 26.6537
#
#
#
# Elastic Compliance Matrix: (Units=1/GPa)
#
#
# Indices 1 2 3 4 5 6 
#
# 1 0.014702 0.001195 0.000671 0.000000 -0.010360 0.000000
# 2 0.001195 0.011476 -0.001973 0.000000 -0.002865 0.000000
# 3 0.000671 -0.001973 0.009154 0.000000 -0.009395 0.000000
# 4 0.000000 0.000000 0.000000 0.030880 0.000000 -0.011624
# 5 -0.010360 -0.002865 -0.009395 0.000000 0.051583 0.000000
# 6 0.000000 0.000000 0.000000 -0.011624 0.000000 0.041894
#
#
# Mechanical properties :
#
#
# Convention : Reuss Voigt Hill
#
# Bulk Modulus (GPa) = 28.47524 45.38129 36.92827
# Shear Modulus (GPa) = 29.13581 37.11700 33.12641
#
# Velocity S-wave (km/s) = 3.43962 3.88225 3.66762
# Velocity P-wave (km/s) = 5.22851 6.20672 5.73850
#
# Compressibility (1/GPa) = 0.03511823
#
# Stress axis : x y z
#
# Youngs Moduli (GPa) = 68.01646 87.13763 109.23920
#
# Poissons Ratio (x) = -0.10412 -0.07325
# Poissons Ratio (y) = -0.08127 0.21549
# Poissons Ratio (z) = -0.04561 0.17189
#
# Static dielectric constant tensor:
#      x y z
#    x 1.977560 0.000000 -0.055480 
#    y 0.000000 1.965210 0.000000 
#    z -0.055480 0.000000 2.078000 
# 
# From -- ./inp_files/23591.got.cif
#   From: 2010.05.17/outbox.cif.g08.bks.cpg/sg9_12_cif.got.tgz:23591.got - 2010.06.03 20:04:27.
