data_PCOD9134962
_publ_section_title
;
Structure prediction by ZEFSAII (Michael W. Deem and Ramdas Pophale) SiO2 
 PCOD9134962
Probable space group: C C
;
_chemical_formula_sum "Si O2"
_cell_formula_units_Z 28
_cell_length_a 6.654360
_cell_length_b 32.548994
_cell_length_c 5.336505
_cell_angle_alpha 90.000000
_cell_angle_beta 81.144298
_cell_angle_gamma 90.000000
_cell_volume 1142.069500
_symmetry_space_group_name_H-M "C C"
_symmetry_group_IT_number 9
_symmetry_cell_setting 'monoclinic'
loop_
_space_group_symop_operation_xyz
x,y,z
x,-y,1/2+z
1/2+x,1/2+y,z
1/2+x,1/2-y,1/2+z
loop_
_atom_site_type_symbol
_atom_site_label
_atom_site_fract_x
_atom_site_fract_y
_atom_site_fract_z
Si Si1 0.918210 0.806570 0.239900
Si Si2 0.267864 0.011094 0.189783
Si Si3 0.440722 0.395192 0.175660
Si Si4 0.508178 0.264483 0.718957
Si Si5 0.714533 0.398187 0.621228
Si Si6 0.212376 0.477639 0.097654
Si Si7 0.338780 0.185193 0.913016
O O1 0.826823 0.852148 0.253740
O O2 0.885575 0.777772 0.490704
O O3 0.161155 0.817155 0.237368
O O4 0.904613 0.785720 0.975098
O O5 0.322570 0.058700 0.154797
O O6 0.151929 0.003688 0.467794
O O7 0.465395 0.981871 0.152006
O O8 0.575620 0.404062 0.398415
O O9 0.290839 0.432904 0.154012
O O10 0.575404 0.389968 0.894475
O O11 0.722059 0.287209 0.642630
O O12 0.508277 0.215627 0.769699
O O13 0.859004 0.359667 0.527395
O O14 0.268480 0.509732 0.305479
#
# Coordination Sequence:
#
# PCOD9134962 Si02
#       7
#     4   4   4   4   4   4   4
#     4   9  20  36  57  87 116 159 204 255 302 368
#     4  10  22  41  59  86 126 169 201 263 324 375
#     4  11  20  38  61  90 118 163 217 266 302 375
#     4  10  20  35  63  84 127 156 208 252 317 365
#     4  11  22  37  65  91 122 164 223 260 307 378
#     4  10  22  38  60  85 126 166 199 264 324 368
#     4   9  22  37  61  91 123 163 208 258 308 371
#
# _framework density 24.516897
#
# number of rings (size 3 to 8) (size 9 to 14) (size 15 to 20)
#    0.857    1.143    1.429    1.714    2.000    3.429 
#    0.000    2.857    6.286    0.000    0.000    0.000 
#    0.000    0.000    0.000    0.000    0.000    0.000 
#
# Total GULP energy -78143.088457 kJ/mol
# GULP energy per Si atom -5581.649175 kJ/mol
# Density = 2.446110 g / cm^3
# Si number density = 24.516897 Si / 1000 Ang^3
#
#
#
# Elastic Constant Matrix: (Units=GPa)
#
#
# Indices 1 2 3 4 5 6 
#
# 1 44.4949 3.4794 25.7710 0.0000 -9.4694 0.0000
# 2 3.4794 176.9312 44.1337 0.0000 -5.5340 0.0000
# 3 25.7710 44.1337 199.9156 0.0000 0.4999 0.0000
# 4 0.0000 0.0000 0.0000 42.3085 0.0000 -0.0859
# 5 -9.4694 -5.5340 0.4999 0.0000 31.1054 0.0000
# 6 0.0000 0.0000 0.0000 -0.0859 0.0000 36.9654
#
#
#
# Elastic Compliance Matrix: (Units=1/GPa)
#
#
# Indices 1 2 3 4 5 6 
#
# 1 0.026207 0.000621 -0.003536 0.000000 0.008146 0.000000
# 2 0.000621 0.006033 -0.001415 0.000000 0.001285 0.000000
# 3 -0.003536 -0.001415 0.005774 0.000000 -0.001421 0.000000
# 4 0.000000 0.000000 0.000000 0.023636 0.000000 0.000055
# 5 0.008146 0.001285 -0.001421 0.000000 0.034880 0.000000
# 6 0.000000 0.000000 0.000000 0.000055 0.000000 0.027052
#
#
# Mechanical properties :
#
#
# Convention : Reuss Voigt Hill
#
# Bulk Modulus (GPa) = 34.06592 63.12331 48.59462
# Shear Modulus (GPa) = 35.20458 45.27305 40.23882
#
# Velocity S-wave (km/s) = 3.79348 4.30188 4.05565
# Velocity P-wave (km/s) = 5.75433 7.10476 6.46490
#
# Compressibility (1/GPa) = 0.02935485
#
# Stress axis : x y z
#
# Youngs Moduli (GPa) = 38.15714 165.75810 173.19349
#
# Poissons Ratio (x) = -0.10300 0.61240
# Poissons Ratio (y) = -0.02371 0.24509
# Poissons Ratio (z) = 0.13492 0.23457
#
# Static dielectric constant tensor:
#      x y z
#    x 2.077480 0.000000 0.003830 
#    y 0.000000 1.955590 0.000000 
#    z 0.003830 0.000000 1.960540 
# 
# From -- ./inp_files/1048.got.cif
#   From: 2010.05.17/outbox.cif.g08.bks.cpg/sg9_1_cif.got.tgz:1048.got - 2010.06.03 20:04:27.
