data_PCOD9134791
_publ_section_title
;
Structure prediction by ZEFSAII (Michael W. Deem and Ramdas Pophale) SiO2 
 PCOD9134791
Probable space group: C C
;
_chemical_formula_sum "Si O2"
_cell_formula_units_Z 28
_cell_length_a 18.696115
_cell_length_b 5.272670
_cell_length_c 13.633994
_cell_angle_alpha 90.000000
_cell_angle_beta 132.843708
_cell_angle_gamma 90.000000
_cell_volume 985.449183
_symmetry_space_group_name_H-M "C C"
_symmetry_group_IT_number 9
_symmetry_cell_setting 'monoclinic'
loop_
_space_group_symop_operation_xyz
x,y,z
x,-y,1/2+z
1/2+x,1/2+y,z
1/2+x,1/2-y,1/2+z
loop_
_atom_site_type_symbol
_atom_site_label
_atom_site_fract_x
_atom_site_fract_y
_atom_site_fract_z
Si Si1 0.542480 0.898288 0.632450
Si Si2 0.253303 0.729027 0.642719
Si Si3 0.154755 0.770723 0.866770
Si Si4 0.338500 0.046182 0.032415
Si Si5 0.205289 0.776726 0.147178
Si Si6 0.962403 0.822398 0.764973
Si Si7 0.520632 0.796132 0.928866
O O1 0.620666 0.009901 0.783885
O O2 0.434692 0.834508 0.572292
O O3 0.607073 0.722198 0.619966
O O4 0.377632 0.215682 0.618467
O O5 0.261522 0.484213 0.717644
O O6 0.276777 0.987378 0.721487
O O7 0.135452 0.757517 0.518705
O O8 0.302541 0.759068 0.583178
O O9 0.237545 0.939470 0.893074
O O10 0.050977 0.911246 0.777350
O O11 0.183636 0.746166 0.009223
O O12 0.515441 0.861975 0.037587
O O13 0.458099 0.443483 0.335461
O O14 0.991331 0.555994 0.845716
#
# Coordination Sequence:
#
# PCOD9134791 Si02
#       7
#     4   4   4   4   4   4   4
#     4  10  22  41  70 105 137 179 234 289 336 414
#     4  10  19  41  71  89 131 181 220 267 343 402
#     4  10  20  45  69  99 139 182 225 281 349 402
#     4  10  23  42  68 110 132 180 236 286 336 413
#     4  10  20  42  69  93 133 183 216 273 348 397
#     4  11  22  42  73  91 139 183 220 277 346 405
#     4  11  20  45  68  97 133 186 221 275 350 403
#
# _framework density 28.413440999999999
#
# number of rings (size 3 to 8) (size 9 to 14) (size 15 to 20)
#    0.000    1.714    5.714    0.000    0.000    2.286 
#   10.286   34.286    0.000    0.000    0.000    0.000 
#    0.000    0.000    0.000    0.000    0.000    0.000 
#
# Total GULP energy -78245.643736 kJ/mol
# GULP energy per Si atom -5588.974553 kJ/mol
# Density = 2.834877 g / cm^3
# Si number density = 28.413441 Si / 1000 Ang^3
#
#
#
# Elastic Constant Matrix: (Units=GPa)
#
#
# Indices 1 2 3 4 5 6 
#
# 1 231.0814 8.4134 35.4116 0.0000 29.3124 -0.0001
# 2 8.4134 141.5234 -3.6329 0.0004 3.3544 0.0004
# 3 35.4116 -3.6329 89.6706 -0.0001 14.6844 0.0001
# 4 0.0000 0.0004 -0.0001 32.5474 0.0000 -2.4025
# 5 29.3124 3.3544 14.6844 0.0000 58.9006 0.0000
# 6 -0.0001 0.0004 0.0001 -2.4025 0.0000 36.7953
#
#
#
# Elastic Compliance Matrix: (Units=1/GPa)
#
#
# Indices 1 2 3 4 5 6 
#
# 1 0.004835 -0.000281 -0.001594 0.000000 -0.001993 0.000000
# 2 -0.000281 0.007104 0.000461 0.000000 -0.000380 0.000000
# 3 -0.001594 0.000461 0.012172 0.000000 -0.002267 0.000000
# 4 0.000000 0.000000 0.000000 0.030873 0.000000 0.002016
# 5 -0.001993 -0.000380 -0.002267 0.000000 0.018556 0.000000
# 6 0.000000 0.000000 0.000000 0.002016 0.000000 0.027309
#
#
# Mechanical properties :
#
#
# Convention : Reuss Voigt Hill
#
# Bulk Modulus (GPa) = 46.99085 60.29552 53.64319
# Shear Modulus (GPa) = 45.13816 53.78753 49.46285
#
# Velocity S-wave (km/s) = 3.99007 4.35562 4.17685
# Velocity P-wave (km/s) = 6.14831 6.82364 6.49476
#
# Compressibility (1/GPa) = 0.02128074
#
# Stress axis : x y z
#
# Youngs Moduli (GPa) = 206.83375 140.77549 82.15901
#
# Poissons Ratio (x) = 0.03958 0.13099
# Poissons Ratio (y) = 0.05815 -0.03787
# Poissons Ratio (z) = 0.32977 -0.06489
#
# Static dielectric constant tensor:
#      x y z
#    x 2.251780 0.000000 0.019400 
#    y 0.000000 2.415790 0.000000 
#    z 0.019400 0.000000 2.278000 
# 
# From -- ./inp_files/25713.got.cif
#   From: 2010.05.17/outbox.cif.g08.bks.cpg/sg9_13_cif.got.tgz:25713.got - 2010.06.03 20:04:27.
