data_PCOD9134559
_publ_section_title
;
Structure prediction by ZEFSAII (Michael W. Deem and Ramdas Pophale) SiO2 
 PCOD9134559
Probable space group: C C
;
_chemical_formula_sum "Si O2"
_cell_formula_units_Z 28
_cell_length_a 11.377873
_cell_length_b 7.886672
_cell_length_c 19.552202
_cell_angle_alpha 90.000000
_cell_angle_beta 140.828052
_cell_angle_gamma 90.000000
_cell_volume 1108.222362
_symmetry_space_group_name_H-M "C C"
_symmetry_group_IT_number 9
_symmetry_cell_setting 'monoclinic'
loop_
_space_group_symop_operation_xyz
x,y,z
x,-y,1/2+z
1/2+x,1/2+y,z
1/2+x,1/2-y,1/2+z
loop_
_atom_site_type_symbol
_atom_site_label
_atom_site_fract_x
_atom_site_fract_y
_atom_site_fract_z
Si Si1 0.410480 0.389910 0.719870
Si Si2 0.345120 0.114892 0.387590
Si Si3 0.433076 0.420397 0.106627
Si Si4 0.868035 0.447753 0.540953
Si Si5 0.605638 0.129221 0.264407
Si Si6 0.967598 0.024011 0.893757
Si Si7 0.806969 0.471150 0.228061
O O1 0.624570 0.343633 0.797576
O O2 0.323059 0.460550 0.609524
O O3 0.421737 0.512299 0.791437
O O4 0.314888 0.220638 0.704882
O O5 0.443651 0.290569 0.414286
O O6 0.401619 0.025575 0.482917
O O7 0.376104 0.996551 0.336351
O O8 0.559100 0.318139 0.219853
O O9 0.585983 0.516560 0.129448
O O10 0.340157 0.258805 0.027745
O O11 0.683789 0.524324 0.492492
O O12 0.039351 0.478948 0.668273
O O13 0.821381 0.091711 0.368743
O O14 0.455133 0.078393 0.252338
#
# Coordination Sequence:
#
# PCOD9134559 Si02
#       7
#     4   4   4   4   4   4   4
#     4  10  19  37  65  90 120 169 212 257 323 383
#     4  10  22  39  61  95 128 165 218 267 321 391
#     4   9  21  40  61  90 127 163 214 266 313 383
#     4   9  23  43  62  98 128 166 224 266 319 390
#     4  10  21  41  63  96 128 169 215 268 327 386
#     4  11  20  39  68  88 131 175 209 270 331 377
#     4  11  20  39  66  91 124 171 214 262 326 386
#
# _framework density 25.265688999999998
#
# number of rings (size 3 to 8) (size 9 to 14) (size 15 to 20)
#    0.857    1.143    2.857    0.857    0.000    2.286 
#    5.143    0.000    0.000    0.000    0.000    0.000 
#    0.000    0.000    0.000    0.000    0.000    0.000 
#
# Total GULP energy -78198.964901 kJ/mol
# GULP energy per Si atom -5585.640350 kJ/mol
# Density = 2.520818 g / cm^3
# Si number density = 25.265689 Si / 1000 Ang^3
#
#
#
# Elastic Constant Matrix: (Units=GPa)
#
#
# Indices 1 2 3 4 5 6 
#
# 1 144.6529 26.6975 29.6874 0.0000 3.1933 0.0000
# 2 26.6975 75.4784 4.7750 0.0000 -18.5505 0.0000
# 3 29.6874 4.7750 43.1960 0.0000 -4.8899 0.0000
# 4 0.0000 0.0000 0.0000 25.0277 0.0000 -10.8027
# 5 3.1933 -18.5505 -4.8899 0.0000 42.3269 0.0000
# 6 0.0000 0.0000 0.0000 -10.8027 0.0000 50.9366
#
#
#
# Elastic Compliance Matrix: (Units=1/GPa)
#
#
# Indices 1 2 3 4 5 6 
#
# 1 0.008852 -0.003457 -0.006027 0.000000 -0.002879 0.000000
# 2 -0.003457 0.016234 0.001435 0.000000 0.007542 0.000000
# 3 -0.006027 0.001435 0.027618 0.000000 0.004274 0.000000
# 4 0.000000 0.000000 0.000000 0.043982 0.000000 0.009328
# 5 -0.002879 0.007542 0.004274 0.000000 0.027642 0.000000
# 6 0.000000 0.000000 0.000000 0.009328 0.000000 0.021610
#
#
# Mechanical properties :
#
#
# Convention : Reuss Voigt Hill
#
# Bulk Modulus (GPa) = 27.31844 42.84968 35.08406
# Shear Modulus (GPa) = 28.69622 37.13606 32.91614
#
# Velocity S-wave (km/s) = 3.37379 3.83798 3.61335
# Velocity P-wave (km/s) = 5.10025 6.05282 5.59684
#
# Compressibility (1/GPa) = 0.03660531
#
# Stress axis : x y z
#
# Youngs Moduli (GPa) = 112.97196 61.59743 36.20837
#
# Poissons Ratio (x) = 0.21296 0.21824
# Poissons Ratio (y) = 0.39058 -0.05197
# Poissons Ratio (z) = 0.68092 -0.08841
#
# Static dielectric constant tensor:
#      x y z
#    x 2.030110 0.000000 0.002000 
#    y 0.000000 2.012910 0.000000 
#    z 0.002000 0.000000 2.025350 
# 
# From -- ./inp_files/33152.got.cif
#   From: 2010.05.17/outbox.cif.g08.bks.cpg/sg9_17_cif.got.tgz:33152.got - 2010.06.03 20:04:27.
