data_PCOD9134551
_publ_section_title
;
Structure prediction by ZEFSAII (Michael W. Deem and Ramdas Pophale) SiO2 
 PCOD9134551
Probable space group: C C
;
_chemical_formula_sum "Si O2"
_cell_formula_units_Z 32
_cell_length_a 9.650612
_cell_length_b 16.168590
_cell_length_c 10.806656
_cell_angle_alpha 90.000000
_cell_angle_beta 129.289547
_cell_angle_gamma 90.000000
_cell_volume 1305.071970
_symmetry_space_group_name_H-M "C C"
_symmetry_group_IT_number 9
_symmetry_cell_setting 'monoclinic'
loop_
_space_group_symop_operation_xyz
x,y,z
x,-y,1/2+z
1/2+x,1/2+y,z
1/2+x,1/2-y,1/2+z
loop_
_atom_site_type_symbol
_atom_site_label
_atom_site_fract_x
_atom_site_fract_y
_atom_site_fract_z
Si Si1 0.146000 0.444600 0.960020
Si Si2 0.912371 0.387960 0.038913
Si Si3 0.331764 0.413150 0.657204
Si Si4 0.146988 0.857192 0.296121
Si Si5 0.774469 0.770781 0.039536
Si Si6 0.971031 0.601771 0.824454
Si Si7 0.142959 0.846436 0.681200
Si Si8 0.595109 0.502852 0.964318
O O1 0.069234 0.435957 0.056337
O O2 0.011824 0.505212 0.815037
O O3 0.319418 0.502088 0.068192
O O4 0.171035 0.351928 0.932255
O O5 0.809302 0.341213 0.870517
O O6 0.756705 0.446077 0.005658
O O7 0.993602 0.348262 0.209436
O O8 0.464935 0.350021 0.664624
O O9 0.417643 0.444105 0.836938
O O10 0.126459 0.382163 0.516089
O O11 0.284692 0.797723 0.442561
O O12 0.267470 0.890211 0.253658
O O13 0.088023 0.927669 0.354785
O O14 0.971065 0.804060 0.175532
O O15 0.674772 0.726419 0.098982
O O16 0.131100 0.935936 0.602040
#
# Coordination Sequence:
#
# PCOD9134551 Si02
#       8
#     4   4   4   4   4   4   4   4
#     4  10  21  40  66 104 126 183 234 286 355 399
#     4  11  21  37  65  99 136 180 231 285 337 420
#     4   9  21  37  65 100 132 179 225 293 344 399
#     4  11  22  45  62 101 137 182 226 289 354 413
#     4  11  24  43  74  97 142 180 233 291 354 434
#     4  10  23  41  68 100 138 180 238 289 345 415
#     4  10  23  40  64 107 137 187 232 284 364 419
#     4  10  19  37  64  92 138 169 227 291 335 407
#
# _framework density 24.519722000000002
#
# number of rings (size 3 to 8) (size 9 to 14) (size 15 to 20)
#    0.750    1.000    2.500    1.500    3.500    1.000 
#    0.000    5.000    0.000    0.000    0.000    0.000 
#    0.000    0.000    0.000    0.000    0.000    0.000 
#
# Total GULP energy -89085.279715 kJ/mol
# GULP energy per Si atom -5567.829982 kJ/mol
# Density = 2.446391 g / cm^3
# Si number density = 24.519722 Si / 1000 Ang^3
#
#
#
# Elastic Constant Matrix: (Units=GPa)
#
#
# Indices 1 2 3 4 5 6 
#
# 1 50.2792 30.6729 19.2740 0.0000 27.4385 0.0000
# 2 30.6729 94.3476 19.0916 0.0000 -3.8523 0.0000
# 3 19.2740 19.0916 60.6848 0.0000 2.5200 0.0000
# 4 0.0000 0.0000 0.0000 22.3525 0.0000 14.8102
# 5 27.4385 -3.8523 2.5200 0.0000 25.9942 0.0000
# 6 0.0000 0.0000 0.0000 14.8102 0.0000 22.2322
#
#
#
# Elastic Compliance Matrix: (Units=1/GPa)
#
#
# Indices 1 2 3 4 5 6 
#
# 1 0.145363 -0.048819 -0.024236 0.000000 -0.158325 0.000000
# 2 -0.048819 0.027823 0.004459 0.000000 0.055222 0.000000
# 3 -0.024236 0.004459 0.021771 0.000000 0.024132 0.000000
# 4 0.000000 0.000000 0.000000 0.080086 0.000000 -0.053350
# 5 -0.158325 0.055222 0.024132 0.000000 0.211437 0.000000
# 6 0.000000 0.000000 0.000000 -0.053350 0.000000 0.080520
#
#
# Mechanical properties :
#
#
# Convention : Reuss Voigt Hill
#
# Bulk Modulus (GPa) = 17.31109 38.15428 27.73269
# Shear Modulus (GPa) = 6.91137 23.20066 15.05601
#
# Velocity S-wave (km/s) = 1.68072 3.07938 2.48066
# Velocity P-wave (km/s) = 3.29269 5.31393 4.42039
#
# Compressibility (1/GPa) = 0.05776643
#
# Stress axis : x y z
#
# Youngs Moduli (GPa) = 6.87932 35.94170 45.93250
#
# Poissons Ratio (x) = 1.75463 1.11320
# Poissons Ratio (y) = 0.33584 -0.20481
# Poissons Ratio (z) = 0.16672 -0.16026
#
# Static dielectric constant tensor:
#      x y z
#    x 1.920460 0.000000 0.054870 
#    y 0.000000 2.168450 0.000000 
#    z 0.054870 0.000000 2.100440 
# 
# From -- ./inp_files/15187.got.cif
#   From: 2010.05.17/outbox.cif.g08.bks.cpg/sg9_8_cif.got.tgz:15187.got - 2010.06.03 20:04:27.
