data_PCOD9134810
_publ_section_title
;
Structure prediction by ZEFSAII (Michael W. Deem and Ramdas Pophale) SiO2 
 PCOD9134810
Probable space group: C C
;
_chemical_formula_sum "Si O2"
_cell_formula_units_Z 24
_cell_length_a 5.182943
_cell_length_b 16.734591
_cell_length_c 11.521449
_cell_angle_alpha 90.000000
_cell_angle_beta 104.047290
_cell_angle_gamma 90.000000
_cell_volume 969.422792
_symmetry_space_group_name_H-M "C C"
_symmetry_group_IT_number 9
_symmetry_cell_setting 'monoclinic'
loop_
_space_group_symop_operation_xyz
x,y,z
x,-y,1/2+z
1/2+x,1/2+y,z
1/2+x,1/2-y,1/2+z
loop_
_atom_site_type_symbol
_atom_site_label
_atom_site_fract_x
_atom_site_fract_y
_atom_site_fract_z
Si Si1 0.784740 0.998119 0.592740
Si Si2 0.758048 0.594407 0.556691
Si Si3 0.690503 0.283614 0.362780
Si Si4 0.217127 0.633467 0.909493
Si Si5 0.481116 0.362319 0.785388
Si Si6 0.043480 0.243157 0.098658
O O1 0.788421 0.952636 0.467874
O O2 0.868627 0.938425 0.704993
O O3 0.484766 0.026785 0.579614
O O4 0.004645 0.067114 0.603366
O O5 0.918273 0.672430 0.613743
O O6 0.650094 0.613288 0.415654
O O7 0.762928 0.204277 0.299416
O O8 0.716537 0.255151 0.500768
O O9 0.910109 0.350466 0.358703
O O10 0.410375 0.668992 0.831976
O O11 0.294253 0.690812 0.025612
O O12 0.657162 0.310845 0.713674
#
# Coordination Sequence:
#
# PCOD9134810 Si02
#       6
#     4   4   4   4   4   4
#     4  11  27  46  72 108 162 189 244 308 382 449
#     4  12  25  49  69 112 152 192 251 312 365 460
#     4  10  19  42  73 103 133 186 259 292 356 433
#     4   9  20  42  69  99 141 185 233 318 341 434
#     4  11  24  51  77 105 150 217 232 319 385 422
#     4   9  23  44  74 103 142 183 263 299 349 446
#
# _framework density 24.757002
#
# number of rings (size 3 to 8) (size 9 to 14) (size 15 to 20)
#    1.000    0.667    1.667    2.000    0.000    4.000 
#   18.000    0.000    0.000    0.000    0.000    0.000 
#    0.000    0.000    0.000    0.000    0.000    0.000 
#
# Total GULP energy -67046.746362 kJ/mol
# GULP energy per Si atom -5587.228864 kJ/mol
# Density = 2.470065 g / cm^3
# Si number density = 24.757002 Si / 1000 Ang^3
#
#
#
# Elastic Constant Matrix: (Units=GPa)
#
#
# Indices 1 2 3 4 5 6 
#
# 1 117.6189 8.3308 25.5745 0.0000 9.5556 0.0000
# 2 8.3308 70.8981 40.9480 0.0000 4.7183 0.0000
# 3 25.5745 40.9480 129.1494 0.0000 -6.7828 0.0000
# 4 0.0000 0.0000 0.0000 57.6317 0.0000 -0.5529
# 5 9.5556 4.7183 -6.7828 0.0000 34.9720 0.0000
# 6 0.0000 0.0000 0.0000 -0.5529 0.0000 25.4349
#
#
#
# Elastic Compliance Matrix: (Units=1/GPa)
#
#
# Indices 1 2 3 4 5 6 
#
# 1 0.009170 0.000315 -0.002070 0.000000 -0.002949 0.000000
# 2 0.000315 0.017694 -0.005862 0.000000 -0.003610 0.000000
# 3 -0.002070 -0.005862 0.010187 0.000000 0.003332 0.000000
# 4 0.000000 0.000000 0.000000 0.017355 0.000000 0.000377
# 5 -0.002949 -0.003610 0.003332 0.000000 0.030534 0.000000
# 6 0.000000 0.000000 0.000000 0.000377 0.000000 0.039324
#
#
# Mechanical properties :
#
#
# Convention : Reuss Voigt Hill
#
# Bulk Modulus (GPa) = 45.84126 51.93035 48.88580
# Shear Modulus (GPa) = 34.06707 39.79527 36.93117
#
# Velocity S-wave (km/s) = 3.71355 4.01363 3.86650
# Velocity P-wave (km/s) = 6.07815 6.51924 6.30256
#
# Compressibility (1/GPa) = 0.02181441
#
# Stress axis : x y z
#
# Youngs Moduli (GPa) = 109.05649 56.51767 98.16899
#
# Poissons Ratio (x) = -0.01778 0.20325
# Poissons Ratio (y) = -0.03431 0.57545
# Poissons Ratio (z) = 0.22579 0.33130
#
# Static dielectric constant tensor:
#      x y z
#    x 1.918130 0.000000 0.003540 
#    y 0.000000 1.947710 0.000000 
#    z 0.003540 0.000000 2.073730 
# 
# From -- ./inp_files/21812.got.cif
#   From: 2010.05.17/outbox.cif.g08.bks.cpg/sg9_11_cif.got.tgz:21812.got - 2010.06.03 20:04:27.
