data_PCOD9134641
_publ_section_title
;
Structure prediction by ZEFSAII (Michael W. Deem and Ramdas Pophale) SiO2 
 PCOD9134641
Probable space group: C C
;
_chemical_formula_sum "Si O2"
_cell_formula_units_Z 32
_cell_length_a 8.412084
_cell_length_b 22.596307
_cell_length_c 8.658561
_cell_angle_alpha 90.000000
_cell_angle_beta 75.019355
_cell_angle_gamma 90.000000
_cell_volume 1589.900149
_symmetry_space_group_name_H-M "C C"
_symmetry_group_IT_number 9
_symmetry_cell_setting 'monoclinic'
loop_
_space_group_symop_operation_xyz
x,y,z
x,-y,1/2+z
1/2+x,1/2+y,z
1/2+x,1/2-y,1/2+z
loop_
_atom_site_type_symbol
_atom_site_label
_atom_site_fract_x
_atom_site_fract_y
_atom_site_fract_z
Si Si1 0.235570 0.463347 0.002130
Si Si2 0.822726 0.839876 0.034542
Si Si3 0.068503 0.851761 0.693351
Si Si4 0.856941 0.340722 0.850627
Si Si5 0.971226 0.066105 0.973538
Si Si6 0.611775 0.350430 0.187714
Si Si7 0.586270 0.256169 0.441490
Si Si8 0.137635 0.569202 0.183878
O O1 0.100592 0.509765 0.097925
O O2 0.227572 0.401078 0.091669
O O3 0.409615 0.498243 0.983600
O O4 0.208734 0.453043 0.829026
O O5 0.707116 0.788068 0.002247
O O6 0.935399 0.857436 0.860247
O O7 0.948901 0.826560 0.139990
O O8 0.234319 0.832428 0.738028
O O9 0.016940 0.800978 0.586529
O O10 0.078923 0.912088 0.591615
O O11 0.951051 0.283017 0.888419
O O12 0.992983 0.386959 0.759489
O O13 0.747697 0.362785 0.023485
O O14 0.055317 0.092487 0.800573
O O15 0.791473 0.096845 0.050545
O O16 0.668343 0.299744 0.293971
#
# Coordination Sequence:
#
# PCOD9134641 Si02
#       8
#     4   4   4   4   4   4   4   4
#     4  10  19  38  69  88 113 168 222 251 301 387
#     4  11  19  38  64  89 120 168 217 250 306 386
#     4  10  21  37  61  93 126 163 206 259 319 361
#     4  11  22  40  60  94 134 158 204 269 324 353
#     4   9  20  40  64  88 121 163 216 248 302 394
#     4  10  23  37  61  96 124 162 212 259 320 365
#     4  11  21  39  61  88 130 173 205 255 308 386
#     4  10  21  39  66  86 122 163 212 259 304 378
#
# _framework density 20.127049
#
# number of rings (size 3 to 8) (size 9 to 14) (size 15 to 20)
#    0.750    1.000    2.500    2.250    0.000    1.000 
#    0.000   11.250    0.000    0.000    0.000    0.000 
#    0.000    0.000    0.000    0.000    0.000    0.000 
#
# Total GULP energy -89141.512152 kJ/mol
# GULP energy per Si atom -5571.344509 kJ/mol
# Density = 2.008124 g / cm^3
# Si number density = 20.127049 Si / 1000 Ang^3
#
#
#
# Elastic Constant Matrix: (Units=GPa)
#
#
# Indices 1 2 3 4 5 6 
#
# 1 33.2855 15.3432 6.6543 0.0000 -3.9220 0.0000
# 2 15.3432 86.6313 17.8773 0.0000 -1.8095 0.0000
# 3 6.6543 17.8773 46.9715 0.0000 -8.6832 0.0000
# 4 0.0000 0.0000 0.0000 30.9220 0.0000 2.4550
# 5 -3.9220 -1.8095 -8.6832 0.0000 30.0779 0.0000
# 6 0.0000 0.0000 0.0000 2.4550 0.0000 29.4606
#
#
#
# Elastic Compliance Matrix: (Units=1/GPa)
#
#
# Indices 1 2 3 4 5 6 
#
# 1 0.033350 -0.005416 -0.002028 0.000000 0.003437 0.000000
# 2 -0.005416 0.013419 -0.004565 0.000000 -0.001217 0.000000
# 3 -0.002028 -0.004565 0.024523 0.000000 0.006541 0.000000
# 4 0.000000 0.000000 0.000000 0.032555 0.000000 -0.002713
# 5 0.003437 -0.001217 0.006541 0.000000 0.035510 0.000000
# 6 0.000000 0.000000 0.000000 -0.002713 0.000000 0.034170
#
#
# Mechanical properties :
#
#
# Convention : Reuss Voigt Hill
#
# Bulk Modulus (GPa) = 21.15302 27.40423 24.27863
# Shear Modulus (GPa) = 23.44078 26.55967 25.00022
#
# Velocity S-wave (km/s) = 3.41639 3.63657 3.52820
# Velocity P-wave (km/s) = 5.10831 5.59268 5.35597
#
# Compressibility (1/GPa) = 0.04727457
#
# Stress axis : x y z
#
# Youngs Moduli (GPa) = 29.98479 74.52083 40.77758
#
# Poissons Ratio (x) = 0.40363 0.08268
# Poissons Ratio (y) = 0.16241 0.18615
# Poissons Ratio (z) = 0.06080 0.34018
#
# Static dielectric constant tensor:
#      x y z
#    x 1.729460 0.000000 0.003270 
#    y 0.000000 1.761720 0.000000 
#    z 0.003270 0.000000 1.729310 
# 
# From -- ./inp_files/6057.got.cif
#   From: 2010.05.17/outbox.cif.g08.bks.cpg/sg9_4_cif.got.tgz:6057.got - 2010.06.03 20:04:27.
