data_PCOD9134809
_publ_section_title
;
Structure prediction by ZEFSAII (Michael W. Deem and Ramdas Pophale) SiO2 
 PCOD9134809
Probable space group: C C
;
_chemical_formula_sum "Si O2"
_cell_formula_units_Z 32
_cell_length_a 15.965766
_cell_length_b 6.125428
_cell_length_c 14.134240
_cell_angle_alpha 90.000000
_cell_angle_beta 94.554243
_cell_angle_gamma 90.000000
_cell_volume 1377.923965
_symmetry_space_group_name_H-M "C C"
_symmetry_group_IT_number 9
_symmetry_cell_setting 'monoclinic'
loop_
_space_group_symop_operation_xyz
x,y,z
x,-y,1/2+z
1/2+x,1/2+y,z
1/2+x,1/2-y,1/2+z
loop_
_atom_site_type_symbol
_atom_site_label
_atom_site_fract_x
_atom_site_fract_y
_atom_site_fract_z
Si Si1 0.783320 0.370068 0.635700
Si Si2 0.517362 0.340992 0.568371
Si Si3 0.420845 0.425147 0.216142
Si Si4 0.639212 0.969584 0.169782
Si Si5 0.711448 0.050024 0.876719
Si Si6 0.161839 0.161200 0.538873
Si Si7 0.818144 0.689404 0.810532
Si Si8 0.391575 0.202570 0.398865
O O1 0.869993 0.240571 0.643357
O O2 0.714203 0.180663 0.635947
O O3 0.750701 0.533706 0.552814
O O4 0.785783 0.511098 0.732555
O O5 0.492275 0.473926 0.659357
O O6 0.556480 0.119971 0.613078
O O7 0.587436 0.486482 0.520912
O O8 0.438524 0.284576 0.495871
O O9 0.362351 0.623216 0.250671
O O10 0.443079 0.292040 0.312369
O O11 0.649672 0.930254 0.281818
O O12 0.651872 0.216242 0.138336
O O13 0.798489 0.190225 0.881514
O O14 0.747510 0.805177 0.868247
O O15 0.664970 0.146023 0.963083
O O16 0.881501 0.556249 0.883383
#
# Coordination Sequence:
#
# PCOD9134809 Si02
#       8
#     4   4   4   4   4   4   4   4
#     4  10  19  42  71 101 135 179 245 291 349 419
#     4  11  28  46  69 107 156 184 237 293 378 429
#     4  10  22  44  72  99 144 191 234 298 357 425
#     4  11  23  46  65 104 144 193 231 290 372 420
#     4  11  23  43  75 103 140 191 248 294 353 427
#     4  11  26  45  70 107 148 190 242 295 356 448
#     4  10  19  42  74 100 138 175 250 300 346 415
#     4  10  24  44  70 113 135 191 243 297 359 429
#
# _framework density 23.223341000000001
#
# number of rings (size 3 to 8) (size 9 to 14) (size 15 to 20)
#    0.000    1.500    5.000    0.000    5.250    6.000 
#    4.500    0.000    0.000    0.000    0.000    0.000 
#    0.000    0.000    0.000    0.000    0.000    0.000 
#
# Total GULP energy -89364.591616 kJ/mol
# GULP energy per Si atom -5585.286976 kJ/mol
# Density = 2.317048 g / cm^3
# Si number density = 23.223341 Si / 1000 Ang^3
#
#
#
# Elastic Constant Matrix: (Units=GPa)
#
#
# Indices 1 2 3 4 5 6 
#
# 1 38.7935 20.3613 18.7598 0.0000 -4.2205 0.0000
# 2 20.3613 96.4466 19.5301 0.0000 10.1673 0.0000
# 3 18.7598 19.5301 86.8786 0.0000 2.8376 0.0000
# 4 0.0000 0.0000 0.0000 30.3319 0.0000 7.0926
# 5 -4.2205 10.1673 2.8376 0.0000 22.2505 0.0000
# 6 0.0000 0.0000 0.0000 7.0926 0.0000 32.5735
#
#
#
# Elastic Compliance Matrix: (Units=1/GPa)
#
#
# Indices 1 2 3 4 5 6 
#
# 1 0.033430 -0.006926 -0.005997 0.000000 0.010271 0.000000
# 2 -0.006926 0.012804 -0.001154 0.000000 -0.007017 0.000000
# 3 -0.005997 -0.001154 0.013139 0.000000 -0.002286 0.000000
# 4 0.000000 0.000000 0.000000 0.034737 0.000000 -0.007564
# 5 0.010271 -0.007017 -0.002286 0.000000 0.050389 0.000000
# 6 0.000000 0.000000 0.000000 -0.007564 0.000000 0.032347
#
#
# Mechanical properties :
#
#
# Convention : Reuss Voigt Hill
#
# Bulk Modulus (GPa) = 32.03062 37.71344 34.87203
# Shear Modulus (GPa) = 23.21195 27.92901 25.57048
#
# Velocity S-wave (km/s) = 3.16493 3.47165 3.32183
# Velocity P-wave (km/s) = 5.21326 5.68723 5.45539
#
# Compressibility (1/GPa) = 0.03122013
#
# Stress axis : x y z
#
# Youngs Moduli (GPa) = 29.91312 78.10095 76.10773
#
# Poissons Ratio (x) = 0.54092 0.45643
# Poissons Ratio (y) = 0.20718 0.08780
# Poissons Ratio (z) = 0.17939 0.09010
#
# Static dielectric constant tensor:
#      x y z
#    x 1.867730 0.000000 -0.013950 
#    y 0.000000 1.877530 0.000000 
#    z -0.013950 0.000000 1.876020 
# 
# From -- ./inp_files/26483.got.cif
#   From: 2010.05.17/outbox.cif.g08.bks.cpg/sg9_14_cif.got.tgz:26483.got - 2010.06.03 20:04:27.
