data_PCOD9134066
_publ_section_title
;
Structure prediction by ZEFSAII (Michael W. Deem and Ramdas Pophale) SiO2 
 PCOD9134066
Probable space group: C C
;
_chemical_formula_sum "Si O2"
_cell_formula_units_Z 32
_cell_length_a 10.796882
_cell_length_b 11.618372
_cell_length_c 9.072928
_cell_angle_alpha 90.000000
_cell_angle_beta 91.431244
_cell_angle_gamma 90.000000
_cell_volume 1137.772896
_symmetry_space_group_name_H-M "C C"
_symmetry_group_IT_number 9
_symmetry_cell_setting 'monoclinic'
loop_
_space_group_symop_operation_xyz
x,y,z
x,-y,1/2+z
1/2+x,1/2+y,z
1/2+x,1/2-y,1/2+z
loop_
_atom_site_type_symbol
_atom_site_label
_atom_site_fract_x
_atom_site_fract_y
_atom_site_fract_z
Si Si1 0.530530 0.349809 0.591990
Si Si2 0.804657 0.343000 0.321296
Si Si3 0.242207 0.283239 0.554615
Si Si4 0.852865 0.585545 0.369579
Si Si5 0.501926 0.569814 0.414001
Si Si6 0.253007 0.448185 0.315843
Si Si7 0.896617 0.759047 0.122410
Si Si8 0.036551 0.400268 0.125992
O O1 0.382516 0.335535 0.568547
O O2 0.559352 0.453427 0.482235
O O3 0.551146 0.389626 0.758838
O O4 0.586432 0.223303 0.567970
O O5 0.719364 0.260489 0.219328
O O6 0.822274 0.299425 0.486246
O O7 0.776947 0.477506 0.310898
O O8 0.939972 0.352522 0.245566
O O9 0.263774 0.169527 0.457636
O O10 0.185590 0.378523 0.445865
O O11 0.956253 0.547870 0.491544
O O12 0.916513 0.657316 0.240501
O O13 0.353632 0.539732 0.377239
O O14 0.502070 0.671055 0.536157
O O15 0.331939 0.357407 0.220066
O O16 0.141055 0.478665 0.202649
#
# Coordination Sequence:
#
# PCOD9134066 Si02
#       8
#     4   4   4   4   4   4   4   4
#     4   9  18  33  58  81 109 151 199 225 281 350
#     4  10  18  35  60  79 105 154 203 231 274 361
#     4   8  17  34  52  76 106 149 185 229 277 342
#     4   9  19  34  57  81 107 155 191 230 286 355
#     4  11  18  33  60  89 106 155 203 234 278 357
#     4  10  22  35  55  85 122 144 180 250 306 326
#     4  11  19  34  61  83 108 151 209 245 271 359
#     4  10  21  38  53  82 125 149 174 244 303 340
#
# _framework density 28.125122000000001
#
# number of rings (size 3 to 8) (size 9 to 14) (size 15 to 20)
#    0.000    2.500    3.750    2.250    0.000    1.000 
#    0.000    1.250   11.000    0.000    0.000    0.000 
#    0.000    0.000    0.000    0.000    0.000    0.000 
#
# Total GULP energy -89554.449664 kJ/mol
# GULP energy per Si atom -5597.153104 kJ/mol
# Density = 2.806111 g / cm^3
# Si number density = 28.125122 Si / 1000 Ang^3
#
#
#
# Elastic Constant Matrix: (Units=GPa)
#
#
# Indices 1 2 3 4 5 6 
#
# 1 94.3620 13.8120 37.5451 0.0000 13.4601 0.0000
# 2 13.8120 88.5612 37.4397 0.0000 -6.4094 0.0000
# 3 37.5451 37.4397 169.4624 0.0000 15.8772 0.0000
# 4 0.0000 0.0000 0.0000 71.4050 0.0000 8.0332
# 5 13.4601 -6.4094 15.8772 0.0000 35.5282 0.0000
# 6 0.0000 0.0000 0.0000 8.0332 0.0000 8.2021
#
#
#
# Elastic Compliance Matrix: (Units=1/GPa)
#
#
# Indices 1 2 3 4 5 6 
#
# 1 0.012162 -0.001322 -0.002034 0.000000 -0.003937 0.000000
# 2 -0.001322 0.013064 -0.002986 0.000000 0.004192 0.000000
# 3 -0.002034 -0.002986 0.007295 0.000000 -0.003028 0.000000
# 4 0.000000 0.000000 0.000000 0.015739 0.000000 -0.015415
# 5 -0.003937 0.004192 -0.003028 0.000000 0.031748 0.000000
# 6 0.000000 0.000000 0.000000 -0.015415 0.000000 0.137018
#
#
# Mechanical properties :
#
#
# Convention : Reuss Voigt Hill
#
# Bulk Modulus (GPa) = 50.41043 58.88658 54.64851
# Shear Modulus (GPa) = 21.15773 40.59964 30.87869
#
# Velocity S-wave (km/s) = 2.74573 3.80351 3.31706
# Velocity P-wave (km/s) = 5.29288 6.34600 5.84322
#
# Compressibility (1/GPa) = 0.01983717
#
# Stress axis : x y z
#
# Youngs Moduli (GPa) = 82.22520 76.54898 137.08053
#
# Poissons Ratio (x) = 0.10120 0.27876
# Poissons Ratio (y) = 0.10870 0.40932
# Poissons Ratio (z) = 0.16721 0.22858
#
# Static dielectric constant tensor:
#      x y z
#    x 2.333460 0.000000 -0.020030 
#    y 0.000000 2.239870 0.000000 
#    z -0.020030 0.000000 2.159610 
# 
# From -- ./inp_files/9142.got.cif
#   From: 2010.05.17/outbox.cif.g08.bks.cpg/sg9_5_cif.got.tgz:9142.got - 2010.06.03 20:04:27.
