data_PCOD9134455
_publ_section_title
;
Structure prediction by ZEFSAII (Michael W. Deem and Ramdas Pophale) SiO2 
 PCOD9134455
Probable space group: C C
;
_chemical_formula_sum "Si O2"
_cell_formula_units_Z 28
_cell_length_a 5.018855
_cell_length_b 18.211143
_cell_length_c 14.414978
_cell_angle_alpha 90.000000
_cell_angle_beta 73.536665
_cell_angle_gamma 90.000000
_cell_volume 1263.499363
_symmetry_space_group_name_H-M "C C"
_symmetry_group_IT_number 9
_symmetry_cell_setting 'monoclinic'
loop_
_space_group_symop_operation_xyz
x,y,z
x,-y,1/2+z
1/2+x,1/2+y,z
1/2+x,1/2-y,1/2+z
loop_
_atom_site_type_symbol
_atom_site_label
_atom_site_fract_x
_atom_site_fract_y
_atom_site_fract_z
Si Si1 0.208540 0.865437 0.323810
Si Si2 0.444558 0.880771 0.505099
Si Si3 0.631746 0.505752 0.592804
Si Si4 0.422048 0.498502 0.407658
Si Si5 0.771795 0.157767 0.434025
Si Si6 0.119464 0.598184 0.638492
Si Si7 0.269691 0.253662 0.414804
O O1 0.290036 0.861678 0.424012
O O2 0.470994 0.855880 0.232675
O O3 0.957974 0.808988 0.335045
O O4 0.106051 0.949613 0.321307
O O5 0.227695 0.920772 0.595088
O O6 0.618762 0.806782 0.505743
O O7 0.671987 0.944135 0.461486
O O8 0.598463 0.512388 0.484015
O O9 0.335532 0.537373 0.654889
O O10 0.874562 0.557021 0.606813
O O11 0.312614 0.577023 0.386827
O O12 0.772269 0.146361 0.545628
O O13 0.485260 0.195835 0.435383
O O14 0.030490 0.209728 0.385413
#
# Coordination Sequence:
#
# PCOD9134455 Si02
#       7
#     4   4   4   4   4   4   4
#     4  10  23  40  65  91 124 160 210 253 317 356
#     4  10  19  41  61  92 117 164 203 246 295 384
#     4  10  19  36  61  91 117 150 204 258 294 349
#     4   9  20  37  66  89 116 159 208 252 287 377
#     4  11  21  39  63  91 115 160 211 247 301 359
#     4  11  23  37  65  95 120 156 209 269 303 353
#     4  11  23  38  63  87 123 167 203 241 301 384
#
# _framework density 22.160675000000001
#
# number of rings (size 3 to 8) (size 9 to 14) (size 15 to 20)
#    0.000    1.714    4.286    1.714    6.000    0.000 
#    0.000    0.000    9.429    0.000    0.000    0.000 
#    0.000    0.000    0.000    0.000    0.000    0.000 
#
# Total GULP energy -78098.077870 kJ/mol
# GULP energy per Si atom -5578.434134 kJ/mol
# Density = 2.211024 g / cm^3
# Si number density = 22.160675 Si / 1000 Ang^3
#
#
#
# Elastic Constant Matrix: (Units=GPa)
#
#
# Indices 1 2 3 4 5 6 
#
# 1 128.3344 37.1398 -6.0566 0.0000 3.5937 0.0000
# 2 37.1398 131.0527 -5.6555 0.0000 -5.8647 0.0000
# 3 -6.0566 -5.6555 32.9390 0.0000 -10.6592 0.0000
# 4 0.0000 0.0000 0.0000 14.2360 0.0000 -9.5978
# 5 3.5937 -5.8647 -10.6592 0.0000 29.5306 0.0000
# 6 0.0000 0.0000 0.0000 -9.5978 0.0000 54.7224
#
#
#
# Elastic Compliance Matrix: (Units=1/GPa)
#
#
# Indices 1 2 3 4 5 6 
#
# 1 0.008573 -0.002454 0.000747 0.000000 -0.001261 0.000000
# 2 -0.002454 0.008526 0.001877 0.000000 0.002669 0.000000
# 3 0.000747 0.001877 0.034998 0.000000 0.012914 0.000000
# 4 0.000000 0.000000 0.000000 0.079664 0.000000 0.013972
# 5 -0.001261 0.002669 0.012914 0.000000 0.039208 0.000000
# 6 0.000000 0.000000 0.000000 0.013972 0.000000 0.020725
#
#
# Mechanical properties :
#
#
# Convention : Reuss Voigt Hill
#
# Bulk Modulus (GPa) = 19.07064 38.13129 28.60097
# Shear Modulus (GPa) = 23.94254 37.49104 30.71679
#
# Velocity S-wave (km/s) = 3.29052 4.11759 3.72707
# Velocity P-wave (km/s) = 4.80219 6.31270 5.60853
#
# Compressibility (1/GPa) = 0.05243662
#
# Stress axis : x y z
#
# Youngs Moduli (GPa) = 116.64801 117.28389 28.57319
#
# Poissons Ratio (x) = 0.28778 -0.02134
# Poissons Ratio (y) = 0.28622 -0.05362
# Poissons Ratio (z) = -0.08713 -0.22009
#
# Static dielectric constant tensor:
#      x y z
#    x 1.873490 0.000000 -0.021890 
#    y 0.000000 1.890450 0.000000 
#    z -0.021890 0.000000 1.844550 
# 
# From -- ./inp_files/21843.got.cif
#   From: 2010.05.17/outbox.cif.g08.bks.cpg/sg9_11_cif.got.tgz:21843.got - 2010.06.03 20:04:27.
