data_PCOD9134418
_publ_section_title
;
Structure prediction by ZEFSAII (Michael W. Deem and Ramdas Pophale) SiO2 
 PCOD9134418
Probable space group: C C
;
_chemical_formula_sum "Si O2"
_cell_formula_units_Z 32
_cell_length_a 11.020521
_cell_length_b 8.261095
_cell_length_c 18.020517
_cell_angle_alpha 90.000000
_cell_angle_beta 54.010599
_cell_angle_gamma 90.000000
_cell_volume 1327.464734
_symmetry_space_group_name_H-M "C C"
_symmetry_group_IT_number 9
_symmetry_cell_setting 'monoclinic'
loop_
_space_group_symop_operation_xyz
x,y,z
x,-y,1/2+z
1/2+x,1/2+y,z
1/2+x,1/2-y,1/2+z
loop_
_atom_site_type_symbol
_atom_site_label
_atom_site_fract_x
_atom_site_fract_y
_atom_site_fract_z
Si Si1 0.921580 0.746240 0.928130
Si Si2 0.607866 0.503033 0.952622
Si Si3 0.592781 0.443562 0.177474
Si Si4 0.575507 0.219998 0.305998
Si Si5 0.345802 0.106582 0.491861
Si Si6 0.153907 0.688864 0.611692
Si Si7 0.410133 0.074168 0.783669
Si Si8 0.351530 0.479082 0.654203
O O1 0.920939 0.571617 0.970098
O O2 0.959170 0.703118 0.830126
O O3 0.026855 0.868850 0.932412
O O4 0.750741 0.809751 0.001847
O O5 0.720046 0.419465 0.972703
O O6 0.731490 0.584804 0.854561
O O7 0.482771 0.585463 0.051198
O O8 0.565920 0.392012 0.270181
O O9 0.635241 0.627964 0.146029
O O10 0.445560 0.417148 0.180485
O O11 0.739905 0.344285 0.097535
O O12 0.479186 0.218566 0.415802
O O13 0.476059 0.096761 0.288888
O O14 0.739319 0.137733 0.240174
O O15 0.250968 0.590660 0.637157
O O16 0.989343 0.611858 0.677507
#
# Coordination Sequence:
#
# PCOD9134418 Si02
#       8
#     4   4   4   4   4   4   4   4
#     4   8  14  28  50  72 102 136 164 208 254 295
#     4   8  14  28  52  75  97 134 172 201 251 307
#     4  10  19  36  55  72 107 139 163 217 261 290
#     4   9  18  32  52  78 103 132 174 212 250 310
#     4   8  17  30  49  75 101 133 170 206 253 304
#     4   9  18  33  53  79 103 134 176 208 251 309
#     4   9  18  31  50  77 103 131 172 211 249 304
#     4   9  18  34  55  76 102 137 171 205 257 307
#
# _framework density 24.106102
#
# number of rings (size 3 to 8) (size 9 to 14) (size 15 to 20)
#    0.000    3.500    0.000    0.750    0.000    6.000 
#    0.000    8.750    0.000    0.000    0.000    0.000 
#    0.000    0.000    0.000    0.000    0.000    0.000 
#
# Total GULP energy -89225.535437 kJ/mol
# GULP energy per Si atom -5576.595965 kJ/mol
# Density = 2.405124 g / cm^3
# Si number density = 24.106102 Si / 1000 Ang^3
#
#
#
# Elastic Constant Matrix: (Units=GPa)
#
#
# Indices 1 2 3 4 5 6 
#
# 1 64.7418 20.6325 24.4451 0.0000 -22.6664 0.0000
# 2 20.6325 24.7618 14.4122 0.0000 -3.5430 0.0000
# 3 24.4451 14.4122 122.6003 0.0000 -21.5383 0.0000
# 4 0.0000 0.0000 0.0000 41.4398 0.0000 -3.3303
# 5 -22.6664 -3.5430 -21.5383 0.0000 42.9664 0.0000
# 6 0.0000 0.0000 0.0000 -3.3303 0.0000 30.5823
#
#
#
# Elastic Compliance Matrix: (Units=1/GPa)
#
#
# Indices 1 2 3 4 5 6 
#
# 1 0.026118 -0.019593 -0.000842 0.000000 0.011741 0.000000
# 2 -0.019593 0.058098 -0.004274 0.000000 -0.007687 0.000000
# 3 -0.000842 -0.004274 0.009526 0.000000 0.003979 0.000000
# 4 0.000000 0.000000 0.000000 0.024344 0.000000 0.002651
# 5 0.011741 -0.007687 0.003979 0.000000 0.030828 0.000000
# 6 0.000000 0.000000 0.000000 0.002651 0.000000 0.032987
#
#
# Mechanical properties :
#
#
# Convention : Reuss Voigt Hill
#
# Bulk Modulus (GPa) = 22.56053 36.78706 29.67380
# Shear Modulus (GPa) = 20.31749 33.17197 26.74473
#
# Velocity S-wave (km/s) = 2.90631 3.71358 3.33447
# Velocity P-wave (km/s) = 4.54328 5.80355 5.21165
#
# Compressibility (1/GPa) = 0.04432519
#
# Stress axis : x y z
#
# Youngs Moduli (GPa) = 38.28728 17.21238 104.97827
#
# Poissons Ratio (x) = 0.33724 0.08838
# Poissons Ratio (y) = 0.75016 0.44863
# Poissons Ratio (z) = 0.03223 0.07356
#
# Static dielectric constant tensor:
#      x y z
#    x 1.934620 0.000000 -0.037880 
#    y 0.000000 1.928320 0.000000 
#    z -0.037880 0.000000 1.998160 
# 
# From -- ./inp_files/33209.got.cif
#   From: 2010.05.17/outbox.cif.g08.bks.cpg/sg9_17_cif.got.tgz:33209.got - 2010.06.03 20:04:27.
