data_PCOD9134522
_publ_section_title
;
Structure prediction by ZEFSAII (Michael W. Deem and Ramdas Pophale) SiO2 
 PCOD9134522
Probable space group: C C
;
_chemical_formula_sum "Si O2"
_cell_formula_units_Z 32
_cell_length_a 8.946795
_cell_length_b 11.314662
_cell_length_c 20.150668
_cell_angle_alpha 90.000000
_cell_angle_beta 130.692404
_cell_angle_gamma 90.000000
_cell_volume 1546.657680
_symmetry_space_group_name_H-M "C C"
_symmetry_group_IT_number 9
_symmetry_cell_setting 'monoclinic'
loop_
_space_group_symop_operation_xyz
x,y,z
x,-y,1/2+z
1/2+x,1/2+y,z
1/2+x,1/2-y,1/2+z
loop_
_atom_site_type_symbol
_atom_site_label
_atom_site_fract_x
_atom_site_fract_y
_atom_site_fract_z
Si Si1 0.729480 0.221012 0.206740
Si Si2 0.548874 0.670187 0.399578
Si Si3 0.316969 0.811301 0.654574
Si Si4 0.411191 0.084900 0.921626
Si Si5 0.721059 0.463169 0.505641
Si Si6 0.719395 0.513614 0.729095
Si Si7 0.451734 0.818929 0.066255
Si Si8 0.296813 0.413070 0.597224
O O1 0.541261 0.212071 0.200220
O O2 0.760371 0.360936 0.204780
O O3 0.694061 0.143781 0.131709
O O4 0.924398 0.168531 0.297241
O O5 0.464876 0.781527 0.415449
O O6 0.536829 0.550372 0.439149
O O7 0.787013 0.683074 0.458990
O O8 0.184026 0.695469 0.627527
O O9 0.206289 0.868809 0.558717
O O10 0.303495 0.904250 0.710962
O O11 0.310504 0.024877 0.829048
O O12 0.623239 0.030168 0.003269
O O13 0.279911 0.084140 0.950015
O O14 0.889828 0.555959 0.579008
O O15 0.484510 0.493905 0.664697
O O16 0.386237 0.703664 0.087837
#
# Coordination Sequence:
#
# PCOD9134522 Si02
#       8
#     4   4   4   4   4   4   4   4
#     4  11  21  38  60  88 118 154 201 250 293 352
#     4   8  20  38  56  81 120 152 193 241 296 356
#     4  11  22  37  60  93 112 151 210 244 289 359
#     4  10  19  38  60  85 115 158 199 236 296 368
#     4  10  19  37  62  81 116 156 197 242 297 347
#     4  10  24  39  58  87 124 155 196 250 304 349
#     4   8  20  38  56  82 115 150 194 240 293 355
#     4  10  19  39  62  81 118 162 190 243 306 356
#
# _framework density 20.689775000000001
#
# number of rings (size 3 to 8) (size 9 to 14) (size 15 to 20)
#    0.750    1.500    1.250    1.500    1.750    0.000 
#    9.000    2.500    0.000    0.000    0.000    0.000 
#    0.000    0.000    0.000    0.000    0.000    0.000 
#
# Total GULP energy -89121.228808 kJ/mol
# GULP energy per Si atom -5570.076800 kJ/mol
# Density = 2.064268 g / cm^3
# Si number density = 20.689775 Si / 1000 Ang^3
#
#
#
# Elastic Constant Matrix: (Units=GPa)
#
#
# Indices 1 2 3 4 5 6 
#
# 1 53.0519 -11.3468 16.7823 0.0000 8.9288 0.0000
# 2 -11.3468 28.7477 8.1340 0.0000 1.4440 0.0000
# 3 16.7823 8.1340 96.9741 0.0000 6.8329 0.0000
# 4 0.0000 0.0000 0.0000 27.2396 0.0000 4.2255
# 5 8.9288 1.4440 6.8329 0.0000 30.0335 0.0000
# 6 0.0000 0.0000 0.0000 4.2255 0.0000 22.0488
#
#
#
# Elastic Compliance Matrix: (Units=1/GPa)
#
#
# Indices 1 2 3 4 5 6 
#
# 1 0.023750 0.010996 -0.004571 0.000000 -0.006549 0.000000
# 2 0.010996 0.040755 -0.005034 0.000000 -0.004083 0.000000
# 3 -0.004571 -0.005034 0.011598 0.000000 -0.001038 0.000000
# 4 0.000000 0.000000 0.000000 0.037836 0.000000 -0.007251
# 5 -0.006549 -0.004083 -0.001038 0.000000 0.035676 0.000000
# 6 0.000000 0.000000 0.000000 -0.007251 0.000000 0.046744
#
#
# Mechanical properties :
#
#
# Convention : Reuss Voigt Hill
#
# Bulk Modulus (GPa) = 12.67649 22.87921 17.77785
# Shear Modulus (GPa) = 22.74064 26.87799 24.80931
#
# Velocity S-wave (km/s) = 3.31890 3.60821 3.46657
# Velocity P-wave (km/s) = 4.56367 5.33302 4.96327
#
# Compressibility (1/GPa) = 0.07888616
#
# Stress axis : x y z
#
# Youngs Moduli (GPa) = 42.10598 24.53688 86.21857
#
# Poissons Ratio (x) = -0.26982 0.39410
# Poissons Ratio (y) = -0.46301 0.43400
# Poissons Ratio (z) = 0.19247 0.12351
#
# Static dielectric constant tensor:
#      x y z
#    x 1.759340 0.000000 0.009710 
#    y 0.000000 1.762240 0.000000 
#    z 0.009710 0.000000 1.748660 
# 
# From -- ./inp_files/23201.got.cif
#   From: 2010.05.17/outbox.cif.g08.bks.cpg/sg9_12_cif.got.tgz:23201.got - 2010.06.03 20:04:27.
