data_PCOD9134934
_publ_section_title
;
Structure prediction by ZEFSAII (Michael W. Deem and Ramdas Pophale) SiO2 
 PCOD9134934
Probable space group: C C
;
_chemical_formula_sum "Si O2"
_cell_formula_units_Z 32
_cell_length_a 14.527691
_cell_length_b 14.846033
_cell_length_c 8.835739
_cell_angle_alpha 90.000000
_cell_angle_beta 114.760650
_cell_angle_gamma 90.000000
_cell_volume 1730.481628
_symmetry_space_group_name_H-M "C C"
_symmetry_group_IT_number 9
_symmetry_cell_setting 'monoclinic'
loop_
_space_group_symop_operation_xyz
x,y,z
x,-y,1/2+z
1/2+x,1/2+y,z
1/2+x,1/2-y,1/2+z
loop_
_atom_site_type_symbol
_atom_site_label
_atom_site_fract_x
_atom_site_fract_y
_atom_site_fract_z
Si Si1 0.458440 0.224412 0.265020
Si Si2 0.803448 0.880635 0.229116
Si Si3 0.552825 0.096734 0.911215
Si Si4 0.390855 0.475207 0.558915
Si Si5 0.480590 0.618695 0.395860
Si Si6 0.135099 0.235223 0.647941
Si Si7 0.578552 0.101658 0.568616
Si Si8 0.863018 0.301060 0.396323
O O1 0.390396 0.306299 0.276217
O O2 0.557587 0.256280 0.237248
O O3 0.495263 0.160616 0.424228
O O4 0.387270 0.178800 0.088576
O O5 0.832454 0.958257 0.130612
O O6 0.688859 0.853989 0.115033
O O7 0.811797 0.921104 0.402555
O O8 0.566703 0.097251 0.740850
O O9 0.437073 0.130295 0.860469
O O10 0.622710 0.170262 0.048485
O O11 0.574161 0.998908 0.996387
O O12 0.456876 0.535379 0.489833
O O13 0.458444 0.411269 0.710501
O O14 0.589807 0.659470 0.505414
O O15 0.405969 0.700663 0.390090
O O16 0.245987 0.206188 0.775206
#
# Coordination Sequence:
#
# PCOD9134934 Si02
#       8
#     4   4   4   4   4   4   4   4
#     4  10  22  38  58  90 122 152 196 248 295 354
#     4  11  22  36  62  91 117 155 188 254 292 352
#     4  10  24  40  61  91 117 157 203 254 280 367
#     4  10  20  35  58  85 123 143 198 242 293 340
#     4   9  20  36  56  87 115 153 191 249 287 348
#     4  10  21  40  62  84 121 160 196 237 310 344
#     4  12  24  39  63  89 119 157 204 242 305 347
#     4  10  21  40  62  81 124 159 194 242 306 342
#
# _framework density 18.491962999999998
#
# number of rings (size 3 to 8) (size 9 to 14) (size 15 to 20)
#    0.000    2.000    2.500    3.000    8.750    0.000 
#    0.000    2.500    2.750    0.000    0.000    0.000 
#    0.000    0.000    0.000    0.000    0.000    0.000 
#
# Total GULP energy -89253.886850 kJ/mol
# GULP energy per Si atom -5578.367928 kJ/mol
# Density = 1.844987 g / cm^3
# Si number density = 18.491963 Si / 1000 Ang^3
#
#
#
# Elastic Constant Matrix: (Units=GPa)
#
#
# Indices 1 2 3 4 5 6 
#
# 1 72.3674 30.9333 64.5191 0.0000 20.9353 0.0000
# 2 30.9333 62.4682 51.1302 0.0000 0.2089 0.0000
# 3 64.5191 51.1302 137.5359 0.0000 12.6769 0.0000
# 4 0.0000 0.0000 0.0000 31.6703 0.0000 -2.2953
# 5 20.9353 0.2089 12.6769 0.0000 40.5270 0.0000
# 6 0.0000 0.0000 0.0000 -2.2953 0.0000 12.2009
#
#
#
# Elastic Compliance Matrix: (Units=1/GPa)
#
#
# Indices 1 2 3 4 5 6 
#
# 1 0.028864 -0.005822 -0.010301 0.000000 -0.011658 0.000000
# 2 -0.005822 0.024460 -0.006824 0.000000 0.005016 0.000000
# 3 -0.010301 -0.006824 0.014566 0.000000 0.000800 0.000000
# 4 0.000000 0.000000 0.000000 0.032012 0.000000 0.006022
# 5 -0.011658 0.005016 0.000800 0.000000 0.030421 0.000000
# 6 0.000000 0.000000 0.000000 0.006022 0.000000 0.083094
#
#
# Mechanical properties :
#
#
# Convention : Reuss Voigt Hill
#
# Bulk Modulus (GPa) = 45.46564 62.83742 54.15153
# Shear Modulus (GPa) = 18.75157 25.26557 22.00857
#
# Velocity S-wave (km/s) = 3.18785 3.70036 3.45363
# Velocity P-wave (km/s) = 6.17980 7.23268 6.72687
#
# Compressibility (1/GPa) = 0.02199463
#
# Stress axis : x y z
#
# Youngs Moduli (GPa) = 34.64566 40.88262 68.65120
#
# Poissons Ratio (x) = 0.23804 0.70718
# Poissons Ratio (y) = 0.20172 0.46850
# Poissons Ratio (z) = 0.35689 0.27900
#
# Static dielectric constant tensor:
#      x y z
#    x 1.665540 0.000000 -0.002760 
#    y 0.000000 1.641530 0.000000 
#    z -0.002760 0.000000 1.648330 
# 
# From -- ./inp_files/9698.got.cif
#   From: 2010.05.17/outbox.cif.g08.bks.cpg/sg9_5_cif.got.tgz:9698.got - 2010.06.03 20:04:27.
