data_PCOD9134146
_publ_section_title
;
Structure prediction by ZEFSAII (Michael W. Deem and Ramdas Pophale) SiO2 
 PCOD9134146
Probable space group: C C
;
_chemical_formula_sum "Si O2"
_cell_formula_units_Z 28
_cell_length_a 17.761585
_cell_length_b 9.190734
_cell_length_c 8.239827
_cell_angle_alpha 90.000000
_cell_angle_beta 56.560565
_cell_angle_gamma 90.000000
_cell_volume 1122.432169
_symmetry_space_group_name_H-M "C C"
_symmetry_group_IT_number 9
_symmetry_cell_setting 'monoclinic'
loop_
_space_group_symop_operation_xyz
x,y,z
x,-y,1/2+z
1/2+x,1/2+y,z
1/2+x,1/2-y,1/2+z
loop_
_atom_site_type_symbol
_atom_site_label
_atom_site_fract_x
_atom_site_fract_y
_atom_site_fract_z
Si Si1 0.063040 0.308959 0.798740
Si Si2 0.636781 0.367596 0.681822
Si Si3 0.263754 0.202696 0.452679
Si Si4 0.971908 0.919696 0.647777
Si Si5 0.752776 0.416180 0.271025
Si Si6 0.032062 0.616740 0.977607
Si Si7 0.887760 0.180967 0.552652
O O1 0.162202 0.251064 0.624524
O O2 0.016956 0.353222 0.684381
O O3 0.065521 0.455832 0.901617
O O4 0.007287 0.194930 0.973294
O O5 0.555045 0.437167 0.675182
O O6 0.702754 0.315743 0.460458
O O7 0.683950 0.485986 0.741236
O O8 0.603465 0.232679 0.823929
O O9 0.285987 0.044991 0.346915
O O10 0.299279 0.305614 0.267578
O O11 0.307775 0.181627 0.579516
O O12 0.946433 0.066596 0.587845
O O13 0.890503 0.869044 0.863059
O O14 0.941095 0.665537 0.992359
#
# Coordination Sequence:
#
# PCOD9134146 Si02
#       7
#     4   4   4   4   4   4   4
#     4  12  25  43  70 100 134 178 239 281 336 407
#     4  10  18  37  67  99 123 175 230 278 318 404
#     4  11  25  43  69 102 139 175 230 288 348 403
#     4  11  23  42  71  96 134 184 231 270 342 422
#     4  10  21  38  68  98 132 175 228 278 338 407
#     4  11  24  40  67  98 135 175 228 286 333 404
#     4  11  26  45  68 101 141 178 226 283 355 403
#
# _framework density 24.945827999999999
#
# number of rings (size 3 to 8) (size 9 to 14) (size 15 to 20)
#    0.000    1.143    2.857    4.286    6.000    3.429 
#    0.000    2.857    0.000    0.000    0.000    0.000 
#    0.000    0.000    0.000    0.000    0.000    0.000 
#
# Total GULP energy -78169.496921 kJ/mol
# GULP energy per Si atom -5583.535494 kJ/mol
# Density = 2.488905 g / cm^3
# Si number density = 24.945828 Si / 1000 Ang^3
#
#
#
# Elastic Constant Matrix: (Units=GPa)
#
#
# Indices 1 2 3 4 5 6 
#
# 1 20.7193 0.4611 22.8357 0.0000 3.0317 0.0000
# 2 0.4611 90.4498 56.0879 0.0000 -12.6843 0.0000
# 3 22.8357 56.0879 241.0863 0.0000 16.1883 0.0000
# 4 0.0000 0.0000 0.0000 40.4749 0.0000 12.2935
# 5 3.0317 -12.6843 16.1883 0.0000 35.9171 0.0000
# 6 0.0000 0.0000 0.0000 12.2935 0.0000 17.9869
#
#
#
# Elastic Compliance Matrix: (Units=1/GPa)
#
#
# Indices 1 2 3 4 5 6 
#
# 1 0.054809 0.003262 -0.005895 0.000000 -0.000817 0.000000
# 2 0.003262 0.014555 -0.004147 0.000000 0.006734 0.000000
# 3 -0.005895 -0.004147 0.005915 0.000000 -0.003633 0.000000
# 4 0.000000 0.000000 0.000000 0.031179 0.000000 -0.021310
# 5 -0.000817 0.006734 -0.003633 0.000000 0.031927 0.000000
# 6 0.000000 0.000000 0.000000 -0.021310 0.000000 0.070161
#
#
# Mechanical properties :
#
#
# Convention : Reuss Voigt Hill
#
# Bulk Modulus (GPa) = 16.20294 56.78052 36.49173
# Shear Modulus (GPa) = 20.60319 37.06716 28.83518
#
# Velocity S-wave (km/s) = 2.87700 3.85893 3.40356
# Velocity P-wave (km/s) = 4.18873 6.53192 5.48687
#
# Compressibility (1/GPa) = 0.06171719
#
# Stress axis : x y z
#
# Youngs Moduli (GPa) = 18.24525 68.70289 169.05768
#
# Poissons Ratio (x) = -0.22409 0.99667
# Poissons Ratio (y) = -0.05951 0.70115
# Poissons Ratio (z) = 0.10756 0.28494
#
# Static dielectric constant tensor:
#      x y z
#    x 2.114120 0.000000 -0.092930 
#    y 0.000000 2.009610 0.000000 
#    z -0.092930 0.000000 2.073500 
# 
# From -- ./inp_files/10437.got.cif
#   From: 2010.05.17/outbox.cif.g08.bks.cpg/sg9_6_cif.got.tgz:10437.got - 2010.06.03 20:04:27.
