data_PCOD9134610
_publ_section_title
;
Structure prediction by ZEFSAII (Michael W. Deem and Ramdas Pophale) SiO2 
 PCOD9134610
Probable space group: C C
;
_chemical_formula_sum "Si O2"
_cell_formula_units_Z 32
_cell_length_a 11.525806
_cell_length_b 19.820410
_cell_length_c 5.706709
_cell_angle_alpha 90.000000
_cell_angle_beta 76.591660
_cell_angle_gamma 90.000000
_cell_volume 1268.140564
_symmetry_space_group_name_H-M "C C"
_symmetry_group_IT_number 9
_symmetry_cell_setting 'monoclinic'
loop_
_space_group_symop_operation_xyz
x,y,z
x,-y,1/2+z
1/2+x,1/2+y,z
1/2+x,1/2-y,1/2+z
loop_
_atom_site_type_symbol
_atom_site_label
_atom_site_fract_x
_atom_site_fract_y
_atom_site_fract_z
Si Si1 0.088320 0.108782 0.767770
Si Si2 0.581327 0.997414 0.462325
Si Si3 0.123995 0.249217 0.238971
Si Si4 0.517650 0.395148 0.815416
Si Si5 0.940954 0.756393 0.432110
Si Si6 0.818931 0.537816 0.594377
Si Si7 0.048149 0.354582 0.649944
Si Si8 0.770384 0.172514 0.323917
O O1 0.230754 0.100896 0.676010
O O2 0.036260 0.072187 0.560825
O O3 0.028253 0.183751 0.796414
O O4 0.049752 0.079370 0.039736
O O5 0.526491 0.922155 0.520047
O O6 0.646304 0.993896 0.181514
O O7 0.463053 0.044732 0.519601
O O8 0.110213 0.299919 0.455404
O O9 0.107082 0.170182 0.291197
O O10 0.235463 0.271390 0.030236
O O11 0.007642 0.265002 0.136614
O O12 0.379467 0.372203 0.865256
O O13 0.822770 0.791599 0.569833
O O14 0.935219 0.688685 0.286772
O O15 0.793973 0.506493 0.344805
O O16 0.149329 0.365420 0.805195
#
# Coordination Sequence:
#
# PCOD9134610 Si02
#       8
#     4   4   4   4   4   4   4   4
#     4  10  19  38  64  86 133 170 212 275 326 395
#     4  10  25  46  64  92 129 176 230 274 326 396
#     4   9  19  34  58  92 131 173 212 265 334 403
#     4  10  21  38  59  96 135 167 209 278 335 400
#     4   9  21  39  57 101 133 171 210 282 344 401
#     4  10  21  42  64  93 125 176 214 266 332 393
#     4  11  21  40  67  91 137 176 224 285 332 410
#     4   9  21  35  59  93 131 175 217 263 343 406
#
# _framework density 25.233796000000002
#
# number of rings (size 3 to 8) (size 9 to 14) (size 15 to 20)
#    0.000    2.500    1.250    0.750    7.000    0.000 
#   13.500   11.250    0.000   10.500    0.000    0.000 
#    0.000    0.000    0.000    0.000    0.000    0.000 
#
# Total GULP energy -89163.721680 kJ/mol
# GULP energy per Si atom -5572.732605 kJ/mol
# Density = 2.517636 g / cm^3
# Si number density = 25.233796 Si / 1000 Ang^3
#
#
#
# Elastic Constant Matrix: (Units=GPa)
#
#
# Indices 1 2 3 4 5 6 
#
# 1 99.9230 11.9919 32.6378 0.0000 -15.8212 0.0000
# 2 11.9919 61.5088 12.8900 0.0000 -4.2864 0.0000
# 3 32.6378 12.8900 177.2505 0.0000 21.6489 0.0000
# 4 0.0000 0.0000 0.0000 -7.1362 0.0000 -0.2310
# 5 -15.8212 -4.2864 21.6489 0.0000 34.8767 0.0000
# 6 0.0000 0.0000 0.0000 -0.2310 0.0000 21.6747
#
#
#
# Elastic Compliance Matrix: (Units=1/GPa)
#
#
# Indices 1 2 3 4 5 6 
#
# 1 0.012325 -0.001246 -0.003076 0.000000 0.007348 0.000000
# 2 -0.001246 0.016931 -0.001284 0.000000 0.002313 0.000000
# 3 -0.003076 -0.001284 0.007024 0.000000 -0.005913 0.000000
# 4 0.000000 0.000000 0.000000 -0.140083 0.000000 -0.001493
# 5 0.007348 0.002313 -0.005913 0.000000 0.035960 0.000000
# 6 0.000000 0.000000 0.000000 -0.001493 0.000000 0.046121
#
#
# Mechanical properties :
#
#
# Convention : Reuss Voigt Hill
#
# Bulk Modulus (GPa) = 39.89359 50.41353 45.15356
# Shear Modulus (GPa) = -2323.38524 28.62721 -1147.37901
#
# Velocity S-wave (km/s) = -30.37667 3.37186 -21.34681
# Velocity P-wave (km/s) = 34.84938 5.93137 24.28269
#
# Compressibility (1/GPa) = 0.02506668
#
# Stress axis : x y z
#
# Youngs Moduli (GPa) = 81.13284 59.06285 142.37302
#
# Poissons Ratio (x) = 0.07361 0.43798
# Poissons Ratio (y) = 0.10112 0.18284
# Poissons Ratio (z) = 0.24959 0.07585
#
# Static dielectric constant tensor:
#      x y z
#    x 1.976660 0.000000 0.017910 
#    y 0.000000 2.034820 0.000000 
#    z 0.017910 0.000000 2.105290 
# 
# From -- ./inp_files/2045.got.cif
#   From: 2010.05.17/outbox.cif.g08.bks.cpg/sg9_2_cif.got.tgz:2045.got - 2010.06.03 20:04:27.
