data_PCOD9134382
_publ_section_title
;
Structure prediction by ZEFSAII (Michael W. Deem and Ramdas Pophale) SiO2 
 PCOD9134382
Probable space group: C C
;
_chemical_formula_sum "Si O2"
_cell_formula_units_Z 32
_cell_length_a 8.133093
_cell_length_b 14.726343
_cell_length_c 12.866052
_cell_angle_alpha 90.000000
_cell_angle_beta 49.266301
_cell_angle_gamma 90.000000
_cell_volume 1167.675802
_symmetry_space_group_name_H-M "C C"
_symmetry_group_IT_number 9
_symmetry_cell_setting 'monoclinic'
loop_
_space_group_symop_operation_xyz
x,y,z
x,-y,1/2+z
1/2+x,1/2+y,z
1/2+x,1/2-y,1/2+z
loop_
_atom_site_type_symbol
_atom_site_label
_atom_site_fract_x
_atom_site_fract_y
_atom_site_fract_z
Si Si1 0.965790 0.593322 0.867790
Si Si2 0.737955 0.849133 0.536942
Si Si3 0.410275 0.980375 0.167394
Si Si4 0.008841 0.136082 0.121072
Si Si5 0.405819 0.104713 0.468607
Si Si6 0.891179 0.743022 0.295274
Si Si7 0.915550 0.072158 0.606997
Si Si8 0.534420 0.623544 0.337185
O O1 0.872133 0.561877 0.795809
O O2 0.209453 0.623298 0.740590
O O3 0.771963 0.646215 0.004446
O O4 0.992855 0.497587 0.915158
O O5 0.601351 0.943051 0.594945
O O6 0.907872 0.824467 0.557580
O O7 0.849456 0.832565 0.380133
O O8 0.555650 0.773036 0.633400
O O9 0.196189 0.041819 0.234777
O O10 0.437239 0.895083 0.078898
O O11 0.939855 0.160192 0.267492
O O12 0.925402 0.032848 0.136802
O O13 0.484506 0.173764 0.347913
O O14 0.151303 0.100244 0.548377
O O15 0.672570 0.699673 0.339748
O O16 0.897902 0.084456 0.489653
#
# Coordination Sequence:
#
# PCOD9134382 Si02
#       8
#     4   4   4   4   4   4   4   4
#     4  11  20  35  60 103 131 159 219 277 346 404
#     4  11  24  45  68  95 138 193 232 285 350 420
#     4  11  19  38  65  98 135 171 220 285 345 409
#     4  11  21  40  65  97 131 180 224 273 346 416
#     4  10  20  39  65  95 134 170 219 285 347 411
#     4  10  23  47  66  93 134 185 234 279 353 416
#     4  10  19  35  60 103 132 161 206 280 351 399
#     4  10  20  41  63  90 137 169 212 286 342 403
#
# _framework density 27.404866999999999
#
# number of rings (size 3 to 8) (size 9 to 14) (size 15 to 20)
#    0.000    1.500    8.750    0.000    0.000    3.000 
#    6.750    2.500    2.750    0.000    0.000    0.000 
#    0.000    0.000    0.000    0.000    0.000    0.000 
#
# Total GULP energy -89412.707972 kJ/mol
# GULP energy per Si atom -5588.294248 kJ/mol
# Density = 2.734249 g / cm^3
# Si number density = 27.404867 Si / 1000 Ang^3
#
#
#
# Elastic Constant Matrix: (Units=GPa)
#
#
# Indices 1 2 3 4 5 6 
#
# 1 119.0352 -1.6740 61.9821 0.0000 17.8800 0.0000
# 2 -1.6740 60.3371 19.3789 0.0000 -0.6954 0.0000
# 3 61.9821 19.3789 127.2128 0.0000 11.2041 0.0000
# 4 0.0000 0.0000 0.0000 38.8271 0.0000 10.8629
# 5 17.8800 -0.6954 11.2041 0.0000 73.5898 0.0000
# 6 0.0000 0.0000 0.0000 10.8629 0.0000 -0.1393
#
#
#
# Elastic Compliance Matrix: (Units=1/GPa)
#
#
# Indices 1 2 3 4 5 6 
#
# 1 0.011805 0.002205 -0.005916 0.000000 -0.001947 0.000000
# 2 0.002205 0.017862 -0.003814 0.000000 0.000214 0.000000
# 3 -0.005916 -0.003814 0.011353 0.000000 -0.000327 0.000000
# 4 0.000000 0.000000 0.000000 0.001129 0.000000 0.088022
# 5 -0.001947 0.000214 -0.000327 0.000000 0.014114 0.000000
# 6 0.000000 0.000000 0.000000 0.088022 0.000000 -0.314615
#
#
# Mechanical properties :
#
#
# Convention : Reuss Voigt Hill
#
# Bulk Modulus (GPa) = 38.50622 51.77323 45.13972
# Shear Modulus (GPa) = -21.30875 37.58207 8.13666
#
# Velocity S-wave (km/s) = -2.79149 3.70721 1.72496
# Velocity P-wave (km/s) = 1.92132 6.10390 4.52488
#
# Compressibility (1/GPa) = 0.02596983
#
# Stress axis : x y z
#
# Youngs Moduli (GPa) = 84.71082 55.98396 88.08046
#
# Poissons Ratio (x) = -0.12346 0.52110
# Poissons Ratio (y) = -0.18681 0.33597
# Poissons Ratio (z) = 0.50116 0.21354
#
# Static dielectric constant tensor:
#      x y z
#    x 2.182150 0.000000 -0.026080 
#    y 0.000000 2.347730 0.000000 
#    z -0.026080 0.000000 2.174150 
# 
# From -- ./inp_files/15481.got.cif
#   From: 2010.05.17/outbox.cif.g08.bks.cpg/sg9_8_cif.got.tgz:15481.got - 2010.06.03 20:04:27.
