data_PCOD9134918
_publ_section_title
;
Structure prediction by ZEFSAII (Michael W. Deem and Ramdas Pophale) SiO2 
 PCOD9134918
Probable space group: C C
;
_chemical_formula_sum "Si O2"
_cell_formula_units_Z 32
_cell_length_a 15.944168
_cell_length_b 19.772988
_cell_length_c 5.338377
_cell_angle_alpha 90.000000
_cell_angle_beta 128.710095
_cell_angle_gamma 90.000000
_cell_volume 1313.276803
_symmetry_space_group_name_H-M "C C"
_symmetry_group_IT_number 9
_symmetry_cell_setting 'monoclinic'
loop_
_space_group_symop_operation_xyz
x,y,z
x,-y,1/2+z
1/2+x,1/2+y,z
1/2+x,1/2-y,1/2+z
loop_
_atom_site_type_symbol
_atom_site_label
_atom_site_fract_x
_atom_site_fract_y
_atom_site_fract_z
Si Si1 0.211930 0.467785 0.081090
Si Si2 0.633313 0.540788 0.619395
Si Si3 0.565754 0.779492 0.395191
Si Si4 0.387614 0.230415 0.879167
Si Si5 0.910234 0.060950 0.448166
Si Si6 0.719771 0.318479 0.434476
Si Si7 0.536370 0.666640 0.952095
Si Si8 0.238583 0.661603 0.887361
O O1 0.162062 0.500903 0.238104
O O2 0.334412 0.495750 0.332936
O O3 0.218909 0.386606 0.111220
O O4 0.662403 0.498162 0.921327
O O5 0.505832 0.553002 0.425628
O O6 0.685109 0.614600 0.717160
O O7 0.527938 0.709549 0.188693
O O8 0.466880 0.813105 0.353888
O O9 0.660120 0.751772 0.750861
O O10 0.623808 0.825029 0.298347
O O11 0.335890 0.197064 0.028985
O O12 0.301145 0.266801 0.531399
O O13 0.469625 0.287164 0.133003
O O14 0.977259 0.095057 0.804700
O O15 0.817425 0.114241 0.198024
O O16 0.659832 0.336680 0.586109
#
# Coordination Sequence:
#
# PCOD9134918 Si02
#       8
#     4   4   4   4   4   4   4   4
#     4  10  20  35  54  84 114 154 190 236 300 362
#     4  11  23  38  61  90 121 154 200 253 309 371
#     4  10  20  35  58  84 117 154 201 248 294 361
#     4   9  19  37  56  80 116 154 198 242 299 358
#     4   9  19  35  59  83 123 152 192 246 312 371
#     4   9  21  38  55  82 121 153 195 249 309 361
#     4   9  19  34  55  88 111 151 196 248 297 362
#     4   9  19  36  52  85 115 154 194 242 302 366
#
# _framework density 24.366527999999999
#
# number of rings (size 3 to 8) (size 9 to 14) (size 15 to 20)
#    0.000    2.500    0.000    2.250    5.250    2.000 
#   13.500    0.000    0.000    3.000    0.000    0.000 
#    0.000    0.000    0.000    0.000    0.000    0.000 
#
# Total GULP energy -89186.639051 kJ/mol
# GULP energy per Si atom -5574.164941 kJ/mol
# Density = 2.431107 g / cm^3
# Si number density = 24.366528 Si / 1000 Ang^3
#
#
#
# Elastic Constant Matrix: (Units=GPa)
#
#
# Indices 1 2 3 4 5 6 
#
# 1 154.6238 33.6960 18.7124 0.0000 -0.9634 0.0000
# 2 33.6960 104.4893 15.4979 0.0000 5.1058 0.0000
# 3 18.7124 15.4979 46.9592 0.0000 -24.2583 0.0000
# 4 0.0000 0.0000 0.0000 34.8415 0.0000 -6.1331
# 5 -0.9634 5.1058 -24.2583 0.0000 34.8255 0.0000
# 6 0.0000 0.0000 0.0000 -6.1331 0.0000 34.4945
#
#
#
# Elastic Compliance Matrix: (Units=1/GPa)
#
#
# Indices 1 2 3 4 5 6 
#
# 1 0.007231 -0.001767 -0.003219 0.000000 -0.001783 0.000000
# 2 -0.001767 0.011341 -0.006128 0.000000 -0.005980 0.000000
# 3 -0.003219 -0.006128 0.039081 0.000000 0.028032 0.000000
# 4 0.000000 0.000000 0.000000 0.029629 0.000000 0.005268
# 5 -0.001783 -0.005980 0.028032 0.000000 0.049068 0.000000
# 6 0.000000 0.000000 0.000000 0.005268 0.000000 0.029927
#
#
# Mechanical properties :
#
#
# Convention : Reuss Voigt Hill
#
# Bulk Modulus (GPa) = 28.22934 49.09832 38.66383
# Shear Modulus (GPa) = 24.96067 36.71002 30.83534
#
# Velocity S-wave (km/s) = 3.20407 3.88567 3.56122
# Velocity P-wave (km/s) = 5.02977 6.35019 5.72815
#
# Compressibility (1/GPa) = 0.03542413
#
# Stress axis : x y z
#
# Youngs Moduli (GPa) = 138.29486 88.17255 25.58762
#
# Poissons Ratio (x) = 0.15582 0.08238
# Poissons Ratio (y) = 0.24439 0.15680
# Poissons Ratio (z) = 0.44524 0.54033
#
# Static dielectric constant tensor:
#      x y z
#    x 2.080810 0.000000 -0.153390 
#    y 0.000000 1.990070 0.000000 
#    z -0.153390 0.000000 2.137760 
# 
# From -- ./inp_files/2709.got.cif
#   From: 2010.05.17/outbox.cif.g08.bks.cpg/sg9_2_cif.got.tgz:2709.got - 2010.06.03 20:04:27.
