data_PCOD9134608
_publ_section_title
;
Structure prediction by ZEFSAII (Michael W. Deem and Ramdas Pophale) SiO2 
 PCOD9134608
Probable space group: C C
;
_chemical_formula_sum "Si O2"
_cell_formula_units_Z 32
_cell_length_a 15.623667
_cell_length_b 7.580550
_cell_length_c 12.353317
_cell_angle_alpha 90.000000
_cell_angle_beta 87.749698
_cell_angle_gamma 90.000000
_cell_volume 1461.949032
_symmetry_space_group_name_H-M "C C"
_symmetry_group_IT_number 9
_symmetry_cell_setting 'monoclinic'
loop_
_space_group_symop_operation_xyz
x,y,z
x,-y,1/2+z
1/2+x,1/2+y,z
1/2+x,1/2-y,1/2+z
loop_
_atom_site_type_symbol
_atom_site_label
_atom_site_fract_x
_atom_site_fract_y
_atom_site_fract_z
Si Si1 0.000000 0.719633 0.639430
Si Si2 0.750527 0.789211 0.433216
Si Si3 0.084979 0.534804 0.966326
Si Si4 0.615986 0.684444 0.847198
Si Si5 0.175870 0.880555 0.719012
Si Si6 0.262678 0.092147 0.003736
Si Si7 0.432403 0.313731 0.417032
Si Si8 0.926549 0.607018 0.863534
O O1 0.952769 0.821470 0.544297
O O2 0.937413 0.663597 0.739322
O O3 0.038818 0.555108 0.570166
O O4 0.083820 0.814423 0.682819
O O5 0.706255 0.716030 0.326248
O O6 0.774821 0.618499 0.502133
O O7 0.838364 0.889356 0.401979
O O8 0.676187 0.893677 0.495810
O O9 0.106382 0.393163 0.868858
O O10 0.013757 0.664387 0.920592
O O11 0.663497 0.588609 0.746750
O O12 0.673211 0.628264 0.947257
O O13 0.518311 0.613946 0.857215
O O14 0.247979 0.846812 0.625739
O O15 0.341513 0.166995 0.930487
O O16 0.426437 0.108119 0.375986
#
# Coordination Sequence:
#
# PCOD9134608 Si02
#       8
#     4   4   4   4   4   4   4   4
#     4  10  19  38  64  82 121 164 201 243 302 355
#     4  10  22  36  62  90 125 152 203 249 297 356
#     4  10  20  39  59  91 122 150 198 261 295 352
#     4   9  20  37  60  82 120 157 191 250 304 345
#     4  11  20  39  63  85 119 165 203 241 302 358
#     4  10  20  38  59  89 114 159 201 247 286 363
#     4   9  20  38  57  87 128 151 193 257 291 352
#     4   9  19  35  62  86 113 160 202 238 293 355
#
# _framework density 21.888586
#
# number of rings (size 3 to 8) (size 9 to 14) (size 15 to 20)
#    0.000    2.500    3.750    0.000    0.000   11.000 
#    2.250    1.250    0.000    0.000    0.000    0.000 
#    0.000    0.000    0.000    0.000    0.000    0.000 
#
# Total GULP energy -89148.718043 kJ/mol
# GULP energy per Si atom -5571.794878 kJ/mol
# Density = 2.183877 g / cm^3
# Si number density = 21.888586 Si / 1000 Ang^3
#
#
#
# Elastic Constant Matrix: (Units=GPa)
#
#
# Indices 1 2 3 4 5 6 
#
# 1 126.2067 5.9422 15.0095 0.0000 -23.4205 0.0000
# 2 5.9422 23.5527 7.9956 0.0000 -6.7865 0.0000
# 3 15.0095 7.9956 104.4682 0.0000 -20.4990 0.0000
# 4 0.0000 0.0000 0.0000 13.2980 0.0000 4.2967
# 5 -23.4205 -6.7865 -20.4990 0.0000 35.5808 0.0000
# 6 0.0000 0.0000 0.0000 4.2967 0.0000 20.5726
#
#
#
# Elastic Compliance Matrix: (Units=1/GPa)
#
#
# Indices 1 2 3 4 5 6 
#
# 1 0.009035 -0.000576 -0.000122 0.000000 0.005767 0.000000
# 2 -0.000576 0.045330 -0.001989 0.000000 0.007121 0.000000
# 3 -0.000122 -0.001989 0.010882 0.000000 0.005809 0.000000
# 4 0.000000 0.000000 0.000000 0.080642 0.000000 -0.016843
# 5 0.005767 0.007121 0.005809 0.000000 0.036606 0.000000
# 6 0.000000 0.000000 0.000000 -0.016843 0.000000 0.052126
#
#
# Mechanical properties :
#
#
# Convention : Reuss Voigt Hill
#
# Bulk Modulus (GPa) = 16.70239 34.68023 25.69131
# Shear Modulus (GPa) = 19.23408 28.90895 24.07152
#
# Velocity S-wave (km/s) = 2.96755 3.63813 3.31981
# Velocity P-wave (km/s) = 4.40329 5.79020 5.14370
#
# Compressibility (1/GPa) = 0.05987168
#
# Stress axis : x y z
#
# Youngs Moduli (GPa) = 110.67598 22.06020 91.89427
#
# Poissons Ratio (x) = 0.01271 0.01125
# Poissons Ratio (y) = 0.06378 0.18281
# Poissons Ratio (z) = 0.01355 0.04389
#
# Static dielectric constant tensor:
#      x y z
#    x 1.882590 0.000000 -0.013800 
#    y 0.000000 1.891070 0.000000 
#    z -0.013800 0.000000 1.801410 
# 
# From -- ./inp_files/25543.got.cif
#   From: 2010.05.17/outbox.cif.g08.bks.cpg/sg9_13_cif.got.tgz:25543.got - 2010.06.03 20:04:27.
