data_PCOD9134988
_publ_section_title
;
Structure prediction by ZEFSAII (Michael W. Deem and Ramdas Pophale) SiO2 
 PCOD9134988
Probable space group: C C
;
_chemical_formula_sum "Si O2"
_cell_formula_units_Z 32
_cell_length_a 21.733406
_cell_length_b 12.478603
_cell_length_c 16.092266
_cell_angle_alpha 90.000000
_cell_angle_beta 17.301538
_cell_angle_gamma 90.000000
_cell_volume 1297.934159
_symmetry_space_group_name_H-M "C C"
_symmetry_group_IT_number 9
_symmetry_cell_setting 'monoclinic'
loop_
_space_group_symop_operation_xyz
x,y,z
x,-y,1/2+z
1/2+x,1/2+y,z
1/2+x,1/2-y,1/2+z
loop_
_atom_site_type_symbol
_atom_site_label
_atom_site_fract_x
_atom_site_fract_y
_atom_site_fract_z
Si Si1 0.975590 0.385224 0.812730
Si Si2 0.124741 0.214906 0.855278
Si Si3 0.153545 0.999049 0.608434
Si Si4 0.641236 0.088592 0.669884
Si Si5 0.829932 0.878878 0.233728
Si Si6 0.572342 0.522440 0.032137
Si Si7 0.786257 0.914030 0.689788
Si Si8 0.418811 0.294528 0.945034
O O1 0.035715 0.471604 0.806703
O O2 0.175988 0.343584 0.505033
O O3 0.830171 0.291951 0.033839
O O4 0.831877 0.451118 0.934012
O O5 0.097047 0.337627 0.913644
O O6 0.934219 0.162121 0.053811
O O7 0.166741 0.130065 0.873814
O O8 0.176731 0.019011 0.481065
O O9 0.113559 0.873117 0.675868
O O10 0.934906 0.048775 0.923156
O O11 0.483336 0.175519 0.836174
O O12 0.734563 0.149847 0.629929
O O13 0.841674 0.062479 0.355722
O O14 0.870444 0.799350 0.105792
O O15 0.035446 0.929314 0.011576
O O16 0.733322 0.982046 0.311091
#
# Coordination Sequence:
#
# PCOD9134988 Si02
#       8
#     4   4   4   4   4   4   4   4
#     4  10  21  38  56  80 112 145 182 226 272 329
#     4  10  21  36  55  81 110 142 180 223 269 322
#     4   9  19  36  57  79 109 144 181 225 275 324
#     4  10  21  36  58  83 110 144 184 229 278 326
#     4   9  20  38  55  79 112 144 182 225 271 326
#     4   9  20  36  57  83 110 144 183 226 275 322
#     4   9  20  36  55  79 108 140 179 223 269 320
#     4  10  20  36  57  84 111 143 183 231 277 323
#
# _framework density 24.654563
#
# number of rings (size 3 to 8) (size 9 to 14) (size 15 to 20)
#    0.000    2.500    0.000    1.500    0.000   13.000 
#    0.000    5.000    0.000    0.000    0.000    0.000 
#    0.000    0.000    0.000    0.000    0.000    0.000 
#
# Total GULP energy -89414.285317 kJ/mol
# GULP energy per Si atom -5588.392832 kJ/mol
# Density = 2.459845 g / cm^3
# Si number density = 24.654563 Si / 1000 Ang^3
#
#
#
# Elastic Constant Matrix: (Units=GPa)
#
#
# Indices 1 2 3 4 5 6 
#
# 1 106.3184 7.6099 2.7144 -0.0005 -3.9927 0.0003
# 2 7.6099 36.9479 7.2956 -0.0005 -9.0158 0.0000
# 3 2.7144 7.2956 45.5362 -0.0013 -3.0415 0.0015
# 4 -0.0005 -0.0005 -0.0013 5.9237 0.0006 -13.5113
# 5 -3.9927 -9.0158 -3.0415 0.0006 25.6688 -0.0006
# 6 0.0003 0.0000 0.0015 -13.5113 -0.0006 22.0023
#
#
#
# Elastic Compliance Matrix: (Units=1/GPa)
#
#
# Indices 1 2 3 4 5 6 
#
# 1 0.009567 -0.001714 -0.000238 -0.000001 0.000858 -0.000001
# 2 -0.001714 0.030681 -0.004144 -0.000004 0.010019 -0.000002
# 3 -0.000238 -0.004144 0.022719 -0.000002 0.001199 -0.000003
# 4 -0.000001 -0.000004 -0.000002 -0.421326 0.000002 -0.258731
# 5 0.000858 0.010019 0.001199 0.000002 0.042752 0.000002
# 6 -0.000001 -0.000002 -0.000003 -0.258731 0.000002 -0.113433
#
#
# Mechanical properties :
#
#
# Convention : Reuss Voigt Hill
#
# Bulk Modulus (GPa) = 19.69533 24.89358 22.29445
# Shear Modulus (GPa) = -12.50243 22.13114 4.81436
#
# Velocity S-wave (km/s) = -2.25434 2.99933 1.39892
# Velocity P-wave (km/s) = 1.10896 4.70250 3.41638
#
# Compressibility (1/GPa) = 0.05077347
#
# Stress axis : x y z
#
# Youngs Moduli (GPa) = 104.52929 32.59326 44.01637
#
# Poissons Ratio (x) = 0.05587 0.01049
# Poissons Ratio (y) = 0.17916 0.18242
# Poissons Ratio (z) = 0.02492 0.13507
#
# Static dielectric constant tensor:
#      x y z
#    x 2.038860 0.000000 -0.018690 
#    y 0.000000 1.922970 0.000000 
#    z -0.018690 0.000000 1.965110 
# 
# From -- ./inp_files/7600.got.cif
#   From: 2010.05.17/outbox.cif.g08.bks.cpg/sg9_4_cif.got.tgz:7600.got - 2010.06.03 20:04:27.
