data_PCOD9134876
_publ_section_title
;
Structure prediction by ZEFSAII (Michael W. Deem and Ramdas Pophale) SiO2 
 PCOD9134876
Probable space group: C C
;
_chemical_formula_sum "Si O2"
_cell_formula_units_Z 32
_cell_length_a 10.676650
_cell_length_b 21.559211
_cell_length_c 5.789119
_cell_angle_alpha 90.000000
_cell_angle_beta 117.985416
_cell_angle_gamma 90.000000
_cell_volume 1176.722432
_symmetry_space_group_name_H-M "C C"
_symmetry_group_IT_number 9
_symmetry_cell_setting 'monoclinic'
loop_
_space_group_symop_operation_xyz
x,y,z
x,-y,1/2+z
1/2+x,1/2+y,z
1/2+x,1/2-y,1/2+z
loop_
_atom_site_type_symbol
_atom_site_label
_atom_site_fract_x
_atom_site_fract_y
_atom_site_fract_z
Si Si1 0.715820 0.146654 0.436520
Si Si2 0.959492 0.641585 0.514338
Si Si3 0.024974 0.977434 0.397741
Si Si4 0.077646 0.739947 0.961095
Si Si5 0.617424 0.968428 0.635300
Si Si6 0.573825 0.348960 0.243146
Si Si7 0.301106 0.941330 0.207989
Si Si8 0.765610 0.263721 0.703372
O O1 0.607557 0.120781 0.537476
O O2 0.639308 0.198391 0.216453
O O3 0.725144 0.089354 0.270370
O O4 0.812087 0.195423 0.662028
O O5 0.861061 0.587431 0.520695
O O6 0.884721 0.685443 0.265222
O O7 0.985820 0.691212 0.738976
O O8 0.999536 0.905647 0.311469
O O9 0.971356 0.010542 0.113353
O O10 0.189639 0.002709 0.559673
O O11 0.010807 0.805279 0.984963
O O12 0.210335 0.757061 0.914383
O O13 0.446911 0.951485 0.479219
O O14 0.638460 0.993175 0.392009
O O15 0.702094 0.388246 0.234422
O O16 0.634249 0.298952 0.471570
#
# Coordination Sequence:
#
# PCOD9134876 Si02
#       8
#     4   4   4   4   4   4   4   4
#     4  10  23  38  54  84 122 154 200 250 296 362
#     4  11  20  36  61  84 119 160 203 246 299 354
#     4  10  21  33  51  82 119 156 195 232 290 364
#     4  10  21  37  54  81 115 156 199 251 293 351
#     4  12  24  37  57  86 122 164 199 242 305 373
#     4  10  20  34  52  79 116 157 198 235 291 357
#     4  11  20  36  56  87 126 159 197 239 300 373
#     4  10  21  35  59  79 113 158 203 249 300 350
#
# _framework density 27.194178999999998
#
# number of rings (size 3 to 8) (size 9 to 14) (size 15 to 20)
#    0.000    1.500    2.500    3.750    3.500    1.000 
#    0.000    0.000    0.000    0.000    0.000    3.500 
#    0.000    0.000    0.000    0.000    0.000    0.000 
#
# Total GULP energy -89279.501362 kJ/mol
# GULP energy per Si atom -5579.968835 kJ/mol
# Density = 2.713228 g / cm^3
# Si number density = 27.194179 Si / 1000 Ang^3
#
#
#
# Elastic Constant Matrix: (Units=GPa)
#
#
# Indices 1 2 3 4 5 6 
#
# 1 78.8570 9.7804 15.6124 0.0000 -7.6972 0.0000
# 2 9.7804 147.5596 69.4854 0.0000 1.3662 0.0000
# 3 15.6124 69.4854 119.4291 0.0000 -25.7568 0.0000
# 4 0.0000 0.0000 0.0000 66.6033 0.0000 -4.9878
# 5 -7.6972 1.3662 -25.7568 0.0000 30.0376 0.0000
# 6 0.0000 0.0000 0.0000 -4.9878 0.0000 29.8604
#
#
#
# Elastic Compliance Matrix: (Units=1/GPa)
#
#
# Indices 1 2 3 4 5 6 
#
# 1 0.013172 -0.000491 -0.000863 0.000000 0.002658 0.000000
# 2 -0.000491 0.010412 -0.007512 0.000000 -0.007041 0.000000
# 3 -0.000863 -0.007512 0.015806 0.000000 0.013674 0.000000
# 4 0.000000 0.000000 0.000000 0.015204 0.000000 0.002540
# 5 0.002658 -0.007041 0.013674 0.000000 0.046018 0.000000
# 6 0.000000 0.000000 0.000000 0.002540 0.000000 0.033913
#
#
# Mechanical properties :
#
#
# Convention : Reuss Voigt Hill
#
# Bulk Modulus (GPa) = 46.17393 59.51136 52.84264
# Shear Modulus (GPa) = 31.35231 42.03144 36.69188
#
# Velocity S-wave (km/s) = 3.39913 3.93568 3.67721
# Velocity P-wave (km/s) = 5.69400 6.52565 6.12396
#
# Compressibility (1/GPa) = 0.02165724
#
# Stress axis : x y z
#
# Youngs Moduli (GPa) = 75.91638 96.04139 63.26859
#
# Poissons Ratio (x) = 0.04719 0.05459
# Poissons Ratio (y) = 0.03730 0.47529
# Poissons Ratio (z) = 0.06551 0.72149
#
# Static dielectric constant tensor:
#      x y z
#    x 2.271840 0.000000 0.118060 
#    y 0.000000 2.138620 0.000000 
#    z 0.118060 0.000000 2.386210 
# 
# From -- ./inp_files/2630.got.cif
#   From: 2010.05.17/outbox.cif.g08.bks.cpg/sg9_2_cif.got.tgz:2630.got - 2010.06.03 20:04:27.
