data_PCOD9134464
_publ_section_title
;
Structure prediction by ZEFSAII (Michael W. Deem and Ramdas Pophale) SiO2 
 PCOD9134464
Probable space group: C C
;
_chemical_formula_sum "Si O2"
_cell_formula_units_Z 32
_cell_length_a 31.272728
_cell_length_b 8.309550
_cell_length_c 9.177827
_cell_angle_alpha 90.000000
_cell_angle_beta 38.314213
_cell_angle_gamma 90.000000
_cell_volume 1478.619392
_symmetry_space_group_name_H-M "C C"
_symmetry_group_IT_number 9
_symmetry_cell_setting 'monoclinic'
loop_
_space_group_symop_operation_xyz
x,y,z
x,-y,1/2+z
1/2+x,1/2+y,z
1/2+x,1/2-y,1/2+z
loop_
_atom_site_type_symbol
_atom_site_label
_atom_site_fract_x
_atom_site_fract_y
_atom_site_fract_z
Si Si1 0.192680 0.707094 0.471310
Si Si2 0.532484 0.810284 0.335478
Si Si3 0.918753 0.808621 0.355480
Si Si4 0.254844 0.568008 0.591949
Si Si5 0.303287 0.879249 0.016874
Si Si6 0.460541 0.325049 0.779027
Si Si7 0.934754 0.599783 0.592455
Si Si8 0.812198 0.800820 0.233078
O O1 0.110703 0.703281 0.673613
O O2 0.211154 0.670135 0.591060
O O3 0.214699 0.562972 0.299200
O O4 0.235959 0.864096 0.299948
O O5 0.483353 0.767948 0.600768
O O6 0.520165 0.686149 0.236570
O O7 0.495389 0.976167 0.382218
O O8 0.848927 0.770561 0.456490
O O9 0.911218 0.716860 0.526986
O O10 0.936355 0.995420 0.311906
O O11 0.300838 0.466195 0.353375
O O12 0.291173 0.673560 0.621540
O O13 0.276622 0.836626 0.925530
O O14 0.364420 0.013398 0.842621
O O15 0.471385 0.215414 0.611227
O O16 0.391476 0.251041 0.033600
#
# Coordination Sequence:
#
# PCOD9134464 Si02
#       8
#     4   4   4   4   4   4   4   4
#     4  10  22  39  66  92 144 176 228 275 338 417
#     4  11  24  42  64  98 140 175 227 279 343 418
#     4  11  23  42  68  97 134 177 234 280 342 410
#     4   9  20  36  64  96 126 177 225 275 329 400
#     4  10  22  43  63 102 134 167 232 285 341 403
#     4  12  23  40  68  96 134 176 225 285 347 407
#     4  11  25  40  69 101 134 180 228 290 345 400
#     4  10  19  36  62  98 122 160 221 277 335 387
#
# _framework density 21.64181
#
# number of rings (size 3 to 8) (size 9 to 14) (size 15 to 20)
#    0.000    1.500    2.500    4.500    7.000    0.000 
#    0.000    1.250    0.000    0.000    0.000    0.000 
#    0.000    0.000    0.000    0.000    0.000    0.000 
#
# Total GULP energy -89173.218614 kJ/mol
# GULP energy per Si atom -5573.326163 kJ/mol
# Density = 2.159255 g / cm^3
# Si number density = 21.641810 Si / 1000 Ang^3
#
#
#
# Elastic Constant Matrix: (Units=GPa)
#
#
# Indices 1 2 3 4 5 6 
#
# 1 162.5402 26.4429 52.0501 0.0000 3.2102 0.0000
# 2 26.4429 67.8867 10.3224 0.0000 -0.3377 0.0000
# 3 52.0501 10.3224 81.2579 0.0000 -12.6404 0.0000
# 4 0.0000 0.0000 0.0000 19.7368 0.0000 10.5708
# 5 3.2102 -0.3377 -12.6404 0.0000 38.7939 0.0000
# 6 0.0000 0.0000 0.0000 10.5708 0.0000 30.4057
#
#
#
# Elastic Compliance Matrix: (Units=1/GPa)
#
#
# Indices 1 2 3 4 5 6 
#
# 1 0.008330 -0.002434 -0.005411 0.000000 -0.002474 0.000000
# 2 -0.002434 0.015742 -0.000409 0.000000 0.000205 0.000000
# 3 -0.005411 -0.000409 0.016742 0.000000 0.005900 0.000000
# 4 0.000000 0.000000 0.000000 0.062259 0.000000 -0.021645
# 5 -0.002474 0.000205 0.005900 0.000000 0.027906 0.000000
# 6 0.000000 0.000000 0.000000 -0.021645 0.000000 0.040414
#
#
# Mechanical properties :
#
#
# Convention : Reuss Voigt Hill
#
# Bulk Modulus (GPa) = 41.14230 54.36839 47.75535
# Shear Modulus (GPa) = 25.50973 32.64525 29.07749
#
# Velocity S-wave (km/s) = 3.43698 3.88807 3.66946
# Velocity P-wave (km/s) = 5.89935 6.73295 6.32988
#
# Compressibility (1/GPa) = 0.02430588
#
# Stress axis : x y z
#
# Youngs Moduli (GPa) = 120.04661 63.52550 59.72837
#
# Poissons Ratio (x) = 0.15463 0.32322
# Poissons Ratio (y) = 0.29221 0.02440
# Poissons Ratio (z) = 0.64963 0.02595
#
# Static dielectric constant tensor:
#      x y z
#    x 1.805860 0.000000 0.050820 
#    y 0.000000 1.970120 0.000000 
#    z 0.050820 0.000000 1.807000 
# 
# From -- ./inp_files/12412.got.cif
#   From: 2010.05.17/outbox.cif.g08.bks.cpg/sg9_7_cif.got.tgz:12412.got - 2010.06.03 20:04:27.
