data_PCOD9134232
_publ_section_title
;
Structure prediction by ZEFSAII (Michael W. Deem and Ramdas Pophale) SiO2 
 PCOD9134232
Probable space group: C C
;
_chemical_formula_sum "Si O2"
_cell_formula_units_Z 24
_cell_length_a 13.881864
_cell_length_b 13.673523
_cell_length_c 5.606881
_cell_angle_alpha 90.000000
_cell_angle_beta 116.910277
_cell_angle_gamma 90.000000
_cell_volume 949.022012
_symmetry_space_group_name_H-M "C C"
_symmetry_group_IT_number 9
_symmetry_cell_setting 'monoclinic'
loop_
_space_group_symop_operation_xyz
x,y,z
x,-y,1/2+z
1/2+x,1/2+y,z
1/2+x,1/2-y,1/2+z
loop_
_atom_site_type_symbol
_atom_site_label
_atom_site_fract_x
_atom_site_fract_y
_atom_site_fract_z
Si Si1 0.948550 0.381791 0.391230
Si Si2 0.529291 0.100708 0.480412
Si Si3 0.010454 0.875607 0.170979
Si Si4 0.003807 0.110217 0.163797
Si Si5 0.285057 0.261958 0.877326
Si Si6 0.750008 0.838512 0.341138
O O1 0.832173 0.341918 0.339959
O O2 0.966990 0.497691 0.391878
O O3 0.016711 0.351776 0.704474
O O4 0.978640 0.345818 0.157026
O O5 0.655805 0.084156 0.673641
O O6 0.056185 0.849454 0.964202
O O7 0.889240 0.834439 0.014755
O O8 0.013842 0.993148 0.179319
O O9 0.052918 0.847443 0.477215
O O10 0.874048 0.126633 0.000903
O O11 0.222734 0.302586 0.577432
O O12 0.245673 0.266323 0.105911
#
# Coordination Sequence:
#
# PCOD9134232 Si02
#       6
#     4   4   4   4   4   4
#     4  10  21  35  52  77 117 155 183 229 299 349
#     4  10  21  35  53  78 111 154 186 227 294 354
#     4   8  14  22  36  57  88 124 161 206 252 297
#     4   8  14  23  37  62  92 120 160 211 256 296
#     4  10  19  32  49  74 109 148 189 230 272 334
#     4  10  19  31  51  76 107 147 191 229 271 338
#
# _framework density 25.289193000000001
#
# number of rings (size 3 to 8) (size 9 to 14) (size 15 to 20)
#    0.000    2.667    0.000    2.000    0.000   10.667 
#    0.000    0.000    0.000    0.000    0.000    0.000 
#    0.000  213.333    0.000    0.000    0.000    0.000 
#
# Total GULP energy -66862.207977 kJ/mol
# GULP energy per Si atom -5571.850665 kJ/mol
# Density = 2.523163 g / cm^3
# Si number density = 25.289193 Si / 1000 Ang^3
#
#
#
# Elastic Constant Matrix: (Units=GPa)
#
#
# Indices 1 2 3 4 5 6 
#
# 1 36.9571 21.4787 51.7262 0.0000 -32.3867 0.0000
# 2 21.4787 59.5687 17.1386 0.0000 -16.4167 0.0000
# 3 51.7262 17.1386 198.9385 0.0000 -89.9919 0.0000
# 4 0.0000 0.0000 0.0000 15.6622 0.0000 -12.7240
# 5 -32.3867 -16.4167 -89.9919 0.0000 55.7722 0.0000
# 6 0.0000 0.0000 0.0000 -12.7240 0.0000 6.9525
#
#
#
# Elastic Compliance Matrix: (Units=1/GPa)
#
#
# Indices 1 2 3 4 5 6 
#
# 1 0.064518 -0.014399 -0.001867 0.000000 0.030214 0.000000
# 2 -0.014399 0.022043 0.003694 0.000000 0.004087 0.000000
# 3 -0.001867 0.003694 0.019236 0.000000 0.031041 0.000000
# 4 0.000000 0.000000 0.000000 -0.131159 0.000000 -0.240039
# 5 0.030214 0.004087 0.031041 0.000000 0.086764 0.000000
# 6 0.000000 0.000000 0.000000 -0.240039 0.000000 -0.295469
#
#
# Mechanical properties :
#
#
# Convention : Reuss Voigt Hill
#
# Bulk Modulus (GPa) = 12.39920 52.90569 32.65244
# Shear Modulus (GPa) = -27.46663 29.35211 0.94274
#
# Velocity S-wave (km/s) = -3.29918 3.41054 0.61122
# Velocity P-wave (km/s) = 3.09826 6.03943 3.66576
#
# Compressibility (1/GPa) = 0.08065038
#
# Stress axis : x y z
#
# Youngs Moduli (GPa) = 15.49960 45.36627 51.98719
#
# Poissons Ratio (x) = 0.65324 0.09708
# Poissons Ratio (y) = 0.22318 -0.19202
# Poissons Ratio (z) = 0.02894 -0.16756
#
# Static dielectric constant tensor:
#      x y z
#    x 2.003670 0.000000 -0.084550 
#    y 0.000000 2.021160 0.000000 
#    z -0.084550 0.000000 2.040720 
# 
# From -- ./inp_files/2420.got.cif
#   From: 2010.05.17/outbox.cif.g08.bks.cpg/sg9_2_cif.got.tgz:2420.got - 2010.06.03 20:04:27.
