data_PCOD9134195
_publ_section_title
;
Structure prediction by ZEFSAII (Michael W. Deem and Ramdas Pophale) SiO2 
 PCOD9134195
Probable space group: C C
;
_chemical_formula_sum "Si O2"
_cell_formula_units_Z 24
_cell_length_a 6.942959
_cell_length_b 17.716317
_cell_length_c 8.050332
_cell_angle_alpha 90.000000
_cell_angle_beta 85.710416
_cell_angle_gamma 90.000000
_cell_volume 987.446464
_symmetry_space_group_name_H-M "C C"
_symmetry_group_IT_number 9
_symmetry_cell_setting 'monoclinic'
loop_
_space_group_symop_operation_xyz
x,y,z
x,-y,1/2+z
1/2+x,1/2+y,z
1/2+x,1/2-y,1/2+z
loop_
_atom_site_type_symbol
_atom_site_label
_atom_site_fract_x
_atom_site_fract_y
_atom_site_fract_z
Si Si1 0.104130 0.214367 0.851960
Si Si2 0.163591 0.304961 0.492658
Si Si3 0.852856 0.406509 0.179787
Si Si4 0.930660 0.579528 0.176939
Si Si5 0.613920 0.652743 0.376811
Si Si6 0.690231 0.872008 0.969041
O O1 0.122703 0.261507 0.673872
O O2 0.236113 0.140563 0.823965
O O3 0.166874 0.281677 0.967594
O O4 0.887852 0.191835 0.923565
O O5 0.077415 0.242137 0.375407
O O6 0.063549 0.385728 0.523431
O O7 0.842593 0.496318 0.178334
O O8 0.752113 0.372166 0.020210
O O9 0.082648 0.394297 0.144258
O O10 0.741999 0.631442 0.212055
O O11 0.071931 0.587903 0.327887
O O12 0.413080 0.611817 0.422971
#
# Coordination Sequence:
#
# PCOD9134195 Si02
#       6
#     4   4   4   4   4   4
#     4  10  18  40  67  92 128 172 218 263 318 395
#     4  10  18  40  67  92 128 172 218 263 318 395
#     4  10  22  41  62  94 136 166 214 277 323 380
#     4  10  22  41  62  94 136 166 214 277 323 380
#     4  10  21  40  64  91 128 169 223 264 319 391
#     4  10  21  40  64  91 128 169 223 264 319 391
#
# _framework density 24.305114
#
# number of rings (size 3 to 8) (size 9 to 14) (size 15 to 20)
#    0.000    2.000    6.667    0.000    0.000    4.000 
#    6.000    0.000    0.000    0.000    0.000    0.000 
#    0.000    0.000    0.000    0.000    0.000    0.000 
#
# Total GULP energy -66950.323587 kJ/mol
# GULP energy per Si atom -5579.193632 kJ/mol
# Density = 2.424979 g / cm^3
# Si number density = 24.305114 Si / 1000 Ang^3
#
#
#
# Elastic Constant Matrix: (Units=GPa)
#
#
# Indices 1 2 3 4 5 6 
#
# 1 97.8235 -14.6078 32.2915 0.0000 -43.4716 0.0000
# 2 -14.6078 126.8648 18.7992 0.0000 -7.7843 0.0000
# 3 32.2915 18.7992 121.6225 0.0000 -31.6441 0.0000
# 4 0.0000 0.0000 0.0000 26.8033 0.0000 -13.7825
# 5 -43.4716 -7.7843 -31.6441 0.0000 43.0530 0.0000
# 6 0.0000 0.0000 0.0000 -13.7825 0.0000 29.6798
#
#
#
# Elastic Compliance Matrix: (Units=1/GPa)
#
#
# Indices 1 2 3 4 5 6 
#
# 1 0.020068 0.003652 -0.000555 0.000000 0.020515 0.000000
# 2 0.003652 0.008747 -0.001176 0.000000 0.004405 0.000000
# 3 -0.000555 -0.001176 0.010325 0.000000 0.006816 0.000000
# 4 0.000000 0.000000 0.000000 0.049012 0.000000 0.022760
# 5 0.020515 0.004405 0.006816 0.000000 0.049748 0.000000
# 6 0.000000 0.000000 0.000000 0.022760 0.000000 0.044262
#
#
# Mechanical properties :
#
#
# Convention : Reuss Voigt Hill
#
# Bulk Modulus (GPa) = 23.26552 46.58631 34.92591
# Shear Modulus (GPa) = 25.95429 40.56243 33.25836
#
# Velocity S-wave (km/s) = 3.27135 4.08963 3.70316
# Velocity P-wave (km/s) = 4.88487 6.44275 5.71712
#
# Compressibility (1/GPa) = 0.04298207
#
# Stress axis : x y z
#
# Youngs Moduli (GPa) = 49.83148 114.32038 96.85661
#
# Poissons Ratio (x) = -0.41746 0.05374
# Poissons Ratio (y) = -0.18197 0.11386
# Poissons Ratio (z) = 0.02765 0.13439
#
# Static dielectric constant tensor:
#      x y z
#    x 2.025980 0.000000 0.007530 
#    y 0.000000 1.963230 0.000000 
#    z 0.007530 0.000000 2.259680 
# 
# From -- ./inp_files/13143.got.cif
#   From: 2010.05.17/outbox.cif.g08.bks.cpg/sg9_7_cif.got.tgz:13143.got - 2010.06.03 20:04:27.
