data_PCOD9134058
_publ_section_title
;
Structure prediction by ZEFSAII (Michael W. Deem and Ramdas Pophale) SiO2 
 PCOD9134058
Probable space group: C C
;
_chemical_formula_sum "Si O2"
_cell_formula_units_Z 28
_cell_length_a 7.322019
_cell_length_b 25.813837
_cell_length_c 5.521685
_cell_angle_alpha 90.000000
_cell_angle_beta 94.302363
_cell_angle_gamma 90.000000
_cell_volume 1040.709432
_symmetry_space_group_name_H-M "C C"
_symmetry_group_IT_number 9
_symmetry_cell_setting 'monoclinic'
loop_
_space_group_symop_operation_xyz
x,y,z
x,-y,1/2+z
1/2+x,1/2+y,z
1/2+x,1/2-y,1/2+z
loop_
_atom_site_type_symbol
_atom_site_label
_atom_site_fract_x
_atom_site_fract_y
_atom_site_fract_z
Si Si1 0.375000 0.669376 0.108690
Si Si2 0.227618 0.861191 0.138976
Si Si3 0.583164 0.953382 0.976164
Si Si4 0.806759 0.672940 0.145557
Si Si5 0.380019 0.710666 0.611532
Si Si6 0.658330 0.473856 0.017144
Si Si7 0.714302 0.933934 0.487786
O O1 0.588119 0.684032 0.143766
O O2 0.292893 0.687878 0.356174
O O3 0.369954 0.607517 0.064374
O O4 0.290555 0.695574 0.860858
O O5 0.324930 0.862780 0.409057
O O6 0.118785 0.914170 0.072453
O O7 0.078894 0.816004 0.144774
O O8 0.349395 0.850059 0.914541
O O9 0.381040 0.973826 0.020898
O O10 0.647139 0.920527 0.211466
O O11 0.718465 0.003383 0.970135
O O12 0.589506 0.927846 0.714756
O O13 0.895648 0.727928 0.102093
O O14 0.599402 0.506475 0.246911
#
# Coordination Sequence:
#
# PCOD9134058 Si02
#       7
#     4   4   4   4   4   4   4
#     4  10  21  37  65  88 124 161 221 258 328 378
#     4  10  23  40  68  94 129 167 222 266 329 386
#     4  10  19  35  58  86 128 164 212 255 315 362
#     4  10  21  43  65  89 129 166 214 269 331 386
#     4  10  21  42  65  88 132 163 213 273 329 386
#     4  12  21  40  67  95 133 173 223 262 315 392
#     4  10  18  35  58  88 121 166 209 263 303 382
#
# _framework density 26.904724999999999
#
# number of rings (size 3 to 8) (size 9 to 14) (size 15 to 20)
#    0.000    1.714    2.857    2.571    0.000    0.000 
#    0.000   17.143   75.429    0.000    0.000    0.000 
#    0.000    0.000    0.000    0.000    0.000    0.000 
#
# Total GULP energy -78294.091794 kJ/mol
# GULP energy per Si atom -5592.435128 kJ/mol
# Density = 2.684349 g / cm^3
# Si number density = 26.904725 Si / 1000 Ang^3
#
#
#
# Elastic Constant Matrix: (Units=GPa)
#
#
# Indices 1 2 3 4 5 6 
#
# 1 68.0233 35.0884 24.7210 0.0000 -5.3556 0.0000
# 2 35.0884 81.7279 52.4353 0.0000 1.0819 0.0000
# 3 24.7210 52.4353 308.7905 0.0000 1.5005 0.0000
# 4 0.0000 0.0000 0.0000 48.7534 0.0000 -2.0832
# 5 -5.3556 1.0819 1.5005 0.0000 27.9865 0.0000
# 6 0.0000 0.0000 0.0000 -2.0832 0.0000 60.3742
#
#
#
# Elastic Compliance Matrix: (Units=1/GPa)
#
#
# Indices 1 2 3 4 5 6 
#
# 1 0.019332 -0.008246 -0.000167 0.000000 0.004027 0.000000
# 2 -0.008246 0.017254 -0.002259 0.000000 -0.002124 0.000000
# 3 -0.000167 -0.002259 0.003636 0.000000 -0.000140 0.000000
# 4 0.000000 0.000000 0.000000 0.020542 0.000000 0.000709
# 5 0.004027 -0.002124 -0.000140 0.000000 0.036592 0.000000
# 6 0.000000 0.000000 0.000000 0.000709 0.000000 0.016588
#
#
# Mechanical properties :
#
#
# Convention : Reuss Voigt Hill
#
# Bulk Modulus (GPa) = 52.97406 75.89233 64.43319
# Shear Modulus (GPa) = 35.31559 50.50931 42.91245
#
# Velocity S-wave (km/s) = 3.62694 4.33753 3.99805
# Velocity P-wave (km/s) = 6.10506 7.30442 6.73151
#
# Compressibility (1/GPa) = 0.01887717
#
# Stress axis : x y z
#
# Youngs Moduli (GPa) = 51.72721 57.95855 275.01657
#
# Poissons Ratio (x) = 0.47793 0.04593
# Poissons Ratio (y) = 0.42655 0.62136
# Poissons Ratio (z) = 0.00864 0.13095
#
# Static dielectric constant tensor:
#      x y z
#    x 2.121670 0.000000 0.016620 
#    y 0.000000 2.098280 0.000000 
#    z 0.016620 0.000000 2.155170 
# 
# From -- ./inp_files/879.got.cif
#   From: 2010.05.17/outbox.cif.g08.bks.cpg/sg9_1_cif.got.tgz:879.got - 2010.06.03 20:04:27.
