data_PCOD9134128
_publ_section_title
;
Structure prediction by ZEFSAII (Michael W. Deem and Ramdas Pophale) SiO2 
 PCOD9134128
Probable space group: C C
;
_chemical_formula_sum "Si O2"
_cell_formula_units_Z 28
_cell_length_a 12.203737
_cell_length_b 7.157610
_cell_length_c 13.624173
_cell_angle_alpha 90.000000
_cell_angle_beta 119.503986
_cell_angle_gamma 90.000000
_cell_volume 1035.739886
_symmetry_space_group_name_H-M "C C"
_symmetry_group_IT_number 9
_symmetry_cell_setting 'monoclinic'
loop_
_space_group_symop_operation_xyz
x,y,z
x,-y,1/2+z
1/2+x,1/2+y,z
1/2+x,1/2-y,1/2+z
loop_
_atom_site_type_symbol
_atom_site_label
_atom_site_fract_x
_atom_site_fract_y
_atom_site_fract_z
Si Si1 0.362680 0.276208 0.923750
Si Si2 0.246620 0.023292 0.594956
Si Si3 0.617732 0.880006 0.498222
Si Si4 0.912983 0.191253 0.659279
Si Si5 0.773910 0.590181 0.323607
Si Si6 0.550673 0.740100 0.901813
Si Si7 0.203497 0.547369 0.720075
O O1 0.275740 0.407677 0.821856
O O2 0.294297 0.074442 0.910758
O O3 0.487915 0.225800 0.918101
O O4 0.408301 0.369646 0.045368
O O5 0.376020 0.910514 0.639436
O O6 0.242487 0.026775 0.711287
O O7 0.128469 0.898797 0.504702
O O8 0.228639 0.228948 0.543526
O O9 0.624282 0.063646 0.435616
O O10 0.601953 0.948296 0.605478
O O11 0.030205 0.165584 0.782613
O O12 0.799983 0.104475 0.674173
O O13 0.910806 0.697701 0.377843
O O14 0.677719 0.764611 0.271562
#
# Coordination Sequence:
#
# PCOD9134128 Si02
#       7
#     4   4   4   4   4   4   4
#     4  11  23  40  60  92 121 155 204 246 296 358
#     4  10  18  37  62  85 117 158 198 238 299 352
#     4  11  19  35  66  86 113 166 198 237 300 355
#     4  10  23  41  60  88 127 155 194 257 295 350
#     4   9  19  36  59  85 118 154 193 244 292 345
#     4   9  18  36  58  83 117 156 198 237 291 354
#     4  10  20  41  63  87 121 162 197 243 305 354
#
# _framework density 27.033812999999999
#
# number of rings (size 3 to 8) (size 9 to 14) (size 15 to 20)
#    0.000    2.286    4.286    1.714    0.000    1.143 
#    2.571    0.000    0.000    0.000    0.000    0.000 
#    0.000    0.000    0.000    0.000    0.000    0.000 
#
# Total GULP energy -78246.305816 kJ/mol
# GULP energy per Si atom -5589.021844 kJ/mol
# Density = 2.697228 g / cm^3
# Si number density = 27.033813 Si / 1000 Ang^3
#
#
#
# Elastic Constant Matrix: (Units=GPa)
#
#
# Indices 1 2 3 4 5 6 
#
# 1 60.9402 -0.2688 7.2525 0.0000 3.3319 0.0000
# 2 -0.2688 109.1699 11.1901 0.0000 -3.3013 0.0000
# 3 7.2525 11.1901 168.8741 0.0000 -0.2400 0.0000
# 4 0.0000 0.0000 0.0000 54.4942 0.0000 11.4746
# 5 3.3319 -3.3013 -0.2400 0.0000 36.2478 0.0000
# 6 0.0000 0.0000 0.0000 11.4746 0.0000 18.2787
#
#
#
# Elastic Compliance Matrix: (Units=1/GPa)
#
#
# Indices 1 2 3 4 5 6 
#
# 1 0.016579 0.000068 -0.000719 0.000000 -0.001522 0.000000
# 2 0.000068 0.009248 -0.000615 0.000000 0.000832 0.000000
# 3 -0.000719 -0.000615 0.005993 0.000000 0.000050 0.000000
# 4 0.000000 0.000000 0.000000 0.021146 0.000000 -0.013274
# 5 -0.001522 0.000832 0.000050 0.000000 0.027804 0.000000
# 6 0.000000 0.000000 0.000000 -0.013274 0.000000 0.063041
#
#
# Mechanical properties :
#
#
# Convention : Reuss Voigt Hill
#
# Bulk Modulus (GPa) = 34.14070 41.70352 37.92211
# Shear Modulus (GPa) = 32.02985 43.19151 37.61068
#
# Velocity S-wave (km/s) = 3.44584 4.00144 3.73399
# Velocity P-wave (km/s) = 5.33742 6.06701 5.71387
#
# Compressibility (1/GPa) = 0.02929055
#
# Stress axis : x y z
#
# Youngs Moduli (GPa) = 60.31876 108.12732 166.85487
#
# Poissons Ratio (x) = -0.00740 0.11992
# Poissons Ratio (y) = -0.00413 0.10255
# Poissons Ratio (z) = 0.04335 0.06645
#
# Static dielectric constant tensor:
#      x y z
#    x 2.208160 0.000000 -0.004410 
#    y 0.000000 2.150730 0.000000 
#    z -0.004410 0.000000 2.123890 
# 
# From -- ./inp_files/26641.got.cif
#   From: 2010.05.17/outbox.cif.g08.bks.cpg/sg9_14_cif.got.tgz:26641.got - 2010.06.03 20:04:27.
