data_PCOD9134360
_publ_section_title
;
Structure prediction by ZEFSAII (Michael W. Deem and Ramdas Pophale) SiO2 
 PCOD9134360
Probable space group: C C
;
_chemical_formula_sum "Si O2"
_cell_formula_units_Z 28
_cell_length_a 12.907563
_cell_length_b 21.262171
_cell_length_c 9.465179
_cell_angle_alpha 90.000000
_cell_angle_beta 29.809332
_cell_angle_gamma 90.000000
_cell_volume 1291.331704
_symmetry_space_group_name_H-M "C C"
_symmetry_group_IT_number 9
_symmetry_cell_setting 'monoclinic'
loop_
_space_group_symop_operation_xyz
x,y,z
x,-y,1/2+z
1/2+x,1/2+y,z
1/2+x,1/2-y,1/2+z
loop_
_atom_site_type_symbol
_atom_site_label
_atom_site_fract_x
_atom_site_fract_y
_atom_site_fract_z
Si Si1 0.161040 0.628951 0.689320
Si Si2 0.239560 0.095573 0.046748
Si Si3 0.978798 0.937811 0.616478
Si Si4 0.714322 0.260753 0.507726
Si Si5 0.404827 0.646744 0.941726
Si Si6 0.562374 0.241166 0.420389
Si Si7 0.882379 0.074075 0.683703
O O1 0.348402 0.612061 0.361859
O O2 0.162222 0.704447 0.681904
O O3 0.204275 0.599970 0.790878
O O4 0.966956 0.596285 0.843156
O O5 0.197430 0.063869 0.943685
O O6 0.082259 0.066481 0.345537
O O7 0.189192 0.169707 0.096785
O O8 0.969392 0.909645 0.471078
O O9 0.861157 0.003915 0.767929
O O10 0.485032 0.247527 0.687157
O O11 0.790739 0.268691 0.236054
O O12 0.552656 0.705065 0.810283
O O13 0.418195 0.622320 0.767951
O O14 0.170929 0.674105 0.252421
#
# Coordination Sequence:
#
# PCOD9134360 Si02
#       7
#     4   4   4   4   4   4   4
#     4  11  23  42  71  96 124 175 220 273 317 382
#     4  11  23  41  69  98 124 172 220 267 324 381
#     4  11  22  45  70  88 129 176 225 265 303 394
#     4  11  17  38  64  96 119 156 227 271 304 377
#     4  11  21  41  61  96 130 166 210 270 333 376
#     4  10  19  34  66  91 122 160 213 270 314 371
#     4  11  27  43  59  99 142 173 205 260 339 393
#
# _framework density 21.683042
#
# number of rings (size 3 to 8) (size 9 to 14) (size 15 to 20)
#    0.000    1.143    5.714    2.571    0.000    2.286 
#    5.143    1.429    0.000    0.000    0.000    0.000 
#    0.000    0.000    0.000    0.000    0.000    0.000 
#
# Total GULP energy -77952.106437 kJ/mol
# GULP energy per Si atom -5568.007603 kJ/mol
# Density = 2.163369 g / cm^3
# Si number density = 21.683042 Si / 1000 Ang^3
#
#
#
# Elastic Constant Matrix: (Units=GPa)
#
#
# Indices 1 2 3 4 5 6 
#
# 1 192.9694 38.0550 24.4949 -0.0036 -17.5165 -0.0011
# 2 38.0550 88.5998 -9.8399 -0.0019 1.0775 0.0000
# 3 24.4949 -9.8399 36.0798 -0.0075 -20.3718 0.0021
# 4 -0.0036 -0.0019 -0.0075 13.9728 0.0027 -7.1870
# 5 -17.5165 1.0775 -20.3718 0.0027 36.9878 -0.0008
# 6 -0.0011 0.0000 0.0021 -7.1870 -0.0008 23.8165
#
#
#
# Elastic Compliance Matrix: (Units=1/GPa)
#
#
# Indices 1 2 3 4 5 6 
#
# 1 0.006537 -0.003385 -0.005163 -0.000001 0.000351 0.000000
# 2 -0.003385 0.013500 0.007043 0.000005 0.001883 0.000001
# 3 -0.005163 0.007043 0.045929 0.000021 0.022646 0.000003
# 4 -0.000001 0.000005 0.000021 0.084717 0.000005 0.025565
# 5 0.000351 0.001883 0.022646 0.000005 0.039620 0.000001
# 6 0.000000 0.000001 0.000003 0.025565 0.000001 0.049702
#
#
# Mechanical properties :
#
#
# Convention : Reuss Voigt Hill
#
# Bulk Modulus (GPa) = 15.88427 47.00767 31.44597
# Shear Modulus (GPa) = 18.93925 32.61801 25.77863
#
# Velocity S-wave (km/s) = 2.95864 3.88275 3.45176
# Velocity P-wave (km/s) = 4.36039 6.46742 5.51546
#
# Compressibility (1/GPa) = 0.06295536
#
# Stress axis : x y z
#
# Youngs Moduli (GPa) = 152.97391 74.07322 21.77254
#
# Poissons Ratio (x) = 0.25077 0.11242
# Poissons Ratio (y) = 0.51789 -0.15335
# Poissons Ratio (z) = 0.78987 -0.52172
#
# Static dielectric constant tensor:
#      x y z
#    x 1.915890 0.000000 -0.111720 
#    y 0.000000 1.738880 0.000000 
#    z -0.111720 0.000000 1.843970 
# 
# From -- ./inp_files/8235.got.cif
#   From: 2010.05.17/outbox.cif.g08.bks.cpg/sg9_5_cif.got.tgz:8235.got - 2010.06.03 20:04:27.
