data_PCOD9134790
_publ_section_title
;
Structure prediction by ZEFSAII (Michael W. Deem and Ramdas Pophale) SiO2 
 PCOD9134790
Probable space group: C C
;
_chemical_formula_sum "Si O2"
_cell_formula_units_Z 24
_cell_length_a 9.459071
_cell_length_b 10.378436
_cell_length_c 15.398012
_cell_angle_alpha 90.000000
_cell_angle_beta 143.433140
_cell_angle_gamma 90.000000
_cell_volume 900.568393
_symmetry_space_group_name_H-M "C C"
_symmetry_group_IT_number 9
_symmetry_cell_setting 'monoclinic'
loop_
_space_group_symop_operation_xyz
x,y,z
x,-y,1/2+z
1/2+x,1/2+y,z
1/2+x,1/2-y,1/2+z
loop_
_atom_site_type_symbol
_atom_site_label
_atom_site_fract_x
_atom_site_fract_y
_atom_site_fract_z
Si Si1 0.798540 0.083813 0.020100
Si Si2 0.880244 0.743311 0.785194
Si Si3 0.064594 0.325913 0.067490
Si Si4 0.841477 0.693100 0.054479
Si Si5 0.074713 0.447700 0.245132
Si Si6 0.606124 0.507058 0.332244
O O1 0.951139 0.197855 0.052329
O O2 0.940201 0.018827 0.166473
O O3 0.549724 0.151003 0.927002
O O4 0.735652 0.000462 0.903495
O O5 0.600317 0.751478 0.659186
O O6 0.703657 0.216266 0.551853
O O7 0.985435 0.887693 0.838146
O O8 0.186274 0.395580 0.210465
O O9 0.855052 0.421275 0.936006
O O10 0.676007 0.636794 0.896197
O O11 0.442502 0.174745 0.723684
O O12 0.896694 0.559551 0.132370
#
# Coordination Sequence:
#
# PCOD9134790 Si02
#       6
#     4   4   4   4   4   4
#     4   9  18  43  72  94 147 193 226 303 380 417
#     4   9  21  42  72 101 140 197 236 296 374 446
#     4  10  19  41  71 103 137 193 235 301 369 441
#     4  11  24  41  75 110 131 187 261 289 360 464
#     4   9  21  43  74  93 145 189 235 298 370 432
#     4  10  21  42  74  99 148 193 231 309 379 430
#
# _framework density 26.649837000000002
#
# number of rings (size 3 to 8) (size 9 to 14) (size 15 to 20)
#    1.000    1.333    1.667    0.000    2.333    0.000 
#    3.000    8.333    7.333    0.000    0.000    0.000 
#    0.000    0.000    0.000    0.000    0.000    0.000 
#
# Total GULP energy -67151.299249 kJ/mol
# GULP energy per Si atom -5595.941604 kJ/mol
# Density = 2.658918 g / cm^3
# Si number density = 26.649837 Si / 1000 Ang^3
#
#
#
# Elastic Constant Matrix: (Units=GPa)
#
#
# Indices 1 2 3 4 5 6 
#
# 1 152.0929 57.3669 101.1212 0.0000 8.8778 0.0000
# 2 57.3669 103.7695 48.3925 0.0000 9.0514 0.0000
# 3 101.1212 48.3925 194.8960 0.0001 -18.1996 0.0000
# 4 0.0000 0.0000 0.0001 26.5806 0.0000 -24.1380
# 5 8.8778 9.0514 -18.1996 0.0000 60.8072 0.0000
# 6 0.0000 0.0000 0.0000 -24.1380 0.0000 6.2842
#
#
#
# Elastic Compliance Matrix: (Units=1/GPa)
#
#
# Indices 1 2 3 4 5 6 
#
# 1 0.011755 -0.003720 -0.005436 0.000000 -0.002789 0.000000
# 2 -0.003720 0.012459 -0.001323 0.000000 -0.001707 0.000000
# 3 -0.005436 -0.001323 0.008613 0.000000 0.003568 0.000000
# 4 0.000000 0.000000 0.000000 -0.015121 0.000000 -0.058079
# 5 -0.002789 -0.001707 0.003568 0.000000 0.018175 0.000000
# 6 0.000000 0.000000 0.000000 -0.058079 0.000000 -0.063956
#
#
# Mechanical properties :
#
#
# Convention : Reuss Voigt Hill
#
# Bulk Modulus (GPa) = 84.24963 96.05772 90.15367
# Shear Modulus (GPa) = -1581.94155 34.99293 -773.47431
#
# Velocity S-wave (km/s) = -24.39040 3.62755 -17.05480
# Velocity P-wave (km/s) = 27.59540 7.32586 18.81274
#
# Compressibility (1/GPa) = 0.01186949
#
# Stress axis : x y z
#
# Youngs Moduli (GPa) = 85.06986 80.26177 116.10414
#
# Poissons Ratio (x) = 0.29860 0.63112
# Poissons Ratio (y) = 0.31648 0.15358
# Poissons Ratio (z) = 0.46242 0.10617
#
# Static dielectric constant tensor:
#      x y z
#    x 2.118990 0.000000 -0.025610 
#    y 0.000000 2.042260 0.000000 
#    z -0.025610 0.000000 2.165220 
# 
# From -- ./inp_files/19086.got.cif
#   From: 2010.05.17/outbox.cif.g08.bks.cpg/sg9_10_cif.got.tgz:19086.got - 2010.06.03 20:04:27.
