data_PCOD9134214
_publ_section_title
;
Structure prediction by ZEFSAII (Michael W. Deem and Ramdas Pophale) SiO2 
 PCOD9134214
Probable space group: C C
;
_chemical_formula_sum "Si O2"
_cell_formula_units_Z 32
_cell_length_a 9.826932
_cell_length_b 12.829879
_cell_length_c 11.704461
_cell_angle_alpha 90.000000
_cell_angle_beta 64.983374
_cell_angle_gamma 90.000000
_cell_volume 1337.238445
_symmetry_space_group_name_H-M "C C"
_symmetry_group_IT_number 9
_symmetry_cell_setting 'monoclinic'
loop_
_space_group_symop_operation_xyz
x,y,z
x,-y,1/2+z
1/2+x,1/2+y,z
1/2+x,1/2-y,1/2+z
loop_
_atom_site_type_symbol
_atom_site_label
_atom_site_fract_x
_atom_site_fract_y
_atom_site_fract_z
Si Si1 0.564360 0.404164 0.372480
Si Si2 0.477740 0.786687 0.783873
Si Si3 0.121717 0.605890 0.875658
Si Si4 0.194665 0.626505 0.606431
Si Si5 0.244518 0.385132 0.572373
Si Si6 0.256933 0.922687 0.699078
Si Si7 0.291512 0.192033 0.963834
Si Si8 0.473514 0.094725 0.511568
O O1 0.500256 0.337968 0.287624
O O2 0.422583 0.400154 0.508204
O O3 0.627777 0.517679 0.315784
O O4 0.698151 0.341617 0.387302
O O5 0.649334 0.821200 0.696269
O O6 0.370380 0.850850 0.734441
O O7 0.427510 0.828800 0.926612
O O8 0.213226 0.642892 0.733645
O O9 0.185770 0.653134 0.968961
O O10 0.954398 0.641971 0.905479
O O11 0.098100 0.482584 0.908513
O O12 0.187343 0.502997 0.602799
O O13 0.312137 0.686454 0.485891
O O14 0.042274 0.657516 0.593579
O O15 0.209727 0.853343 0.607206
O O16 0.349406 0.018430 0.608292
#
# Coordination Sequence:
#
# PCOD9134214 Si02
#       8
#     4   4   4   4   4   4   4   4
#     4  12  29  44  72 116 145 188 256 320 368 448
#     4  12  23  47  77 101 152 201 244 304 387 456
#     4  10  21  41  69  90 138 193 236 284 374 451
#     4  11  21  40  68  97 136 183 239 301 357 438
#     4  11  26  45  66 109 144 187 250 306 376 444
#     4  11  24  48  72 102 148 199 242 307 381 446
#     4  11  24  44  68 105 136 191 252 290 381 452
#     4  10  18  41  70  96 127 192 241 290 362 445
#
# _framework density 23.929915000000001
#
# number of rings (size 3 to 8) (size 9 to 14) (size 15 to 20)
#    0.000    1.000    6.250    2.250    3.500    3.000 
#    0.000    0.000    0.000    0.000    0.000    0.000 
#    0.000    0.000    0.000    0.000    0.000    0.000 
#
# Total GULP energy -89239.576807 kJ/mol
# GULP energy per Si atom -5577.473550 kJ/mol
# Density = 2.387545 g / cm^3
# Si number density = 23.929915 Si / 1000 Ang^3
#
#
#
# Elastic Constant Matrix: (Units=GPa)
#
#
# Indices 1 2 3 4 5 6 
#
# 1 101.9486 8.4716 34.2634 0.0000 6.6241 0.0000
# 2 8.4716 37.3339 4.0345 0.0000 3.3659 0.0000
# 3 34.2634 4.0345 65.5897 0.0000 14.2668 0.0000
# 4 0.0000 0.0000 0.0000 17.8433 0.0000 8.9692
# 5 6.6241 3.3659 14.2668 0.0000 34.7297 0.0000
# 6 0.0000 0.0000 0.0000 8.9692 0.0000 31.4313
#
#
#
# Elastic Compliance Matrix: (Units=1/GPa)
#
#
# Indices 1 2 3 4 5 6 
#
# 1 0.012062 -0.002102 -0.006276 0.000000 0.000481 0.000000
# 2 -0.002102 0.027474 -0.000110 0.000000 -0.002217 0.000000
# 3 -0.006276 -0.000110 0.020062 0.000000 -0.007033 0.000000
# 4 0.000000 0.000000 0.000000 0.065428 0.000000 -0.018671
# 5 0.000481 -0.002217 -0.007033 0.000000 0.031806 0.000000
# 6 0.000000 0.000000 0.000000 -0.018671 0.000000 0.037143
#
#
# Mechanical properties :
#
#
# Convention : Reuss Voigt Hill
#
# Bulk Modulus (GPa) = 23.46255 33.15679 28.30967
# Shear Modulus (GPa) = 22.20660 27.34104 24.77382
#
# Velocity S-wave (km/s) = 3.04959 3.38382 3.22105
# Velocity P-wave (km/s) = 4.71444 5.39934 5.06847
#
# Compressibility (1/GPa) = 0.04262111
#
# Stress axis : x y z
#
# Youngs Moduli (GPa) = 82.90754 36.39805 49.84648
#
# Poissons Ratio (x) = 0.07651 0.31285
# Poissons Ratio (y) = 0.17428 0.00547
# Poissons Ratio (z) = 0.52035 0.00399
#
# Static dielectric constant tensor:
#      x y z
#    x 1.961800 0.000000 -0.008590 
#    y 0.000000 2.026490 0.000000 
#    z -0.008590 0.000000 1.987500 
# 
# From -- ./inp_files/14569.got.cif
#   From: 2010.05.17/outbox.cif.g08.bks.cpg/sg9_8_cif.got.tgz:14569.got - 2010.06.03 20:04:27.
