data_PCOD9134201
_publ_section_title
;
Structure prediction by ZEFSAII (Michael W. Deem and Ramdas Pophale) SiO2 
 PCOD9134201
Probable space group: C C
;
_chemical_formula_sum "Si O2"
_cell_formula_units_Z 32
_cell_length_a 7.475144
_cell_length_b 11.992299
_cell_length_c 18.343388
_cell_angle_alpha 90.000000
_cell_angle_beta 46.745213
_cell_angle_gamma 90.000000
_cell_volume 1197.622801
_symmetry_space_group_name_H-M "C C"
_symmetry_group_IT_number 9
_symmetry_cell_setting 'monoclinic'
loop_
_space_group_symop_operation_xyz
x,y,z
x,-y,1/2+z
1/2+x,1/2+y,z
1/2+x,1/2-y,1/2+z
loop_
_atom_site_type_symbol
_atom_site_label
_atom_site_fract_x
_atom_site_fract_y
_atom_site_fract_z
Si Si1 0.885160 0.567510 0.826490
Si Si2 0.892706 0.075187 0.644320
Si Si3 0.228280 0.634849 0.527840
Si Si4 0.352568 0.113803 0.452835
Si Si5 0.914943 0.069892 0.331759
Si Si6 0.828810 0.183730 0.131813
Si Si7 0.936955 0.568203 0.158316
Si Si8 0.008743 0.183560 0.839025
O O1 0.799894 0.493593 0.917273
O O2 0.905735 0.492086 0.746761
O O3 0.684182 0.655864 0.858981
O O4 0.163932 0.611726 0.758170
O O5 0.825514 0.125036 0.583073
O O6 0.176309 0.107470 0.571888
O O7 0.886451 0.940443 0.645374
O O8 0.075582 0.745779 0.554112
O O9 0.048888 0.525810 0.574911
O O10 0.428892 0.617424 0.409806
O O11 0.645504 0.105649 0.381763
O O12 0.310747 0.228053 0.420741
O O13 0.159402 0.105815 0.219516
O O14 0.919156 0.935359 0.335240
O O15 0.648827 0.157860 0.113783
O O16 0.670657 0.254638 0.233373
#
# Coordination Sequence:
#
# PCOD9134201 Si02
#       8
#     4   4   4   4   4   4   4   4
#     4   9  19  41  67  93 129 170 221 273 322 402
#     4  10  21  38  66 101 129 173 220 274 331 398
#     4  10  20  39  67  96 134 169 222 275 330 403
#     4  12  25  41  65 101 139 168 225 279 324 403
#     4  11  25  41  63 102 135 171 227 278 325 400
#     4  10  18  40  73  94 126 181 223 267 348 391
#     4   9  19  40  66  94 130 174 217 276 329 394
#     4  11  21  46  69  91 130 182 215 268 349 391
#
# _framework density 26.719598999999999
#
# number of rings (size 3 to 8) (size 9 to 14) (size 15 to 20)
#    0.000    2.000    6.250    1.500    0.000    5.000 
#    2.250    0.000    0.000    0.000    0.000    0.000 
#    0.000    0.000    0.000    0.000    0.000    0.000 
#
# Total GULP energy -89565.211042 kJ/mol
# GULP energy per Si atom -5597.825690 kJ/mol
# Density = 2.665878 g / cm^3
# Si number density = 26.719599 Si / 1000 Ang^3
#
#
#
# Elastic Constant Matrix: (Units=GPa)
#
#
# Indices 1 2 3 4 5 6 
#
# 1 108.9756 22.1147 1.8046 0.0005 -14.9041 -0.0003
# 2 22.1147 148.6287 10.0992 0.0014 -10.7630 -0.0006
# 3 1.8046 10.0992 72.0807 0.0002 -16.3902 -0.0006
# 4 0.0005 0.0014 0.0002 44.3827 -0.0002 -7.9496
# 5 -14.9041 -10.7630 -16.3902 -0.0002 39.6515 0.0005
# 6 -0.0003 -0.0006 -0.0006 -7.9496 0.0005 40.6864
#
#
#
# Elastic Compliance Matrix: (Units=1/GPa)
#
#
# Indices 1 2 3 4 5 6 
#
# 1 0.009927 -0.001261 0.000771 0.000000 0.003708 0.000000
# 2 -0.001261 0.007046 -0.000694 0.000000 0.001152 0.000000
# 3 0.000771 -0.000694 0.015424 0.000000 0.006477 0.000000
# 4 0.000000 0.000000 0.000000 0.023348 0.000000 0.004562
# 5 0.003708 0.001152 0.006477 0.000000 0.029603 0.000000
# 6 0.000000 0.000000 0.000000 0.004562 0.000000 0.025470
#
#
# Mechanical properties :
#
#
# Convention : Reuss Voigt Hill
#
# Bulk Modulus (GPa) = 33.29993 44.19135 38.74564
# Shear Modulus (GPa) = 40.58595 44.65520 42.62058
#
# Velocity S-wave (km/s) = 3.90161 4.09253 3.99821
# Velocity P-wave (km/s) = 5.72595 6.23751 5.98720
#
# Compressibility (1/GPa) = 0.03003010
#
# Stress axis : x y z
#
# Youngs Moduli (GPa) = 100.73980 141.91755 64.83376
#
# Poissons Ratio (x) = 0.17894 -0.05000
# Poissons Ratio (y) = 0.12702 0.04498
# Poissons Ratio (z) = -0.07769 0.09846
#
# Static dielectric constant tensor:
#      x y z
#    x 2.253490 0.000000 -0.070760 
#    y 0.000000 2.044010 0.000000 
#    z -0.070760 0.000000 2.060090 
# 
# From -- ./inp_files/35016.got.cif
#   From: 2010.05.17/outbox.cif.g08.bks.cpg/sg9_18_cif.got.tgz:35016.got - 2010.06.03 20:04:27.
