data_PCOD9134690
_publ_section_title
;
Structure prediction by ZEFSAII (Michael W. Deem and Ramdas Pophale) SiO2 
 PCOD9134690
Probable space group: C C
;
_chemical_formula_sum "Si O2"
_cell_formula_units_Z 32
_cell_length_a 24.510551
_cell_length_b 9.122906
_cell_length_c 19.873666
_cell_angle_alpha 90.000000
_cell_angle_beta 21.960702
_cell_angle_gamma 90.000000
_cell_volume 1661.887748
_symmetry_space_group_name_H-M "C C"
_symmetry_group_IT_number 9
_symmetry_cell_setting 'monoclinic'
loop_
_space_group_symop_operation_xyz
x,y,z
x,-y,1/2+z
1/2+x,1/2+y,z
1/2+x,1/2-y,1/2+z
loop_
_atom_site_type_symbol
_atom_site_label
_atom_site_fract_x
_atom_site_fract_y
_atom_site_fract_z
Si Si1 0.757570 0.022091 0.918390
Si Si2 0.444834 0.023236 0.346868
Si Si3 0.678342 0.434599 0.557102
Si Si4 0.368268 0.772342 0.241975
Si Si5 0.185573 0.414843 0.863988
Si Si6 0.271762 0.567926 0.631668
Si Si7 0.029836 0.732411 0.832998
Si Si8 0.412020 0.643973 0.861755
O O1 0.843433 0.139164 0.865205
O O2 0.851538 0.869828 0.810887
O O3 0.720730 0.037271 0.881357
O O4 0.600873 0.004812 0.132255
O O5 0.419911 0.195653 0.384234
O O6 0.315503 0.966729 0.447784
O O7 0.452262 0.920614 0.403448
O O8 0.747434 0.383967 0.408187
O O9 0.587175 0.306019 0.698099
O O10 0.571754 0.572532 0.674714
O O11 0.309287 0.706890 0.239207
O O12 0.527171 0.843049 0.058130
O O13 0.199820 0.478512 0.774001
O O14 0.417538 0.649437 0.490095
O O15 0.316085 0.461788 0.519230
O O16 0.164033 0.691178 0.726320
#
# Coordination Sequence:
#
# PCOD9134690 Si02
#       8
#     4   4   4   4   4   4   4   4
#     4  10  21  40  62  95 126 163 211 260 310 376
#     4  12  21  38  63 102 125 161 206 271 318 367
#     4  11  20  37  68  97 120 163 216 256 318 378
#     4  10  19  39  67  92 121 171 212 255 312 382
#     4  10  23  40  63  92 129 165 215 258 312 382
#     4  11  24  45  62  93 127 172 214 261 313 391
#     4  11  22  40  68  89 124 170 213 257 320 379
#     4  11  24  37  65  98 134 157 209 270 319 365
#
# _framework density 19.255212
#
# number of rings (size 3 to 8) (size 9 to 14) (size 15 to 20)
#    0.750    0.500    5.000    1.500    1.750    1.000 
#    4.500    1.250    0.000    0.000    0.000    0.000 
#    0.000    0.000    0.000    0.000    0.000    0.000 
#
# Total GULP energy -89205.134981 kJ/mol
# GULP energy per Si atom -5575.320936 kJ/mol
# Density = 1.921139 g / cm^3
# Si number density = 19.255212 Si / 1000 Ang^3
#
#
#
# Elastic Constant Matrix: (Units=GPa)
#
#
# Indices 1 2 3 4 5 6 
#
# 1 45.5960 7.8160 23.1411 0.0000 -2.1123 0.0000
# 2 7.8160 76.3806 23.0222 0.0001 -6.8470 0.0000
# 3 23.1411 23.0222 73.1895 0.0000 -11.3952 0.0000
# 4 0.0000 0.0001 0.0000 19.6364 0.0000 -0.6046
# 5 -2.1123 -6.8470 -11.3952 0.0000 22.6292 0.0000
# 6 0.0000 0.0000 0.0000 -0.6046 0.0000 24.5561
#
#
#
# Elastic Compliance Matrix: (Units=1/GPa)
#
#
# Indices 1 2 3 4 5 6 
#
# 1 0.026203 -0.000294 -0.008491 0.000000 -0.001919 0.000000
# 2 -0.000294 0.014575 -0.004133 0.000000 0.002301 0.000000
# 3 -0.008491 -0.004133 0.018804 0.000000 0.007426 0.000000
# 4 0.000000 0.000000 0.000000 0.050964 0.000000 0.001255
# 5 -0.001919 0.002301 0.007426 0.000000 0.048447 0.000000
# 6 0.000000 0.000000 0.000000 0.001255 0.000000 0.040754
#
#
# Mechanical properties :
#
#
# Convention : Reuss Voigt Hill
#
# Bulk Modulus (GPa) = 29.63431 33.68054 31.65743
# Shear Modulus (GPa) = 21.11202 22.77680 21.94441
#
# Velocity S-wave (km/s) = 3.31483 3.44305 3.37955
# Velocity P-wave (km/s) = 5.48402 5.77371 5.63073
#
# Compressibility (1/GPa) = 0.03374467
#
# Stress axis : x y z
#
# Youngs Moduli (GPa) = 38.16402 68.61293 53.17964
#
# Poissons Ratio (x) = 0.02017 0.45155
# Poissons Ratio (y) = 0.01122 0.21981
# Poissons Ratio (z) = 0.32405 0.28360
#
# Static dielectric constant tensor:
#      x y z
#    x 1.673330 0.000000 -0.017820 
#    y 0.000000 1.692750 0.000000 
#    z -0.017820 0.000000 1.649100 
# 
# From -- ./inp_files/11317.got.cif
#   From: 2010.05.17/outbox.cif.g08.bks.cpg/sg9_6_cif.got.tgz:11317.got - 2010.06.03 20:04:27.
