data_PCOD9134383
_publ_section_title
;
Structure prediction by ZEFSAII (Michael W. Deem and Ramdas Pophale) SiO2 
 PCOD9134383
Probable space group: C C
;
_chemical_formula_sum "Si O2"
_cell_formula_units_Z 28
_cell_length_a 9.249226
_cell_length_b 16.296490
_cell_length_c 13.882515
_cell_angle_alpha 90.000000
_cell_angle_beta 137.552133
_cell_angle_gamma 90.000000
_cell_volume 1412.275179
_symmetry_space_group_name_H-M "C C"
_symmetry_group_IT_number 9
_symmetry_cell_setting 'monoclinic'
loop_
_space_group_symop_operation_xyz
x,y,z
x,-y,1/2+z
1/2+x,1/2+y,z
1/2+x,1/2-y,1/2+z
loop_
_atom_site_type_symbol
_atom_site_label
_atom_site_fract_x
_atom_site_fract_y
_atom_site_fract_z
Si Si1 0.836860 0.091138 0.922940
Si Si2 0.401416 0.036626 0.649266
Si Si3 0.935861 0.916455 0.882901
Si Si4 0.023416 0.411341 0.011063
Si Si5 0.033154 0.129842 0.220787
Si Si6 0.045405 0.379213 0.816800
Si Si7 0.260519 0.271937 0.247624
O O1 0.578972 0.084840 0.797929
O O2 0.888707 0.173055 0.888223
O O3 0.900978 0.012272 0.891433
O O4 0.934337 0.090519 0.076666
O O5 0.185864 0.089663 0.535518
O O6 0.498944 0.027507 0.588859
O O7 0.390944 0.945882 0.689201
O O8 0.913894 0.892105 0.760488
O O9 0.756895 0.869042 0.856186
O O10 0.124061 0.422168 0.955400
O O11 0.776355 0.398173 0.860158
O O12 0.146917 0.333771 0.117754
O O13 0.071565 0.224508 0.211606
O O14 0.916220 0.295816 0.776021
#
# Coordination Sequence:
#
# PCOD9134383 Si02
#       7
#     4   4   4   4   4   4   4
#     4  10  21  37  61  84 113 155 193 226 282 353
#     4   9  20  36  56  84 114 149 191 230 281 343
#     4  10  21  37  59  87 115 144 192 247 283 323
#     4   9  19  36  58  81 113 154 190 223 278 351
#     4  10  19  35  60  84 111 151 190 230 279 339
#     4  10  20  35  60  88 116 147 189 243 286 328
#     4  10  20  38  60  84 112 154 195 225 279 355
#
# _framework density 19.826166000000001
#
# number of rings (size 3 to 8) (size 9 to 14) (size 15 to 20)
#    0.000    2.286    0.000    3.429    0.000    6.857 
#    0.000    5.714    0.000   17.143    0.000    0.000 
#    0.000    0.000    0.000    0.000    0.000    0.000 
#
# Total GULP energy -77937.018788 kJ/mol
# GULP energy per Si atom -5566.929913 kJ/mol
# Density = 1.978104 g / cm^3
# Si number density = 19.826166 Si / 1000 Ang^3
#
#
#
# Elastic Constant Matrix: (Units=GPa)
#
#
# Indices 1 2 3 4 5 6 
#
# 1 137.5201 42.4382 56.1240 0.0000 -23.8245 0.0000
# 2 42.4382 92.7254 30.3285 0.0000 -18.2348 0.0000
# 3 56.1240 30.3285 144.3446 0.0000 -21.0241 0.0000
# 4 0.0000 0.0000 0.0000 31.5736 0.0000 -8.3938
# 5 -23.8245 -18.2348 -21.0241 0.0000 40.8651 0.0000
# 6 0.0000 0.0000 0.0000 -8.3938 0.0000 28.3834
#
#
#
# Elastic Compliance Matrix: (Units=1/GPa)
#
#
# Indices 1 2 3 4 5 6 
#
# 1 0.009845 -0.003018 -0.002761 0.000000 0.002972 0.000000
# 2 -0.003018 0.013225 -0.001083 0.000000 0.003584 0.000000
# 3 -0.002761 -0.001083 0.008566 0.000000 0.002314 0.000000
# 4 0.000000 0.000000 0.000000 0.034374 0.000000 0.010166
# 5 0.002972 0.003584 0.002314 0.000000 0.028994 0.000000
# 6 0.000000 0.000000 0.000000 0.010166 0.000000 0.038238
#
#
# Mechanical properties :
#
#
# Convention : Reuss Voigt Hill
#
# Bulk Modulus (GPa) = 55.82973 70.26349 63.04661
# Shear Modulus (GPa) = 32.69331 36.54439 34.61885
#
# Velocity S-wave (km/s) = 4.06519 4.29795 4.18319
# Velocity P-wave (km/s) = 7.08908 7.75542 7.42973
#
# Compressibility (1/GPa) = 0.01791160
#
# Stress axis : x y z
#
# Youngs Moduli (GPa) = 101.57740 75.61411 116.74159
#
# Poissons Ratio (x) = 0.22822 0.32229
# Poissons Ratio (y) = 0.30658 0.12645
# Poissons Ratio (z) = 0.28043 0.08190
#
# Static dielectric constant tensor:
#      x y z
#    x 1.765640 0.000000 0.014020 
#    y 0.000000 1.736370 0.000000 
#    z 0.014020 0.000000 1.755340 
# 
# From -- ./inp_files/15144.got.cif
#   From: 2010.05.17/outbox.cif.g08.bks.cpg/sg9_8_cif.got.tgz:15144.got - 2010.06.03 20:04:27.
