data_PCOD9134851
_publ_section_title
;
Structure prediction by ZEFSAII (Michael W. Deem and Ramdas Pophale) SiO2 
 PCOD9134851
Probable space group: C C
;
_chemical_formula_sum "Si O2"
_cell_formula_units_Z 32
_cell_length_a 11.196166
_cell_length_b 14.941343
_cell_length_c 8.848099
_cell_angle_alpha 90.000000
_cell_angle_beta 118.748467
_cell_angle_gamma 90.000000
_cell_volume 1297.715742
_symmetry_space_group_name_H-M "C C"
_symmetry_group_IT_number 9
_symmetry_cell_setting 'monoclinic'
loop_
_space_group_symop_operation_xyz
x,y,z
x,-y,1/2+z
1/2+x,1/2+y,z
1/2+x,1/2-y,1/2+z
loop_
_atom_site_type_symbol
_atom_site_label
_atom_site_fract_x
_atom_site_fract_y
_atom_site_fract_z
Si Si1 0.172180 0.755726 0.477450
Si Si2 0.168273 0.898500 0.681533
Si Si3 0.755542 0.898396 0.185103
Si Si4 0.142900 0.919939 0.020766
Si Si5 0.081719 0.273002 0.599289
Si Si6 0.336786 0.887927 0.389841
Si Si7 0.219314 0.426743 0.500385
Si Si8 0.972135 0.451041 0.913307
O O1 0.112100 0.803848 0.588625
O O2 0.291692 0.688950 0.609261
O O3 0.096528 0.711402 0.288593
O O4 0.220994 0.848153 0.424286
O O5 0.141154 0.912672 0.841649
O O6 0.336786 0.900804 0.772429
O O7 0.100417 0.982979 0.555325
O O8 0.781152 0.899720 0.377856
O O9 0.796829 0.006213 0.637995
O O10 0.589089 0.890662 0.059602
O O11 0.080008 0.830109 0.051777
O O12 0.288949 0.911340 0.193369
O O13 0.192312 0.338705 0.585362
O O14 0.942947 0.310137 0.451725
O O15 0.406731 0.977516 0.490689
O O16 0.075100 0.480977 0.384352
#
# Coordination Sequence:
#
# PCOD9134851 Si02
#       8
#     4   4   4   4   4   4   4   4
#     4  11  23  34  55  88 121 155 192 244 297 352
#     4  11  21  35  57  87 123 143 199 242 300 349
#     4  10  20  32  53  88 113 151 186 241 298 342
#     4  10  21  37  59  86 116 153 192 248 295 350
#     4  10  20  38  56  80 120 153 196 243 295 354
#     4   9  20  36  58  85 113 153 193 244 293 338
#     4   9  19  32  57  82 113 150 193 235 298 340
#     4   8  20  30  59  84 115 144 189 249 284 337
#
# _framework density 24.658711
#
# number of rings (size 3 to 8) (size 9 to 14) (size 15 to 20)
#    0.750    1.500    0.000    3.750    8.750    0.000 
#    0.000    0.000    0.000    9.000    0.000    0.000 
#    0.000    0.000    0.000    0.000    0.000    0.000 
#
# Total GULP energy -89072.830760 kJ/mol
# GULP energy per Si atom -5567.051922 kJ/mol
# Density = 2.460259 g / cm^3
# Si number density = 24.658711 Si / 1000 Ang^3
#
#
#
# Elastic Constant Matrix: (Units=GPa)
#
#
# Indices 1 2 3 4 5 6 
#
# 1 22.9638 4.2322 19.2064 0.0000 -7.5244 0.0000
# 2 4.2322 124.4266 15.5102 0.0000 -7.2512 0.0000
# 3 19.2064 15.5102 82.9015 0.0000 -30.9602 0.0000
# 4 0.0000 0.0000 0.0000 49.8726 0.0000 -3.9300
# 5 -7.5244 -7.2512 -30.9602 0.0000 25.5902 0.0000
# 6 0.0000 0.0000 0.0000 -3.9300 0.0000 26.6695
#
#
#
# Elastic Compliance Matrix: (Units=1/GPa)
#
#
# Indices 1 2 3 4 5 6 
#
# 1 0.054047 -0.000268 -0.011976 0.000000 0.001327 0.000000
# 2 -0.000268 0.008240 -0.001162 0.000000 0.000850 0.000000
# 3 -0.011976 -0.001162 0.024840 0.000000 0.026202 0.000000
# 4 0.000000 0.000000 0.000000 0.020287 0.000000 0.002989
# 5 0.001327 0.000850 0.026202 0.000000 0.071408 0.000000
# 6 0.000000 0.000000 0.000000 0.002989 0.000000 0.037936
#
#
# Mechanical properties :
#
#
# Convention : Reuss Voigt Hill
#
# Bulk Modulus (GPa) = 16.57955 34.24327 25.41141
# Shear Modulus (GPa) = 18.96263 33.18266 26.07265
#
# Velocity S-wave (km/s) = 2.77610 3.67233 3.25520
# Velocity P-wave (km/s) = 4.12478 5.64786 4.94531
#
# Compressibility (1/GPa) = 0.06031527
#
# Stress axis : x y z
#
# Youngs Moduli (GPa) = 18.50225 121.35345 40.25821
#
# Poissons Ratio (x) = 0.03254 0.48213
# Poissons Ratio (y) = 0.00496 0.04678
# Poissons Ratio (z) = 0.22158 0.14102
#
# Static dielectric constant tensor:
#      x y z
#    x 2.156150 0.000000 0.010240 
#    y 0.000000 2.151150 0.000000 
#    z 0.010240 0.000000 2.018280 
# 
# From -- ./inp_files/9703.got.cif
#   From: 2010.05.17/outbox.cif.g08.bks.cpg/sg9_5_cif.got.tgz:9703.got - 2010.06.03 20:04:27.
