data_PCOD9134424
_publ_section_title
;
Structure prediction by ZEFSAII (Michael W. Deem and Ramdas Pophale) SiO2 
 PCOD9134424
Probable space group: C C
;
_chemical_formula_sum "Si O2"
_cell_formula_units_Z 32
_cell_length_a 12.299355
_cell_length_b 21.148963
_cell_length_c 8.567523
_cell_angle_alpha 90.000000
_cell_angle_beta 49.138021
_cell_angle_gamma 90.000000
_cell_volume 1685.441869
_symmetry_space_group_name_H-M "C C"
_symmetry_group_IT_number 9
_symmetry_cell_setting 'monoclinic'
loop_
_space_group_symop_operation_xyz
x,y,z
x,-y,1/2+z
1/2+x,1/2+y,z
1/2+x,1/2-y,1/2+z
loop_
_atom_site_type_symbol
_atom_site_label
_atom_site_fract_x
_atom_site_fract_y
_atom_site_fract_z
Si Si1 0.622930 0.595807 0.000000
Si Si2 0.980772 0.239596 0.404217
Si Si3 0.378224 0.397936 0.513789
Si Si4 0.222942 0.236095 0.952858
Si Si5 0.640876 0.198038 0.209697
Si Si6 0.562218 0.627524 0.550141
Si Si7 0.836694 0.703540 0.338608
Si Si8 0.062965 0.991246 0.847599
O O1 0.620151 0.551478 0.154042
O O2 0.459640 0.614386 0.101409
O O3 0.708476 0.660146 0.946539
O O4 0.661421 0.549714 0.817250
O O5 0.881846 0.242237 0.345090
O O6 0.909422 0.282928 0.603097
O O7 0.002304 0.172941 0.470726
O O8 0.134314 0.257330 0.189530
O O9 0.220518 0.369616 0.649054
O O10 0.412563 0.472284 0.455072
O O11 0.471965 0.362848 0.292160
O O12 0.164512 0.267183 0.851392
O O13 0.473485 0.195254 0.322928
O O14 0.730920 0.240345 0.999204
O O15 0.727182 0.645402 0.426060
O O16 0.545655 0.556554 0.507073
#
# Coordination Sequence:
#
# PCOD9134424 Si02
#       8
#     4   4   4   4   4   4   4   4
#     4  10  19  36  57  93 116 160 208 258 302 369
#     4  12  22  37  58  90 126 168 199 259 317 378
#     4  10  21  38  63  89 119 159 213 261 308 370
#     4  12  24  37  58  92 137 159 204 262 324 375
#     4  12  23  38  60  95 128 165 208 257 329 380
#     4  12  21  40  63  92 121 165 214 260 308 381
#     4  12  22  38  62  89 128 165 208 259 316 385
#     4  10  20  36  63  90 115 165 216 256 300 374
#
# _framework density 18.986118000000001
#
# number of rings (size 3 to 8) (size 9 to 14) (size 15 to 20)
#    0.750    0.000    6.250    3.000    0.000    0.000 
#    0.000    0.000    0.000    4.500    0.000    0.000 
#    0.000    0.000    0.000    0.000    0.000    0.000 
#
# Total GULP energy -89149.511428 kJ/mol
# GULP energy per Si atom -5571.844464 kJ/mol
# Density = 1.894291 g / cm^3
# Si number density = 18.986118 Si / 1000 Ang^3
#
#
#
# Elastic Constant Matrix: (Units=GPa)
#
#
# Indices 1 2 3 4 5 6 
#
# 1 114.5815 40.5012 7.2838 0.0000 -6.1327 0.0000
# 2 40.5012 82.4263 22.1922 0.0000 -6.1252 0.0000
# 3 7.2838 22.1922 48.1297 0.0000 8.3450 0.0000
# 4 0.0000 0.0000 0.0000 18.3213 0.0000 5.8909
# 5 -6.1327 -6.1252 8.3450 0.0000 34.9874 0.0000
# 6 0.0000 0.0000 0.0000 5.8909 0.0000 37.8677
#
#
#
# Elastic Compliance Matrix: (Units=1/GPa)
#
#
# Indices 1 2 3 4 5 6 
#
# 1 0.010615 -0.005358 0.000734 0.000000 0.000747 0.000000
# 2 -0.005358 0.017149 -0.007776 0.000000 0.003918 0.000000
# 3 0.000734 -0.007776 0.025521 0.000000 -0.007320 0.000000
# 4 0.000000 0.000000 0.000000 0.057455 0.000000 -0.008938
# 5 0.000747 0.003918 -0.007320 0.000000 0.031144 0.000000
# 6 0.000000 0.000000 0.000000 -0.008938 0.000000 0.027798
#
#
# Mechanical properties :
#
#
# Convention : Reuss Voigt Hill
#
# Bulk Modulus (GPa) = 35.10494 42.78798 38.94646
# Shear Modulus (GPa) = 24.51269 29.91263 27.21266
#
# Velocity S-wave (km/s) = 3.59707 3.97356 3.78999
# Velocity P-wave (km/s) = 5.98179 6.60588 6.30156
#
# Compressibility (1/GPa) = 0.02848602
#
# Stress axis : x y z
#
# Youngs Moduli (GPa) = 94.21025 58.31119 39.18416
#
# Poissons Ratio (x) = 0.31242 -0.02878
# Poissons Ratio (y) = 0.50476 0.30469
# Poissons Ratio (z) = -0.06919 0.45342
#
# Static dielectric constant tensor:
#      x y z
#    x 1.693380 0.000000 0.043330 
#    y 0.000000 1.688850 0.000000 
#    z 0.043330 0.000000 1.680410 
# 
# From -- ./inp_files/8319.got.cif
#   From: 2010.05.17/outbox.cif.g08.bks.cpg/sg9_5_cif.got.tgz:8319.got - 2010.06.03 20:04:27.
