data_PCOD9134605
_publ_section_title
;
Structure prediction by ZEFSAII (Michael W. Deem and Ramdas Pophale) SiO2 
 PCOD9134605
Probable space group: C C
;
_chemical_formula_sum "Si O2"
_cell_formula_units_Z 32
_cell_length_a 5.119362
_cell_length_b 20.323709
_cell_length_c 16.573469
_cell_angle_alpha 90.000000
_cell_angle_beta 122.961548
_cell_angle_gamma 90.000000
_cell_volume 1446.814221
_symmetry_space_group_name_H-M "C C"
_symmetry_group_IT_number 9
_symmetry_cell_setting 'monoclinic'
loop_
_space_group_symop_operation_xyz
x,y,z
x,-y,1/2+z
1/2+x,1/2+y,z
1/2+x,1/2-y,1/2+z
loop_
_atom_site_type_symbol
_atom_site_label
_atom_site_fract_x
_atom_site_fract_y
_atom_site_fract_z
Si Si1 0.655800 0.784512 0.285580
Si Si2 0.515946 0.422054 0.815292
Si Si3 0.425154 0.592633 0.902445
Si Si4 0.695347 0.197170 0.311241
Si Si5 0.148748 0.361629 0.962663
Si Si6 0.087122 0.025526 0.509482
Si Si7 0.625401 0.124554 0.632322
Si Si8 0.718603 0.445597 0.288491
O O1 0.852225 0.830192 0.381326
O O2 0.399060 0.747731 0.294192
O O3 0.535587 0.832690 0.194803
O O4 0.874476 0.733734 0.274682
O O5 0.222728 0.373012 0.768984
O O6 0.539006 0.455418 0.907313
O O7 0.578706 0.480479 0.763139
O O8 0.818767 0.376030 0.866336
O O9 0.546652 0.553012 0.001323
O O10 0.672733 0.578935 0.872959
O O11 0.080366 0.560414 0.827283
O O12 0.824196 0.180249 0.423902
O O13 0.310757 0.432694 0.002998
O O14 0.101606 0.335859 0.044480
O O15 0.401797 0.060403 0.591071
O O16 0.980429 0.101187 0.702208
#
# Coordination Sequence:
#
# PCOD9134605 Si02
#       8
#     4   4   4   4   4   4   4   4
#     4  11  23  38  61  93 124 170 221 260 315 379
#     4   9  18  37  61  87 117 163 212 255 309 397
#     4  10  20  37  58  89 122 159 203 263 320 393
#     4  11  22  39  61  88 122 171 222 254 307 401
#     4  10  19  38  63  91 119 167 216 263 316 389
#     4   9  19  34  62  89 120 155 204 263 333 381
#     4  10  23  36  62  96 128 161 213 287 330 372
#     4  10  20  35  60  91 120 154 205 271 330 372
#
# _framework density 22.117559
#
# number of rings (size 3 to 8) (size 9 to 14) (size 15 to 20)
#    0.000    2.000    2.500    1.500    5.250    0.000 
#    0.000    0.000    2.750    0.000    0.000    0.000 
#    0.000    0.000    0.000    0.000    0.000    0.000 
#
# Total GULP energy -89124.033804 kJ/mol
# GULP energy per Si atom -5570.252113 kJ/mol
# Density = 2.206722 g / cm^3
# Si number density = 22.117559 Si / 1000 Ang^3
#
#
#
# Elastic Constant Matrix: (Units=GPa)
#
#
# Indices 1 2 3 4 5 6 
#
# 1 111.2816 21.9978 17.1665 0.0000 -6.3754 0.0000
# 2 21.9978 55.6305 15.0959 0.0000 -10.8751 0.0000
# 3 17.1665 15.0959 31.4808 0.0000 -11.2292 0.0000
# 4 0.0000 0.0000 0.0000 15.4526 0.0000 -1.7596
# 5 -6.3754 -10.8751 -11.2292 0.0000 28.2457 0.0000
# 6 0.0000 0.0000 0.0000 -1.7596 0.0000 41.3384
#
#
#
# Elastic Compliance Matrix: (Units=1/GPa)
#
#
# Indices 1 2 3 4 5 6 
#
# 1 0.010211 -0.002969 -0.004346 0.000000 -0.000566 0.000000
# 2 -0.002969 0.022073 -0.007193 0.000000 0.004969 0.000000
# 3 -0.004346 -0.007193 0.042236 0.000000 0.013041 0.000000
# 4 0.000000 0.000000 0.000000 0.065029 0.000000 0.002768
# 5 -0.000566 0.004969 0.013041 0.000000 0.042373 0.000000
# 6 0.000000 0.000000 0.000000 0.002768 0.000000 0.024308
#
#
# Mechanical properties :
#
#
# Convention : Reuss Voigt Hill
#
# Bulk Modulus (GPa) = 21.97649 34.10150 28.03900
# Shear Modulus (GPa) = 19.96671 26.61618 23.29144
#
# Velocity S-wave (km/s) = 3.00785 3.47276 3.24863
# Velocity P-wave (km/s) = 4.69262 5.61533 5.17458
#
# Compressibility (1/GPa) = 0.04550317
#
# Stress axis : x y z
#
# Youngs Moduli (GPa) = 97.93199 45.30408 23.67625
#
# Poissons Ratio (x) = 0.13451 0.10291
# Poissons Ratio (y) = 0.29076 0.17031
# Poissons Ratio (z) = 0.42565 0.32589
#
# Static dielectric constant tensor:
#      x y z
#    x 1.876070 0.000000 -0.024300 
#    y 0.000000 1.934380 0.000000 
#    z -0.024300 0.000000 1.850400 
# 
# From -- ./inp_files/22151.got.cif
#   From: 2010.05.17/outbox.cif.g08.bks.cpg/sg9_12_cif.got.tgz:22151.got - 2010.06.03 20:04:27.
