data_PCOD9134379
_publ_section_title
;
Structure prediction by ZEFSAII (Michael W. Deem and Ramdas Pophale) SiO2 
 PCOD9134379
Probable space group: C C
;
_chemical_formula_sum "Si O2"
_cell_formula_units_Z 32
_cell_length_a 8.749758
_cell_length_b 14.042572
_cell_length_c 20.176825
_cell_angle_alpha 90.000000
_cell_angle_beta 151.193210
_cell_angle_gamma 90.000000
_cell_volume 1194.577056
_symmetry_space_group_name_H-M "C C"
_symmetry_group_IT_number 9
_symmetry_cell_setting 'monoclinic'
loop_
_space_group_symop_operation_xyz
x,y,z
x,-y,1/2+z
1/2+x,1/2+y,z
1/2+x,1/2-y,1/2+z
loop_
_atom_site_type_symbol
_atom_site_label
_atom_site_fract_x
_atom_site_fract_y
_atom_site_fract_z
Si Si1 0.021990 0.607216 0.321680
Si Si2 0.667721 0.777390 0.258013
Si Si3 0.776596 0.592284 0.977746
Si Si4 0.531999 0.794220 0.693859
Si Si5 0.934156 0.016517 0.074534
Si Si6 0.772906 0.204549 0.941011
Si Si7 0.309515 0.112818 0.523694
Si Si8 0.029588 0.912787 0.243085
O O1 0.261800 0.563621 0.465659
O O2 0.778061 0.675618 0.270324
O O3 0.169646 0.660195 0.314507
O O4 0.807805 0.529040 0.202280
O O5 0.597698 0.803655 0.306051
O O6 0.366818 0.819627 0.107265
O O7 0.990625 0.834272 0.367490
O O8 0.776366 0.567998 0.897736
O O9 0.029325 0.645125 0.123392
O O10 0.679444 0.493155 0.976146
O O11 0.616611 0.682370 0.734187
O O12 0.149843 0.790315 0.566095
O O13 0.767028 0.114616 0.987228
O O14 0.965222 0.993161 0.163957
O O15 0.664251 0.311038 0.918779
O O16 0.676285 0.096095 0.639499
#
# Coordination Sequence:
#
# PCOD9134379 Si02
#       8
#     4   4   4   4   4   4   4   4
#     4  11  21  41  66  92 123 164 210 254 316 372
#     4  10  19  39  60  84 119 166 201 253 311 382
#     4  10  20  32  61  90 114 157 214 252 301 368
#     4   9  18  38  59  87 120 161 206 250 312 382
#     4  11  23  36  65  95 120 163 210 260 305 378
#     4   9  19  35  59  85 116 159 206 249 303 372
#     4  10  19  35  59  87 114 161 206 250 303 368
#     4  10  21  36  61  86 118 165 209 256 305 376
#
# _framework density 26.787723
#
# number of rings (size 3 to 8) (size 9 to 14) (size 15 to 20)
#    0.000    2.000    5.000    2.250    5.250    0.000 
#    0.000    0.000   11.000    7.500    0.000    0.000 
#    0.000    0.000    0.000    0.000    0.000    0.000 
#
# Total GULP energy -89238.274670 kJ/mol
# GULP energy per Si atom -5577.392167 kJ/mol
# Density = 2.672675 g / cm^3
# Si number density = 26.787723 Si / 1000 Ang^3
#
#
#
# Elastic Constant Matrix: (Units=GPa)
#
#
# Indices 1 2 3 4 5 6 
#
# 1 62.3749 12.8643 34.0032 0.0030 -15.6244 0.0079
# 2 12.8643 154.9658 80.6754 0.0019 -28.0508 0.0057
# 3 34.0032 80.6754 163.5438 0.0098 -38.6091 0.0238
# 4 0.0030 0.0019 0.0098 51.4222 0.0049 -6.3288
# 5 -15.6244 -28.0508 -38.6091 0.0049 29.6543 0.0087
# 6 0.0079 0.0057 0.0238 -6.3288 0.0087 1.4279
#
#
#
# Elastic Compliance Matrix: (Units=1/GPa)
#
#
# Indices 1 2 3 4 5 6 
#
# 1 0.019222 0.001251 -0.002806 -0.000033 0.007658 -0.000259
# 2 0.001251 0.009073 -0.003687 -0.000003 0.004441 -0.000020
# 3 -0.002806 -0.003687 0.010604 -0.000060 0.008840 -0.000465
# 4 -0.000033 -0.000003 -0.000060 0.042789 -0.000161 0.189661
# 5 0.007658 0.004441 0.008840 -0.000161 0.053467 -0.001245
# 6 -0.000259 -0.000020 -0.000465 0.189661 -0.001245 1.541020
#
#
# Mechanical properties :
#
#
# Convention : Reuss Voigt Hill
#
# Bulk Modulus (GPa) = 35.19296 70.66339 52.92817
# Shear Modulus (GPa) = 2.94789 33.39032 18.16911
#
# Velocity S-wave (km/s) = 1.05017 3.53438 2.60717
# Velocity P-wave (km/s) = 3.82580 6.56446 5.37256
#
# Compressibility (1/GPa) = 0.02841477
#
# Stress axis : x y z
#
# Youngs Moduli (GPa) = 52.02380 110.22235 94.30586
#
# Poissons Ratio (x) = -0.13792 0.26460
# Poissons Ratio (y) = -0.06510 0.34773
# Poissons Ratio (z) = 0.14597 0.40642
#
# Static dielectric constant tensor:
#      x y z
#    x 2.376770 0.000000 0.042960 
#    y 0.000000 2.151860 -0.000010 
#    z 0.042960 -0.000010 2.125590 
# 
# From -- ./inp_files/16389.got.cif
#   From: 2010.05.17/outbox.cif.g08.bks.cpg/sg9_9_cif.got.tgz:16389.got - 2010.06.03 20:04:27.
