data_PCOD9134292
_publ_section_title
;
Structure prediction by ZEFSAII (Michael W. Deem and Ramdas Pophale) SiO2 
 PCOD9134292
Probable space group: C C
;
_chemical_formula_sum "Si O2"
_cell_formula_units_Z 32
_cell_length_a 8.410496
_cell_length_b 20.342348
_cell_length_c 8.690766
_cell_angle_alpha 90.000000
_cell_angle_beta 119.898162
_cell_angle_gamma 90.000000
_cell_volume 1289.009535
_symmetry_space_group_name_H-M "C C"
_symmetry_group_IT_number 9
_symmetry_cell_setting 'monoclinic'
loop_
_space_group_symop_operation_xyz
x,y,z
x,-y,1/2+z
1/2+x,1/2+y,z
1/2+x,1/2-y,1/2+z
loop_
_atom_site_type_symbol
_atom_site_label
_atom_site_fract_x
_atom_site_fract_y
_atom_site_fract_z
Si Si1 0.833100 0.199202 0.355780
Si Si2 0.398206 0.570872 0.883650
Si Si3 0.996188 0.570100 0.548190
Si Si4 0.900924 0.933344 0.745802
Si Si5 0.448061 0.174431 0.722281
Si Si6 0.325207 0.706714 0.723386
Si Si7 0.468072 0.843882 0.764530
Si Si8 0.959704 0.573623 0.008322
O O1 0.940162 0.132988 0.360890
O O2 0.831142 0.211234 0.539449
O O3 0.619148 0.185587 0.223043
O O4 0.878015 0.259300 0.266029
O O5 0.174661 0.563784 0.744910
O O6 0.470485 0.502899 0.845586
O O7 0.439782 0.641737 0.826057
O O8 0.442775 0.574098 0.085319
O O9 0.861728 0.625457 0.552587
O O10 0.065541 0.605305 0.427004
O O11 0.901730 0.501900 0.462811
O O12 0.677617 0.936629 0.642851
O O13 0.635125 0.195902 0.724059
O O14 0.448215 0.122728 0.862073
O O15 0.387866 0.779390 0.803464
O O16 0.354761 0.892006 0.600148
#
# Coordination Sequence:
#
# PCOD9134292 Si02
#       8
#     4   4   4   4   4   4   4   4
#     4  11  23  39  57  88 122 157 197 246 298 357
#     4  10  19  33  55  85 115 148 195 246 292 341
#     4  10  20  33  56  88 118 147 203 248 293 341
#     4  10  20  32  57  84 114 150 192 246 296 338
#     4  11  21  38  59  87 121 155 195 246 298 354
#     4  11  22  39  56  89 123 153 201 244 297 360
#     4  11  22  36  60  87 120 158 191 247 300 345
#     4  10  19  34  56  86 115 150 196 251 292 340
#
# _framework density 24.825265000000002
#
# number of rings (size 3 to 8) (size 9 to 14) (size 15 to 20)
#    0.000    1.500    6.250    1.500    8.750    0.000 
#    0.000    0.000    0.000    3.000    0.000    0.000 
#    0.000    0.000    0.000    0.000    0.000    0.000 
#
# Total GULP energy -89124.385051 kJ/mol
# GULP energy per Si atom -5570.274066 kJ/mol
# Density = 2.476876 g / cm^3
# Si number density = 24.825265 Si / 1000 Ang^3
#
#
#
# Elastic Constant Matrix: (Units=GPa)
#
#
# Indices 1 2 3 4 5 6 
#
# 1 66.9870 38.2431 10.2820 0.0000 -11.4726 0.0000
# 2 38.2431 238.4570 35.0760 0.0000 -31.8612 0.0000
# 3 10.2820 35.0760 73.5056 0.0000 -35.9714 0.0000
# 4 0.0000 0.0000 0.0000 41.0361 0.0000 -15.0183
# 5 -11.4726 -31.8612 -35.9714 0.0000 25.5359 0.0000
# 6 0.0000 0.0000 0.0000 -15.0183 0.0000 24.2221
#
#
#
# Elastic Compliance Matrix: (Units=1/GPa)
#
#
# Indices 1 2 3 4 5 6 
#
# 1 0.017252 -0.001899 0.003627 0.000000 0.010491 0.000000
# 2 -0.001899 0.005351 0.001809 0.000000 0.008371 0.000000
# 3 0.003627 0.001809 0.045504 0.000000 0.067986 0.000000
# 4 0.000000 0.000000 0.000000 0.031522 0.000000 0.019544
# 5 0.010491 0.008371 0.067986 0.000000 0.150088 0.000000
# 6 0.000000 0.000000 0.000000 0.019544 0.000000 0.053403
#
#
# Mechanical properties :
#
#
# Convention : Reuss Voigt Hill
#
# Bulk Modulus (GPa) = 13.30129 60.68355 36.99242
# Shear Modulus (GPa) = 15.57119 37.84870 26.70994
#
# Velocity S-wave (km/s) = 2.50718 3.90885 3.28368
# Velocity P-wave (km/s) = 3.70821 6.69847 5.41389
#
# Compressibility (1/GPa) = 0.07518067
#
# Stress axis : x y z
#
# Youngs Moduli (GPa) = 57.96346 186.89782 21.97587
#
# Poissons Ratio (x) = 0.35485 -0.07970
# Poissons Ratio (y) = 0.11005 -0.03975
# Poissons Ratio (z) = -0.21021 -0.33806
#
# Static dielectric constant tensor:
#      x y z
#    x 2.062410 0.000000 0.061300 
#    y 0.000000 2.112520 0.000000 
#    z 0.061300 0.000000 2.052800 
# 
# From -- ./inp_files/7777.got.cif
#   From: 2010.05.17/outbox.cif.g08.bks.cpg/sg9_4_cif.got.tgz:7777.got - 2010.06.03 20:04:27.
