data_PCOD9134857
_publ_section_title
;
Structure prediction by ZEFSAII (Michael W. Deem and Ramdas Pophale) SiO2 
 PCOD9134857
Probable space group: C C
;
_chemical_formula_sum "Si O2"
_cell_formula_units_Z 28
_cell_length_a 13.950494
_cell_length_b 5.319503
_cell_length_c 17.720776
_cell_angle_alpha 90.000000
_cell_angle_beta 116.748581
_cell_angle_gamma 90.000000
_cell_volume 1174.329634
_symmetry_space_group_name_H-M "C C"
_symmetry_group_IT_number 9
_symmetry_cell_setting 'monoclinic'
loop_
_space_group_symop_operation_xyz
x,y,z
x,-y,1/2+z
1/2+x,1/2+y,z
1/2+x,1/2-y,1/2+z
loop_
_atom_site_type_symbol
_atom_site_label
_atom_site_fract_x
_atom_site_fract_y
_atom_site_fract_z
Si Si1 0.012930 0.368074 0.129290
Si Si2 0.402397 0.504928 0.349685
Si Si3 0.937872 0.496875 0.943453
Si Si4 0.363437 0.564349 0.171249
Si Si5 0.687237 0.006473 0.481960
Si Si6 0.652431 0.492438 0.886397
Si Si7 0.578657 0.630950 0.699892
O O1 0.094001 0.594133 0.172993
O O2 0.074651 0.101275 0.139942
O O3 0.940482 0.435831 0.032514
O O4 0.935840 0.305374 0.173015
O O5 0.391532 0.733553 0.404141
O O6 0.338658 0.556841 0.250291
O O7 0.527317 0.510929 0.367426
O O8 0.385007 0.232137 0.379051
O O9 0.064077 0.498880 0.966108
O O10 0.454052 0.355806 0.184298
O O11 0.265842 0.537192 0.079793
O O12 0.697643 0.777408 0.426465
O O13 0.704393 0.276559 0.449764
O O14 0.648834 0.552190 0.796258
#
# Coordination Sequence:
#
# PCOD9134857 Si02
#       7
#     4   4   4   4   4   4   4
#     4  10  20  33  59  78 109 138 189 222 268 323
#     4   9  19  33  56  76 106 142 185 214 261 336
#     4  10  20  36  55  80 106 145 180 221 272 325
#     4   9  22  33  59  81 110 137 191 223 273 313
#     4  10  20  32  56  79 111 135 179 231 269 314
#     4   9  18  32  52  82 102 137 181 221 261 316
#     4   9  19  33  57  76 106 142 183 218 262 329
#
# _framework density 23.843389999999999
#
# number of rings (size 3 to 8) (size 9 to 14) (size 15 to 20)
#    0.857    1.714    0.000    1.714    8.000    0.000 
#    0.000    0.000    9.429    0.000    0.000    0.000 
#    0.000    0.000    0.000    0.000    0.000    0.000 
#
# Total GULP energy -78222.936911 kJ/mol
# GULP energy per Si atom -5587.352637 kJ/mol
# Density = 2.378912 g / cm^3
# Si number density = 23.843390 Si / 1000 Ang^3
#
#
#
# Elastic Constant Matrix: (Units=GPa)
#
#
# Indices 1 2 3 4 5 6 
#
# 1 81.0344 5.6904 10.4722 0.0000 17.1602 0.0000
# 2 5.6904 177.9520 58.5054 0.0000 8.6263 0.0000
# 3 10.4722 58.5054 141.0747 0.0000 12.0901 0.0000
# 4 0.0000 0.0000 0.0000 20.9039 0.0000 -7.1335
# 5 17.1602 8.6263 12.0901 0.0000 21.7149 0.0000
# 6 0.0000 0.0000 0.0000 -7.1335 0.0000 -6.7863
#
#
#
# Elastic Compliance Matrix: (Units=1/GPa)
#
#
# Indices 1 2 3 4 5 6 
#
# 1 0.014825 0.000145 -0.000159 0.000000 -0.011684 0.000000
# 2 0.000145 0.006535 -0.002613 0.000000 -0.001255 0.000000
# 3 -0.000159 -0.002613 0.008489 0.000000 -0.003563 0.000000
# 4 0.000000 0.000000 0.000000 0.035208 0.000000 -0.037010
# 5 -0.011684 -0.001255 -0.003563 0.000000 0.057767 0.000000
# 6 0.000000 0.000000 0.000000 -0.037010 0.000000 -0.108452
#
#
# Mechanical properties :
#
#
# Convention : Reuss Voigt Hill
#
# Bulk Modulus (GPa) = 40.66039 61.04414 50.85226
# Shear Modulus (GPa) = 179.68713 28.85936 104.27325
#
# Velocity S-wave (km/s) = 8.69051 3.48281 6.62023
# Velocity P-wave (km/s) = 10.85312 6.46769 8.93368
#
# Compressibility (1/GPa) = 0.02459396
#
# Stress axis : x y z
#
# Youngs Moduli (GPa) = 67.45272 153.02496 117.79495
#
# Poissons Ratio (x) = -0.02214 0.01875
# Poissons Ratio (y) = -0.00976 0.30783
# Poissons Ratio (z) = 0.01073 0.39989
#
# Static dielectric constant tensor:
#      x y z
#    x 1.992570 0.000000 -0.003810 
#    y 0.000000 1.920130 0.000000 
#    z -0.003810 0.000000 1.865080 
# 
# From -- ./inp_files/27010.got.cif
#   From: 2010.05.17/outbox.cif.g08.bks.cpg/sg9_14_cif.got.tgz:27010.got - 2010.06.03 20:04:27.
