data_PCOD9134158
_publ_section_title
;
Structure prediction by ZEFSAII (Michael W. Deem and Ramdas Pophale) SiO2 
 PCOD9134158
Probable space group: C C
;
_chemical_formula_sum "Si O2"
_cell_formula_units_Z 32
_cell_length_a 16.947128
_cell_length_b 16.520166
_cell_length_c 11.295359
_cell_angle_alpha 90.000000
_cell_angle_beta 149.987393
_cell_angle_gamma 90.000000
_cell_volume 1581.779822
_symmetry_space_group_name_H-M "C C"
_symmetry_group_IT_number 9
_symmetry_cell_setting 'monoclinic'
loop_
_space_group_symop_operation_xyz
x,y,z
x,-y,1/2+z
1/2+x,1/2+y,z
1/2+x,1/2-y,1/2+z
loop_
_atom_site_type_symbol
_atom_site_label
_atom_site_fract_x
_atom_site_fract_y
_atom_site_fract_z
Si Si1 0.170130 0.429020 0.780030
Si Si2 0.231858 0.251899 0.145155
Si Si3 0.216950 0.176471 0.753689
Si Si4 0.894731 0.645783 0.542316
Si Si5 0.960832 0.294756 0.378721
Si Si6 0.583246 0.909150 0.063832
Si Si7 0.415491 0.302199 0.167937
Si Si8 0.386112 0.963932 0.594626
O O1 0.081541 0.363017 0.583461
O O2 0.185633 0.511378 0.726245
O O3 0.046040 0.446544 0.725335
O O4 0.329803 0.387370 0.033835
O O5 0.267448 0.195164 0.301970
O O6 0.380428 0.271131 0.255394
O O7 0.169135 0.338718 0.104804
O O8 0.101290 0.207278 0.894506
O O9 0.039732 0.209956 0.520217
O O10 0.294873 0.184349 0.724693
O O11 0.328075 0.237851 0.971500
O O12 0.251835 0.090524 0.858954
O O13 0.846181 0.558268 0.530731
O O14 0.950272 0.698486 0.724811
O O15 0.026807 0.625929 0.615876
O O16 0.433860 0.938261 0.789757
#
# Coordination Sequence:
#
# PCOD9134158 Si02
#       8
#     4   4   4   4   4   4   4   4
#     4   9  19  35  60  87 111 153 198 248 283 350
#     4  12  22  38  63  89 118 157 198 251 293 354
#     4  10  20  36  63  87 113 154 195 247 287 350
#     4  11  24  36  59  89 121 157 199 241 299 358
#     4  10  21  36  58  89 119 149 193 241 298 346
#     4  11  20  37  62  86 113 161 202 239 294 354
#     4  11  20  38  64  90 116 151 208 244 293 351
#     4  10  18  38  61  85 113 156 207 233 289 363
#
# _framework density 20.230376
#
# number of rings (size 3 to 8) (size 9 to 14) (size 15 to 20)
#    0.000    1.500    5.000    1.500    1.750    0.000 
#    0.000    1.250   11.000    0.000    0.000    0.000 
#    0.000    0.000    0.000    0.000    0.000    0.000 
#
# Total GULP energy -89318.218673 kJ/mol
# GULP energy per Si atom -5582.388667 kJ/mol
# Density = 2.018433 g / cm^3
# Si number density = 20.230376 Si / 1000 Ang^3
#
#
#
# Elastic Constant Matrix: (Units=GPa)
#
#
# Indices 1 2 3 4 5 6 
#
# 1 55.5887 -3.4371 6.3549 0.0000 -17.7645 0.0000
# 2 -3.4371 95.5597 24.4956 0.0000 -0.6923 0.0000
# 3 6.3549 24.4956 51.8786 0.0000 -11.8514 0.0000
# 4 0.0000 0.0000 0.0000 32.4231 0.0000 -7.7927
# 5 -17.7645 -0.6923 -11.8514 0.0000 31.1305 0.0000
# 6 0.0000 0.0000 0.0000 -7.7927 0.0000 18.4708
#
#
#
# Elastic Compliance Matrix: (Units=1/GPa)
#
#
# Indices 1 2 3 4 5 6 
#
# 1 0.022080 0.000962 -0.000302 0.000000 0.012506 0.000000
# 2 0.000962 0.012069 -0.006166 0.000000 -0.001530 0.000000
# 3 -0.000302 -0.006166 0.024264 0.000000 0.008928 0.000000
# 4 0.000000 0.000000 0.000000 0.034322 0.000000 0.014480
# 5 0.012506 -0.001530 0.008928 0.000000 0.042624 0.000000
# 6 0.000000 0.000000 0.000000 0.014480 0.000000 0.060249
#
#
# Mechanical properties :
#
#
# Convention : Reuss Voigt Hill
#
# Bulk Modulus (GPa) = 21.09667 28.65043 24.87355
# Shear Modulus (GPa) = 22.48005 28.11245 25.29625
#
# Velocity S-wave (km/s) = 3.33709 3.73180 3.53995
# Velocity P-wave (km/s) = 5.02982 5.72375 5.38796
#
# Compressibility (1/GPa) = 0.04740084
#
# Stress axis : x y z
#
# Youngs Moduli (GPa) = 45.29002 82.85874 41.21397
#
# Poissons Ratio (x) = -0.07973 0.01245
# Poissons Ratio (y) = -0.04358 0.25412
# Poissons Ratio (z) = 0.01368 0.51090
#
# Static dielectric constant tensor:
#      x y z
#    x 1.747640 0.000000 0.000970 
#    y 0.000000 1.723400 0.000000 
#    z 0.000970 0.000000 1.710750 
# 
# From -- ./inp_files/7899.got.cif
#   From: 2010.05.17/outbox.cif.g08.bks.cpg/sg9_4_cif.got.tgz:7899.got - 2010.06.03 20:04:27.
