data_PCOD9134638
_publ_section_title
;
Structure prediction by ZEFSAII (Michael W. Deem and Ramdas Pophale) SiO2 
 PCOD9134638
Probable space group: C C
;
_chemical_formula_sum "Si O2"
_cell_formula_units_Z 32
_cell_length_a 11.382824
_cell_length_b 11.266869
_cell_length_c 11.324344
_cell_angle_alpha 90.000000
_cell_angle_beta 54.986058
_cell_angle_gamma 90.000000
_cell_volume 1189.479119
_symmetry_space_group_name_H-M "C C"
_symmetry_group_IT_number 9
_symmetry_cell_setting 'monoclinic'
loop_
_space_group_symop_operation_xyz
x,y,z
x,-y,1/2+z
1/2+x,1/2+y,z
1/2+x,1/2-y,1/2+z
loop_
_atom_site_type_symbol
_atom_site_label
_atom_site_fract_x
_atom_site_fract_y
_atom_site_fract_z
Si Si1 0.673280 0.321129 0.231250
Si Si2 0.719148 0.558123 0.300933
Si Si3 0.645747 0.178851 0.475497
Si Si4 0.171761 0.576483 0.842973
Si Si5 0.460476 0.925770 0.277295
Si Si6 0.390844 0.409244 0.999973
Si Si7 0.969224 0.678691 0.225638
Si Si8 0.814068 0.826672 0.485672
O O1 0.714559 0.457145 0.203931
O O2 0.628155 0.284400 0.390845
O O3 0.567221 0.294019 0.181302
O O4 0.779853 0.214820 0.136802
O O5 0.800765 0.477564 0.355192
O O6 0.561933 0.610118 0.411720
O O7 0.842721 0.655590 0.206545
O O8 0.515654 0.163508 0.644603
O O9 0.794457 0.172617 0.466725
O O10 0.648738 0.056974 0.400293
O O11 0.301903 0.586353 0.673978
O O12 0.203679 0.652409 0.940689
O O13 0.026284 0.614577 0.861310
O O14 0.544528 0.051299 0.200308
O O15 0.387660 0.545019 0.950453
O O16 0.888993 0.707127 0.395122
#
# Coordination Sequence:
#
# PCOD9134638 Si02
#       8
#     4   4   4   4   4   4   4   4
#     4  12  22  42  70 101 133 187 234 277 363 431
#     4  10  24  40  65  99 140 172 235 295 339 422
#     4  10  19  38  68  93 131 180 229 283 349 432
#     4  10  19  39  68  95 130 176 236 285 346 430
#     4   9  21  41  65  95 132 177 226 293 347 406
#     4  10  20  41  63  97 135 179 230 291 357 410
#     4  10  22  42  62  98 135 179 231 289 342 416
#     4  11  23  39  71  96 134 192 229 283 367 427
#
# _framework density 26.902532999999998
#
# number of rings (size 3 to 8) (size 9 to 14) (size 15 to 20)
#    0.750    1.000    3.750    1.500    1.750    1.000 
#    2.250    0.000   13.750    0.000    0.000    0.000 
#    0.000    0.000    0.000    0.000    0.000    0.000 
#
# Total GULP energy -89105.519030 kJ/mol
# GULP energy per Si atom -5569.094939 kJ/mol
# Density = 2.684130 g / cm^3
# Si number density = 26.902533 Si / 1000 Ang^3
#
#
#
# Elastic Constant Matrix: (Units=GPa)
#
#
# Indices 1 2 3 4 5 6 
#
# 1 193.0312 40.6012 30.3192 0.0000 -5.9191 0.0000
# 2 40.6012 94.0681 6.3513 0.0000 7.1343 0.0000
# 3 30.3192 6.3513 73.4578 0.0000 23.3334 0.0000
# 4 0.0000 0.0000 0.0000 11.8716 0.0000 18.6366
# 5 -5.9191 7.1343 23.3334 0.0000 25.3680 0.0000
# 6 0.0000 0.0000 0.0000 18.6366 0.0000 56.3907
#
#
#
# Elastic Compliance Matrix: (Units=1/GPa)
#
#
# Indices 1 2 3 4 5 6 
#
# 1 0.006779 -0.003123 -0.004675 0.000000 0.006760 0.000000
# 2 -0.003123 0.012301 0.002198 0.000000 -0.006210 0.000000
# 3 -0.004675 0.002198 0.022457 0.000000 -0.022365 0.000000
# 4 0.000000 0.000000 0.000000 0.175058 0.000000 -0.057855
# 5 0.006760 -0.006210 -0.022365 0.000000 0.063315 0.000000
# 6 0.000000 0.000000 0.000000 -0.057855 0.000000 0.036854
#
#
# Mechanical properties :
#
#
# Convention : Reuss Voigt Hill
#
# Bulk Modulus (GPa) = 32.96391 57.23337 45.09864
# Shear Modulus (GPa) = 14.78955 37.61176 26.20065
#
# Velocity S-wave (km/s) = 2.34721 3.74314 3.12414
# Velocity P-wave (km/s) = 4.43007 6.32471 5.46020
#
# Compressibility (1/GPa) = 0.03033621
#
# Stress axis : x y z
#
# Youngs Moduli (GPa) = 147.51352 81.29363 44.52954
#
# Poissons Ratio (x) = 0.25388 0.20819
# Poissons Ratio (y) = 0.46068 -0.09787
# Poissons Ratio (z) = 0.68968 -0.17868
#
# Static dielectric constant tensor:
#      x y z
#    x 2.540160 0.000000 -0.397870 
#    y 0.000000 2.104610 0.000000 
#    z -0.397870 0.000000 2.336740 
# 
# From -- ./inp_files/16790.got.cif
#   From: 2010.05.17/outbox.cif.g08.bks.cpg/sg9_9_cif.got.tgz:16790.got - 2010.06.03 20:04:27.
