data_PCOD9134372
_publ_section_title
;
Structure prediction by ZEFSAII (Michael W. Deem and Ramdas Pophale) SiO2 
 PCOD9134372
Probable space group: C C
;
_chemical_formula_sum "Si O2"
_cell_formula_units_Z 32
_cell_length_a 12.656243
_cell_length_b 12.867409
_cell_length_c 14.145667
_cell_angle_alpha 90.000000
_cell_angle_beta 142.402949
_cell_angle_gamma 90.000000
_cell_volume 1405.476169
_symmetry_space_group_name_H-M "C C"
_symmetry_group_IT_number 9
_symmetry_cell_setting 'monoclinic'
loop_
_space_group_symop_operation_xyz
x,y,z
x,-y,1/2+z
1/2+x,1/2+y,z
1/2+x,1/2-y,1/2+z
loop_
_atom_site_type_symbol
_atom_site_label
_atom_site_fract_x
_atom_site_fract_y
_atom_site_fract_z
Si Si1 0.768230 0.479463 0.571440
Si Si2 0.804915 0.659398 0.259968
Si Si3 0.326222 0.661775 0.615856
Si Si4 0.722534 0.690268 0.889064
Si Si5 0.847261 0.023834 0.794031
Si Si6 0.908166 0.192126 0.986027
Si Si7 0.326838 0.708898 0.276437
Si Si8 0.706733 0.291066 0.006265
O O1 0.844948 0.443165 0.726925
O O2 0.807884 0.398712 0.515212
O O3 0.558108 0.472377 0.434936
O O4 0.801429 0.597806 0.568770
O O5 0.818259 0.748804 0.189975
O O6 0.912314 0.702271 0.424716
O O7 0.603041 0.656715 0.146936
O O8 0.526838 0.655839 0.726727
O O9 0.217474 0.706395 0.451872
O O10 0.279213 0.560153 0.642883
O O11 0.820498 0.719180 0.863615
O O12 0.786793 0.909245 0.776466
O O13 0.814519 0.106993 0.853322
O O14 0.799280 0.213716 0.001382
O O15 0.503971 0.700633 0.341703
O O16 0.200119 0.756420 0.109962
#
# Coordination Sequence:
#
# PCOD9134372 Si02
#       8
#     4   4   4   4   4   4   4   4
#     4   8  18  36  58  80 107 143 182 217 269 333
#     4   9  17  34  58  83 106 137 183 229 265 315
#     4   9  17  34  58  83 106 137 183 229 265 315
#     4  10  19  35  58  81 107 146 184 221 267 322
#     4   8  18  36  58  80 107 143 182 217 269 333
#     4  10  19  35  58  81 107 146 184 221 267 322
#     4  11  23  39  55  80 114 146 180 223 269 322
#     4  11  23  39  55  80 114 146 180 223 269 322
#
# _framework density 22.768084000000002
#
# number of rings (size 3 to 8) (size 9 to 14) (size 15 to 20)
#    0.000    2.500    0.000    3.750    0.000    2.000 
#    0.000   23.750    0.000    1.500    0.000    0.000 
#    0.000    0.000    0.000    0.000    0.000    0.000 
#
# Total GULP energy -89294.115950 kJ/mol
# GULP energy per Si atom -5580.882247 kJ/mol
# Density = 2.271626 g / cm^3
# Si number density = 22.768084 Si / 1000 Ang^3
#
#
#
# Elastic Constant Matrix: (Units=GPa)
#
#
# Indices 1 2 3 4 5 6 
#
# 1 98.2991 34.6740 13.6052 0.0001 -19.9541 0.0001
# 2 34.6740 79.5305 8.4247 0.0000 -10.2181 0.0000
# 3 13.6052 8.4247 53.3858 0.0001 -11.1801 0.0001
# 4 0.0001 0.0000 0.0001 12.0110 0.0001 -11.2597
# 5 -19.9541 -10.2181 -11.1801 0.0001 30.9818 0.0001
# 6 0.0001 0.0000 0.0001 -11.2597 0.0001 18.0987
#
#
#
# Elastic Compliance Matrix: (Units=1/GPa)
#
#
# Indices 1 2 3 4 5 6 
#
# 1 0.013397 -0.004863 -0.001272 0.000000 0.006566 0.000000
# 2 -0.004863 0.014974 -0.000806 0.000000 0.001516 0.000000
# 3 -0.001272 -0.000806 0.020505 -0.000001 0.006314 -0.000001
# 4 0.000000 0.000000 -0.000001 0.199759 -0.000001 0.124275
# 5 0.006566 0.001516 0.006314 -0.000001 0.039284 -0.000001
# 6 0.000000 0.000000 -0.000001 0.124275 -0.000001 0.132567
#
#
# Mechanical properties :
#
#
# Convention : Reuss Voigt Hill
#
# Bulk Modulus (GPa) = 28.57569 38.29147 33.43358
# Shear Modulus (GPa) = 11.20994 23.85241 17.53118
#
# Velocity S-wave (km/s) = 2.22131 3.24021 2.77788
# Velocity P-wave (km/s) = 4.37687 5.55457 5.00051
#
# Compressibility (1/GPa) = 0.03499478
#
# Stress axis : x y z
#
# Youngs Moduli (GPa) = 74.64291 66.78257 48.76787
#
# Poissons Ratio (x) = 0.32474 0.06202
# Poissons Ratio (y) = 0.36296 0.03932
# Poissons Ratio (z) = 0.09493 0.05385
#
# Static dielectric constant tensor:
#      x y z
#    x 1.825620 0.000000 0.024560 
#    y 0.000000 1.896960 0.000000 
#    z 0.024560 0.000000 1.893970 
# 
# From -- ./inp_files/9545.got.cif
#   From: 2010.05.17/outbox.cif.g08.bks.cpg/sg9_5_cif.got.tgz:9545.got - 2010.06.03 20:04:27.
