data_PCOD9134804
_publ_section_title
;
Structure prediction by ZEFSAII (Michael W. Deem and Ramdas Pophale) SiO2 
 PCOD9134804
Probable space group: C C
;
_chemical_formula_sum "Si O2"
_cell_formula_units_Z 32
_cell_length_a 20.279398
_cell_length_b 8.565033
_cell_length_c 13.484795
_cell_angle_alpha 90.000000
_cell_angle_beta 145.554216
_cell_angle_gamma 90.000000
_cell_volume 1324.823222
_symmetry_space_group_name_H-M "C C"
_symmetry_group_IT_number 9
_symmetry_cell_setting 'monoclinic'
loop_
_space_group_symop_operation_xyz
x,y,z
x,-y,1/2+z
1/2+x,1/2+y,z
1/2+x,1/2-y,1/2+z
loop_
_atom_site_type_symbol
_atom_site_label
_atom_site_fract_x
_atom_site_fract_y
_atom_site_fract_z
Si Si1 0.464810 0.501020 0.436750
Si Si2 0.764206 0.176958 0.063750
Si Si3 0.847699 0.460541 0.276859
Si Si4 0.780473 0.735273 0.877177
Si Si5 0.599987 0.602256 0.784719
Si Si6 0.611044 0.948324 0.531247
Si Si7 0.652402 0.294142 0.553661
Si Si8 0.391243 0.436801 0.543747
O O1 0.372011 0.584722 0.251926
O O2 0.526535 0.619951 0.590812
O O3 0.564494 0.406629 0.504885
O O4 0.397117 0.398769 0.434757
O O5 0.770065 0.352029 0.109043
O O6 0.648435 0.099203 0.965379
O O7 0.802889 0.163565 0.998325
O O8 0.846922 0.375284 0.382548
O O9 0.776176 0.619879 0.197400
O O10 0.975402 0.454539 0.388572
O O11 0.727472 0.625231 0.896305
O O12 0.683923 0.828833 0.690662
O O13 0.849712 0.882587 0.008049
O O14 0.530636 0.449041 0.740606
O O15 0.600673 0.718806 0.877755
O O16 0.652221 0.124525 0.599729
#
# Coordination Sequence:
#
# PCOD9134804 Si02
#       8
#     4   4   4   4   4   4   4   4
#     4  10  19  42  68  91 127 182 217 280 346 391
#     4  11  22  43  71  94 132 178 235 275 340 411
#     4  11  24  43  70  98 135 185 227 276 345 413
#     4  11  20  43  67  98 133 182 232 273 344 416
#     4  10  21  38  68  94 127 180 226 271 339 408
#     4  11  25  41  67  99 135 177 224 287 343 403
#     4  12  25  42  67 101 139 176 231 286 344 400
#     4  10  20  36  66  97 124 176 224 284 325 398
#
# _framework density 24.154166
#
# number of rings (size 3 to 8) (size 9 to 14) (size 15 to 20)
#    0.750    0.500    5.000    2.250    3.500    1.000 
#    2.250    3.750    0.000    0.000    0.000    0.000 
#    0.000    0.000    0.000    0.000    0.000    0.000 
#
# Total GULP energy -89192.049054 kJ/mol
# GULP energy per Si atom -5574.503066 kJ/mol
# Density = 2.409919 g / cm^3
# Si number density = 24.154166 Si / 1000 Ang^3
#
#
#
# Elastic Constant Matrix: (Units=GPa)
#
#
# Indices 1 2 3 4 5 6 
#
# 1 159.8767 30.7068 37.5039 0.0000 22.7788 0.0000
# 2 30.7068 86.7413 17.7298 0.0000 15.4519 0.0000
# 3 37.5039 17.7298 66.8820 0.0000 18.0222 0.0000
# 4 0.0000 0.0000 0.0000 25.7006 0.0000 6.8288
# 5 22.7788 15.4519 18.0222 0.0000 47.3936 0.0000
# 6 0.0000 0.0000 0.0000 6.8288 0.0000 31.2601
#
#
#
# Elastic Compliance Matrix: (Units=1/GPa)
#
#
# Indices 1 2 3 4 5 6 
#
# 1 0.007623 -0.001689 -0.003329 0.000000 -0.001847 0.000000
# 2 -0.001689 0.012975 -0.001751 0.000000 -0.002753 0.000000
# 3 -0.003329 -0.001751 0.018604 0.000000 -0.004904 0.000000
# 4 0.000000 0.000000 0.000000 0.041307 0.000000 -0.009024
# 5 -0.001847 -0.002753 -0.004904 0.000000 0.024750 0.000000
# 6 0.000000 0.000000 0.000000 -0.009024 0.000000 0.033961
#
#
# Mechanical properties :
#
#
# Convention : Reuss Voigt Hill
#
# Bulk Modulus (GPa) = 38.96482 53.93121 46.44802
# Shear Modulus (GPa) = 30.99570 36.04150 33.51860
#
# Velocity S-wave (km/s) = 3.58613 3.86702 3.72922
# Velocity P-wave (km/s) = 5.77181 6.50499 6.14934
#
# Compressibility (1/GPa) = 0.02566417
#
# Stress axis : x y z
#
# Youngs Moduli (GPa) = 131.17460 77.07336 53.75192
#
# Poissons Ratio (x) = 0.13019 0.17895
# Poissons Ratio (y) = 0.22157 0.09409
# Poissons Ratio (z) = 0.43671 0.13492
#
# Static dielectric constant tensor:
#      x y z
#    x 1.977400 0.000000 0.051240 
#    y 0.000000 1.929140 0.000000 
#    z 0.051240 0.000000 2.084070 
# 
# From -- ./inp_files/27279.got.cif
#   From: 2010.05.17/outbox.cif.g08.bks.cpg/sg9_14_cif.got.tgz:27279.got - 2010.06.03 20:04:27.
