data_PCOD9134018
_publ_section_title
;
Structure prediction by ZEFSAII (Michael W. Deem and Ramdas Pophale) SiO2 
 PCOD9134018
Probable space group: C C
;
_chemical_formula_sum "Si O2"
_cell_formula_units_Z 32
_cell_length_a 8.722147
_cell_length_b 21.311498
_cell_length_c 14.962134
_cell_angle_alpha 90.000000
_cell_angle_beta 148.482634
_cell_angle_gamma 90.000000
_cell_volume 1453.887331
_symmetry_space_group_name_H-M "C C"
_symmetry_group_IT_number 9
_symmetry_cell_setting 'monoclinic'
loop_
_space_group_symop_operation_xyz
x,y,z
x,-y,1/2+z
1/2+x,1/2+y,z
1/2+x,1/2-y,1/2+z
loop_
_atom_site_type_symbol
_atom_site_label
_atom_site_fract_x
_atom_site_fract_y
_atom_site_fract_z
Si Si1 0.660430 0.967902 0.567870
Si Si2 0.275284 0.735289 0.034605
Si Si3 0.579325 0.434139 0.204588
Si Si4 0.364863 0.478748 0.346827
Si Si5 0.649823 0.619102 0.250741
Si Si6 0.430818 0.871953 0.079739
Si Si7 0.886226 0.467416 0.725658
Si Si8 0.729126 0.674652 0.658865
O O1 0.325091 0.944374 0.404556
O O2 0.843222 0.918683 0.600418
O O3 0.799537 0.973426 0.734752
O O4 0.774228 0.033933 0.581083
O O5 0.540524 0.689699 0.190491
O O6 0.427503 0.796606 0.066743
O O7 0.123052 0.763897 0.049728
O O8 0.035794 0.699686 0.854453
O O9 0.750301 0.478882 0.220406
O O10 0.566890 0.364708 0.155978
O O11 0.214476 0.413314 0.242373
O O12 0.200476 0.509702 0.349773
O O13 0.691926 0.466657 0.539850
O O14 0.794772 0.605158 0.418982
O O15 0.832126 0.595677 0.255718
O O16 0.261947 0.874062 0.091613
#
# Coordination Sequence:
#
# PCOD9134018 Si02
#       8
#     4   4   4   4   4   4   4   4
#     4  11  24  36  62  88 131 158 204 251 316 383
#     4  10  18  34  58  89 116 161 209 255 300 371
#     4  11  21  39  58  93 123 164 199 256 311 368
#     4  12  22  40  57  94 123 167 200 257 315 376
#     4  11  20  35  57  88 119 159 206 251 308 369
#     4  10  20  34  58  86 117 158 213 251 298 369
#     4  11  22  35  60  84 132 155 204 249 315 371
#     4  10  19  35  60  88 121 158 213 260 295 371
#
# _framework density 22.009958999999998
#
# number of rings (size 3 to 8) (size 9 to 14) (size 15 to 20)
#    0.750    0.500    3.750    5.250    0.000    0.000 
#    0.000    0.000    0.000    1.500    9.750    0.000 
#    0.000    0.000    0.000    0.000    0.000    0.000 
#
# Total GULP energy -89071.887482 kJ/mol
# GULP energy per Si atom -5566.992968 kJ/mol
# Density = 2.195986 g / cm^3
# Si number density = 22.009959 Si / 1000 Ang^3
#
#
#
# Elastic Constant Matrix: (Units=GPa)
#
#
# Indices 1 2 3 4 5 6 
#
# 1 73.5759 28.8339 19.9104 0.0048 -16.2398 0.0013
# 2 28.8339 91.6717 13.0229 -0.0036 4.5763 -0.0013
# 3 19.9104 13.0229 93.4655 0.0215 -11.9414 0.0058
# 4 0.0048 -0.0036 0.0215 29.9045 0.0088 -3.1650
# 5 -16.2398 4.5763 -11.9414 0.0088 36.9570 0.0022
# 6 0.0013 -0.0013 0.0058 -3.1650 0.0022 30.2981
#
#
#
# Elastic Compliance Matrix: (Units=1/GPa)
#
#
# Indices 1 2 3 4 5 6 
#
# 1 0.018213 -0.005842 -0.002035 -0.000005 0.008069 -0.000002
# 2 -0.005842 0.013141 -0.001171 0.000005 -0.004573 0.000002
# 3 -0.002035 -0.001171 0.011682 -0.000009 0.003026 -0.000003
# 4 -0.000005 0.000005 -0.000009 0.033814 -0.000014 0.003532
# 5 0.008069 -0.004573 0.003026 -0.000014 0.032148 -0.000005
# 6 -0.000002 0.000002 -0.000003 0.003532 -0.000005 0.033374
#
#
# Mechanical properties :
#
#
# Convention : Reuss Voigt Hill
#
# Bulk Modulus (GPa) = 40.09586 42.47194 41.28390
# Shear Modulus (GPa) = 29.62433 32.56164 31.09298
#
# Velocity S-wave (km/s) = 3.67270 3.85048 3.76264
# Velocity P-wave (km/s) = 6.02011 6.25354 6.13793
#
# Compressibility (1/GPa) = 0.02494023
#
# Stress axis : x y z
#
# Youngs Moduli (GPa) = 54.90713 76.09978 85.59986
#
# Poissons Ratio (x) = 0.44459 0.17418
# Poissons Ratio (y) = 0.32078 0.10020
# Poissons Ratio (z) = 0.11172 0.08908
#
# Static dielectric constant tensor:
#      x y z
#    x 1.852140 0.000000 -0.067680 
#    y 0.000000 1.825560 0.000000 
#    z -0.067680 0.000000 1.913860 
# 
# From -- ./inp_files/11065.got.cif
#   From: 2010.05.17/outbox.cif.g08.bks.cpg/sg9_6_cif.got.tgz:11065.got - 2010.06.03 20:04:27.
