data_PCOD9134074
_publ_section_title
;
Structure prediction by ZEFSAII (Michael W. Deem and Ramdas Pophale) SiO2 
 PCOD9134074
Probable space group: C C
;
_chemical_formula_sum "Si O2"
_cell_formula_units_Z 24
_cell_length_a 31.766380
_cell_length_b 7.475136
_cell_length_c 9.364052
_cell_angle_alpha 90.000000
_cell_angle_beta 155.270325
_cell_angle_gamma 90.000000
_cell_volume 930.202493
_symmetry_space_group_name_H-M "C C"
_symmetry_group_IT_number 9
_symmetry_cell_setting 'monoclinic'
loop_
_space_group_symop_operation_xyz
x,y,z
x,-y,1/2+z
1/2+x,1/2+y,z
1/2+x,1/2-y,1/2+z
loop_
_atom_site_type_symbol
_atom_site_label
_atom_site_fract_x
_atom_site_fract_y
_atom_site_fract_z
Si Si1 0.304220 0.349469 0.451270
Si Si2 0.004943 0.555887 0.458070
Si Si3 0.686539 0.680319 0.850699
Si Si4 0.967284 0.819280 0.751280
Si Si5 0.829805 0.769849 0.074060
Si Si6 0.137019 0.409351 0.126998
O O1 0.421450 0.353070 0.766902
O O2 0.278718 0.560134 0.339951
O O3 0.240532 0.315234 0.398413
O O4 0.259779 0.196098 0.210667
O O5 0.966873 0.396711 0.239466
O O6 0.914646 0.669422 0.245652
O O7 0.075224 0.671247 0.568755
O O8 0.067994 0.447561 0.773567
O O9 0.577270 0.605486 0.553650
O O10 0.663529 0.889976 0.754344
O O11 0.748688 0.638659 0.898822
O O12 0.888129 0.870511 0.385247
#
# Coordination Sequence:
#
# PCOD9134074 Si02
#       6
#     4   4   4   4   4   4
#     4  10  20  38  61  89 117 164 205 246 302 367
#     4  11  19  38  62  88 120 164 201 248 302 367
#     4   9  18  37  62  81 123 160 197 241 311 355
#     4  10  20  39  62  87 125 160 203 254 307 358
#     4  10  21  37  61  92 119 162 206 252 302 365
#     4  10  18  35  62  85 114 162 202 235 300 372
#
# _framework density 25.800836
#
# number of rings (size 3 to 8) (size 9 to 14) (size 15 to 20)
#    0.000    2.000    6.667    0.000    0.000    0.000 
#    9.000    5.000    0.000    0.000    0.000    0.000 
#    0.000    0.000    0.000    0.000    0.000    0.000 
#
# Total GULP energy -66833.908339 kJ/mol
# GULP energy per Si atom -5569.492362 kJ/mol
# Density = 2.574211 g / cm^3
# Si number density = 25.800836 Si / 1000 Ang^3
#
#
#
# Elastic Constant Matrix: (Units=GPa)
#
#
# Indices 1 2 3 4 5 6 
#
# 1 218.4105 20.6310 67.1054 0.0000 83.5956 0.0000
# 2 20.6310 53.2116 10.3231 0.0000 8.1721 0.0000
# 3 67.1054 10.3231 107.0355 0.0000 39.1372 0.0000
# 4 0.0000 0.0000 0.0000 17.1248 0.0000 8.4590
# 5 83.5956 8.1721 39.1372 0.0000 77.0521 0.0000
# 6 0.0000 0.0000 0.0000 8.4590 0.0000 37.4642
#
#
#
# Elastic Compliance Matrix: (Units=1/GPa)
#
#
# Indices 1 2 3 4 5 6 
#
# 1 0.008417 -0.001625 -0.002265 0.000000 -0.007809 0.000000
# 2 -0.001625 0.019579 -0.000927 0.000000 0.000157 0.000000
# 3 -0.002265 -0.000927 0.012180 0.000000 -0.003631 0.000000
# 4 0.000000 0.000000 0.000000 0.065725 0.000000 -0.014840
# 5 -0.007809 0.000157 -0.003631 0.000000 0.023278 0.000000
# 6 0.000000 0.000000 0.000000 -0.014840 0.000000 0.030043
#
#
# Mechanical properties :
#
#
# Convention : Reuss Voigt Hill
#
# Bulk Modulus (GPa) = 32.74220 63.86406 48.30313
# Shear Modulus (GPa) = 27.92760 45.03476 36.48118
#
# Velocity S-wave (km/s) = 3.29360 4.18242 3.76434
# Velocity P-wave (km/s) = 5.21360 6.93758 6.13643
#
# Compressibility (1/GPa) = 0.03054162
#
# Stress axis : x y z
#
# Youngs Moduli (GPa) = 118.81295 51.07636 82.10392
#
# Poissons Ratio (x) = 0.08298 0.18595
# Poissons Ratio (y) = 0.19303 0.07612
# Poissons Ratio (z) = 0.26909 0.04735
#
# Static dielectric constant tensor:
#      x y z
#    x 2.202120 0.000000 0.030060 
#    y 0.000000 2.008740 0.000000 
#    z 0.030060 0.000000 2.212430 
# 
# From -- ./inp_files/8806.got.cif
#   From: 2010.05.17/outbox.cif.g08.bks.cpg/sg9_5_cif.got.tgz:8806.got - 2010.06.03 20:04:27.
