data_PCOD9134026
_publ_section_title
;
Structure prediction by ZEFSAII (Michael W. Deem and Ramdas Pophale) SiO2 
 PCOD9134026
Probable space group: C C
;
_chemical_formula_sum "Si O2"
_cell_formula_units_Z 32
_cell_length_a 22.198027
_cell_length_b 9.655054
_cell_length_c 9.339593
_cell_angle_alpha 90.000000
_cell_angle_beta 36.650002
_cell_angle_gamma 90.000000
_cell_volume 1194.859925
_symmetry_space_group_name_H-M "C C"
_symmetry_group_IT_number 9
_symmetry_cell_setting 'monoclinic'
loop_
_space_group_symop_operation_xyz
x,y,z
x,-y,1/2+z
1/2+x,1/2+y,z
1/2+x,1/2-y,1/2+z
loop_
_atom_site_type_symbol
_atom_site_label
_atom_site_fract_x
_atom_site_fract_y
_atom_site_fract_z
Si Si1 0.594210 0.581977 0.984610
Si Si2 0.409188 0.969280 0.318777
Si Si3 0.448567 0.188774 0.496799
Si Si4 0.269810 0.493757 0.701484
Si Si5 0.427492 0.276832 0.982763
Si Si6 0.731788 0.190084 0.519128
Si Si7 0.952683 0.159555 0.735632
Si Si8 0.709301 0.498822 0.032018
O O1 0.654294 0.619926 0.727945
O O2 0.528848 0.684327 0.203910
O O3 0.509190 0.480006 0.085198
O O4 0.677054 0.508955 0.929263
O O5 0.378098 0.843283 0.483529
O O6 0.322865 0.011264 0.370833
O O7 0.427905 0.087546 0.399979
O O8 0.489045 0.899862 0.053502
O O9 0.348949 0.267517 0.752174
O O10 0.501728 0.302945 0.296020
O O11 0.351874 0.591779 0.626246
O O12 0.221100 0.597393 0.680222
O O13 0.202048 0.408599 0.942229
O O14 0.337116 0.380852 0.488651
O O15 0.456489 0.243426 0.090197
O O16 0.683240 0.341116 0.629254
#
# Coordination Sequence:
#
# PCOD9134026 Si02
#       8
#     4   4   4   4   4   4   4   4
#     4  11  24  38  63  93 134 169 217 267 338 399
#     4  11  22  38  65  95 134 169 220 278 324 386
#     4  10  21  36  60  98 128 164 217 275 326 376
#     4  10  18  34  60  95 121 156 214 281 316 375
#     4  11  20  37  63  95 123 174 220 274 321 390
#     4  10  20  36  61  91 128 167 212 269 329 385
#     4  10  21  35  62  93 127 164 219 274 323 388
#     4  11  22  40  60  94 135 169 213 270 339 395
#
# _framework density 26.781382000000001
#
# number of rings (size 3 to 8) (size 9 to 14) (size 15 to 20)
#    0.000    1.500    5.000    2.250    1.750    0.000 
#    0.000    1.250    2.750    0.000    0.000    0.000 
#    0.000    0.000    0.000    0.000    0.000    0.000 
#
# Total GULP energy -89255.042571 kJ/mol
# GULP energy per Si atom -5578.440161 kJ/mol
# Density = 2.672043 g / cm^3
# Si number density = 26.781382 Si / 1000 Ang^3
#
#
#
# Elastic Constant Matrix: (Units=GPa)
#
#
# Indices 1 2 3 4 5 6 
#
# 1 121.5128 23.8817 33.7011 0.0000 42.4160 0.0000
# 2 23.8817 67.3971 20.2544 0.0000 8.0179 0.0000
# 3 33.7011 20.2544 65.0443 0.0000 32.8995 0.0000
# 4 0.0000 0.0000 0.0000 39.9590 0.0000 23.1414
# 5 42.4160 8.0179 32.8995 0.0000 46.6698 0.0000
# 6 0.0000 0.0000 0.0000 23.1414 0.0000 45.9004
#
#
#
# Elastic Compliance Matrix: (Units=1/GPa)
#
#
# Indices 1 2 3 4 5 6 
#
# 1 0.012692 -0.003181 -0.000043 0.000000 -0.010958 0.000000
# 2 -0.003181 0.017211 -0.005716 0.000000 0.003964 0.000000
# 3 -0.000043 -0.005716 0.025892 0.000000 -0.017232 0.000000
# 4 0.000000 0.000000 0.000000 0.035346 0.000000 -0.017820
# 5 -0.010958 0.003964 -0.017232 0.000000 0.042853 0.000000
# 6 0.000000 0.000000 0.000000 -0.017820 0.000000 0.030771
#
#
# Mechanical properties :
#
#
# Convention : Reuss Voigt Hill
#
# Bulk Modulus (GPa) = 26.37441 45.51429 35.94435
# Shear Modulus (GPa) = 25.60406 38.24696 31.92551
#
# Velocity S-wave (km/s) = 3.09534 3.78314 3.45639
# Velocity P-wave (km/s) = 4.75860 6.00954 5.42028
#
# Compressibility (1/GPa) = 0.03791554
#
# Stress axis : x y z
#
# Youngs Moduli (GPa) = 78.79119 58.10305 38.62205
#
# Poissons Ratio (x) = 0.18481 0.00165
# Poissons Ratio (y) = 0.25062 0.22077
# Poissons Ratio (z) = 0.00336 0.33212
#
# Static dielectric constant tensor:
#      x y z
#    x 2.093030 0.000000 -0.011300 
#    y 0.000000 2.276260 0.000000 
#    z -0.011300 0.000000 2.138610 
# 
# From -- ./inp_files/10651.got.cif
#   From: 2010.05.17/outbox.cif.g08.bks.cpg/sg9_6_cif.got.tgz:10651.got - 2010.06.03 20:04:27.
