data_PCOD9134428
_publ_section_title
;
Structure prediction by ZEFSAII (Michael W. Deem and Ramdas Pophale) SiO2 
 PCOD9134428
Probable space group: C C
;
_chemical_formula_sum "Si O2"
_cell_formula_units_Z 32
_cell_length_a 7.588896
_cell_length_b 19.254832
_cell_length_c 8.451878
_cell_angle_alpha 90.000000
_cell_angle_beta 104.089679
_cell_angle_gamma 90.000000
_cell_volume 1197.858795
_symmetry_space_group_name_H-M "C C"
_symmetry_group_IT_number 9
_symmetry_cell_setting 'monoclinic'
loop_
_space_group_symop_operation_xyz
x,y,z
x,-y,1/2+z
1/2+x,1/2+y,z
1/2+x,1/2-y,1/2+z
loop_
_atom_site_type_symbol
_atom_site_label
_atom_site_fract_x
_atom_site_fract_y
_atom_site_fract_z
Si Si1 0.139530 0.405831 0.610570
Si Si2 0.125493 0.036631 0.495286
Si Si3 0.688017 0.043294 0.463387
Si Si4 0.247121 0.170509 0.667285
Si Si5 0.488085 0.762581 0.453561
Si Si6 0.694253 0.182368 0.612028
Si Si7 0.076606 0.097276 0.148234
Si Si8 0.497281 0.713912 0.910492
O O1 0.095257 0.471243 0.489867
O O2 0.109528 0.427448 0.784158
O O3 0.357712 0.401294 0.630482
O O4 0.044379 0.332910 0.556416
O O5 0.907672 0.039742 0.485433
O O6 0.154024 0.066369 0.326789
O O7 0.235226 0.088958 0.632701
O O8 0.154318 0.955496 0.532688
O O9 0.674607 0.099512 0.599074
O O10 0.152456 0.209098 0.500778
O O11 0.426047 0.209144 0.769509
O O12 0.117584 0.189396 0.788089
O O13 0.334890 0.716975 0.511706
O O14 0.515735 0.208793 0.478773
O O15 0.797864 0.196180 0.800750
O O16 0.092479 0.173154 0.078145
#
# Coordination Sequence:
#
# PCOD9134428 Si02
#       8
#     4   4   4   4   4   4   4   4
#     4  10  22  36  61  89 124 158 208 252 307 363
#     4  10  19  36  58  89 117 158 202 255 298 368
#     4  10  19  36  60  89 118 163 203 248 302 372
#     4  10  20  37  66  87 123 160 214 248 308 371
#     4  10  20  38  62  94 119 166 205 256 302 374
#     4  10  20  37  66  85 122 159 210 245 313 369
#     4  10  22  36  61  88 122 159 208 251 310 367
#     4  10  20  38  58  89 115 163 202 255 298 372
#
# _framework density 26.714333
#
# number of rings (size 3 to 8) (size 9 to 14) (size 15 to 20)
#    0.000    2.000    2.500    3.000    7.000    0.000 
#    2.250    5.000    0.000    0.000    0.000    0.000 
#    0.000    0.000    0.000    0.000    0.000    0.000 
#
# Total GULP energy -89387.233447 kJ/mol
# GULP energy per Si atom -5586.702090 kJ/mol
# Density = 2.665353 g / cm^3
# Si number density = 26.714333 Si / 1000 Ang^3
#
#
#
# Elastic Constant Matrix: (Units=GPa)
#
#
# Indices 1 2 3 4 5 6 
#
# 1 90.4171 2.6727 9.6192 0.0000 13.5332 0.0000
# 2 2.6727 102.7769 -13.6325 0.0000 -0.0121 0.0000
# 3 9.6192 -13.6325 69.9056 0.0000 -7.4738 0.0000
# 4 0.0000 0.0000 0.0000 50.9266 0.0000 2.3035
# 5 13.5332 -0.0121 -7.4738 0.0000 25.9299 0.0000
# 6 0.0000 0.0000 0.0000 2.3035 0.0000 21.4104
#
#
#
# Elastic Compliance Matrix: (Units=1/GPa)
#
#
# Indices 1 2 3 4 5 6 
#
# 1 0.012443 -0.000672 -0.002618 0.000000 -0.007249 0.000000
# 2 -0.000672 0.010033 0.002153 0.000000 0.000976 0.000000
# 3 -0.002618 0.002153 0.015716 0.000000 0.005897 0.000000
# 4 0.000000 0.000000 0.000000 0.019732 0.000000 -0.002123
# 5 -0.007249 0.000976 0.005897 0.000000 0.044049 0.000000
# 6 0.000000 0.000000 0.000000 -0.002123 0.000000 0.046935
#
#
# Mechanical properties :
#
#
# Convention : Reuss Voigt Hill
#
# Bulk Modulus (GPa) = 27.84064 28.93537 28.38801
# Shear Modulus (GPa) = 30.64585 37.28273 33.96429
#
# Velocity S-wave (km/s) = 3.39066 3.73984 3.56952
# Velocity P-wave (km/s) = 5.07671 5.43170 5.25721
#
# Compressibility (1/GPa) = 0.03591871
#
# Stress axis : x y z
#
# Youngs Moduli (GPa) = 80.36451 99.67091 63.63058
#
# Poissons Ratio (x) = 0.06695 0.16660
# Poissons Ratio (y) = 0.05398 -0.13702
# Poissons Ratio (z) = 0.21042 -0.21463
#
# Static dielectric constant tensor:
#      x y z
#    x 2.339040 0.000000 0.028780 
#    y 0.000000 2.059550 0.000000 
#    z 0.028780 0.000000 2.070890 
# 
# From -- ./inp_files/8067.got.cif
#   From: 2010.05.17/outbox.cif.g08.bks.cpg/sg9_5_cif.got.tgz:8067.got - 2010.06.03 20:04:27.
