data_PCOD9134484
_publ_section_title
;
Structure prediction by ZEFSAII (Michael W. Deem and Ramdas Pophale) SiO2 
 PCOD9134484
Probable space group: C C
;
_chemical_formula_sum "Si O2"
_cell_formula_units_Z 32
_cell_length_a 18.117495
_cell_length_b 5.656718
_cell_length_c 13.052986
_cell_angle_alpha 90.000000
_cell_angle_beta 66.205985
_cell_angle_gamma 90.000000
_cell_volume 1224.036891
_symmetry_space_group_name_H-M "C C"
_symmetry_group_IT_number 9
_symmetry_cell_setting 'monoclinic'
loop_
_space_group_symop_operation_xyz
x,y,z
x,-y,1/2+z
1/2+x,1/2+y,z
1/2+x,1/2-y,1/2+z
loop_
_atom_site_type_symbol
_atom_site_label
_atom_site_fract_x
_atom_site_fract_y
_atom_site_fract_z
Si Si1 0.128760 0.833282 0.662860
Si Si2 0.056313 0.878495 0.029349
Si Si3 0.166785 0.147678 0.821926
Si Si4 0.789892 0.121452 0.555393
Si Si5 0.551046 0.978361 0.354512
Si Si6 0.347643 0.133133 0.762060
Si Si7 0.379866 0.374476 0.214650
Si Si8 0.373198 0.124121 0.500569
O O1 0.196216 0.661073 0.577949
O O2 0.052473 0.702142 0.757341
O O3 0.100516 0.051463 0.609000
O O4 0.174867 0.948901 0.732179
O O5 0.962234 0.878956 0.104408
O O6 0.068810 0.647603 0.953604
O O7 0.092984 0.080420 0.936636
O O8 0.131991 0.376407 0.787838
O O9 0.251868 0.159448 0.827338
O O10 0.809503 0.114898 0.667847
O O11 0.833395 0.368044 0.495708
O O12 0.824638 0.865561 0.501147
O O13 0.466392 0.111301 0.413021
O O14 0.380925 0.385225 0.778586
O O15 0.371117 0.126288 0.627129
O O16 0.372993 0.870174 0.780262
#
# Coordination Sequence:
#
# PCOD9134484 Si02
#       8
#     4   4   4   4   4   4   4   4
#     4  11  25  43  69 109 151 193 252 319 383 454
#     4  11  25  43  69 106 147 190 250 316 380 452
#     4  11  23  42  71 100 139 196 245 307 381 454
#     4  10  19  39  66 101 135 195 233 295 373 453
#     4  11  23  42  71 105 143 201 254 312 384 460
#     4  10  19  36  68  96 129 185 235 282 359 438
#     4  10  19  39  66  96 134 188 229 287 364 438
#     4  10  19  36  68  99 134 188 242 288 368 451
#
# _framework density 26.143003
#
# number of rings (size 3 to 8) (size 9 to 14) (size 15 to 20)
#    0.000    1.500    5.000    3.000    3.500    1.000 
#    0.000    1.250    0.000    0.000    0.000    0.000 
#    0.000    0.000    0.000    0.000    0.000    0.000 
#
# Total GULP energy -89429.926557 kJ/mol
# GULP energy per Si atom -5589.370410 kJ/mol
# Density = 2.608350 g / cm^3
# Si number density = 26.143003 Si / 1000 Ang^3
#
#
#
# Elastic Constant Matrix: (Units=GPa)
#
#
# Indices 1 2 3 4 5 6 
#
# 1 123.2967 49.4604 48.1257 -0.0003 -27.8456 -0.0004
# 2 49.4604 204.4926 56.3391 -0.0010 -24.1592 -0.0015
# 3 48.1257 56.3391 84.3564 -0.0001 -7.7695 -0.0002
# 4 -0.0003 -0.0010 -0.0001 36.4654 -0.0001 -13.4414
# 5 -27.8456 -24.1592 -7.7695 -0.0001 35.6198 -0.0002
# 6 -0.0004 -0.0015 -0.0002 -13.4414 -0.0002 42.0651
#
#
#
# Elastic Compliance Matrix: (Units=1/GPa)
#
#
# Indices 1 2 3 4 5 6 
#
# 1 0.012500 -0.000367 -0.006132 0.000000 0.008185 0.000000
# 2 -0.000367 0.006398 -0.003766 0.000000 0.003231 0.000000
# 3 -0.006132 -0.003766 0.017544 0.000000 -0.003522 0.000000
# 4 0.000000 0.000000 0.000000 0.031084 0.000000 0.009933
# 5 0.008185 0.003231 -0.003522 0.000000 0.035897 0.000001
# 6 0.000000 0.000000 0.000000 0.009933 0.000001 0.026947
#
#
# Mechanical properties :
#
#
# Convention : Reuss Voigt Hill
#
# Bulk Modulus (GPa) = 62.84871 79.99956 71.42413
# Shear Modulus (GPa) = 32.00932 40.04477 36.02704
#
# Velocity S-wave (km/s) = 3.50293 3.91801 3.71627
# Velocity P-wave (km/s) = 6.36029 7.15087 6.76713
#
# Compressibility (1/GPa) = 0.01591123
#
# Stress axis : x y z
#
# Youngs Moduli (GPa) = 80.00101 156.29191 56.99934
#
# Poissons Ratio (x) = 0.05733 0.34954
# Poissons Ratio (y) = 0.02934 0.21468
# Poissons Ratio (z) = 0.49059 0.58865
#
# Static dielectric constant tensor:
#      x y z
#    x 2.005450 0.000000 0.036710 
#    y 0.000000 2.118560 0.000000 
#    z 0.036710 0.000000 2.148830 
# 
# From -- ./inp_files/26342.got.cif
#   From: 2010.05.17/outbox.cif.g08.bks.cpg/sg9_14_cif.got.tgz:26342.got - 2010.06.03 20:04:27.
