data_PCOD9134726
_publ_section_title
;
Structure prediction by ZEFSAII (Michael W. Deem and Ramdas Pophale) SiO2 
 PCOD9134726
Probable space group: C C
;
_chemical_formula_sum "Si O2"
_cell_formula_units_Z 32
_cell_length_a 8.258012
_cell_length_b 12.711972
_cell_length_c 12.828698
_cell_angle_alpha 90.000000
_cell_angle_beta 77.498108
_cell_angle_gamma 90.000000
_cell_volume 1314.768687
_symmetry_space_group_name_H-M "C C"
_symmetry_group_IT_number 9
_symmetry_cell_setting 'monoclinic'
loop_
_space_group_symop_operation_xyz
x,y,z
x,-y,1/2+z
1/2+x,1/2+y,z
1/2+x,1/2-y,1/2+z
loop_
_atom_site_type_symbol
_atom_site_label
_atom_site_fract_x
_atom_site_fract_y
_atom_site_fract_z
Si Si1 0.398320 0.897453 0.534570
Si Si2 0.254638 0.122014 0.846736
Si Si3 0.123498 0.749668 0.108897
Si Si4 0.153091 0.580233 0.546551
Si Si5 0.756085 0.938572 0.254970
Si Si6 0.140141 0.977095 0.160454
Si Si7 0.868457 0.895037 0.458208
Si Si8 0.648312 0.830144 0.826871
O O1 0.382699 0.913355 0.414389
O O2 0.475133 0.787108 0.555412
O O3 0.516385 0.987468 0.564218
O O4 0.214973 0.918788 0.602287
O O5 0.240953 0.046179 0.751551
O O6 0.294648 0.242997 0.812684
O O7 0.063101 0.122104 0.915006
O O8 0.169639 0.870982 0.089730
O O9 0.062407 0.723637 0.236087
O O10 0.281381 0.678420 0.056047
O O11 0.179715 0.614941 0.662423
O O12 0.321635 0.515981 0.491732
O O13 0.105710 0.655878 0.456625
O O14 0.773198 0.875579 0.361032
O O15 0.945903 0.973828 0.206478
O O16 0.671226 0.050714 0.288022
#
# Coordination Sequence:
#
# PCOD9134726 Si02
#       8
#     4   4   4   4   4   4   4   4
#     4  11  23  38  64  96 126 163 212 269 315 391
#     4  10  23  40  62  93 126 163 213 261 320 387
#     4  10  22  42  63  93 129 167 212 266 317 390
#     4  10  21  36  67  90 125 164 207 254 317 387
#     4  10  19  40  65  92 122 171 206 258 326 383
#     4  10  24  41  65  91 131 168 212 268 326 380
#     4   9  19  38  63  86 123 164 206 256 313 378
#     4  10  21  39  65  87 124 166 206 258 314 382
#
# _framework density 24.338881000000001
#
# number of rings (size 3 to 8) (size 9 to 14) (size 15 to 20)
#    0.000    2.000    2.500    0.750    5.250    1.000 
#    0.000    0.000   11.000    0.000    0.000    0.000 
#    0.000    0.000    0.000    0.000    0.000    0.000 
#
# Total GULP energy -89236.275752 kJ/mol
# GULP energy per Si atom -5577.267234 kJ/mol
# Density = 2.428348 g / cm^3
# Si number density = 24.338881 Si / 1000 Ang^3
#
#
#
# Elastic Constant Matrix: (Units=GPa)
#
#
# Indices 1 2 3 4 5 6 
#
# 1 67.0153 20.8373 31.3925 0.0000 13.5831 0.0000
# 2 20.8373 28.9244 9.3938 0.0000 -6.7615 0.0000
# 3 31.3925 9.3938 144.2444 0.0000 36.5015 0.0000
# 4 0.0000 0.0000 0.0000 30.2708 0.0000 -5.2187
# 5 13.5831 -6.7615 36.5015 0.0000 39.9433 0.0000
# 6 0.0000 0.0000 0.0000 -5.2187 0.0000 12.7551
#
#
#
# Elastic Compliance Matrix: (Units=1/GPa)
#
#
# Indices 1 2 3 4 5 6 
#
# 1 0.023379 -0.018700 -0.001375 0.000000 -0.009859 0.000000
# 2 -0.018700 0.054031 -0.004387 0.000000 0.019515 0.000000
# 3 -0.001375 -0.004387 0.009870 0.000000 -0.009294 0.000000
# 4 0.000000 0.000000 0.000000 0.035542 0.000000 0.014542
# 5 -0.009859 0.019515 -0.009294 0.000000 0.040185 0.000000
# 6 0.000000 0.000000 0.000000 0.014542 0.000000 0.084349
#
#
# Mechanical properties :
#
#
# Convention : Reuss Voigt Hill
#
# Bulk Modulus (GPa) = 26.07275 40.38125 33.22700
# Shear Modulus (GPa) = 16.17771 28.49790 22.33780
#
# Velocity S-wave (km/s) = 2.58095 3.42552 3.03278
# Velocity P-wave (km/s) = 4.42915 5.68092 5.09364
#
# Compressibility (1/GPa) = 0.03835422
#
# Stress axis : x y z
#
# Youngs Moduli (GPa) = 42.77325 18.50776 101.32103
#
# Poissons Ratio (x) = 0.34610 0.13936
# Poissons Ratio (y) = 0.79988 0.44451
# Poissons Ratio (z) = 0.05883 0.08120
#
# Static dielectric constant tensor:
#      x y z
#    x 1.967750 0.000000 -0.005570 
#    y 0.000000 1.931160 0.000000 
#    z -0.005570 0.000000 2.033630 
# 
# From -- ./inp_files/14602.got.cif
#   From: 2010.05.17/outbox.cif.g08.bks.cpg/sg9_8_cif.got.tgz:14602.got - 2010.06.03 20:04:27.
