data_PCOD9134208
_publ_section_title
;
Structure prediction by ZEFSAII (Michael W. Deem and Ramdas Pophale) SiO2 
 PCOD9134208
Probable space group: C C
;
_chemical_formula_sum "Si O2"
_cell_formula_units_Z 20
_cell_length_a 20.815881
_cell_length_b 9.355567
_cell_length_c 14.178199
_cell_angle_alpha 90.000000
_cell_angle_beta 162.960461
_cell_angle_gamma 90.000000
_cell_volume 809.096617
_symmetry_space_group_name_H-M "C C"
_symmetry_group_IT_number 9
_symmetry_cell_setting 'monoclinic'
loop_
_space_group_symop_operation_xyz
x,y,z
x,-y,1/2+z
1/2+x,1/2+y,z
1/2+x,1/2-y,1/2+z
loop_
_atom_site_type_symbol
_atom_site_label
_atom_site_fract_x
_atom_site_fract_y
_atom_site_fract_z
Si Si1 0.835940 0.440154 0.292760
Si Si2 0.751266 0.043903 0.589909
Si Si3 0.915362 0.761887 0.754691
Si Si4 0.462523 0.813075 0.835040
Si Si5 0.723104 0.601452 0.312275
O O1 0.988633 0.329151 0.449636
O O2 0.835742 0.581997 0.228022
O O3 0.857433 0.497709 0.429753
O O4 0.610105 0.351881 0.981090
O O5 0.555673 0.103102 0.377791
O O6 0.819231 0.171358 0.613731
O O7 0.742212 0.884886 0.538241
O O8 0.975910 0.036795 0.969760
O O9 0.809997 0.651386 0.534106
O O10 0.673493 0.748592 0.185858
#
# Coordination Sequence:
#
# PCOD9134208 Si02
#       5
#     4   4   4   4   4
#     4  11  23  40  69 101 136 179 227 286 334 410
#     4   9  19  37  66  95 133 180 218 285 330 400
#     4  11  23  38  69 103 130 179 234 267 351 407
#     4  10  18  41  64  91 144 171 217 286 333 386
#     4   9  21  40  68  96 133 183 220 276 346 399
#
# _framework density 24.718927999999998
#
# number of rings (size 3 to 8) (size 9 to 14) (size 15 to 20)
#    1.200    0.800    2.000    1.200    5.600    0.000 
#    0.000    0.000   22.000    0.000    0.000    0.000 
#    0.000    0.000    0.000    0.000    0.000    0.000 
#
# Total GULP energy -55780.044766 kJ/mol
# GULP energy per Si atom -5578.004477 kJ/mol
# Density = 2.466267 g / cm^3
# Si number density = 24.718928 Si / 1000 Ang^3
#
#
#
# Elastic Constant Matrix: (Units=GPa)
#
#
# Indices 1 2 3 4 5 6 
#
# 1 153.9063 82.3687 44.1674 0.0000 4.0369 0.0000
# 2 82.3687 167.8879 33.5859 0.0000 6.4793 0.0000
# 3 44.1674 33.5859 46.6641 0.0000 -5.3681 0.0000
# 4 0.0000 0.0000 0.0000 24.2722 0.0000 10.2469
# 5 4.0369 6.4793 -5.3681 0.0000 33.1866 0.0000
# 6 0.0000 0.0000 0.0000 10.2469 0.0000 75.4989
#
#
#
# Elastic Compliance Matrix: (Units=1/GPa)
#
#
# Indices 1 2 3 4 5 6 
#
# 1 0.010711 -0.003637 -0.007733 0.000000 -0.001844 0.000000
# 2 -0.003637 0.008356 -0.002760 0.000000 -0.001635 0.000000
# 3 -0.007733 -0.002760 0.031491 0.000000 0.006573 0.000000
# 4 0.000000 0.000000 0.000000 0.043704 0.000000 -0.005932
# 5 -0.001844 -0.001635 0.006573 0.000000 0.031739 0.000000
# 6 0.000000 0.000000 0.000000 -0.005932 0.000000 0.014050
#
#
# Mechanical properties :
#
#
# Convention : Reuss Voigt Hill
#
# Bulk Modulus (GPa) = 44.84395 76.52249 60.68322
# Shear Modulus (GPa) = 28.45046 40.48062 34.46554
#
# Velocity S-wave (km/s) = 3.39626 4.05116 3.73808
# Velocity P-wave (km/s) = 5.79313 7.27371 6.57522
#
# Compressibility (1/GPa) = 0.02229955
#
# Stress axis : x y z
#
# Youngs Moduli (GPa) = 93.35786 119.67454 31.75498
#
# Poissons Ratio (x) = 0.43528 0.24555
# Poissons Ratio (y) = 0.33956 0.08763
# Poissons Ratio (z) = 0.72190 0.33027
#
# Static dielectric constant tensor:
#      x y z
#    x 2.016090 0.000000 0.020180 
#    y 0.000000 1.949560 0.000000 
#    z 0.020180 0.000000 2.097600 
# 
# From -- ./inp_files/6654.got.cif
#   From: 2010.05.17/outbox.cif.g08.bks.cpg/sg9_4_cif.got.tgz:6654.got - 2010.06.03 20:04:27.
