data_PCOD9134806
_publ_section_title
;
Structure prediction by ZEFSAII (Michael W. Deem and Ramdas Pophale) SiO2 
 PCOD9134806
Probable space group: C C
;
_chemical_formula_sum "Si O2"
_cell_formula_units_Z 28
_cell_length_a 11.427829
_cell_length_b 7.497287
_cell_length_c 23.630650
_cell_angle_alpha 90.000000
_cell_angle_beta 146.849530
_cell_angle_gamma 90.000000
_cell_volume 1107.142566
_symmetry_space_group_name_H-M "C C"
_symmetry_group_IT_number 9
_symmetry_cell_setting 'monoclinic'
loop_
_space_group_symop_operation_xyz
x,y,z
x,-y,1/2+z
1/2+x,1/2+y,z
1/2+x,1/2-y,1/2+z
loop_
_atom_site_type_symbol
_atom_site_label
_atom_site_fract_x
_atom_site_fract_y
_atom_site_fract_z
Si Si1 0.519730 0.747936 0.043170
Si Si2 0.445083 0.910327 0.746765
Si Si3 0.656439 0.706597 0.317819
Si Si4 0.875553 0.268261 0.105896
Si Si5 0.065653 0.343049 0.575389
Si Si6 0.568949 0.608490 0.869940
Si Si7 0.175513 0.390474 0.737838
O O1 0.705964 0.606539 0.126467
O O2 0.362946 0.721179 0.034373
O O3 0.618662 0.945580 0.090647
O O4 0.400495 0.753680 0.935051
O O5 0.455600 0.791281 0.806563
O O6 0.601725 0.805270 0.766081
O O7 0.541245 0.107249 0.789065
O O8 0.557962 0.665850 0.216409
O O9 0.601858 0.537676 0.333986
O O10 0.663758 0.243135 0.058229
O O11 0.982794 0.464740 0.150356
O O12 0.811129 0.334387 0.481516
O O13 0.170099 0.283074 0.677271
O O14 0.396468 0.496997 0.836716
#
# Coordination Sequence:
#
# PCOD9134806 Si02
#       7
#     4   4   4   4   4   4   4
#     4  10  22  44  64 104 145 176 238 295 339 422
#     4  11  23  43  67  99 140 182 231 291 347 416
#     4  10  23  42  69  99 137 185 231 286 348 415
#     4  10  19  42  69  95 142 175 230 293 331 416
#     4  10  21  41  70  98 136 189 225 288 358 409
#     4  11  22  45  65  98 142 179 235 278 355 412
#     4  10  22  41  68  97 138 182 224 299 330 418
#
# _framework density 25.290330000000001
#
# number of rings (size 3 to 8) (size 9 to 14) (size 15 to 20)
#    0.000    1.714    4.286    0.000    0.000    8.000 
#   10.286    0.000    0.000    0.000    0.000    0.000 
#    0.000    0.000    0.000    0.000    0.000    0.000 
#
# Total GULP energy -78056.865454 kJ/mol
# GULP energy per Si atom -5575.490390 kJ/mol
# Density = 2.523277 g / cm^3
# Si number density = 25.290330 Si / 1000 Ang^3
#
#
#
# Elastic Constant Matrix: (Units=GPa)
#
#
# Indices 1 2 3 4 5 6 
#
# 1 107.6726 -0.8463 29.4522 0.0000 21.0615 0.0000
# 2 -0.8463 69.7310 -7.1459 0.0000 5.8412 0.0000
# 3 29.4522 -7.1459 114.9498 0.0000 16.9733 0.0000
# 4 0.0000 0.0000 0.0000 27.0732 0.0000 2.6665
# 5 21.0615 5.8412 16.9733 0.0000 47.6390 0.0000
# 6 0.0000 0.0000 0.0000 2.6665 0.0000 36.1797
#
#
#
# Elastic Compliance Matrix: (Units=1/GPa)
#
#
# Indices 1 2 3 4 5 6 
#
# 1 0.010649 0.000245 -0.002126 0.000000 -0.003981 0.000000
# 2 0.000245 0.014661 0.001193 0.000000 -0.002331 0.000000
# 3 -0.002126 0.001193 0.009712 0.000000 -0.002667 0.000000
# 4 0.000000 0.000000 0.000000 0.037207 0.000000 -0.002742
# 5 -0.003981 -0.002331 -0.002667 0.000000 0.023987 0.000000
# 6 0.000000 0.000000 0.000000 -0.002742 0.000000 0.027842
#
#
# Mechanical properties :
#
#
# Convention : Reuss Voigt Hill
#
# Bulk Modulus (GPa) = 29.72018 37.25260 33.48639
# Shear Modulus (GPa) = 36.58980 40.23794 38.41387
#
# Velocity S-wave (km/s) = 3.80780 3.99311 3.90155
# Velocity P-wave (km/s) = 5.57759 6.00182 5.79359
#
# Compressibility (1/GPa) = 0.03364717
#
# Stress axis : x y z
#
# Youngs Moduli (GPa) = 93.90168 68.20680 102.96560
#
# Poissons Ratio (x) = -0.01670 0.21886
# Poissons Ratio (y) = -0.02300 -0.12282
# Poissons Ratio (z) = 0.19959 -0.08136
#
# Static dielectric constant tensor:
#      x y z
#    x 2.138570 0.000000 -0.023180 
#    y 0.000000 1.955010 0.000000 
#    z -0.023180 0.000000 2.080680 
# 
# From -- ./inp_files/29882.got.cif
#   From: 2010.05.17/outbox.cif.g08.bks.cpg/sg9_15_cif.got.tgz:29882.got - 2010.06.03 20:04:27.
