data_PCOD9134481
_publ_section_title
;
Structure prediction by ZEFSAII (Michael W. Deem and Ramdas Pophale) SiO2 
 PCOD9134481
Probable space group: C C
;
_chemical_formula_sum "Si O2"
_cell_formula_units_Z 32
_cell_length_a 26.817187
_cell_length_b 12.419276
_cell_length_c 14.947360
_cell_angle_alpha 90.000000
_cell_angle_beta 14.286039
_cell_angle_gamma 90.000000
_cell_volume 1228.439694
_symmetry_space_group_name_H-M "C C"
_symmetry_group_IT_number 9
_symmetry_cell_setting 'monoclinic'
loop_
_space_group_symop_operation_xyz
x,y,z
x,-y,1/2+z
1/2+x,1/2+y,z
1/2+x,1/2-y,1/2+z
loop_
_atom_site_type_symbol
_atom_site_label
_atom_site_fract_x
_atom_site_fract_y
_atom_site_fract_z
Si Si1 0.360100 0.797826 0.095270
Si Si2 0.367094 0.018168 0.008062
Si Si3 0.288793 0.669676 0.380356
Si Si4 0.858815 0.985386 0.142080
Si Si5 0.897141 0.392970 0.268862
Si Si6 0.814755 0.818239 0.357261
Si Si7 0.396474 0.911104 0.645949
Si Si8 0.877331 0.101281 0.938879
O O1 0.217564 0.738200 0.415329
O O2 0.425071 0.710471 0.909427
O O3 0.569636 0.830255 0.781496
O O4 0.278189 0.901251 0.186203
O O5 0.611915 0.999167 0.576174
O O6 0.308798 0.069247 0.016509
O O7 0.313527 0.090134 0.187988
O O8 0.428693 0.581964 0.087255
O O9 0.365576 0.767022 0.306894
O O10 0.134164 0.601898 0.709356
O O11 0.931613 0.006301 0.914951
O O12 0.900202 0.873048 0.118241
O O13 0.833396 0.478864 0.303804
O O14 0.135444 0.408152 0.860503
O O15 0.850195 0.691273 0.287510
O O16 0.910891 0.876113 0.276011
#
# Coordination Sequence:
#
# PCOD9134481 Si02
#       8
#     4   4   4   4   4   4   4   4
#     4  10  19  39  67  89 128 168 218 267 320 407
#     4   9  18  37  59  88 119 169 207 253 331 388
#     4  10  19  39  64  87 121 170 217 261 316 400
#     4   8  19  36  61  87 124 166 220 258 313 402
#     4  11  20  40  67  90 125 179 217 263 333 402
#     4  11  21  41  63  97 135 169 212 287 337 383
#     4  11  23  40  64  93 133 166 215 274 333 391
#     4  10  19  36  67  95 117 177 222 255 335 395
#
# _framework density 26.049305
#
# number of rings (size 3 to 8) (size 9 to 14) (size 15 to 20)
#    0.000    2.000    2.500    3.000    0.000    0.000 
#   15.750    0.000    2.750    0.000    0.000    0.000 
#    0.000    0.000    0.000    0.000    0.000    0.000 
#
# Total GULP energy -89391.758886 kJ/mol
# GULP energy per Si atom -5586.984930 kJ/mol
# Density = 2.599002 g / cm^3
# Si number density = 26.049305 Si / 1000 Ang^3
#
#
#
# Elastic Constant Matrix: (Units=GPa)
#
#
# Indices 1 2 3 4 5 6 
#
# 1 121.7926 16.0190 29.1433 -0.0013 13.3304 0.0007
# 2 16.0190 89.0526 8.5990 -0.0013 3.4672 0.0008
# 3 29.1433 8.5990 93.2067 -0.0081 17.0550 0.0041
# 4 -0.0013 -0.0013 -0.0081 33.5154 0.0056 9.4409
# 5 13.3304 3.4672 17.0550 0.0056 27.6533 -0.0031
# 6 0.0007 0.0008 0.0041 9.4409 -0.0031 34.2625
#
#
#
# Elastic Compliance Matrix: (Units=1/GPa)
#
#
# Indices 1 2 3 4 5 6 
#
# 1 0.009239 -0.001333 -0.002233 0.000000 -0.002909 0.000000
# 2 -0.001333 0.011541 -0.000564 0.000000 -0.000456 0.000000
# 3 -0.002233 -0.000564 0.012703 0.000005 -0.006687 -0.000003
# 4 0.000000 0.000000 0.000005 0.032348 -0.000011 -0.008913
# 5 -0.002909 -0.000456 -0.006687 -0.000011 0.041746 0.000008
# 6 0.000000 0.000000 -0.000003 -0.008913 0.000008 0.031642
#
#
# Mechanical properties :
#
#
# Convention : Reuss Voigt Hill
#
# Bulk Modulus (GPa) = 39.64917 45.73050 42.68983
# Shear Modulus (GPa) = 32.07432 35.77228 33.92330
#
# Velocity S-wave (km/s) = 3.51278 3.70976 3.61262
# Velocity P-wave (km/s) = 5.63087 5.99527 5.81593
#
# Compressibility (1/GPa) = 0.02522121
#
# Stress axis : x y z
#
# Youngs Moduli (GPa) = 108.23877 86.64475 78.72244
#
# Poissons Ratio (x) = 0.11550 0.17582
# Poissons Ratio (y) = 0.14428 0.04444
# Poissons Ratio (z) = 0.24175 0.04891
#
# Static dielectric constant tensor:
#      x y z
#    x 2.091490 0.000000 -0.062970 
#    y 0.000000 2.025030 0.000000 
#    z -0.062970 0.000000 2.161430 
# 
# From -- ./inp_files/24495.got.cif
#   From: 2010.05.17/outbox.cif.g08.bks.cpg/sg9_13_cif.got.tgz:24495.got - 2010.06.03 20:04:27.
