data_PCOD9134021
_publ_section_title
;
Structure prediction by ZEFSAII (Michael W. Deem and Ramdas Pophale) SiO2 
 PCOD9134021
Probable space group: C C
;
_chemical_formula_sum "Si O2"
_cell_formula_units_Z 32
_cell_length_a 15.489250
_cell_length_b 18.852038
_cell_length_c 9.083411
_cell_angle_alpha 90.000000
_cell_angle_beta 25.499847
_cell_angle_gamma 90.000000
_cell_volume 1141.877670
_symmetry_space_group_name_H-M "C C"
_symmetry_group_IT_number 9
_symmetry_cell_setting 'monoclinic'
loop_
_space_group_symop_operation_xyz
x,y,z
x,-y,1/2+z
1/2+x,1/2+y,z
1/2+x,1/2-y,1/2+z
loop_
_atom_site_type_symbol
_atom_site_label
_atom_site_fract_x
_atom_site_fract_y
_atom_site_fract_z
Si Si1 0.683270 0.406463 0.490330
Si Si2 0.998985 0.327209 0.656036
Si Si3 0.798257 0.270541 0.505379
Si Si4 0.736050 0.205218 0.061347
Si Si5 0.216434 0.553873 0.660980
Si Si6 0.681918 0.470727 0.189782
Si Si7 0.193716 0.336575 0.962950
Si Si8 0.942804 0.074363 0.778270
O O1 0.722957 0.333370 0.513893
O O2 0.440530 0.421192 0.867713
O O3 0.748923 0.417827 0.218024
O O4 0.787570 0.469932 0.424066
O O5 0.055713 0.316657 0.737316
O O6 0.792708 0.286169 0.949880
O O7 0.158061 0.275880 0.326731
O O8 0.050476 0.405207 0.514350
O O9 0.860333 0.208944 0.293240
O O10 0.974925 0.302890 0.331255
O O11 0.915623 0.150260 0.746126
O O12 0.711028 0.180013 0.266432
O O13 0.191864 0.585891 0.535014
O O14 0.236625 0.469521 0.622690
O O15 0.556239 0.524979 0.487055
O O16 0.558113 0.426979 0.256720
#
# Coordination Sequence:
#
# PCOD9134021 Si02
#       8
#     4   4   4   4   4   4   4   4
#     4  10  18  35  61  86 117 158 210 257 307 373
#     4  11  22  37  60  90 119 155 205 259 309 364
#     4  11  22  40  60  81 119 168 206 248 313 387
#     4  12  23  37  59  91 123 156 203 264 313 358
#     4   9  19  38  62  88 118 162 209 250 306 386
#     4   8  17  31  56  90 115 152 205 256 304 373
#     4  11  23  38  57  87 119 159 204 253 311 376
#     4  10  18  34  59  87 120 160 204 249 309 379
#
# _framework density 28.024017000000001
#
# number of rings (size 3 to 8) (size 9 to 14) (size 15 to 20)
#    0.000    2.000    0.000    8.250    0.000    1.000 
#    0.000    1.250    0.000    9.000    0.000    0.000 
#    0.000    0.000    0.000    0.000    0.000    0.000 
#
# Total GULP energy -89491.270781 kJ/mol
# GULP energy per Si atom -5593.204424 kJ/mol
# Density = 2.796023 g / cm^3
# Si number density = 28.024017 Si / 1000 Ang^3
#
#
#
# Elastic Constant Matrix: (Units=GPa)
#
#
# Indices 1 2 3 4 5 6 
#
# 1 140.2377 42.1079 35.3689 -0.0207 23.6360 0.0040
# 2 42.1079 163.0952 10.4808 -0.0432 -1.5907 0.0165
# 3 35.3689 10.4808 47.8808 -0.0314 16.6153 0.0211
# 4 -0.0207 -0.0432 -0.0314 42.1037 0.0188 -5.1437
# 5 23.6360 -1.5907 16.6153 0.0188 33.2293 -0.0129
# 6 0.0040 0.0165 0.0211 -5.1437 -0.0129 57.1059
#
#
#
# Elastic Compliance Matrix: (Units=1/GPa)
#
#
# Indices 1 2 3 4 5 6 
#
# 1 0.009895 -0.002262 -0.005244 0.000001 -0.004524 0.000001
# 2 -0.002262 0.006775 -0.000584 0.000004 0.002225 -0.000001
# 3 -0.005244 -0.000584 0.028557 0.000022 -0.010577 -0.000010
# 4 0.000001 0.000004 0.000022 0.024015 -0.000024 0.002163
# 5 -0.004524 0.002225 -0.010577 -0.000024 0.038707 0.000010
# 6 0.000001 -0.000001 -0.000010 0.002163 0.000010 0.017706
#
#
# Mechanical properties :
#
#
# Convention : Reuss Voigt Hill
#
# Bulk Modulus (GPa) = 34.42797 58.56988 46.49892
# Shear Modulus (GPa) = 32.99927 44.03818 38.51873
#
# Velocity S-wave (km/s) = 3.43525 3.96845 3.71143
# Velocity P-wave (km/s) = 5.29588 6.47637 5.91565
#
# Compressibility (1/GPa) = 0.02904615
#
# Stress axis : x y z
#
# Youngs Moduli (GPa) = 101.06037 147.61007 35.01736
#
# Poissons Ratio (x) = 0.33387 0.18364
# Poissons Ratio (y) = 0.22858 0.02046
# Poissons Ratio (z) = 0.52998 0.08626
#
# Static dielectric constant tensor:
#      x y z
#    x 2.116360 0.000000 -0.002460 
#    y 0.000000 2.198030 0.000080 
#    z -0.002460 0.000080 2.456100 
# 
# From -- ./inp_files/10042.got.cif
#   From: 2010.05.17/outbox.cif.g08.bks.cpg/sg9_6_cif.got.tgz:10042.got - 2010.06.03 20:04:27.
