data_PCOD9134335
_publ_section_title
;
Structure prediction by ZEFSAII (Michael W. Deem and Ramdas Pophale) SiO2 
 PCOD9134335
Probable space group: C C
;
_chemical_formula_sum "Si O2"
_cell_formula_units_Z 20
_cell_length_a 7.854784
_cell_length_b 13.359197
_cell_length_c 7.961315
_cell_angle_alpha 90.000000
_cell_angle_beta 63.088503
_cell_angle_gamma 90.000000
_cell_volume 744.940268
_symmetry_space_group_name_H-M "C C"
_symmetry_group_IT_number 9
_symmetry_cell_setting 'monoclinic'
loop_
_space_group_symop_operation_xyz
x,y,z
x,-y,1/2+z
1/2+x,1/2+y,z
1/2+x,1/2-y,1/2+z
loop_
_atom_site_type_symbol
_atom_site_label
_atom_site_fract_x
_atom_site_fract_y
_atom_site_fract_z
Si Si1 0.626280 0.917717 0.239410
Si Si2 0.553096 0.549161 0.500363
Si Si3 0.960461 0.831221 0.511597
Si Si4 0.777510 0.610464 0.094951
Si Si5 0.585144 0.139317 0.373431
O O1 0.573355 0.035318 0.278748
O O2 0.497397 0.873613 0.448282
O O3 0.564887 0.886635 0.079696
O O4 0.854444 0.902573 0.149684
O O5 0.472147 0.446389 0.446705
O O6 0.677722 0.615136 0.319327
O O7 0.700689 0.499890 0.566259
O O8 0.159244 0.819180 0.523013
O O9 0.953796 0.735580 0.395902
O O10 0.796169 0.828222 0.722303
#
# Coordination Sequence:
#
# PCOD9134335 Si02
#       5
#     4   4   4   4   4
#     4  11  20  35  61  85 116 153 194 235 295 338
#     4   9  19  36  53  87 111 149 191 241 273 352
#     4   9  21  35  60  86 116 148 202 234 280 348
#     4  10  19  34  59  82 116 149 193 231 292 334
#     4  11  21  38  61  88 115 153 196 241 284 348
#
# _framework density 26.847791000000001
#
# number of rings (size 3 to 8) (size 9 to 14) (size 15 to 20)
#    1.200    0.800    2.000    2.400    2.800    0.000 
#    0.000    0.000    4.400    4.800    0.000    0.000 
#    0.000    0.000    0.000    0.000    0.000    0.000 
#
# Total GULP energy -55769.012619 kJ/mol
# GULP energy per Si atom -5576.901262 kJ/mol
# Density = 2.678668 g / cm^3
# Si number density = 26.847791 Si / 1000 Ang^3
#
#
#
# Elastic Constant Matrix: (Units=GPa)
#
#
# Indices 1 2 3 4 5 6 
#
# 1 79.1756 4.0872 58.1830 0.0000 -30.5074 0.0000
# 2 4.0872 78.2049 50.4976 0.0000 -14.2679 0.0000
# 3 58.1830 50.4976 211.8425 0.0000 -60.8873 0.0000
# 4 0.0000 0.0000 0.0000 36.7319 0.0000 0.5101
# 5 -30.5074 -14.2679 -60.8873 0.0000 47.5129 0.0000
# 6 0.0000 0.0000 0.0000 0.5101 0.0000 23.6506
#
#
#
# Elastic Compliance Matrix: (Units=1/GPa)
#
#
# Indices 1 2 3 4 5 6 
#
# 1 0.018034 0.002635 -0.003207 0.000000 0.008261 0.000000
# 2 0.002635 0.015499 -0.004107 0.000000 0.001083 0.000000
# 3 -0.003207 -0.004107 0.008919 0.000000 0.008137 0.000000
# 4 0.000000 0.000000 0.000000 0.027232 0.000000 -0.000587
# 5 0.008261 0.001083 0.008137 0.000000 0.037104 0.000000
# 6 0.000000 0.000000 0.000000 -0.000587 0.000000 0.042295
#
#
# Mechanical properties :
#
#
# Convention : Reuss Voigt Hill
#
# Bulk Modulus (GPa) = 30.21621 66.08430 48.15026
# Shear Modulus (GPa) = 29.50344 38.67609 34.08976
#
# Velocity S-wave (km/s) = 3.31858 3.79960 3.56721
# Velocity P-wave (km/s) = 5.09540 6.62700 5.91102
#
# Compressibility (1/GPa) = 0.03309481
#
# Stress axis : x y z
#
# Youngs Moduli (GPa) = 55.45138 64.52145 112.11986
#
# Poissons Ratio (x) = -0.17004 0.35955
# Poissons Ratio (y) = -0.14613 0.46047
# Poissons Ratio (z) = 0.17782 0.26498
#
# Static dielectric constant tensor:
#      x y z
#    x 2.162550 0.000000 0.057470 
#    y 0.000000 2.112710 0.000000 
#    z 0.057470 0.000000 2.077060 
# 
# From -- ./inp_files/5046.got.cif
#   From: 2010.05.17/outbox.cif.g08.bks.cpg/sg9_3_cif.got.tgz:5046.got - 2010.06.03 20:04:27.
