data_PCOD9134986
_publ_section_title
;
Structure prediction by ZEFSAII (Michael W. Deem and Ramdas Pophale) SiO2 
 PCOD9134986
Probable space group: C C
;
_chemical_formula_sum "Si O2"
_cell_formula_units_Z 32
_cell_length_a 8.865998
_cell_length_b 14.655140
_cell_length_c 14.826210
_cell_angle_alpha 90.000000
_cell_angle_beta 53.273218
_cell_angle_gamma 90.000000
_cell_volume 1544.006836
_symmetry_space_group_name_H-M "C C"
_symmetry_group_IT_number 9
_symmetry_cell_setting 'monoclinic'
loop_
_space_group_symop_operation_xyz
x,y,z
x,-y,1/2+z
1/2+x,1/2+y,z
1/2+x,1/2-y,1/2+z
loop_
_atom_site_type_symbol
_atom_site_label
_atom_site_fract_x
_atom_site_fract_y
_atom_site_fract_z
Si Si1 0.626060 0.044258 0.830310
Si Si2 0.418559 0.825583 0.531041
Si Si3 0.912043 0.189452 0.684780
Si Si4 0.070448 0.174417 0.031042
Si Si5 0.769485 0.310548 0.184781
Si Si6 0.264409 0.044258 0.830311
Si Si7 0.820216 0.859898 0.781818
Si Si8 0.167238 0.140102 0.281817
O O1 0.797581 0.095970 0.719384
O O2 0.447354 0.040002 0.828191
O O3 0.682112 0.943826 0.842065
O O4 0.572257 0.108952 0.933450
O O5 0.473128 0.735188 0.567763
O O6 0.267540 0.800443 0.508005
O O7 0.301147 0.882253 0.647875
O O8 0.762243 0.264743 0.777180
O O9 0.088936 0.180718 0.686608
O O10 0.942436 0.264811 0.067764
O O11 0.954190 0.117747 0.147877
O O12 0.111931 0.108951 0.933452
O O13 0.814740 0.404030 0.219385
O O14 0.734484 0.235257 0.277182
O O15 0.184849 0.943826 0.842063
O O16 0.959882 0.846278 0.815662
#
# Coordination Sequence:
#
# PCOD9134986 Si02
#       8
#     4   4   4   4   4   4   4   4
#     4  11  20  36  60  82 108 146 182 222 278 322
#     4   8  19  38  56  78 111 143 182 228 266 320
#     4  10  20  36  56  82 112 142 181 226 270 322
#     4   8  19  38  56  78 111 143 182 228 266 320
#     4  10  20  36  56  82 112 142 181 226 270 322
#     4  11  20  36  60  82 108 146 182 222 278 322
#     4   9  19  38  56  80 111 141 181 226 268 320
#     4   9  19  38  56  80 111 141 181 226 268 320
#
# _framework density 20.725297999999999
#
# number of rings (size 3 to 8) (size 9 to 14) (size 15 to 20)
#    1.500    1.000    0.000    3.000    0.000    2.000 
#    4.500    0.000    0.000    0.000    0.000    0.000 
#    0.000    0.000    0.000    0.000    0.000    0.000 
#
# Total GULP energy -89116.050056 kJ/mol
# GULP energy per Si atom -5569.753129 kJ/mol
# Density = 2.067813 g / cm^3
# Si number density = 20.725298 Si / 1000 Ang^3
#
#
#
# Elastic Constant Matrix: (Units=GPa)
#
#
# Indices 1 2 3 4 5 6 
#
# 1 73.8133 8.4166 0.0955 0.0000 0.0004 0.0000
# 2 8.4166 71.5536 12.4463 0.0000 0.0001 0.0000
# 3 0.0955 12.4463 34.4817 0.0000 0.0007 0.0000
# 4 0.0000 0.0000 0.0000 20.2431 0.0000 0.0005
# 5 0.0004 0.0001 0.0007 0.0000 14.9810 0.0000
# 6 0.0000 0.0000 0.0000 0.0005 0.0000 25.9544
#
#
#
# Elastic Compliance Matrix: (Units=1/GPa)
#
#
# Indices 1 2 3 4 5 6 
#
# 1 0.013743 -0.001718 0.000582 0.000000 0.000000 0.000000
# 2 -0.001718 0.015126 -0.005455 0.000000 0.000000 0.000000
# 3 0.000582 -0.005455 0.030968 0.000000 -0.000001 0.000000
# 4 0.000000 0.000000 0.000000 0.049399 0.000000 -0.000001
# 5 0.000000 0.000000 -0.000001 0.000000 0.066751 0.000000
# 6 0.000000 0.000000 0.000000 -0.000001 0.000000 0.038529
#
#
# Mechanical properties :
#
#
# Convention : Reuss Voigt Hill
#
# Bulk Modulus (GPa) = 21.43363 24.64060 23.03711
# Shear Modulus (GPa) = 20.55489 22.82840 21.69164
#
# Velocity S-wave (km/s) = 3.15267 3.32245 3.23867
# Velocity P-wave (km/s) = 4.85969 5.16073 5.01247
#
# Compressibility (1/GPa) = 0.04665565
#
# Stress axis : x y z
#
# Youngs Moduli (GPa) = 72.76536 66.10922 32.29105
#
# Poissons Ratio (x) = 0.11356 -0.01879
# Poissons Ratio (y) = 0.12499 0.17615
# Poissons Ratio (z) = -0.04235 0.36064
#
# Static dielectric constant tensor:
#      x y z
#    x 1.692040 0.000000 0.000000 
#    y 0.000000 1.731780 0.000000 
#    z 0.000000 0.000000 1.821820 
# 
# From -- ./inp_files/29326.got.cif
#   From: 2010.05.17/outbox.cif.g08.bks.cpg/sg9_15_cif.got.tgz:29326.got - 2010.06.03 20:04:27.
