data_PCOD9134391
_publ_section_title
;
Structure prediction by ZEFSAII (Michael W. Deem and Ramdas Pophale) SiO2 
 PCOD9134391
Probable space group: C C
;
_chemical_formula_sum "Si O2"
_cell_formula_units_Z 28
_cell_length_a 12.539846
_cell_length_b 9.097339
_cell_length_c 9.506071
_cell_angle_alpha 90.000000
_cell_angle_beta 73.553693
_cell_angle_gamma 90.000000
_cell_volume 1040.075693
_symmetry_space_group_name_H-M "C C"
_symmetry_group_IT_number 9
_symmetry_cell_setting 'monoclinic'
loop_
_space_group_symop_operation_xyz
x,y,z
x,-y,1/2+z
1/2+x,1/2+y,z
1/2+x,1/2-y,1/2+z
loop_
_atom_site_type_symbol
_atom_site_label
_atom_site_fract_x
_atom_site_fract_y
_atom_site_fract_z
Si Si1 0.550440 0.525993 0.807900
Si Si2 0.624629 0.773338 0.938638
Si Si3 0.965887 0.731810 0.941096
Si Si4 0.161764 0.427632 0.507968
Si Si5 0.838003 0.168880 0.737817
Si Si6 0.264789 0.190876 0.661667
Si Si7 0.424089 0.919661 0.881717
O O1 0.536237 0.354590 0.835324
O O2 0.440790 0.583437 0.771806
O O3 0.661599 0.576437 0.685095
O O4 0.565472 0.613452 0.953751
O O5 0.547586 0.853572 0.847791
O O6 0.745485 0.741244 0.828287
O O7 0.635664 0.901822 0.046891
O O8 0.047013 0.658873 0.028226
O O9 0.867777 0.811467 0.064070
O O10 0.931271 0.592188 0.863019
O O11 0.227756 0.409135 0.334678
O O12 0.240808 0.338354 0.582192
O O13 0.846179 0.333527 0.802162
O O14 0.371726 0.118044 0.554564
#
# Coordination Sequence:
#
# PCOD9134391 Si02
#       7
#     4   4   4   4   4   4   4
#     4   9  20  39  56  85 127 149 199 254 304 355
#     4   8  18  35  57  87 114 154 203 237 303 362
#     4  11  21  38  62  86 117 159 204 254 305 359
#     4  10  19  35  62  83 116 165 200 237 306 363
#     4  10  21  38  57  86 121 156 195 254 302 360
#     4   9  18  37  61  81 131 155 196 258 297 354
#     4   9  19  36  61  84 116 164 199 242 307 363
#
# _framework density 26.921118
#
# number of rings (size 3 to 8) (size 9 to 14) (size 15 to 20)
#    0.857    1.714    1.429    0.000    2.000    3.429 
#    0.000   11.429    0.000    0.000    0.000    0.000 
#    0.000    0.000    0.000    0.000    0.000    0.000 
#
# Total GULP energy -78240.650987 kJ/mol
# GULP energy per Si atom -5588.617928 kJ/mol
# Density = 2.685984 g / cm^3
# Si number density = 26.921118 Si / 1000 Ang^3
#
#
#
# Elastic Constant Matrix: (Units=GPa)
#
#
# Indices 1 2 3 4 5 6 
#
# 1 75.3197 31.7546 24.8908 0.0000 -6.6341 0.0000
# 2 31.7546 180.2177 11.5065 0.0000 -1.3935 0.0000
# 3 24.8908 11.5065 81.0213 0.0000 -22.9967 0.0000
# 4 0.0000 0.0000 0.0000 27.7166 0.0000 0.5191
# 5 -6.6341 -1.3935 -22.9967 0.0000 40.7917 0.0000
# 6 0.0000 0.0000 0.0000 0.5191 0.0000 36.7819
#
#
#
# Elastic Compliance Matrix: (Units=1/GPa)
#
#
# Indices 1 2 3 4 5 6 
#
# 1 0.015819 -0.002499 -0.004523 0.000000 -0.000062 0.000000
# 2 -0.002499 0.005998 -0.000168 0.000000 -0.000296 0.000000
# 3 -0.004523 -0.000168 0.016126 0.000000 0.008350 0.000000
# 4 0.000000 0.000000 0.000000 0.036089 0.000000 -0.000509
# 5 -0.000062 -0.000296 0.008350 0.000000 0.029202 0.000000
# 6 0.000000 0.000000 0.000000 -0.000509 0.000000 0.027194
#
#
# Mechanical properties :
#
#
# Convention : Reuss Voigt Hill
#
# Bulk Modulus (GPa) = 42.43963 52.54028 47.48995
# Shear Modulus (GPa) = 32.75206 38.95184 35.85195
#
# Velocity S-wave (km/s) = 3.49175 3.80792 3.65326
# Velocity P-wave (km/s) = 5.66172 6.23638 5.95599
#
# Compressibility (1/GPa) = 0.02356288
#
# Stress axis : x y z
#
# Youngs Moduli (GPa) = 63.21318 166.73231 62.01292
#
# Poissons Ratio (x) = 0.41669 0.28047
# Poissons Ratio (y) = 0.15798 0.01043
# Poissons Ratio (z) = 0.28589 0.02803
#
# Static dielectric constant tensor:
#      x y z
#    x 2.081340 0.000000 0.069270 
#    y 0.000000 2.100130 0.000000 
#    z 0.069270 0.000000 2.167050 
# 
# From -- ./inp_files/17825.got.cif
#   From: 2010.05.17/outbox.cif.g08.bks.cpg/sg9_9_cif.got.tgz:17825.got - 2010.06.03 20:04:27.
