data_PCOD9134327
_publ_section_title
;
Structure prediction by ZEFSAII (Michael W. Deem and Ramdas Pophale) SiO2 
 PCOD9134327
Probable space group: C C
;
_chemical_formula_sum "Si O2"
_cell_formula_units_Z 32
_cell_length_a 8.267896
_cell_length_b 21.717191
_cell_length_c 11.998920
_cell_angle_alpha 90.000000
_cell_angle_beta 132.227230
_cell_angle_gamma 90.000000
_cell_volume 1595.354643
_symmetry_space_group_name_H-M "C C"
_symmetry_group_IT_number 9
_symmetry_cell_setting 'monoclinic'
loop_
_space_group_symop_operation_xyz
x,y,z
x,-y,1/2+z
1/2+x,1/2+y,z
1/2+x,1/2-y,1/2+z
loop_
_atom_site_type_symbol
_atom_site_label
_atom_site_fract_x
_atom_site_fract_y
_atom_site_fract_z
Si Si1 0.740450 0.064896 0.698060
Si Si2 0.911524 0.056118 0.363105
Si Si3 0.757208 0.688398 0.209852
Si Si4 0.855638 0.444780 0.202509
Si Si5 0.393654 0.810878 0.217975
Si Si6 0.542608 0.687891 0.355353
Si Si7 0.527049 0.067250 0.362473
Si Si8 0.889273 0.187658 0.851870
O O1 0.560540 0.060194 0.712898
O O2 0.613908 0.078581 0.526255
O O3 0.901188 0.121727 0.797393
O O4 0.858897 0.998926 0.753714
O O5 0.731077 0.057133 0.375877
O O6 0.143089 0.044925 0.529076
O O7 0.918959 0.123851 0.314638
O O8 0.652877 0.683871 0.285021
O O9 0.894074 0.751972 0.276297
O O10 0.894039 0.626258 0.258598
O O11 0.567760 0.693169 0.030812
O O12 0.842234 0.376693 0.250618
O O13 0.890772 0.503693 0.296178
O O14 0.389623 0.748241 0.286581
O O15 0.644587 0.812653 0.291379
O O16 0.229786 0.806510 0.036716
#
# Coordination Sequence:
#
# PCOD9134327 Si02
#       8
#     4   4   4   4   4   4   4   4
#     4  10  21  37  58  80 107 144 187 225 264 319
#     4  10  22  37  55  82 113 142 178 224 275 326
#     4  11  20  34  58  82 108 142 183 226 269 317
#     4   9  20  38  55  78 108 142 185 226 263 320
#     4   9  17  32  55  81 105 139 187 227 258 308
#     4  10  19  34  57  82 111 143 183 227 268 316
#     4  11  22  36  56  82 111 142 178 224 277 325
#     4  10  19  34  58  83 105 140 191 229 258 311
#
# _framework density 20.058235
#
# number of rings (size 3 to 8) (size 9 to 14) (size 15 to 20)
#    0.000    2.000    0.000    6.750    0.000    6.000 
#    0.000    5.000    0.000    0.000    0.000    0.000 
#    0.000    0.000    0.000    0.000    0.000    0.000 
#
# Total GULP energy -89281.679257 kJ/mol
# GULP energy per Si atom -5580.104954 kJ/mol
# Density = 2.001258 g / cm^3
# Si number density = 20.058235 Si / 1000 Ang^3
#
#
#
# Elastic Constant Matrix: (Units=GPa)
#
#
# Indices 1 2 3 4 5 6 
#
# 1 7.3974 17.7879 2.5343 0.0000 -0.7734 0.0000
# 2 17.7879 182.6557 81.4576 0.0000 18.5144 0.0000
# 3 2.5343 81.4576 117.9089 0.0000 13.9946 0.0000
# 4 0.0000 0.0000 0.0000 43.3399 0.0000 4.6976
# 5 -0.7734 18.5144 13.9946 0.0000 9.2241 0.0000
# 6 0.0000 0.0000 0.0000 4.6976 0.0000 13.2682
#
#
#
# Elastic Compliance Matrix: (Units=1/GPa)
#
#
# Indices 1 2 3 4 5 6 
#
# 1 0.216784 -0.032309 0.009522 0.000000 0.068582 0.000000
# 2 -0.032309 0.013434 -0.006177 0.000000 -0.020302 0.000000
# 3 0.009522 -0.006177 0.013388 0.000000 -0.007116 0.000000
# 4 0.000000 0.000000 0.000000 0.023994 0.000000 -0.008495
# 5 0.068582 -0.020302 -0.007116 0.000000 0.165708 0.000000
# 6 0.000000 0.000000 0.000000 -0.008495 0.000000 0.078376
#
#
# Mechanical properties :
#
#
# Convention : Reuss Voigt Hill
#
# Bulk Modulus (GPa) = 5.38569 56.83573 31.11071
# Shear Modulus (GPa) = 7.91760 26.91193 17.41476
#
# Velocity S-wave (km/s) = 1.98894 3.66688 2.94974
# Velocity P-wave (km/s) = 2.82230 6.80624 5.21010
#
# Compressibility (1/GPa) = 0.18567708
#
# Stress axis : x y z
#
# Youngs Moduli (GPa) = 4.61289 74.44020 74.69262
#
# Poissons Ratio (x) = 2.40512 -0.71120
# Poissons Ratio (y) = 0.14904 0.46134
# Poissons Ratio (z) = -0.04392 0.45979
#
# Static dielectric constant tensor:
#      x y z
#    x 1.721710 0.000000 -0.000420 
#    y 0.000000 1.794900 0.000000 
#    z -0.000420 0.000000 1.664640 
# 
# From -- ./inp_files/5602.got.cif
#   From: 2010.05.17/outbox.cif.g08.bks.cpg/sg9_3_cif.got.tgz:5602.got - 2010.06.03 20:04:27.
