data_PCOD9134444
_publ_section_title
;
Structure prediction by ZEFSAII (Michael W. Deem and Ramdas Pophale) SiO2 
 PCOD9134444
Probable space group: C C
;
_chemical_formula_sum "Si O2"
_cell_formula_units_Z 32
_cell_length_a 5.579234
_cell_length_b 22.430971
_cell_length_c 12.142204
_cell_angle_alpha 90.000000
_cell_angle_beta 72.001329
_cell_angle_gamma 90.000000
_cell_volume 1445.206061
_symmetry_space_group_name_H-M "C C"
_symmetry_group_IT_number 9
_symmetry_cell_setting 'monoclinic'
loop_
_space_group_symop_operation_xyz
x,y,z
x,-y,1/2+z
1/2+x,1/2+y,z
1/2+x,1/2-y,1/2+z
loop_
_atom_site_type_symbol
_atom_site_label
_atom_site_fract_x
_atom_site_fract_y
_atom_site_fract_z
Si Si1 0.621430 0.457731 0.677170
Si Si2 0.145851 0.515071 0.617344
Si Si3 0.048496 0.422618 0.461837
Si Si4 0.218760 0.770614 0.360382
Si Si5 0.606019 0.866606 0.217719
Si Si6 0.829147 0.179049 0.057108
Si Si7 0.499024 0.663034 0.267948
Si Si8 0.434325 0.257475 0.188648
O O1 0.373374 0.491476 0.664920
O O2 0.567603 0.405531 0.773715
O O3 0.858119 0.495573 0.690487
O O4 0.763303 0.427846 0.549932
O O5 0.176166 0.482239 0.494639
O O6 0.127897 0.586257 0.617005
O O7 0.078373 0.408696 0.329677
O O8 0.191508 0.368347 0.501080
O O9 0.391476 0.816347 0.265803
O O10 0.355752 0.708638 0.369100
O O11 0.106811 0.805843 0.477356
O O12 0.992976 0.756082 0.310103
O O13 0.845572 0.823909 0.179439
O O14 0.675062 0.240302 0.083301
O O15 0.826731 0.157874 0.182957
O O16 0.736251 0.704028 0.200013
#
# Coordination Sequence:
#
# PCOD9134444 Si02
#       8
#     4   4   4   4   4   4   4   4
#     4  10  20  40  64  91 125 173 214 278 316 386
#     4  10  24  39  66  94 129 169 228 279 317 380
#     4  10  21  37  70  90 125 176 225 264 327 388
#     4  10  23  34  63  94 125 168 215 271 327 405
#     4  11  23  40  64  95 131 174 223 271 332 397
#     4  11  19  37  63  96 127 165 221 266 328 397
#     4  10  19  36  60  90 128 161 215 265 336 383
#     4  10  21  35  62  92 130 166 203 276 327 396
#
# _framework density 22.14217
#
# number of rings (size 3 to 8) (size 9 to 14) (size 15 to 20)
#    0.750    1.000    3.750    0.750    3.500    0.000 
#    0.000    0.000   13.750    0.000    0.000    0.000 
#    0.000    0.000    0.000    0.000    0.000    0.000 
#
# Total GULP energy -89075.070798 kJ/mol
# GULP energy per Si atom -5567.191925 kJ/mol
# Density = 2.209177 g / cm^3
# Si number density = 22.142170 Si / 1000 Ang^3
#
#
#
# Elastic Constant Matrix: (Units=GPa)
#
#
# Indices 1 2 3 4 5 6 
#
# 1 77.8568 16.6327 -7.3248 0.0000 0.5898 0.0000
# 2 16.6327 51.9891 -11.9464 0.0000 -7.1386 0.0000
# 3 -7.3248 -11.9464 15.7506 0.0000 2.2299 0.0000
# 4 0.0000 0.0000 0.0000 22.3609 0.0000 1.1068
# 5 0.5898 -7.1386 2.2299 0.0000 25.4112 0.0000
# 6 0.0000 0.0000 0.0000 1.1068 0.0000 32.5895
#
#
#
# Elastic Compliance Matrix: (Units=1/GPa)
#
#
# Indices 1 2 3 4 5 6 
#
# 1 0.014042 -0.003845 0.003861 0.000000 -0.001745 0.000000
# 2 -0.003845 0.025007 0.016375 0.000000 0.005677 0.000000
# 3 0.003861 0.016375 0.078036 0.000000 -0.002337 0.000000
# 4 0.000000 0.000000 0.000000 0.044796 0.000000 -0.001521
# 5 -0.001745 0.005677 -0.002337 0.000000 0.041193 0.000000
# 6 0.000000 0.000000 0.000000 -0.001521 0.000000 0.030736
#
#
# Mechanical properties :
#
#
# Convention : Reuss Voigt Hill
#
# Bulk Modulus (GPa) = 6.67250 15.59107 11.13179
# Shear Modulus (GPa) = 19.92158 25.95464 22.93811
#
# Velocity S-wave (km/s) = 3.00277 3.42743 3.22210
# Velocity P-wave (km/s) = 3.87843 4.76651 4.34522
#
# Compressibility (1/GPa) = 0.14986883
#
# Stress axis : x y z
#
# Youngs Moduli (GPa) = 71.21530 39.98845 12.81456
#
# Poissons Ratio (x) = 0.15375 -0.04948
# Poissons Ratio (y) = 0.27380 -0.20984
# Poissons Ratio (z) = -0.27497 -0.65483
#
# Static dielectric constant tensor:
#      x y z
#    x 1.882300 0.000000 -0.021870 
#    y 0.000000 1.849110 0.000000 
#    z -0.021870 0.000000 1.832640 
# 
# From -- ./inp_files/13759.got.cif
#   From: 2010.05.17/outbox.cif.g08.bks.cpg/sg9_7_cif.got.tgz:13759.got - 2010.06.03 20:04:27.
