data_PCOD9134416
_publ_section_title
;
Structure prediction by ZEFSAII (Michael W. Deem and Ramdas Pophale) SiO2 
 PCOD9134416
Probable space group: C C
;
_chemical_formula_sum "Si O2"
_cell_formula_units_Z 32
_cell_length_a 9.429586
_cell_length_b 21.039183
_cell_length_c 9.172898
_cell_angle_alpha 90.000000
_cell_angle_beta 47.593899
_cell_angle_gamma 90.000000
_cell_volume 1343.723972
_symmetry_space_group_name_H-M "C C"
_symmetry_group_IT_number 9
_symmetry_cell_setting 'monoclinic'
loop_
_space_group_symop_operation_xyz
x,y,z
x,-y,1/2+z
1/2+x,1/2+y,z
1/2+x,1/2-y,1/2+z
loop_
_atom_site_type_symbol
_atom_site_label
_atom_site_fract_x
_atom_site_fract_y
_atom_site_fract_z
Si Si1 0.913770 0.935158 0.663820
Si Si2 0.334705 0.452207 0.400741
Si Si3 0.666737 0.550676 0.479591
Si Si4 0.960837 0.353175 0.837313
Si Si5 0.832234 0.866077 0.150127
Si Si6 0.572449 0.726359 0.663149
Si Si7 0.601364 0.689465 0.977153
Si Si8 0.534992 0.168291 0.614525
O O1 0.797202 0.940835 0.593534
O O2 0.970625 0.862995 0.644227
O O3 0.813102 0.976261 0.858631
O O4 0.110386 0.977352 0.498110
O O5 0.562551 0.436634 0.209332
O O6 0.239761 0.406691 0.347151
O O7 0.875525 0.581056 0.332961
O O8 0.521291 0.591449 0.478591
O O9 0.768609 0.308678 0.982308
O O10 0.035544 0.360204 0.950711
O O11 0.090073 0.302768 0.659271
O O12 0.913420 0.800705 0.162315
O O13 0.685386 0.858804 0.123308
O O14 0.540772 0.702198 0.851186
O O15 0.581875 0.757133 0.065347
O O16 0.818633 0.665310 0.823195
#
# Coordination Sequence:
#
# PCOD9134416 Si02
#       8
#     4   4   4   4   4   4   4   4
#     4   9  16  34  59  81 102 146 198 225 272 340
#     4   8  16  31  58  77 102 143 191 228 269 334
#     4   7  17  30  56  75  99 142 189 217 275 328
#     4   9  16  31  48  77 101 146 173 226 267 342
#     4   8  16  32  48  74 101 142 177 226 280 319
#     4   9  16  29  53  65 103 141 178 210 282 317
#     4  10  19  36  53  80 111 148 187 229 283 344
#     4  10  20  31  55  79 115 144 181 233 296 326
#
# _framework density 23.814416000000001
#
# number of rings (size 3 to 8) (size 9 to 14) (size 15 to 20)
#    1.500    1.500    1.250    0.750    0.000    2.000 
#    6.750    0.000    5.500    4.500    0.000    0.000 
#    0.000    0.000    0.000    0.000    0.000    0.000 
#
# Total GULP energy -89254.316960 kJ/mol
# GULP energy per Si atom -5578.394810 kJ/mol
# Density = 2.376021 g / cm^3
# Si number density = 23.814416 Si / 1000 Ang^3
#
#
#
# Elastic Constant Matrix: (Units=GPa)
#
#
# Indices 1 2 3 4 5 6 
#
# 1 157.7123 39.4754 27.4500 0.0000 0.9757 0.0000
# 2 39.4754 98.2166 12.9466 0.0000 14.0695 0.0000
# 3 27.4500 12.9466 57.2398 0.0000 -5.1599 0.0000
# 4 0.0000 0.0000 0.0000 26.2866 0.0000 9.2108
# 5 0.9757 14.0695 -5.1599 0.0000 28.6948 0.0000
# 6 0.0000 0.0000 0.0000 9.2108 0.0000 27.2396
#
#
#
# Elastic Compliance Matrix: (Units=1/GPa)
#
#
# Indices 1 2 3 4 5 6 
#
# 1 0.007530 -0.002716 -0.002948 0.000000 0.000546 0.000000
# 2 -0.002716 0.012465 -0.002093 0.000000 -0.006396 0.000000
# 3 -0.002948 -0.002093 0.019780 0.000000 0.004684 0.000000
# 4 0.000000 0.000000 0.000000 0.043155 0.000000 -0.014593
# 5 0.000546 -0.006396 0.004684 0.000000 0.038809 0.000000
# 6 0.000000 0.000000 0.000000 -0.014593 0.000000 0.041646
#
#
# Mechanical properties :
#
#
# Convention : Reuss Voigt Hill
#
# Bulk Modulus (GPa) = 41.21892 52.54588 46.88240
# Shear Modulus (GPa) = 26.73980 31.99729 29.36855
#
# Velocity S-wave (km/s) = 3.35452 3.66951 3.51554
# Velocity P-wave (km/s) = 5.68768 6.32980 6.01731
#
# Compressibility (1/GPa) = 0.02426070
#
# Stress axis : x y z
#
# Youngs Moduli (GPa) = 132.79895 80.22168 50.55699
#
# Poissons Ratio (x) = 0.21789 0.14902
# Poissons Ratio (y) = 0.36070 0.10584
# Poissons Ratio (z) = 0.39145 0.16794
#
# Static dielectric constant tensor:
#      x y z
#    x 1.893720 0.000000 -0.052040 
#    y 0.000000 1.983600 0.000000 
#    z -0.052040 0.000000 1.980890 
# 
# From -- ./inp_files/15279.got.cif
#   From: 2010.05.17/outbox.cif.g08.bks.cpg/sg9_8_cif.got.tgz:15279.got - 2010.06.03 20:04:27.
