data_PCOD9134359
_publ_section_title
;
Structure prediction by ZEFSAII (Michael W. Deem and Ramdas Pophale) SiO2 
 PCOD9134359
Probable space group: C C
;
_chemical_formula_sum "Si O2"
_cell_formula_units_Z 28
_cell_length_a 9.571768
_cell_length_b 17.543882
_cell_length_c 8.248674
_cell_angle_alpha 90.000000
_cell_angle_beta 92.687363
_cell_angle_gamma 90.000000
_cell_volume 1383.643219
_symmetry_space_group_name_H-M "C C"
_symmetry_group_IT_number 9
_symmetry_cell_setting 'monoclinic'
loop_
_space_group_symop_operation_xyz
x,y,z
x,-y,1/2+z
1/2+x,1/2+y,z
1/2+x,1/2-y,1/2+z
loop_
_atom_site_type_symbol
_atom_site_label
_atom_site_fract_x
_atom_site_fract_y
_atom_site_fract_z
Si Si1 0.616380 0.404813 0.829710
Si Si2 0.568855 0.866673 0.930530
Si Si3 0.868133 0.199314 0.409523
Si Si4 0.077317 0.674955 0.809841
Si Si5 0.249834 0.029801 0.654271
Si Si6 0.316194 0.222736 0.252403
Si Si7 0.458487 0.962167 0.435477
O O1 0.470610 0.371897 0.881631
O O2 0.623801 0.483060 0.728808
O O3 0.699503 0.343657 0.724520
O O4 0.703947 0.420071 0.000020
O O5 0.712762 0.831972 0.867500
O O6 0.444507 0.815569 0.851346
O O7 0.531746 0.956362 0.902994
O O8 0.579258 0.856280 0.126039
O O9 0.862890 0.234574 0.591404
O O10 0.946816 0.266880 0.317022
O O11 0.223299 0.717797 0.849035
O O12 0.064999 0.606522 0.936393
O O13 0.339525 0.066165 0.801690
O O14 0.367640 0.973121 0.589884
#
# Coordination Sequence:
#
# PCOD9134359 Si02
#       7
#     4   4   4   4   4   4   4
#     4  10  20  40  59  93 116 162 205 253 303 371
#     4  11  22  41  61  90 123 160 209 251 307 369
#     4  10  24  40  62  88 130 155 205 259 310 363
#     4  10  22  38  61  89 121 159 204 257 303 368
#     4  10  19  34  66  84 121 158 208 248 302 367
#     4  10  20  40  64  84 123 161 205 247 309 369
#     4  11  19  37  63  92 116 161 208 255 300 367
#
# _framework density 20.236432000000001
#
# number of rings (size 3 to 8) (size 9 to 14) (size 15 to 20)
#    0.000    1.714    4.286    0.857    0.000    3.429 
#    5.143    2.857    0.000    0.000    0.000    0.000 
#    0.000    0.000    0.000    0.000    0.000    0.000 
#
# Total GULP energy -77974.891417 kJ/mol
# GULP energy per Si atom -5569.635101 kJ/mol
# Density = 2.019037 g / cm^3
# Si number density = 20.236432 Si / 1000 Ang^3
#
#
#
# Elastic Constant Matrix: (Units=GPa)
#
#
# Indices 1 2 3 4 5 6 
#
# 1 130.1558 57.6018 10.9808 0.0000 -15.6652 0.0000
# 2 57.6018 100.5986 0.5044 0.0000 -5.2270 0.0000
# 3 10.9808 0.5044 21.4380 0.0000 -8.3884 0.0000
# 4 0.0000 0.0000 0.0000 33.8432 0.0000 -15.0762
# 5 -15.6652 -5.2270 -8.3884 0.0000 19.3176 0.0000
# 6 0.0000 0.0000 0.0000 -15.0762 0.0000 38.8823
#
#
#
# Elastic Compliance Matrix: (Units=1/GPa)
#
#
# Indices 1 2 3 4 5 6 
#
# 1 0.011460 -0.006224 -0.003308 0.000000 0.006172 0.000000
# 2 -0.006224 0.013481 0.002799 0.000000 -0.000184 0.000000
# 3 -0.003308 0.002799 0.057249 0.000000 0.022934 0.000000
# 4 0.000000 0.000000 0.000000 0.035717 0.000000 0.013849
# 5 0.006172 -0.000184 0.022934 0.000000 0.066680 0.000000
# 6 0.000000 0.000000 0.000000 0.013849 0.000000 0.031088
#
#
# Mechanical properties :
#
#
# Convention : Reuss Voigt Hill
#
# Bulk Modulus (GPa) = 14.55146 43.37404 28.96275
# Shear Modulus (GPa) = 19.83729 30.61565 25.22647
#
# Velocity S-wave (km/s) = 3.13433 3.89382 3.53453
# Velocity P-wave (km/s) = 4.50611 6.45724 5.56781
#
# Compressibility (1/GPa) = 0.06872164
#
# Stress axis : x y z
#
# Youngs Moduli (GPa) = 87.26164 74.17872 17.46765
#
# Poissons Ratio (x) = 0.46172 0.05779
# Poissons Ratio (y) = 0.54316 -0.04889
# Poissons Ratio (z) = 0.28869 -0.20762
#
# Static dielectric constant tensor:
#      x y z
#    x 1.721080 0.000000 -0.027060 
#    y 0.000000 1.779760 0.000000 
#    z -0.027060 0.000000 1.735670 
# 
# From -- ./inp_files/5235.got.cif
#   From: 2010.05.17/outbox.cif.g08.bks.cpg/sg9_3_cif.got.tgz:5235.got - 2010.06.03 20:04:27.
