data_PCOD9134600
_publ_section_title
;
Structure prediction by ZEFSAII (Michael W. Deem and Ramdas Pophale) SiO2 
 PCOD9134600
Probable space group: C C
;
_chemical_formula_sum "Si O2"
_cell_formula_units_Z 32
_cell_length_a 8.237611
_cell_length_b 12.205460
_cell_length_c 15.592638
_cell_angle_alpha 90.000000
_cell_angle_beta 126.798593
_cell_angle_gamma 90.000000
_cell_volume 1255.364518
_symmetry_space_group_name_H-M "C C"
_symmetry_group_IT_number 9
_symmetry_cell_setting 'monoclinic'
loop_
_space_group_symop_operation_xyz
x,y,z
x,-y,1/2+z
1/2+x,1/2+y,z
1/2+x,1/2-y,1/2+z
loop_
_atom_site_type_symbol
_atom_site_label
_atom_site_fract_x
_atom_site_fract_y
_atom_site_fract_z
Si Si1 0.642050 0.780569 0.555330
Si Si2 0.826786 0.590028 0.697029
Si Si3 0.017488 0.378866 0.014997
Si Si4 0.840982 0.429966 0.385404
Si Si5 0.491509 0.548064 0.907895
Si Si6 0.212209 0.246328 0.317362
Si Si7 0.063724 0.157010 0.100115
Si Si8 0.621925 0.048616 0.199003
O O1 0.683149 0.654288 0.586679
O O2 0.445922 0.815361 0.440896
O O3 0.836503 0.826347 0.566341
O O4 0.624408 0.844265 0.641090
O O5 0.732183 0.575021 0.760372
O O6 0.013232 0.678617 0.767954
O O7 0.933502 0.477696 0.701233
O O8 0.016248 0.475232 0.943065
O O9 0.795783 0.325497 0.922430
O O10 0.134404 0.264274 0.066805
O O11 0.084234 0.447909 0.119587
O O12 0.694603 0.457239 0.417471
O O13 0.385288 0.664864 0.853075
O O14 0.326609 0.463362 0.818739
O O15 0.538221 0.559979 0.023699
O O16 0.182313 0.168082 0.226799
#
# Coordination Sequence:
#
# PCOD9134600 Si02
#       8
#     4   4   4   4   4   4   4   4
#     4  10  21  40  68  89 126 175 223 269 340 401
#     4  10  21  41  63  90 130 171 218 269 329 402
#     4  10  19  38  62  90 121 165 215 260 323 408
#     4  11  24  37  59  97 133 166 217 277 331 396
#     4  10  21  37  59  93 132 156 218 274 322 403
#     4   9  19  38  70  85 116 178 213 255 341 395
#     4  10  19  41  68  88 118 178 215 262 339 402
#     4  10  20  40  65  96 122 173 223 272 323 409
#
# _framework density 25.490604000000001
#
# number of rings (size 3 to 8) (size 9 to 14) (size 15 to 20)
#    0.000    2.000    3.750    2.250    3.500    1.000 
#    9.000    0.000    0.000    0.000    0.000    0.000 
#    0.000    0.000    0.000    0.000    0.000    0.000 
#
# Total GULP energy -89244.076541 kJ/mol
# GULP energy per Si atom -5577.754784 kJ/mol
# Density = 2.543259 g / cm^3
# Si number density = 25.490604 Si / 1000 Ang^3
#
#
#
# Elastic Constant Matrix: (Units=GPa)
#
#
# Indices 1 2 3 4 5 6 
#
# 1 54.4357 36.4052 19.2450 0.0000 -16.6351 0.0000
# 2 36.4052 110.9879 5.0722 0.0000 -0.8759 0.0000
# 3 19.2450 5.0722 106.6725 0.0000 -10.4073 0.0000
# 4 0.0000 0.0000 0.0000 41.1103 0.0000 3.9507
# 5 -16.6351 -0.8759 -10.4073 0.0000 42.1548 0.0000
# 6 0.0000 0.0000 0.0000 3.9507 0.0000 20.9398
#
#
#
# Elastic Compliance Matrix: (Units=1/GPa)
#
#
# Indices 1 2 3 4 5 6 
#
# 1 0.029084 -0.009285 -0.003796 0.000000 0.010347 0.000000
# 2 -0.009285 0.011994 0.000791 0.000000 -0.003219 0.000000
# 3 -0.003796 0.000791 0.010121 0.000000 0.001017 0.000000
# 4 0.000000 0.000000 0.000000 0.024774 0.000000 -0.004674
# 5 0.010347 -0.003219 0.001017 0.000000 0.027989 0.000000
# 6 0.000000 0.000000 0.000000 -0.004674 0.000000 0.048638
#
#
# Mechanical properties :
#
#
# Convention : Reuss Voigt Hill
#
# Bulk Modulus (GPa) = 37.56799 43.72676 40.64738
# Shear Modulus (GPa) = 26.87417 34.93257 30.90337
#
# Velocity S-wave (km/s) = 3.25049 3.70592 3.48565
# Velocity P-wave (km/s) = 5.37192 5.95845 5.67277
#
# Compressibility (1/GPa) = 0.02661840
#
# Stress axis : x y z
#
# Youngs Moduli (GPa) = 34.38374 83.37580 98.80466
#
# Poissons Ratio (x) = 0.77411 0.37507
# Poissons Ratio (y) = 0.31924 -0.07812
# Poissons Ratio (z) = 0.13052 -0.06592
#
# Static dielectric constant tensor:
#      x y z
#    x 2.053720 0.000000 0.011830 
#    y 0.000000 2.075500 0.000000 
#    z 0.011830 0.000000 2.032360 
# 
# From -- ./inp_files/23405.got.cif
#   From: 2010.05.17/outbox.cif.g08.bks.cpg/sg9_12_cif.got.tgz:23405.got - 2010.06.03 20:04:27.
