data_PCOD9134121
_publ_section_title
;
Structure prediction by ZEFSAII (Michael W. Deem and Ramdas Pophale) SiO2 
 PCOD9134121
Probable space group: C C
;
_chemical_formula_sum "Si O2"
_cell_formula_units_Z 28
_cell_length_a 14.215413
_cell_length_b 14.124381
_cell_length_c 9.169470
_cell_angle_alpha 90.000000
_cell_angle_beta 139.534805
_cell_angle_gamma 90.000000
_cell_volume 1194.836484
_symmetry_space_group_name_H-M "C C"
_symmetry_group_IT_number 9
_symmetry_cell_setting 'monoclinic'
loop_
_space_group_symop_operation_xyz
x,y,z
x,-y,1/2+z
1/2+x,1/2+y,z
1/2+x,1/2-y,1/2+z
loop_
_atom_site_type_symbol
_atom_site_label
_atom_site_fract_x
_atom_site_fract_y
_atom_site_fract_z
Si Si1 0.821950 0.629848 0.561780
Si Si2 0.550399 0.805656 0.719026
Si Si3 0.715766 0.004709 0.176943
Si Si4 0.350137 0.640710 0.570665
Si Si5 0.384586 0.555559 0.114968
Si Si6 0.900764 0.490620 0.414677
Si Si7 0.573407 0.266517 0.919839
O O1 0.818831 0.570364 0.409799
O O2 0.808167 0.553808 0.675554
O O3 0.711616 0.712429 0.480995
O O4 0.979945 0.677492 0.756558
O O5 0.447628 0.731938 0.677800
O O6 0.700321 0.832566 0.976065
O O7 0.455811 0.899634 0.573977
O O8 0.590553 0.751220 0.613239
O O9 0.831556 0.932703 0.386683
O O10 0.771859 0.099096 0.330392
O O11 0.740536 0.034471 0.040693
O O12 0.553580 0.976985 0.024196
O O13 0.451850 0.549146 0.718659
O O14 0.477351 0.639646 0.283813
#
# Coordination Sequence:
#
# PCOD9134121 Si02
#       7
#     4   4   4   4   4   4   4
#     4  11  26  41  69  95 134 167 222 268 325 380
#     4  10  18  37  59  96 118 167 212 258 305 390
#     4   9  19  35  64  88 123 161 214 252 324 370
#     4   9  20  32  63  88 122 155 211 257 311 366
#     4  10  20  37  61  94 122 167 209 267 316 383
#     4  10  22  39  65  92 131 169 212 268 320 381
#     4  11  23  39  69  95 128 168 226 262 317 390
#
# _framework density 23.434169000000001
#
# number of rings (size 3 to 8) (size 9 to 14) (size 15 to 20)
#    0.857    1.143    1.429    2.571    6.000    3.429 
#    0.000    1.429    0.000    0.000    0.000    0.000 
#    0.000    0.000    0.000    0.000    0.000    0.000 
#
# Total GULP energy -77966.852738 kJ/mol
# GULP energy per Si atom -5569.060910 kJ/mol
# Density = 2.338083 g / cm^3
# Si number density = 23.434169 Si / 1000 Ang^3
#
#
#
# Elastic Constant Matrix: (Units=GPa)
#
#
# Indices 1 2 3 4 5 6 
#
# 1 65.6758 11.4113 17.3928 0.0000 5.8583 0.0000
# 2 11.4113 47.2208 13.9889 0.0000 7.9629 0.0000
# 3 17.3928 13.9889 44.4978 0.0000 1.7945 0.0000
# 4 0.0000 0.0000 0.0000 47.6482 0.0000 12.5406
# 5 5.8583 7.9629 1.7945 0.0000 26.5859 0.0000
# 6 0.0000 0.0000 0.0000 12.5406 0.0000 36.2931
#
#
#
# Elastic Compliance Matrix: (Units=1/GPa)
#
#
# Indices 1 2 3 4 5 6 
#
# 1 0.017429 -0.001926 -0.006092 0.000000 -0.002852 0.000000
# 2 -0.001926 0.024748 -0.006764 0.000000 -0.006531 0.000000
# 3 -0.006092 -0.006764 0.026918 0.000000 0.001551 0.000000
# 4 0.000000 0.000000 0.000000 0.023087 0.000000 -0.007977
# 5 -0.002852 -0.006531 0.001551 0.000000 0.040094 0.000000
# 6 0.000000 0.000000 0.000000 -0.007977 0.000000 0.030310
#
#
# Mechanical properties :
#
#
# Convention : Reuss Voigt Hill
#
# Bulk Modulus (GPa) = 25.29667 26.99786 26.14727
# Shear Modulus (GPa) = 24.35162 29.74553 27.04858
#
# Velocity S-wave (km/s) = 3.22708 3.56662 3.40109
# Velocity P-wave (km/s) = 4.97027 5.33917 5.15802
#
# Compressibility (1/GPa) = 0.03953089
#
# Stress axis : x y z
#
# Youngs Moduli (GPa) = 57.37663 40.40784 37.15002
#
# Poissons Ratio (x) = 0.07783 0.22631
# Poissons Ratio (y) = 0.11052 0.25127
# Poissons Ratio (z) = 0.34953 0.27331
#
# Static dielectric constant tensor:
#      x y z
#    x 1.997980 0.000000 0.000230 
#    y 0.000000 1.967200 0.000000 
#    z 0.000230 0.000000 1.891920 
# 
# From -- ./inp_files/18394.got.cif
#   From: 2010.05.17/outbox.cif.g08.bks.cpg/sg9_10_cif.got.tgz:18394.got - 2010.06.03 20:04:27.
