data_PCOD9134912
_publ_section_title
;
Structure prediction by ZEFSAII (Michael W. Deem and Ramdas Pophale) SiO2 
 PCOD9134912
Probable space group: C C
;
_chemical_formula_sum "Si O2"
_cell_formula_units_Z 32
_cell_length_a 19.423865
_cell_length_b 9.417091
_cell_length_c 13.684697
_cell_angle_alpha 90.000000
_cell_angle_beta 35.308750
_cell_angle_gamma 90.000000
_cell_volume 1446.778710
_symmetry_space_group_name_H-M "C C"
_symmetry_group_IT_number 9
_symmetry_cell_setting 'monoclinic'
loop_
_space_group_symop_operation_xyz
x,y,z
x,-y,1/2+z
1/2+x,1/2+y,z
1/2+x,1/2-y,1/2+z
loop_
_atom_site_type_symbol
_atom_site_label
_atom_site_fract_x
_atom_site_fract_y
_atom_site_fract_z
Si Si1 0.327190 0.488997 0.507180
Si Si2 0.549107 0.138300 0.160874
Si Si3 0.806557 0.238613 0.408269
Si Si4 0.042223 0.673670 0.756340
Si Si5 0.610545 0.904982 0.382118
Si Si6 0.318241 0.153826 0.509795
Si Si7 0.950702 0.673965 0.557279
Si Si8 0.067325 0.893374 0.294950
O O1 0.321012 0.569859 0.411943
O O2 0.237748 0.562923 0.686325
O O3 0.292537 0.323142 0.542957
O O4 0.462429 0.497456 0.387857
O O5 0.405028 0.132223 0.317913
O O6 0.569185 0.270800 0.209269
O O7 0.574058 0.988284 0.184408
O O8 0.613212 0.164769 0.984764
O O9 0.663249 0.260910 0.586454
O O10 0.852379 0.289014 0.250693
O O11 0.912148 0.295386 0.359793
O O12 0.040225 0.673620 0.876513
O O13 0.541932 0.052734 0.482865
O O14 0.388417 0.125949 0.528842
O O15 0.201911 0.058912 0.644446
O O16 0.026257 0.813311 0.440786
#
# Coordination Sequence:
#
# PCOD9134912 Si02
#       8
#     4   4   4   4   4   4   4   4
#     4   9  21  39  60  85 126 152 200 249 302 360
#     4  10  21  37  65  88 117 165 202 252 299 366
#     4  11  24  38  61  95 127 160 194 260 314 359
#     4  11  23  41  61  89 132 155 204 256 307 368
#     4  11  19  42  63  90 113 165 210 237 308 368
#     4  10  20  40  60  91 121 157 205 255 292 368
#     4  10  20  34  65  89 113 156 208 246 294 362
#     4  10  20  39  61  91 121 156 203 257 294 361
#
# _framework density 22.118103000000001
#
# number of rings (size 3 to 8) (size 9 to 14) (size 15 to 20)
#    0.000    2.000    5.000    0.750    5.250    1.000 
#    4.500    2.500    0.000    0.000    0.000    0.000 
#    0.000    0.000    0.000    0.000    0.000    0.000 
#
# Total GULP energy -89207.484459 kJ/mol
# GULP energy per Si atom -5575.467779 kJ/mol
# Density = 2.206776 g / cm^3
# Si number density = 22.118103 Si / 1000 Ang^3
#
#
#
# Elastic Constant Matrix: (Units=GPa)
#
#
# Indices 1 2 3 4 5 6 
#
# 1 61.5918 11.0802 38.6810 0.0000 -11.0587 0.0000
# 2 11.0802 28.7237 12.5912 0.0000 5.0125 0.0000
# 3 38.6810 12.5912 129.5127 0.0000 -5.7273 0.0000
# 4 0.0000 0.0000 0.0000 26.1871 0.0000 -4.8594
# 5 -11.0587 5.0125 -5.7273 0.0000 52.4087 0.0000
# 6 0.0000 0.0000 0.0000 -4.8594 0.0000 23.4419
#
#
#
# Elastic Compliance Matrix: (Units=1/GPa)
#
#
# Indices 1 2 3 4 5 6 
#
# 1 0.021838 -0.006751 -0.005661 0.000000 0.004635 0.000000
# 2 -0.006751 0.039255 -0.002039 0.000000 -0.005402 0.000000
# 3 -0.005661 -0.002039 0.009612 0.000000 0.000051 0.000000
# 4 0.000000 0.000000 0.000000 0.039714 0.000000 0.008233
# 5 0.004635 -0.005402 0.000051 0.000000 0.020581 0.000000
# 6 0.000000 0.000000 0.000000 0.008233 0.000000 0.044365
#
#
# Mechanical properties :
#
#
# Convention : Reuss Voigt Hill
#
# Bulk Modulus (GPa) = 23.92158 38.28145 31.10152
# Shear Modulus (GPa) = 22.91446 30.90593 26.91020
#
# Velocity S-wave (km/s) = 3.22219 3.74212 3.49185
# Velocity P-wave (km/s) = 4.96812 6.00138 5.50903
#
# Compressibility (1/GPa) = 0.04180325
#
# Stress axis : x y z
#
# Youngs Moduli (GPa) = 45.79205 25.47434 104.03193
#
# Poissons Ratio (x) = 0.17199 0.58891
# Poissons Ratio (y) = 0.30916 0.21211
# Poissons Ratio (z) = 0.25922 0.05194
#
# Static dielectric constant tensor:
#      x y z
#    x 1.868800 0.000000 -0.060360 
#    y 0.000000 1.871250 0.000000 
#    z -0.060360 0.000000 1.837990 
# 
# From -- ./inp_files/27767.got.cif
#   From: 2010.05.17/outbox.cif.g08.bks.cpg/sg9_14_cif.got.tgz:27767.got - 2010.06.03 20:04:27.
