data_PCOD9134817
_publ_section_title
;
Structure prediction by ZEFSAII (Michael W. Deem and Ramdas Pophale) SiO2 
 PCOD9134817
Probable space group: C C
;
_chemical_formula_sum "Si O2"
_cell_formula_units_Z 32
_cell_length_a 17.058668
_cell_length_b 7.391275
_cell_length_c 19.287399
_cell_angle_alpha 90.000000
_cell_angle_beta 30.198855
_cell_angle_gamma 90.000000
_cell_volume 1223.230883
_symmetry_space_group_name_H-M "C C"
_symmetry_group_IT_number 9
_symmetry_cell_setting 'monoclinic'
loop_
_space_group_symop_operation_xyz
x,y,z
x,-y,1/2+z
1/2+x,1/2+y,z
1/2+x,1/2-y,1/2+z
loop_
_atom_site_type_symbol
_atom_site_label
_atom_site_fract_x
_atom_site_fract_y
_atom_site_fract_z
Si Si1 0.780130 0.409690 0.275430
Si Si2 0.101047 0.986948 0.083156
Si Si3 0.866710 0.712658 0.302179
Si Si4 0.199537 0.645439 0.443332
Si Si5 0.472063 0.964547 0.004940
Si Si6 0.663424 0.003199 0.124219
Si Si7 0.190053 0.119413 0.159509
Si Si8 0.495239 0.623725 0.913342
O O1 0.816088 0.269188 0.308845
O O2 0.850604 0.355592 0.147660
O O3 0.596296 0.438196 0.402919
O O4 0.854319 0.598816 0.240780
O O5 0.204927 0.837420 0.963312
O O6 0.100924 0.175386 0.043124
O O7 0.932259 0.909811 0.233871
O O8 0.196456 0.025909 0.080150
O O9 0.010161 0.624769 0.235207
O O10 0.218464 0.548275 0.502913
O O11 0.114494 0.522052 0.449723
O O12 0.362739 0.125158 0.061405
O O13 0.518544 0.839845 0.904487
O O14 0.627393 0.818990 0.192893
O O15 0.812026 0.093192 0.046716
O O16 0.074554 0.995646 0.292752
#
# Coordination Sequence:
#
# PCOD9134817 Si02
#       8
#     4   4   4   4   4   4   4   4
#     4   9  20  42  66  93 138 171 233 278 346 414
#     4  10  24  41  67 100 140 176 234 283 350 405
#     4  11  23  44  69 104 136 184 234 295 340 417
#     4   9  20  40  67  93 129 181 223 279 340 412
#     4  10  19  43  63  91 131 180 216 280 344 412
#     4  11  23  41  71  97 136 178 236 285 350 408
#     4  10  24  40  66  97 137 176 228 286 346 417
#     4  10  23  41  65  97 133 180 228 282 350 409
#
# _framework density 26.160228
#
# number of rings (size 3 to 8) (size 9 to 14) (size 15 to 20)
#    0.000    2.000    1.250    0.750    8.750    0.000 
#   15.750    0.000    0.000    0.000    0.000    0.000 
#    0.000    0.000    0.000    0.000    0.000    0.000 
#
# Total GULP energy -89317.705090 kJ/mol
# GULP energy per Si atom -5582.356568 kJ/mol
# Density = 2.610069 g / cm^3
# Si number density = 26.160228 Si / 1000 Ang^3
#
#
#
# Elastic Constant Matrix: (Units=GPa)
#
#
# Indices 1 2 3 4 5 6 
#
# 1 129.8389 27.6184 18.0355 -0.0002 -14.6556 0.0001
# 2 27.6184 67.7922 -20.9693 -0.0005 1.2269 0.0002
# 3 18.0355 -20.9693 70.3661 -0.0002 0.9831 0.0001
# 4 -0.0002 -0.0005 -0.0002 27.7489 0.0002 -4.1870
# 5 -14.6556 1.2269 0.9831 0.0002 49.7879 -0.0001
# 6 0.0001 0.0002 0.0001 -4.1870 -0.0001 41.1843
#
#
#
# Elastic Compliance Matrix: (Units=1/GPa)
#
#
# Indices 1 2 3 4 5 6 
#
# 1 0.009751 -0.005303 -0.004123 0.000000 0.003082 0.000000
# 2 -0.005303 0.019145 0.007095 0.000000 -0.002173 0.000000
# 3 -0.004123 0.007095 0.017407 0.000000 -0.001732 0.000000
# 4 0.000000 0.000000 0.000000 0.036599 0.000000 0.003721
# 5 0.003082 -0.002173 -0.001732 0.000000 0.021080 0.000000
# 6 0.000000 0.000000 0.000000 0.003721 0.000000 0.024659
#
#
# Mechanical properties :
#
#
# Convention : Reuss Voigt Hill
#
# Bulk Modulus (GPa) = 24.01490 35.26295 29.63893
# Shear Modulus (GPa) = 33.97130 39.96505 36.96818
#
# Velocity S-wave (km/s) = 3.60750 3.91282 3.76326
# Velocity P-wave (km/s) = 5.15286 5.82430 5.49884
#
# Compressibility (1/GPa) = 0.04164081
#
# Stress axis : x y z
#
# Youngs Moduli (GPa) = 102.55881 52.23168 57.44948
#
# Poissons Ratio (x) = 0.27700 0.23684
# Poissons Ratio (y) = 0.54390 -0.40761
# Poissons Ratio (z) = 0.42281 -0.37059
#
# Static dielectric constant tensor:
#      x y z
#    x 2.031960 0.000000 -0.008630 
#    y 0.000000 2.102230 0.000000 
#    z -0.008630 0.000000 2.131420 
# 
# From -- ./inp_files/34049.got.cif
#   From: 2010.05.17/outbox.cif.g08.bks.cpg/sg9_18_cif.got.tgz:34049.got - 2010.06.03 20:04:27.
