data_PCOD9134260
_publ_section_title
;
Structure prediction by ZEFSAII (Michael W. Deem and Ramdas Pophale) SiO2 
 PCOD9134260
Probable space group: C C
;
_chemical_formula_sum "Si O2"
_cell_formula_units_Z 28
_cell_length_a 5.409065
_cell_length_b 31.545567
_cell_length_c 6.601483
_cell_angle_alpha 90.000000
_cell_angle_beta 100.152341
_cell_angle_gamma 90.000000
_cell_volume 1108.787481
_symmetry_space_group_name_H-M "C C"
_symmetry_group_IT_number 9
_symmetry_cell_setting 'monoclinic'
loop_
_space_group_symop_operation_xyz
x,y,z
x,-y,1/2+z
1/2+x,1/2+y,z
1/2+x,1/2-y,1/2+z
loop_
_atom_site_type_symbol
_atom_site_label
_atom_site_fract_x
_atom_site_fract_y
_atom_site_fract_z
Si Si1 0.136720 0.674213 0.311230
Si Si2 0.255140 0.306492 0.390507
Si Si3 0.188493 0.397777 0.243688
Si Si4 0.272814 0.579401 0.233083
Si Si5 0.628109 0.712098 0.276446
Si Si6 0.680065 0.559992 0.698110
Si Si7 0.266007 0.961328 0.672357
O O1 0.208312 0.625050 0.318564
O O2 0.390612 0.701074 0.386165
O O3 0.878144 0.687435 0.377143
O O4 0.084560 0.685346 0.064820
O O5 0.235094 0.347416 0.247582
O O6 0.524675 0.302692 0.542019
O O7 0.183986 0.261727 0.286716
O O8 0.234585 0.411656 0.484986
O O9 0.397867 0.422739 0.146229
O O10 0.905327 0.410800 0.149601
O O11 0.555655 0.560921 0.282571
O O12 0.056793 0.546351 0.267171
O O13 0.711911 0.510965 0.644759
O O14 0.729917 0.559202 0.947951
#
# Coordination Sequence:
#
# PCOD9134260 Si02
#       7
#     4   4   4   4   4   4   4
#     4   9  20  33  56  79 108 141 184 221 269 325
#     4   9  22  35  58  81 110 142 189 224 275 323
#     4   9  19  32  56  75 103 140 182 214 263 332
#     4   9  17  32  54  79  98 136 181 219 256 317
#     4  10  21  32  59  79 112 138 187 229 272 320
#     4  10  20  34  55  79 104 140 180 221 270 317
#     4  10  19  32  56  78 105 135 179 224 265 320
#
# _framework density 25.25281
#
# number of rings (size 3 to 8) (size 9 to 14) (size 15 to 20)
#    0.857    1.714    0.000    1.714    8.000    0.000 
#    0.000    0.000    9.429    0.000    0.000    0.000 
#    0.000    0.000    0.000    0.000    0.000    0.000 
#
# Total GULP energy -78315.510597 kJ/mol
# GULP energy per Si atom -5593.965043 kJ/mol
# Density = 2.519533 g / cm^3
# Si number density = 25.252810 Si / 1000 Ang^3
#
#
#
# Elastic Constant Matrix: (Units=GPa)
#
#
# Indices 1 2 3 4 5 6 
#
# 1 240.5886 119.7790 32.9869 0.0000 10.0184 0.0000
# 2 119.7790 193.1545 20.9953 0.0000 0.3568 0.0000
# 3 32.9869 20.9953 55.9506 0.0000 -3.5862 0.0000
# 4 0.0000 0.0000 0.0000 30.4417 0.0000 7.4736
# 5 10.0184 0.3568 -3.5862 0.0000 36.0563 0.0000
# 6 0.0000 0.0000 0.0000 7.4736 0.0000 20.3158
#
#
#
# Elastic Compliance Matrix: (Units=1/GPa)
#
#
# Indices 1 2 3 4 5 6 
#
# 1 0.006434 -0.003712 -0.002529 0.000000 -0.002003 0.000000
# 2 -0.003712 0.007541 -0.000584 0.000000 0.000899 0.000000
# 3 -0.002529 -0.000584 0.019754 0.000000 0.002673 0.000000
# 4 0.000000 0.000000 0.000000 0.036111 0.000000 -0.013284
# 5 -0.002003 0.000899 0.002673 0.000000 0.028548 0.000000
# 6 0.000000 0.000000 0.000000 -0.013284 0.000000 0.054110
#
#
# Mechanical properties :
#
#
# Convention : Reuss Voigt Hill
#
# Bulk Modulus (GPa) = 49.79951 93.02400 71.41176
# Shear Modulus (GPa) = 28.92840 38.42492 33.67666
#
# Velocity S-wave (km/s) = 3.38827 3.90501 3.65578
# Velocity P-wave (km/s) = 5.92202 7.56632 6.79410
#
# Compressibility (1/GPa) = 0.02008052
#
# Stress axis : x y z
#
# Youngs Moduli (GPa) = 155.41335 132.61563 50.62143
#
# Poissons Ratio (x) = 0.49221 0.12803
# Poissons Ratio (y) = 0.57682 0.02955
# Poissons Ratio (z) = 0.39307 0.07742
#
# Static dielectric constant tensor:
#      x y z
#    x 1.922420 0.000000 -0.010720 
#    y 0.000000 1.892270 0.000000 
#    z -0.010720 0.000000 2.196240 
# 
# From -- ./inp_files/4149.got.cif
#   From: 2010.05.17/outbox.cif.g08.bks.cpg/sg9_3_cif.got.tgz:4149.got - 2010.06.03 20:04:27.
