data_PCOD9134508
_publ_section_title
;
Structure prediction by ZEFSAII (Michael W. Deem and Ramdas Pophale) SiO2 
 PCOD9134508
Probable space group: C C
;
_chemical_formula_sum "Si O2"
_cell_formula_units_Z 32
_cell_length_a 30.312482
_cell_length_b 9.163591
_cell_length_c 16.899671
_cell_angle_alpha 90.000000
_cell_angle_beta 19.999450
_cell_angle_gamma 90.000000
_cell_volume 1605.482867
_symmetry_space_group_name_H-M "C C"
_symmetry_group_IT_number 9
_symmetry_cell_setting 'monoclinic'
loop_
_space_group_symop_operation_xyz
x,y,z
x,-y,1/2+z
1/2+x,1/2+y,z
1/2+x,1/2-y,1/2+z
loop_
_atom_site_type_symbol
_atom_site_label
_atom_site_fract_x
_atom_site_fract_y
_atom_site_fract_z
Si Si1 0.997370 0.850319 0.970580
Si Si2 0.092649 0.126695 0.070425
Si Si3 0.853333 0.453437 0.142343
Si Si4 0.680628 0.449238 0.060301
Si Si5 0.694969 0.881959 0.189963
Si Si6 0.362877 0.244908 0.042657
Si Si7 0.436521 0.612591 0.177000
Si Si8 0.094691 0.676112 0.295658
O O1 0.065403 0.709653 0.893419
O O2 0.898151 0.812399 0.068127
O O3 0.117607 0.941055 0.729663
O O4 0.928349 0.958754 0.146829
O O5 0.998655 0.245185 0.267128
O O6 0.035577 0.092027 0.082175
O O7 0.093649 0.985590 0.128090
O O8 0.243324 0.168191 0.813812
O O9 0.817772 0.510579 0.290924
O O10 0.825647 0.579749 0.125436
O O11 0.999405 0.405598 0.895417
O O12 0.676509 0.291932 0.107152
O O13 0.760635 0.832487 0.161760
O O14 0.667968 0.053852 0.223056
O O15 0.800586 0.843133 0.944193
O O16 0.498893 0.729891 0.012883
#
# Coordination Sequence:
#
# PCOD9134508 Si02
#       8
#     4   4   4   4   4   4   4   4
#     4  10  19  40  61  80 119 162 188 240 304 353
#     4   8  19  39  57  82 117 152 193 237 285 360
#     4  10  19  37  61  80 118 156 189 241 296 344
#     4   8  20  37  59  85 115 150 198 236 295 351
#     4  11  23  38  61  87 122 152 201 250 288 352
#     4  10  20  37  59  87 115 157 196 235 298 355
#     4  10  22  39  59  87 120 155 195 242 301 343
#     4  11  22  37  59  94 112 152 206 245 285 354
#
# _framework density 19.931698999999998
#
# number of rings (size 3 to 8) (size 9 to 14) (size 15 to 20)
#    0.750    1.500    1.250    1.500    1.750    0.000 
#    9.000    2.500    0.000    0.000    0.000    0.000 
#    0.000    0.000    0.000    0.000    0.000    0.000 
#
# Total GULP energy -89084.486048 kJ/mol
# GULP energy per Si atom -5567.780378 kJ/mol
# Density = 1.988633 g / cm^3
# Si number density = 19.931699 Si / 1000 Ang^3
#
#
#
# Elastic Constant Matrix: (Units=GPa)
#
#
# Indices 1 2 3 4 5 6 
#
# 1 52.4090 9.8875 13.7450 0.0000 -6.0910 0.0000
# 2 9.8875 67.9604 9.6282 0.0000 -3.5422 0.0000
# 3 13.7450 9.6282 33.4183 0.0000 -10.9860 0.0000
# 4 0.0000 0.0000 0.0000 25.4745 0.0000 -1.7851
# 5 -6.0910 -3.5422 -10.9860 0.0000 20.4743 0.0000
# 6 0.0000 0.0000 0.0000 -1.7851 0.0000 22.4788
#
#
#
# Elastic Compliance Matrix: (Units=1/GPa)
#
#
# Indices 1 2 3 4 5 6 
#
# 1 0.021703 -0.001962 -0.007710 0.000000 0.001980 0.000000
# 2 -0.001962 0.015520 -0.003611 0.000000 0.000164 0.000000
# 3 -0.007710 -0.003611 0.040281 0.000000 0.018695 0.000000
# 4 0.000000 0.000000 0.000000 0.039475 0.000000 0.003135
# 5 0.001980 0.000164 0.018695 0.000000 0.059491 0.000000
# 6 0.000000 0.000000 0.000000 0.003135 0.000000 0.044735
#
#
# Mechanical properties :
#
#
# Convention : Reuss Voigt Hill
#
# Bulk Modulus (GPa) = 19.63153 24.47878 22.05516
# Shear Modulus (GPa) = 18.88575 21.72068 20.30321
#
# Velocity S-wave (km/s) = 3.08153 3.30473 3.19508
# Velocity P-wave (km/s) = 4.74677 5.18359 4.96998
#
# Compressibility (1/GPa) = 0.05093846
#
# Stress axis : x y z
#
# Youngs Moduli (GPa) = 46.07642 64.43312 24.82546
#
# Poissons Ratio (x) = 0.12642 0.19141
# Poissons Ratio (y) = 0.09040 0.08963
# Poissons Ratio (z) = 0.35526 0.23264
#
# Static dielectric constant tensor:
#      x y z
#    x 1.691090 0.000000 0.006380 
#    y 0.000000 1.728580 0.000000 
#    z 0.006380 0.000000 1.724900 
# 
# From -- ./inp_files/31844.got.cif
#   From: 2010.05.17/outbox.cif.g08.bks.cpg/sg9_16_cif.got.tgz:31844.got - 2010.06.03 20:04:27.
