data_PCOD9134581
_publ_section_title
;
Structure prediction by ZEFSAII (Michael W. Deem and Ramdas Pophale) SiO2 
 PCOD9134581
Probable space group: C C
;
_chemical_formula_sum "Si O2"
_cell_formula_units_Z 32
_cell_length_a 10.285195
_cell_length_b 13.617217
_cell_length_c 9.389585
_cell_angle_alpha 90.000000
_cell_angle_beta 81.910784
_cell_angle_gamma 90.000000
_cell_volume 1301.980514
_symmetry_space_group_name_H-M "C C"
_symmetry_group_IT_number 9
_symmetry_cell_setting 'monoclinic'
loop_
_space_group_symop_operation_xyz
x,y,z
x,-y,1/2+z
1/2+x,1/2+y,z
1/2+x,1/2-y,1/2+z
loop_
_atom_site_type_symbol
_atom_site_label
_atom_site_fract_x
_atom_site_fract_y
_atom_site_fract_z
Si Si1 0.801200 0.121770 0.391150
Si Si2 0.487518 0.986589 0.124568
Si Si3 0.237956 0.224830 0.338138
Si Si4 0.734006 0.585782 0.089469
Si Si5 0.627112 0.620245 0.615280
Si Si6 0.839409 0.918028 0.221469
Si Si7 0.362049 0.823115 0.290404
Si Si8 0.024146 0.625199 0.341797
O O1 0.812309 0.090978 0.555285
O O2 0.891293 0.210812 0.323720
O O3 0.656580 0.169467 0.385460
O O4 0.824713 0.025088 0.292397
O O5 0.484343 0.883519 0.207087
O O6 0.341386 0.028559 0.168049
O O7 0.565695 0.074002 0.186308
O O8 0.503125 0.963475 0.957618
O O9 0.195075 0.174789 0.196308
O O10 0.141094 0.185955 0.473523
O O11 0.249624 0.340549 0.318649
O O12 0.388032 0.185029 0.353259
O O13 0.639417 0.495192 0.068357
O O14 0.807248 0.627538 0.941937
O O15 0.488125 0.622782 0.713596
O O16 0.745540 0.661182 0.693313
#
# Coordination Sequence:
#
# PCOD9134581 Si02
#       8
#     4   4   4   4   4   4   4   4
#     4  12  29  49  64 100 147 195 231 286 359 429
#     4  10  19  37  71 103 128 167 224 297 343 401
#     4  11  23  47  74 107 137 182 246 298 350 417
#     4  10  19  40  72 105 132 167 240 297 346 401
#     4  11  24  45  77 105 138 187 232 305 356 419
#     4  12  30  51  66 102 154 193 237 286 364 430
#     4  11  21  44  69 104 133 179 242 288 352 410
#     4  11  21  43  71 100 135 178 232 293 348 413
#
# _framework density 24.577940999999999
#
# number of rings (size 3 to 8) (size 9 to 14) (size 15 to 20)
#    0.000    1.000    5.000    3.000    5.250    0.000 
#   11.250    0.000    0.000    0.000    0.000    0.000 
#    0.000    0.000    0.000    0.000    0.000    0.000 
#
# Total GULP energy -89378.317288 kJ/mol
# GULP energy per Si atom -5586.144830 kJ/mol
# Density = 2.452200 g / cm^3
# Si number density = 24.577941 Si / 1000 Ang^3
#
#
#
# Elastic Constant Matrix: (Units=GPa)
#
#
# Indices 1 2 3 4 5 6 
#
# 1 75.4062 0.0074 -7.0580 0.0000 7.7797 0.0000
# 2 0.0074 133.9780 47.3448 0.0000 -6.5703 0.0000
# 3 -7.0580 47.3448 89.3138 0.0000 6.7890 0.0000
# 4 0.0000 0.0000 0.0000 38.0491 0.0000 -7.7487
# 5 7.7797 -6.5703 6.7890 0.0000 30.3757 0.0000
# 6 0.0000 0.0000 0.0000 -7.7487 0.0000 15.3192
#
#
#
# Elastic Compliance Matrix: (Units=1/GPa)
#
#
# Indices 1 2 3 4 5 6 
#
# 1 0.013866 -0.000866 0.001871 0.000000 -0.004156 0.000000
# 2 -0.000866 0.009540 -0.005391 0.000000 0.003490 0.000000
# 3 0.001871 -0.005391 0.014575 0.000000 -0.004903 0.000000
# 4 0.000000 0.000000 0.000000 0.029300 0.000000 0.014821
# 5 -0.004156 0.003490 -0.004903 0.000000 0.035836 0.000000
# 6 0.000000 0.000000 0.000000 0.014821 0.000000 0.072774
#
#
# Mechanical properties :
#
#
# Convention : Reuss Voigt Hill
#
# Bulk Modulus (GPa) = 34.23680 42.14294 38.18987
# Shear Modulus (GPa) = 25.72033 33.97570 29.84801
#
# Velocity S-wave (km/s) = 3.23844 3.72205 3.48864
# Velocity P-wave (km/s) = 5.28616 5.97122 5.63910
#
# Compressibility (1/GPa) = 0.02920834
#
# Stress axis : x y z
#
# Youngs Moduli (GPa) = 72.12143 104.82045 68.61244
#
# Poissons Ratio (x) = 0.09073 -0.12834
# Poissons Ratio (y) = 0.06243 0.36988
# Poissons Ratio (z) = -0.13490 0.56507
#
# Static dielectric constant tensor:
#      x y z
#    x 2.054830 0.000000 0.050670 
#    y 0.000000 2.033700 0.000000 
#    z 0.050670 0.000000 1.944880 
# 
# From -- ./inp_files/7571.got.cif
#   From: 2010.05.17/outbox.cif.g08.bks.cpg/sg9_4_cif.got.tgz:7571.got - 2010.06.03 20:04:27.
