data_PCOD9134837
_publ_section_title
;
Structure prediction by ZEFSAII (Michael W. Deem and Ramdas Pophale) SiO2 
 PCOD9134837
Probable space group: C C
;
_chemical_formula_sum "Si O2"
_cell_formula_units_Z 20
_cell_length_a 6.749120
_cell_length_b 17.572499
_cell_length_c 12.892527
_cell_angle_alpha 90.000000
_cell_angle_beta 144.542887
_cell_angle_gamma 90.000000
_cell_volume 886.985786
_symmetry_space_group_name_H-M "C C"
_symmetry_group_IT_number 9
_symmetry_cell_setting 'monoclinic'
loop_
_space_group_symop_operation_xyz
x,y,z
x,-y,1/2+z
1/2+x,1/2+y,z
1/2+x,1/2-y,1/2+z
loop_
_atom_site_type_symbol
_atom_site_label
_atom_site_fract_x
_atom_site_fract_y
_atom_site_fract_z
Si Si1 0.867610 0.572158 0.849500
Si Si2 0.292787 0.140781 0.612910
Si Si3 0.551669 0.906075 0.002252
Si Si4 0.981297 0.296152 0.537586
Si Si5 0.534127 0.833230 0.785472
O O1 0.960052 0.584062 0.767765
O O2 0.463777 0.591207 0.677631
O O3 0.068412 0.635473 0.999716
O O4 0.929299 0.492016 0.929873
O O5 0.446979 0.132541 0.565264
O O6 0.259470 0.226700 0.648509
O O7 0.891851 0.120957 0.425759
O O8 0.399224 0.862159 0.837132
O O9 0.649461 0.253276 0.353444
O O10 0.880586 0.330079 0.606339
#
# Coordination Sequence:
#
# PCOD9134837 Si02
#       5
#     4   4   4   4   4
#     4  11  25  44  64 100 136 174 221 280 322 395
#     4   9  21  44  64  94 128 177 220 269 326 390
#     4  11  25  42  68  98 135 178 221 265 341 398
#     4  10  19  46  66  87 142 167 215 287 311 384
#     4   9  20  42  64  95 131 168 223 273 318 389
#
# _framework density 22.548276000000001
#
# number of rings (size 3 to 8) (size 9 to 14) (size 15 to 20)
#    1.200    0.800    2.000    0.000    5.600    1.600 
#   14.400    0.000    0.000    0.000    0.000    0.000 
#    0.000    0.000    0.000    0.000    0.000    0.000 
#
# Total GULP energy -55683.826773 kJ/mol
# GULP energy per Si atom -5568.382677 kJ/mol
# Density = 2.249696 g / cm^3
# Si number density = 22.548276 Si / 1000 Ang^3
#
#
#
# Elastic Constant Matrix: (Units=GPa)
#
#
# Indices 1 2 3 4 5 6 
#
# 1 121.7481 30.6754 37.6202 0.0006 -38.8704 -0.0003
# 2 30.6754 93.3967 10.0324 -0.0004 -14.8836 0.0004
# 3 37.6202 10.0324 55.2076 0.0023 -23.3058 -0.0008
# 4 0.0006 -0.0004 0.0023 15.3546 0.0004 -3.4073
# 5 -38.8704 -14.8836 -23.3058 0.0004 42.4104 0.0002
# 6 -0.0003 0.0004 -0.0008 -3.4073 0.0002 19.6517
#
#
#
# Elastic Compliance Matrix: (Units=1/GPa)
#
#
# Indices 1 2 3 4 5 6 
#
# 1 0.013010 -0.002411 -0.004884 0.000000 0.008395 0.000000
# 2 -0.002411 0.011798 0.000409 0.000000 0.002156 0.000000
# 3 -0.004884 0.000409 0.025440 -0.000004 0.009647 0.000000
# 4 0.000000 0.000000 -0.000004 0.067733 -0.000003 0.011744
# 5 0.008395 0.002156 0.009647 -0.000003 0.037331 0.000000
# 6 0.000000 0.000000 0.000000 0.011744 0.000000 0.052922
#
#
# Mechanical properties :
#
#
# Convention : Reuss Voigt Hill
#
# Bulk Modulus (GPa) = 27.41472 47.44538 37.43005
# Shear Modulus (GPa) = 21.35241 28.28495 24.81868
#
# Velocity S-wave (km/s) = 3.08062 3.54562 3.32127
# Velocity P-wave (km/s) = 4.98380 6.15217 5.59855
#
# Compressibility (1/GPa) = 0.03647676
#
# Stress axis : x y z
#
# Youngs Moduli (GPa) = 76.86213 84.75706 39.30861
#
# Poissons Ratio (x) = 0.20433 0.19198
# Poissons Ratio (y) = 0.18530 -0.01607
# Poissons Ratio (z) = 0.37538 -0.03464
#
# Static dielectric constant tensor:
#      x y z
#    x 1.886360 0.000000 0.022380 
#    y 0.000000 1.849020 0.000000 
#    z 0.022380 0.000000 1.864430 
# 
# From -- ./inp_files/3615.got.cif
#   From: 2010.05.17/outbox.cif.g08.bks.cpg/sg9_2_cif.got.tgz:3615.got - 2010.06.03 20:04:27.
