data_PCOD9134278
_publ_section_title
;
Structure prediction by ZEFSAII (Michael W. Deem and Ramdas Pophale) SiO2 
 PCOD9134278
Probable space group: C C
;
_chemical_formula_sum "Si O2"
_cell_formula_units_Z 32
_cell_length_a 23.661415
_cell_length_b 10.980450
_cell_length_c 5.201147
_cell_angle_alpha 90.000000
_cell_angle_beta 93.606431
_cell_angle_gamma 90.000000
_cell_volume 1348.649460
_symmetry_space_group_name_H-M "C C"
_symmetry_group_IT_number 9
_symmetry_cell_setting 'monoclinic'
loop_
_space_group_symop_operation_xyz
x,y,z
x,-y,1/2+z
1/2+x,1/2+y,z
1/2+x,1/2-y,1/2+z
loop_
_atom_site_type_symbol
_atom_site_label
_atom_site_fract_x
_atom_site_fract_y
_atom_site_fract_z
Si Si1 0.322650 0.869558 0.527140
Si Si2 0.400697 0.297062 0.686134
Si Si3 0.299089 0.654748 0.892373
Si Si4 0.502873 0.424549 0.987271
Si Si5 0.126441 0.920427 0.915173
Si Si6 0.426945 0.951948 0.055901
Si Si7 0.217862 0.218215 0.750413
Si Si8 0.197448 0.430226 0.080729
O O1 0.359057 0.778408 0.360162
O O2 0.309234 0.789742 0.774574
O O3 0.261521 0.883375 0.373298
O O4 0.364710 0.982756 0.585213
O O5 0.360272 0.386282 0.512102
O O6 0.449393 0.350813 0.873616
O O7 0.424633 0.191048 0.507870
O O8 0.265676 0.579330 0.666706
O O9 0.256298 0.682077 0.113543
O O10 0.501303 0.539613 0.786570
O O11 0.563844 0.366479 0.943598
O O12 0.175327 0.833797 0.030264
O O13 0.130313 0.031890 0.124949
O O14 0.455665 0.977046 0.334888
O O15 0.187564 0.293811 0.970054
O O16 0.176726 0.518610 0.847051
#
# Coordination Sequence:
#
# PCOD9134278 Si02
#       8
#     4   4   4   4   4   4   4   4
#     4   9  20  34  52  92 126 158 194 242 307 373
#     4  10  21  36  59  85 119 164 203 244 310 362
#     4  10  20  36  54  90 125 166 205 239 303 376
#     4  10  24  44  64  88 120 159 213 266 305 352
#     4  10  24  43  65  94 122 160 210 264 319 369
#     4  10  19  33  52  79 119 150 180 237 291 360
#     4  10  22  38  63  89 127 163 207 248 316 373
#     4  11  22  38  57  83 122 162 202 248 293 357
#
# _framework density 23.727440999999999
#
# number of rings (size 3 to 8) (size 9 to 14) (size 15 to 20)
#    0.000    2.000    2.500    0.000    5.250    4.000 
#    0.000    0.000    0.000    3.000    0.000    0.000 
#    0.000    0.000    0.000    0.000    0.000    0.000 
#
# Total GULP energy -89269.328707 kJ/mol
# GULP energy per Si atom -5579.333044 kJ/mol
# Density = 2.367344 g / cm^3
# Si number density = 23.727441 Si / 1000 Ang^3
#
#
#
# Elastic Constant Matrix: (Units=GPa)
#
#
# Indices 1 2 3 4 5 6 
#
# 1 53.0560 13.3279 10.2230 0.0000 27.7205 0.0000
# 2 13.3279 37.8496 3.5742 0.0000 0.8085 0.0000
# 3 10.2230 3.5742 116.4130 0.0000 2.4647 0.0000
# 4 0.0000 0.0000 0.0000 45.1873 0.0000 11.3420
# 5 27.7205 0.8085 2.4647 0.0000 33.8446 0.0000
# 6 0.0000 0.0000 0.0000 11.3420 0.0000 20.1709
#
#
#
# Elastic Compliance Matrix: (Units=1/GPa)
#
#
# Indices 1 2 3 4 5 6 
#
# 1 0.038934 -0.012816 -0.002361 0.000000 -0.031411 0.000000
# 2 -0.012816 0.030727 -0.000025 0.000000 0.009765 0.000000
# 3 -0.002361 -0.000025 0.008771 0.000000 0.001295 0.000000
# 4 0.000000 0.000000 0.000000 0.025767 0.000000 -0.014488
# 5 -0.031411 0.009765 0.001295 0.000000 0.054946 0.000000
# 6 0.000000 0.000000 0.000000 -0.014488 0.000000 0.057723
#
#
# Mechanical properties :
#
#
# Convention : Reuss Voigt Hill
#
# Bulk Modulus (GPa) = 20.82062 29.06319 24.94191
# Shear Modulus (GPa) = 18.99124 31.85346 25.42235
#
# Velocity S-wave (km/s) = 2.83219 3.66795 3.27683
# Velocity P-wave (km/s) = 4.41464 5.49671 4.98512
#
# Compressibility (1/GPa) = 0.04802930
#
# Stress axis : x y z
#
# Youngs Moduli (GPa) = 25.68474 32.54474 114.01557
#
# Poissons Ratio (x) = 0.41709 0.26913
# Poissons Ratio (y) = 0.32917 0.00282
# Poissons Ratio (z) = 0.06063 0.00080
#
# Static dielectric constant tensor:
#      x y z
#    x 1.926300 0.000000 -0.028330 
#    y 0.000000 2.001790 0.000000 
#    z -0.028330 0.000000 2.005810 
# 
# From -- ./inp_files/3310.got.cif
#   From: 2010.05.17/outbox.cif.g08.bks.cpg/sg9_2_cif.got.tgz:3310.got - 2010.06.03 20:04:27.
