data_PCOD9134248
_publ_section_title
;
Structure prediction by ZEFSAII (Michael W. Deem and Ramdas Pophale) SiO2 
 PCOD9134248
Probable space group: C C
;
_chemical_formula_sum "Si O2"
_cell_formula_units_Z 32
_cell_length_a 8.000487
_cell_length_b 20.253819
_cell_length_c 8.809887
_cell_angle_alpha 90.000000
_cell_angle_beta 62.480048
_cell_angle_gamma 90.000000
_cell_volume 1266.029571
_symmetry_space_group_name_H-M "C C"
_symmetry_group_IT_number 9
_symmetry_cell_setting 'monoclinic'
loop_
_space_group_symop_operation_xyz
x,y,z
x,-y,1/2+z
1/2+x,1/2+y,z
1/2+x,1/2-y,1/2+z
loop_
_atom_site_type_symbol
_atom_site_label
_atom_site_fract_x
_atom_site_fract_y
_atom_site_fract_z
Si Si1 0.940550 0.469258 0.723960
Si Si2 0.136313 0.343443 0.576997
Si Si3 0.831623 0.605849 0.811296
Si Si4 0.313409 0.224599 0.387083
Si Si5 0.548558 0.778359 0.109635
Si Si6 0.672711 0.598212 0.553691
Si Si7 0.579785 0.463975 0.664734
Si Si8 0.370127 0.657060 0.293868
O O1 0.742095 0.474022 0.719808
O O2 0.075817 0.419347 0.578078
O O3 0.982949 0.545713 0.731979
O O4 0.872981 0.432469 0.906544
O O5 0.242539 0.299506 0.408148
O O6 0.256768 0.344781 0.681709
O O7 0.951855 0.300849 0.699133
O O8 0.941644 0.673928 0.772663
O O9 0.705699 0.615134 0.714037
O O10 0.685694 0.581069 0.996860
O O11 0.429266 0.223147 0.499859
O O12 0.155527 0.166845 0.472194
O O13 0.543460 0.706178 0.184312
O O14 0.742546 0.809948 0.975341
O O15 0.533459 0.535468 0.614226
O O16 0.420940 0.418598 0.801998
#
# Coordination Sequence:
#
# PCOD9134248 Si02
#       8
#     4   4   4   4   4   4   4   4
#     4   9  18  34  54  76 104 138 170 209 261 311
#     4   9  17  31  51  72  98 131 170 208 247 297
#     4   9  17  33  56  76  99 139 178 207 249 312
#     4   8  15  29  51  74  94 129 175 209 238 293
#     4   9  17  31  51  74 101 135 177 212 246 300
#     4   8  16  32  53  71  97 139 177 201 242 312
#     4  10  19  32  54  79 103 132 172 215 261 304
#     4  10  19  32  52  78 104 135 173 215 254 303
#
# _framework density 25.275870999999999
#
# number of rings (size 3 to 8) (size 9 to 14) (size 15 to 20)
#    0.000    3.000    0.000    1.500    0.000    3.000 
#    0.000   10.000    0.000    1.500    0.000    0.000 
#    0.000    0.000    0.000    0.000    0.000    0.000 
#
# Total GULP energy -89321.658166 kJ/mol
# GULP energy per Si atom -5582.603635 kJ/mol
# Density = 2.521834 g / cm^3
# Si number density = 25.275871 Si / 1000 Ang^3
#
#
#
# Elastic Constant Matrix: (Units=GPa)
#
#
# Indices 1 2 3 4 5 6 
#
# 1 44.9544 5.2497 9.3461 0.0000 4.5834 0.0000
# 2 5.2497 131.2287 -2.3779 0.0000 -17.5067 0.0000
# 3 9.3461 -2.3779 34.8589 0.0000 2.2384 0.0000
# 4 0.0000 0.0000 0.0000 32.4494 0.0000 -6.3454
# 5 4.5834 -17.5067 2.2384 0.0000 22.9918 0.0000
# 6 0.0000 0.0000 0.0000 -6.3454 0.0000 25.9476
#
#
#
# Elastic Compliance Matrix: (Units=1/GPa)
#
#
# Indices 1 2 3 4 5 6 
#
# 1 0.024343 -0.001840 -0.006290 0.000000 -0.005642 0.000000
# 2 -0.001840 0.008622 0.000640 0.000000 0.006870 0.000000
# 3 -0.006290 0.000640 0.030496 0.000000 -0.001227 0.000000
# 4 0.000000 0.000000 0.000000 0.032365 0.000000 0.007915
# 5 -0.005642 0.006870 -0.001227 0.000000 0.049969 0.000000
# 6 0.000000 0.000000 0.000000 0.007915 0.000000 0.040475
#
#
# Mechanical properties :
#
#
# Convention : Reuss Voigt Hill
#
# Bulk Modulus (GPa) = 20.62665 26.16420 23.39542
# Shear Modulus (GPa) = 22.99818 29.53271 26.26544
#
# Velocity S-wave (km/s) = 3.01971 3.42192 3.22708
# Velocity P-wave (km/s) = 4.50960 5.09771 4.81264
#
# Compressibility (1/GPa) = 0.04848098
#
# Stress axis : x y z
#
# Youngs Moduli (GPa) = 41.08031 115.98295 32.79118
#
# Poissons Ratio (x) = 0.21346 0.20625
# Poissons Ratio (y) = 0.07560 -0.02100
# Poissons Ratio (z) = 0.25839 -0.07428
#
# Static dielectric constant tensor:
#      x y z
#    x 2.066590 0.000000 0.009940 
#    y 0.000000 2.049150 0.000000 
#    z 0.009940 0.000000 2.016570 
# 
# From -- ./inp_files/5739.got.cif
#   From: 2010.05.17/outbox.cif.g08.bks.cpg/sg9_3_cif.got.tgz:5739.got - 2010.06.03 20:04:27.
