data_PCOD9134414
_publ_section_title
;
Structure prediction by ZEFSAII (Michael W. Deem and Ramdas Pophale) SiO2 
 PCOD9134414
Probable space group: C C
;
_chemical_formula_sum "Si O2"
_cell_formula_units_Z 32
_cell_length_a 20.089501
_cell_length_b 9.011705
_cell_length_c 19.919201
_cell_angle_alpha 90.000000
_cell_angle_beta 156.603486
_cell_angle_gamma 90.000000
_cell_volume 1431.987491
_symmetry_space_group_name_H-M "C C"
_symmetry_group_IT_number 9
_symmetry_cell_setting 'monoclinic'
loop_
_space_group_symop_operation_xyz
x,y,z
x,-y,1/2+z
1/2+x,1/2+y,z
1/2+x,1/2-y,1/2+z
loop_
_atom_site_type_symbol
_atom_site_label
_atom_site_fract_x
_atom_site_fract_y
_atom_site_fract_z
Si Si1 0.588740 0.638326 0.256950
Si Si2 0.199201 0.037690 0.500034
Si Si3 0.207949 0.469268 0.387568
Si Si4 0.075272 0.808085 0.598413
Si Si5 0.341192 0.437202 0.725658
Si Si6 0.543818 0.986726 0.368292
Si Si7 0.734100 0.987261 0.266892
Si Si8 0.189699 0.745633 0.565667
O O1 0.689473 0.568394 0.411844
O O2 0.605965 0.815090 0.283777
O O3 0.646795 0.621102 0.233290
O O4 0.398247 0.577748 0.082430
O O5 0.369791 0.092209 0.693148
O O6 0.211613 0.861453 0.526629
O O7 0.027628 0.095887 0.374712
O O8 0.119430 0.545075 0.368120
O O9 0.206022 0.553777 0.314647
O O10 0.085060 0.628607 0.612809
O O11 0.163441 0.837635 0.609413
O O12 0.890177 0.874229 0.421491
O O13 0.191248 0.388612 0.537543
O O14 0.285453 0.412060 0.751196
O O15 0.328326 0.617639 0.704631
O O16 0.535589 0.130670 0.408289
#
# Coordination Sequence:
#
# PCOD9134414 Si02
#       8
#     4   4   4   4   4   4   4   4
#     4  10  20  32  52  76 113 150 177 227 267 331
#     4  12  19  33  52  80 113 145 181 221 281 325
#     4  10  19  36  49  80 110 145 188 218 281 327
#     4   9  17  28  48  77 104 140 174 217 276 312
#     4   9  19  32  49  80 104 140 173 229 272 311
#     4  10  22  32  53  79 112 144 182 229 272 328
#     4   9  17  29  51  71 110 136 171 226 275 317
#     4   9  19  32  52  81 112 134 184 229 268 325
#
# _framework density 22.346564000000001
#
# number of rings (size 3 to 8) (size 9 to 14) (size 15 to 20)
#    0.750    1.500    2.500    1.500    1.750    1.000 
#    0.000    0.000    0.000    0.000    3.250    0.000 
#    0.000    0.000    0.000    0.000    0.000    0.000 
#
# Total GULP energy -89128.963881 kJ/mol
# GULP energy per Si atom -5570.560243 kJ/mol
# Density = 2.229570 g / cm^3
# Si number density = 22.346564 Si / 1000 Ang^3
#
#
#
# Elastic Constant Matrix: (Units=GPa)
#
#
# Indices 1 2 3 4 5 6 
#
# 1 151.2264 22.6481 71.6734 0.0002 -27.2933 0.0001
# 2 22.6481 35.3486 7.0371 0.0012 -2.3900 0.0007
# 3 71.6734 7.0371 136.9622 0.0009 -2.6132 0.0006
# 4 0.0002 0.0012 0.0009 24.2352 0.0004 -2.7372
# 5 -27.2933 -2.3900 -2.6132 0.0004 42.1615 0.0001
# 6 0.0001 0.0007 0.0006 -2.7372 0.0001 21.0341
#
#
#
# Elastic Compliance Matrix: (Units=1/GPa)
#
#
# Indices 1 2 3 4 5 6 
#
# 1 0.011249 -0.005671 -0.005469 0.000000 0.006622 0.000000
# 2 -0.005671 0.031540 0.001313 -0.000002 -0.001802 -0.000001
# 3 -0.005469 0.001313 0.010042 0.000000 -0.002844 0.000000
# 4 0.000000 -0.000002 0.000000 0.041878 0.000000 0.005450
# 5 0.006622 -0.001802 -0.002844 0.000000 0.027726 0.000000
# 6 0.000000 -0.000001 0.000000 0.005450 0.000000 0.048251
#
#
# Mechanical properties :
#
#
# Convention : Reuss Voigt Hill
#
# Bulk Modulus (GPa) = 30.14210 58.47269 44.30740
# Shear Modulus (GPa) = 24.82641 32.29808 28.56225
#
# Velocity S-wave (km/s) = 3.33674 3.80587 3.57900
# Velocity P-wave (km/s) = 5.32568 6.74803 6.07860
#
# Compressibility (1/GPa) = 0.03317619
#
# Stress axis : x y z
#
# Youngs Moduli (GPa) = 88.89722 31.70589 99.58630
#
# Poissons Ratio (x) = 0.17980 0.54463
# Poissons Ratio (y) = 0.50412 -0.13073
# Poissons Ratio (z) = 0.48618 -0.04162
#
# Static dielectric constant tensor:
#      x y z
#    x 1.880630 0.000000 -0.002660 
#    y 0.000000 1.847580 0.000000 
#    z -0.002660 0.000000 1.958780 
# 
# From -- ./inp_files/30988.got.cif
#   From: 2010.05.17/outbox.cif.g08.bks.cpg/sg9_16_cif.got.tgz:30988.got - 2010.06.03 20:04:27.
