data_PCOD9134662
_publ_section_title
;
Structure prediction by ZEFSAII (Michael W. Deem and Ramdas Pophale) SiO2 
 PCOD9134662
Probable space group: C C
;
_chemical_formula_sum "Si O2"
_cell_formula_units_Z 28
_cell_length_a 17.365256
_cell_length_b 11.577851
_cell_length_c 5.236703
_cell_angle_alpha 90.000000
_cell_angle_beta 84.010167
_cell_angle_gamma 90.000000
_cell_volume 1047.103308
_symmetry_space_group_name_H-M "C C"
_symmetry_group_IT_number 9
_symmetry_cell_setting 'monoclinic'
loop_
_space_group_symop_operation_xyz
x,y,z
x,-y,1/2+z
1/2+x,1/2+y,z
1/2+x,1/2-y,1/2+z
loop_
_atom_site_type_symbol
_atom_site_label
_atom_site_fract_x
_atom_site_fract_y
_atom_site_fract_z
Si Si1 0.768370 0.626105 0.093420
Si Si2 0.998707 0.425484 0.859062
Si Si3 0.174261 0.577424 0.626362
Si Si4 0.600362 0.333882 0.638172
Si Si5 0.858448 0.072379 0.547022
Si Si6 0.014232 0.182474 0.672561
Si Si7 0.827999 0.368046 0.068436
O O1 0.680940 0.606518 0.040840
O O2 0.806165 0.501338 0.128553
O O3 0.772079 0.682106 0.372110
O O4 0.815490 0.686511 0.849373
O O5 0.006464 0.525778 0.644932
O O6 0.036937 0.316646 0.706045
O O7 0.912633 0.370927 0.924708
O O8 0.157421 0.504247 0.374991
O O9 0.127923 0.698353 0.635177
O O10 0.266839 0.600532 0.601989
O O11 0.537011 0.362475 0.445151
O O12 0.568004 0.363531 0.926647
O O13 0.926732 0.158632 0.612240
O O14 0.869774 0.030929 0.251981
#
# Coordination Sequence:
#
# PCOD9134662 Si02
#       7
#     4   4   4   4   4   4   4
#     4  10  20  38  62  90 133 161 213 265 322 405
#     4  12  23  42  68 101 140 176 221 277 347 418
#     4  10  23  44  74  96 128 180 241 293 330 388
#     4  12  26  45  64 104 140 179 227 279 351 422
#     4  10  23  49  72  98 130 184 244 292 333 395
#     4  12  28  45  66 104 145 184 227 275 361 429
#     4  10  19  39  62  99 124 160 217 265 338 391
#
# _framework density 26.740435000000002
#
# number of rings (size 3 to 8) (size 9 to 14) (size 15 to 20)
#    0.000    1.143    2.857    3.429    2.000    3.429 
#   20.571    0.000    0.000    0.000    0.000    0.000 
#    0.000    0.000    0.000    0.000    0.000    0.000 
#
# Total GULP energy -78322.157722 kJ/mol
# GULP energy per Si atom -5594.439837 kJ/mol
# Density = 2.667957 g / cm^3
# Si number density = 26.740435 Si / 1000 Ang^3
#
#
#
# Elastic Constant Matrix: (Units=GPa)
#
#
# Indices 1 2 3 4 5 6 
#
# 1 105.3748 2.0426 39.7905 0.0000 7.8446 0.0000
# 2 2.0426 71.7052 15.4138 0.0000 -0.4483 0.0000
# 3 39.7905 15.4138 195.0103 0.0000 11.0400 0.0000
# 4 0.0000 0.0000 0.0000 27.6059 0.0000 0.2126
# 5 7.8446 -0.4483 11.0400 0.0000 55.0020 0.0000
# 6 0.0000 0.0000 0.0000 0.2126 0.0000 34.6978
#
#
#
# Elastic Compliance Matrix: (Units=1/GPa)
#
#
# Indices 1 2 3 4 5 6 
#
# 1 0.010345 0.000142 -0.002062 0.000000 -0.001060 0.000000
# 2 0.000142 0.014195 -0.001170 0.000000 0.000330 0.000000
# 3 -0.002062 -0.001170 0.005690 0.000000 -0.000857 0.000000
# 4 0.000000 0.000000 0.000000 0.036226 0.000000 -0.000222
# 5 -0.001060 0.000330 -0.000857 0.000000 0.018507 0.000000
# 6 0.000000 0.000000 0.000000 -0.000222 0.000000 0.028822
#
#
# Mechanical properties :
#
#
# Convention : Reuss Voigt Hill
#
# Bulk Modulus (GPa) = 41.57928 54.06489 47.82208
# Shear Modulus (GPa) = 39.06838 44.45070 41.75954
#
# Velocity S-wave (km/s) = 3.82648 4.08156 3.95608
# Velocity P-wave (km/s) = 5.92499 6.51724 6.22816
#
# Compressibility (1/GPa) = 0.02405044
#
# Stress axis : x y z
#
# Youngs Moduli (GPa) = 96.66749 70.44508 175.75741
#
# Poissons Ratio (x) = -0.01000 0.36241
# Poissons Ratio (y) = -0.01372 0.20558
# Poissons Ratio (z) = 0.19932 0.08240
#
# Static dielectric constant tensor:
#      x y z
#    x 2.125170 0.000000 0.050850 
#    y 0.000000 2.180910 0.000000 
#    z 0.050850 0.000000 2.082490 
# 
# From -- ./inp_files/2875.got.cif
#   From: 2010.05.17/outbox.cif.g08.bks.cpg/sg9_2_cif.got.tgz:2875.got - 2010.06.03 20:04:27.
