data_PCOD9134942
_publ_section_title
;
Structure prediction by ZEFSAII (Michael W. Deem and Ramdas Pophale) SiO2 
 PCOD9134942
Probable space group: C C
;
_chemical_formula_sum "Si O2"
_cell_formula_units_Z 20
_cell_length_a 6.404002
_cell_length_b 12.368990
_cell_length_c 10.490619
_cell_angle_alpha 90.000000
_cell_angle_beta 114.875429
_cell_angle_gamma 90.000000
_cell_volume 753.878881
_symmetry_space_group_name_H-M "C C"
_symmetry_group_IT_number 9
_symmetry_cell_setting 'monoclinic'
loop_
_space_group_symop_operation_xyz
x,y,z
x,-y,1/2+z
1/2+x,1/2+y,z
1/2+x,1/2-y,1/2+z
loop_
_atom_site_type_symbol
_atom_site_label
_atom_site_fract_x
_atom_site_fract_y
_atom_site_fract_z
Si Si1 0.599550 0.871924 0.552670
Si Si2 0.850478 0.128099 0.814332
Si Si3 0.673803 0.339436 0.639135
Si Si4 0.558532 0.945930 0.862703
Si Si5 0.764623 0.739131 0.807195
O O1 0.386623 0.855685 0.594549
O O2 0.609178 0.993722 0.507103
O O3 0.784730 0.805153 0.680339
O O4 0.508579 0.806579 0.407609
O O5 0.702030 0.222796 0.710525
O O6 0.696235 0.020316 0.794315
O O7 0.077309 0.143034 0.779282
O O8 0.961239 0.141115 0.987757
O O9 0.784668 0.424910 0.770478
O O10 0.679154 0.829714 0.885695
#
# Coordination Sequence:
#
# PCOD9134942 Si02
#       5
#     4   4   4   4   4
#     4   9  19  36  56  82 113 146 192 235 281 341
#     4   9  19  38  60  84 117 153 192 238 291 343
#     4   9  21  39  60  87 119 156 191 242 297 342
#     4  10  20  35  59  87 113 150 195 234 287 349
#     4   9  21  38  55  80 116 151 184 239 290 333
#
# _framework density 26.529458999999999
#
# number of rings (size 3 to 8) (size 9 to 14) (size 15 to 20)
#    0.000    3.200    0.000    0.000    0.000   16.000 
#    0.000   14.000    0.000    0.000    0.000    0.000 
#    0.000    0.000    0.000    0.000    0.000    0.000 
#
# Total GULP energy -55692.864810 kJ/mol
# GULP energy per Si atom -5569.286481 kJ/mol
# Density = 2.646908 g / cm^3
# Si number density = 26.529459 Si / 1000 Ang^3
#
#
#
# Elastic Constant Matrix: (Units=GPa)
#
#
# Indices 1 2 3 4 5 6 
#
# 1 32.3384 59.8327 21.7302 0.0000 34.7429 0.0000
# 2 59.8327 125.4969 -15.9794 0.0000 15.1338 0.0000
# 3 21.7302 -15.9794 71.6444 0.0000 13.2731 0.0000
# 4 0.0000 0.0000 0.0000 44.8704 0.0000 -12.1198
# 5 34.7429 15.1338 13.2731 0.0000 66.2598 0.0000
# 6 0.0000 0.0000 0.0000 -12.1198 0.0000 61.9309
#
#
#
# Elastic Compliance Matrix: (Units=1/GPa)
#
#
# Indices 1 2 3 4 5 6 
#
# 1 -0.063053 0.030213 0.021827 0.000000 0.021789 0.000000
# 2 0.030213 -0.005916 -0.008099 0.000000 -0.012869 0.000000
# 3 0.021827 -0.008099 0.007590 0.000000 -0.011115 0.000000
# 4 0.000000 0.000000 0.000000 0.023530 0.000000 0.004605
# 5 0.021789 -0.012869 -0.011115 0.000000 0.008833 0.000000
# 6 0.000000 0.000000 0.000000 0.004605 0.000000 0.017048
#
#
# Mechanical properties :
#
#
# Convention : Reuss Voigt Hill
#
# Bulk Modulus (GPa) = 37.73212 40.07185 38.90199
# Shear Modulus (GPa) = -54.93639 45.53863 -4.69888
#
# Velocity S-wave (km/s) = -4.55551 4.14760 -1.33231
# Velocity P-wave (km/s) = 3.66287 6.17043 3.51124
#
# Compressibility (1/GPa) = 0.02650262
#
# Stress axis : x y z
#
# Youngs Moduli (GPa) = -15.85958 -169.03769 131.74412
#
# Poissons Ratio (x) = 5.10720 -2.87553
# Poissons Ratio (y) = 0.47917 1.06703
# Poissons Ratio (z) = 0.34616 -1.36909
#
# Static dielectric constant tensor:
#      x y z
#    x 2.284600 0.000000 0.028470 
#    y 0.000000 2.070820 0.000000 
#    z 0.028470 0.000000 2.365160 
# 
# From -- ./inp_files/14048.got.cif
#   From: 2010.05.17/outbox.cif.g08.bks.cpg/sg9_8_cif.got.tgz:14048.got - 2010.06.03 20:04:27.
