data_PCOD9134002
_publ_section_title
;
Structure prediction by ZEFSAII (Michael W. Deem and Ramdas Pophale) SiO2 
 PCOD9134002
Probable space group: C C
;
_chemical_formula_sum "Si O2"
_cell_formula_units_Z 28
_cell_length_a 11.880516
_cell_length_b 16.784679
_cell_length_c 5.116695
_cell_angle_alpha 90.000000
_cell_angle_beta 80.098246
_cell_angle_gamma 90.000000
_cell_volume 1005.124788
_symmetry_space_group_name_H-M "C C"
_symmetry_group_IT_number 9
_symmetry_cell_setting 'monoclinic'
loop_
_space_group_symop_operation_xyz
x,y,z
x,-y,1/2+z
1/2+x,1/2+y,z
1/2+x,1/2-y,1/2+z
loop_
_atom_site_type_symbol
_atom_site_label
_atom_site_fract_x
_atom_site_fract_y
_atom_site_fract_z
Si Si1 0.697730 0.397060 0.680800
Si Si2 0.598755 0.225058 0.693246
Si Si3 0.599269 0.047091 0.558305
Si Si4 0.944944 0.739923 0.258847
Si Si5 0.965189 0.935331 0.523422
Si Si6 0.392151 0.390087 0.042584
Si Si7 0.839726 0.407631 0.099126
O O1 0.661403 0.305930 0.756857
O O2 0.580296 0.440886 0.644895
O O3 0.777699 0.391928 0.395214
O O4 0.757822 0.440835 0.901418
O O5 0.644894 0.134794 0.615824
O O6 0.545352 0.251137 0.434341
O O7 0.506878 0.212220 0.965119
O O8 0.461197 0.050671 0.605155
O O9 0.635252 0.016263 0.261702
O O10 0.856723 0.808322 0.196207
O O11 0.876413 0.672299 0.435053
O O12 0.992334 0.901118 0.226531
O O13 0.884274 0.013015 0.513014
O O14 0.898376 0.871983 0.733317
#
# Coordination Sequence:
#
# PCOD9134002 Si02
#       7
#     4   4   4   4   4   4   4
#     4  12  21  40  56  96 123 156 193 250 314 365
#     4  11  22  37  67  84 113 159 219 254 286 351
#     4  11  23  45  61  89 118 168 214 251 303 367
#     4  11  19  39  58  84 116 162 207 245 287 368
#     4  10  20  32  53  85 118 147 197 235 292 351
#     4  10  18  34  53  82 112 156 197 235 278 351
#     4  11  25  37  58  88 130 156 189 248 322 367
#
# _framework density 27.857240000000001
#
# number of rings (size 3 to 8) (size 9 to 14) (size 15 to 20)
#    0.000    1.143    2.857    6.000    0.000    0.000 
#   15.429    0.000    0.000    0.000   22.286    0.000 
#    0.000    0.000    0.000    0.000    0.000    0.000 
#
# Total GULP energy -78005.774730 kJ/mol
# GULP energy per Si atom -5571.841052 kJ/mol
# Density = 2.779384 g / cm^3
# Si number density = 27.857240 Si / 1000 Ang^3
#
#
#
# Elastic Constant Matrix: (Units=GPa)
#
#
# Indices 1 2 3 4 5 6 
#
# 1 10.8666 10.9934 -9.9604 0.0000 -18.1531 0.0000
# 2 10.9934 155.9759 16.2495 0.0000 -10.9308 0.0000
# 3 -9.9604 16.2495 181.0066 0.0000 5.6932 0.0000
# 4 0.0000 0.0000 0.0000 33.0259 0.0000 22.8496
# 5 -18.1531 -10.9308 5.6932 0.0000 31.4210 0.0000
# 6 0.0000 0.0000 0.0000 22.8496 0.0000 3.5898
#
#
#
# Elastic Compliance Matrix: (Units=1/GPa)
#
#
# Indices 1 2 3 4 5 6 
#
# 1 -16.922903 0.602722 -0.688342 0.000000 -9.442582 0.000000
# 2 0.602722 -0.014814 0.023842 0.000000 0.338741 0.000000
# 3 -0.688342 0.023842 -0.022374 0.000000 -0.385332 0.000000
# 4 0.000000 0.000000 0.000000 -0.008896 0.000000 0.056622
# 5 -9.442582 0.338741 -0.385332 0.000000 -5.235838 0.000000
# 6 0.000000 0.000000 0.000000 0.056622 0.000000 -0.081839
#
#
# Mechanical properties :
#
#
# Convention : Reuss Voigt Hill
#
# Bulk Modulus (GPa) = -0.05854 42.49045 21.21596
# Shear Modulus (GPa) = -0.17948 35.64513 17.73282
#
# Velocity S-wave (km/s) = -0.25411 3.58098 2.52575
# Velocity P-wave (km/s) = 0.32734 5.69069 4.01726
#
# Compressibility (1/GPa) = -17.08364737
#
# Stress axis : x y z
#
# Youngs Moduli (GPa) = -0.05909 -67.50275 -44.69503
#
# Poissons Ratio (x) = 40.68538 -30.76546
# Poissons Ratio (y) = 0.03562 1.06562
# Poissons Ratio (z) = -0.04068 1.60940
#
# Static dielectric constant tensor:
#      x y z
#    x 2.434870 0.000000 -0.094290 
#    y 0.000000 2.420050 0.000000 
#    z -0.094290 0.000000 2.208860 
# 
# From -- ./inp_files/2462.got.cif
#   From: 2010.05.17/outbox.cif.g08.bks.cpg/sg9_2_cif.got.tgz:2462.got - 2010.06.03 20:04:27.
