data_PCOD9134345
_publ_section_title
;
Structure prediction by ZEFSAII (Michael W. Deem and Ramdas Pophale) SiO2 
 PCOD9134345
Probable space group: C C
;
_chemical_formula_sum "Si O2"
_cell_formula_units_Z 24
_cell_length_a 9.189056
_cell_length_b 18.259957
_cell_length_c 10.779904
_cell_angle_alpha 90.000000
_cell_angle_beta 30.933248
_cell_angle_gamma 90.000000
_cell_volume 929.783185
_symmetry_space_group_name_H-M "C C"
_symmetry_group_IT_number 9
_symmetry_cell_setting 'monoclinic'
loop_
_space_group_symop_operation_xyz
x,y,z
x,-y,1/2+z
1/2+x,1/2+y,z
1/2+x,1/2-y,1/2+z
loop_
_atom_site_type_symbol
_atom_site_label
_atom_site_fract_x
_atom_site_fract_y
_atom_site_fract_z
Si Si1 0.469790 0.322402 0.790000
Si Si2 0.797944 0.223726 0.738952
Si Si3 0.495274 0.788560 0.944777
Si Si4 0.933472 0.544021 0.485404
Si Si5 0.000191 0.032177 0.187888
Si Si6 0.329976 0.428483 0.120696
O O1 0.670240 0.262539 0.706664
O O2 0.191442 0.291653 0.927222
O O3 0.598058 0.383189 0.600425
O O4 0.412264 0.379924 0.943587
O O5 0.739846 0.137334 0.781078
O O6 0.130142 0.239264 0.474628
O O7 0.441546 0.871891 0.944001
O O8 0.701161 0.747874 0.698875
O O9 0.156613 0.536849 0.434042
O O10 0.075490 0.485319 0.287927
O O11 0.620359 0.512043 0.717458
O O12 0.054340 0.977861 0.031966
#
# Coordination Sequence:
#
# PCOD9134345 Si02
#       6
#     4   4   4   4   4   4
#     4  10  20  38  66 103 138 191 241 308 357 443
#     4  10  19  34  60  93 132 172 229 290 347 416
#     4  11  24  43  70 104 145 198 249 305 372 451
#     4   9  21  41  66  98 145 188 245 299 371 445
#     4   9  20  40  61  97 143 181 244 296 373 431
#     4   9  20  38  63  99 139 180 238 304 360 426
#
# _framework density 25.812469
#
# number of rings (size 3 to 8) (size 9 to 14) (size 15 to 20)
#    1.000    1.333    0.000    3.000    0.000    5.333 
#    6.000    3.333    0.000    0.000    0.000    0.000 
#    0.000    0.000    0.000    0.000    0.000    0.000 
#
# Total GULP energy -66908.792023 kJ/mol
# GULP energy per Si atom -5575.732669 kJ/mol
# Density = 2.575372 g / cm^3
# Si number density = 25.812469 Si / 1000 Ang^3
#
#
#
# Elastic Constant Matrix: (Units=GPa)
#
#
# Indices 1 2 3 4 5 6 
#
# 1 88.9912 29.8186 25.2212 -0.0060 -10.8491 0.0026
# 2 29.8186 203.4773 70.1891 -0.0026 -15.4091 0.0012
# 3 25.2212 70.1891 121.8560 -0.0137 -9.9694 0.0076
# 4 -0.0060 -0.0026 -0.0137 38.6782 0.0063 -6.5454
# 5 -10.8491 -15.4091 -9.9694 0.0063 42.0237 -0.0032
# 6 0.0026 0.0012 0.0076 -6.5454 -0.0032 50.6668
#
#
#
# Elastic Compliance Matrix: (Units=1/GPa)
#
#
# Indices 1 2 3 4 5 6 
#
# 1 0.012375 -0.001018 -0.001778 0.000001 0.002399 0.000000
# 2 -0.001018 0.006303 -0.003317 -0.000001 0.001262 0.000000
# 3 -0.001778 -0.003317 0.010553 0.000003 0.000828 -0.000001
# 4 0.000001 -0.000001 0.000003 0.026432 -0.000003 0.003415
# 5 0.002399 0.001262 0.000828 -0.000003 0.025075 0.000001
# 6 0.000000 0.000000 -0.000001 0.003415 0.000001 0.020178
#
#
# Mechanical properties :
#
#
# Convention : Reuss Voigt Hill
#
# Bulk Modulus (GPa) = 58.80994 73.86468 66.33731
# Shear Modulus (GPa) = 42.08372 45.54678 43.81525
#
# Velocity S-wave (km/s) = 4.04216 4.20518 4.12448
# Velocity P-wave (km/s) = 6.67970 7.22884 6.95969
#
# Compressibility (1/GPa) = 0.01700393
#
# Stress axis : x y z
#
# Youngs Moduli (GPa) = 80.80922 158.64343 94.76214
#
# Poissons Ratio (x) = 0.16155 0.16853
# Poissons Ratio (y) = 0.08229 0.31431
# Poissons Ratio (z) = 0.14371 0.52619
#
# Static dielectric constant tensor:
#      x y z
#    x 2.191140 0.000000 0.012690 
#    y 0.000000 2.071770 0.000000 
#    z 0.012690 0.000000 2.124640 
# 
# From -- ./inp_files/1628.got.cif
#   From: 2010.05.17/outbox.cif.g08.bks.cpg/sg9_1_cif.got.tgz:1628.got - 2010.06.03 20:04:27.
