data_PCOD9134744
_publ_section_title
;
Structure prediction by ZEFSAII (Michael W. Deem and Ramdas Pophale) SiO2 
 PCOD9134744
Probable space group: C C
;
_chemical_formula_sum "Si O2"
_cell_formula_units_Z 32
_cell_length_a 9.499835
_cell_length_b 12.128761
_cell_length_c 13.090018
_cell_angle_alpha 90.000000
_cell_angle_beta 79.684258
_cell_angle_gamma 90.000000
_cell_volume 1483.868443
_symmetry_space_group_name_H-M "C C"
_symmetry_group_IT_number 9
_symmetry_cell_setting 'monoclinic'
loop_
_space_group_symop_operation_xyz
x,y,z
x,-y,1/2+z
1/2+x,1/2+y,z
1/2+x,1/2-y,1/2+z
loop_
_atom_site_type_symbol
_atom_site_label
_atom_site_fract_x
_atom_site_fract_y
_atom_site_fract_z
Si Si1 0.849540 0.828351 0.071980
Si Si2 0.648116 0.247785 0.966326
Si Si3 0.001415 0.913811 0.694833
Si Si4 0.595075 0.824540 0.255466
Si Si5 0.249360 0.096649 0.005693
Si Si6 0.204854 0.963028 0.826318
Si Si7 0.447789 0.987974 0.643969
Si Si8 0.269118 0.429311 0.572382
O O1 0.756469 0.834046 0.188487
O O2 0.781432 0.725265 0.020162
O O3 0.824144 0.950249 0.026213
O O4 0.015294 0.791598 0.053414
O O5 0.595631 0.168861 0.878408
O O6 0.691446 0.360140 0.903698
O O7 0.777807 0.182093 0.004137
O O8 0.036288 0.795322 0.736081
O O9 0.099638 0.929042 0.581525
O O10 0.064603 0.988979 0.776349
O O11 0.843347 0.920019 0.672879
O O12 0.496939 0.904474 0.199929
O O13 0.365490 0.017907 0.046925
O O14 0.242388 0.067258 0.889271
O O15 0.330573 0.932031 0.731636
O O16 0.598834 0.931983 0.606235
#
# Coordination Sequence:
#
# PCOD9134744 Si02
#       8
#     4   4   4   4   4   4   4   4
#     4  10  21  42  67  92 140 168 220 288 331 400
#     4  11  22  40  70  93 134 181 219 281 345 401
#     4   9  21  41  61  93 135 164 217 278 339 393
#     4   9  21  41  65  96 134 170 221 282 329 415
#     4  10  19  40  68  90 125 179 217 273 332 404
#     4  10  22  40  69  95 128 181 224 270 338 419
#     4  10  21  39  66  94 131 171 223 275 338 404
#     4  11  23  41  68  97 131 180 217 285 346 392
#
# _framework density 21.565252999999998
#
# number of rings (size 3 to 8) (size 9 to 14) (size 15 to 20)
#    0.000    2.000    1.250    2.250    1.750    0.000 
#   13.500    0.000    8.250    0.000    0.000    0.000 
#    0.000    0.000    0.000    0.000    0.000    0.000 
#
# Total GULP energy -89108.560979 kJ/mol
# GULP energy per Si atom -5569.285061 kJ/mol
# Density = 2.151617 g / cm^3
# Si number density = 21.565253 Si / 1000 Ang^3
#
#
#
# Elastic Constant Matrix: (Units=GPa)
#
#
# Indices 1 2 3 4 5 6 
#
# 1 57.8747 18.1134 20.7941 0.0000 18.5226 0.0000
# 2 18.1134 69.7064 21.7291 0.0000 7.9583 0.0000
# 3 20.7941 21.7291 70.0987 0.0000 14.5835 0.0000
# 4 0.0000 0.0000 0.0000 2.5434 0.0000 3.8145
# 5 18.5226 7.9583 14.5835 0.0000 29.8760 0.0000
# 6 0.0000 0.0000 0.0000 3.8145 0.0000 29.9257
#
#
#
# Elastic Compliance Matrix: (Units=1/GPa)
#
#
# Indices 1 2 3 4 5 6 
#
# 1 0.023449 -0.003693 -0.003329 0.000000 -0.011929 0.000000
# 2 -0.003693 0.016574 -0.004007 0.000000 -0.000169 0.000000
# 3 -0.003329 -0.004007 0.017635 0.000000 -0.005477 0.000000
# 4 0.000000 0.000000 0.000000 0.486110 0.000000 -0.061962
# 5 -0.011929 -0.000169 -0.005477 0.000000 0.043586 0.000000
# 6 0.000000 0.000000 0.000000 -0.061962 0.000000 0.041314
#
#
# Mechanical properties :
#
#
# Convention : Reuss Voigt Hill
#
# Bulk Modulus (GPa) = 28.09131 35.43924 31.76527
# Shear Modulus (GPa) = 7.54612 21.60523 14.57567
#
# Velocity S-wave (km/s) = 1.87264 3.16864 2.60260
# Velocity P-wave (km/s) = 4.21072 5.46408 4.87783
#
# Compressibility (1/GPa) = 0.03559820
#
# Stress axis : x y z
#
# Youngs Moduli (GPa) = 42.64651 60.33555 56.70685
#
# Poissons Ratio (x) = 0.22285 0.18879
# Poissons Ratio (y) = 0.15751 0.22721
# Poissons Ratio (z) = 0.14198 0.24175
#
# Static dielectric constant tensor:
#      x y z
#    x 1.822150 0.000000 -0.001480 
#    y 0.000000 1.860960 0.000000 
#    z -0.001480 0.000000 1.827250 
# 
# From -- ./inp_files/14763.got.cif
#   From: 2010.05.17/outbox.cif.g08.bks.cpg/sg9_8_cif.got.tgz:14763.got - 2010.06.03 20:04:27.
