data_PCOD9134205
_publ_section_title
;
Structure prediction by ZEFSAII (Michael W. Deem and Ramdas Pophale) SiO2 
 PCOD9134205
Probable space group: C C
;
_chemical_formula_sum "Si O2"
_cell_formula_units_Z 24
_cell_length_a 6.419660
_cell_length_b 13.310946
_cell_length_c 12.066251
_cell_angle_alpha 90.000000
_cell_angle_beta 112.131110
_cell_angle_gamma 90.000000
_cell_volume 955.116442
_symmetry_space_group_name_H-M "C C"
_symmetry_group_IT_number 9
_symmetry_cell_setting 'monoclinic'
loop_
_space_group_symop_operation_xyz
x,y,z
x,-y,1/2+z
1/2+x,1/2+y,z
1/2+x,1/2-y,1/2+z
loop_
_atom_site_type_symbol
_atom_site_label
_atom_site_fract_x
_atom_site_fract_y
_atom_site_fract_z
Si Si1 0.740790 0.124617 0.707280
Si Si2 0.952492 0.025323 0.072451
Si Si3 0.349099 0.632106 0.385082
Si Si4 0.918495 0.519522 0.281469
Si Si5 0.378564 0.714166 0.160281
Si Si6 0.225842 0.166108 0.837123
O O1 0.589334 0.050206 0.747709
O O2 0.580223 0.219057 0.653218
O O3 0.827538 0.058092 0.622890
O O4 0.965869 0.159620 0.814820
O O5 0.204312 0.046252 0.164892
O O6 0.819946 0.130861 0.056012
O O7 0.968162 0.961434 0.964083
O O8 0.434213 0.640407 0.275805
O O9 0.366469 0.747832 0.428684
O O10 0.081292 0.610919 0.342518
O O11 0.831532 0.444185 0.359046
O O12 0.231701 0.792203 0.207596
#
# Coordination Sequence:
#
# PCOD9134205 Si02
#       6
#     4   4   4   4   4   4
#     4  10  18  41  63  83 123 166 198 258 312 358
#     4  11  22  40  64  92 121 167 211 248 311 376
#     4  10  21  42  61  94 124 161 212 251 311 370
#     4  10  20  40  62  88 129 159 200 264 306 360
#     4   9  20  38  60  86 127 158 200 260 305 356
#     4   8  19  37  62  83 122 163 197 259 311 352
#
# _framework density 25.127825999999999
#
# number of rings (size 3 to 8) (size 9 to 14) (size 15 to 20)
#    1.000    1.333    1.667    1.000    0.000    0.000 
#   18.000    0.000    0.000    0.000    0.000    0.000 
#    0.000    0.000    0.000    0.000    0.000    0.000 
#
# Total GULP energy -66864.482681 kJ/mol
# GULP energy per Si atom -5572.040223 kJ/mol
# Density = 2.507063 g / cm^3
# Si number density = 25.127826 Si / 1000 Ang^3
#
#
#
# Elastic Constant Matrix: (Units=GPa)
#
#
# Indices 1 2 3 4 5 6 
#
# 1 104.2009 38.2202 17.4537 0.0000 3.5869 0.0000
# 2 38.2202 128.5105 7.0653 0.0000 -6.0916 0.0000
# 3 17.4537 7.0653 18.1936 0.0000 0.1312 0.0000
# 4 0.0000 0.0000 0.0000 15.9098 0.0000 2.3364
# 5 3.5869 -6.0916 0.1312 0.0000 30.2384 0.0000
# 6 0.0000 0.0000 0.0000 2.3364 0.0000 49.5893
#
#
#
# Elastic Compliance Matrix: (Units=1/GPa)
#
#
# Indices 1 2 3 4 5 6 
#
# 1 0.012696 -0.003278 -0.010892 0.000000 -0.002119 0.000000
# 2 -0.003278 0.008877 -0.000319 0.000000 0.002178 0.000000
# 3 -0.010892 -0.000319 0.065530 0.000000 0.000943 0.000000
# 4 0.000000 0.000000 0.000000 0.063292 0.000000 -0.002982
# 5 -0.002119 0.002178 0.000943 0.000000 0.033757 0.000000
# 6 0.000000 0.000000 0.000000 -0.002982 0.000000 0.020306
#
#
# Mechanical properties :
#
#
# Convention : Reuss Voigt Hill
#
# Bulk Modulus (GPa) = 17.20364 41.82038 29.51201
# Shear Modulus (GPa) = 19.77761 31.69188 25.73474
#
# Velocity S-wave (km/s) = 2.80854 3.55523 3.20371
# Velocity P-wave (km/s) = 4.16875 5.79069 5.04532
#
# Compressibility (1/GPa) = 0.05812723
#
# Stress axis : x y z
#
# Youngs Moduli (GPa) = 78.76223 112.64993 15.26012
#
# Poissons Ratio (x) = 0.36923 0.16621
# Poissons Ratio (y) = 0.25816 0.00486
# Poissons Ratio (z) = 0.85788 0.03589
#
# Static dielectric constant tensor:
#      x y z
#    x 1.960210 0.000000 0.009500 
#    y 0.000000 2.047180 0.000000 
#    z 0.009500 0.000000 2.143600 
# 
# From -- ./inp_files/21684.got.cif
#   From: 2010.05.17/outbox.cif.g08.bks.cpg/sg9_11_cif.got.tgz:21684.got - 2010.06.03 20:04:27.
