data_PCOD9134756
_publ_section_title
;
Structure prediction by ZEFSAII (Michael W. Deem and Ramdas Pophale) SiO2 
 PCOD9134756
Probable space group: C C
;
_chemical_formula_sum "Si O2"
_cell_formula_units_Z 28
_cell_length_a 9.052148
_cell_length_b 13.555866
_cell_length_c 9.732686
_cell_angle_alpha 90.000000
_cell_angle_beta 72.246248
_cell_angle_gamma 90.000000
_cell_volume 1137.417726
_symmetry_space_group_name_H-M "C C"
_symmetry_group_IT_number 9
_symmetry_cell_setting 'monoclinic'
loop_
_space_group_symop_operation_xyz
x,y,z
x,-y,1/2+z
1/2+x,1/2+y,z
1/2+x,1/2-y,1/2+z
loop_
_atom_site_type_symbol
_atom_site_label
_atom_site_fract_x
_atom_site_fract_y
_atom_site_fract_z
Si Si1 0.854650 0.878986 0.123030
Si Si2 0.696045 0.608655 0.573839
Si Si3 0.813140 0.975841 0.409017
Si Si4 0.534497 0.861881 0.581569
Si Si5 0.524141 0.194903 0.779002
Si Si6 0.845081 0.199784 0.094059
Si Si7 0.317573 0.003889 0.787460
O O1 0.631838 0.954170 0.489001
O O2 0.707962 0.809798 0.194240
O O3 0.835063 0.967690 0.240867
O O4 0.853081 0.923935 0.972441
O O5 0.526682 0.654297 0.607758
O O6 0.826621 0.693212 0.527446
O O7 0.699929 0.554830 0.717509
O O8 0.734801 0.527928 0.449275
O O9 0.894125 0.884380 0.470650
O O10 0.502529 0.800562 0.449930
O O11 0.661425 0.827057 0.659834
O O12 0.386664 0.906452 0.696876
O O13 0.441211 0.275787 0.704165
O O14 0.448911 0.087842 0.766734
#
# Coordination Sequence:
#
# PCOD9134756 Si02
#       7
#     4   4   4   4   4   4   4
#     4  11  21  41  66  96 134 166 221 270 328 394
#     4  11  24  38  63  96 134 171 214 275 321 394
#     4   9  21  41  65  94 126 166 215 272 320 394
#     4   9  19  39  65  94 127 165 219 275 311 399
#     4  10  19  40  72  94 125 180 218 269 331 395
#     4   9  22  41  64  96 130 165 224 269 332 380
#     4  11  20  40  69  94 126 179 223 258 331 398
#
# _framework density 24.617166000000001
#
# number of rings (size 3 to 8) (size 9 to 14) (size 15 to 20)
#    0.857    1.143    2.857    0.857    0.000    1.143 
#    5.143    0.000    0.000    0.000    0.000    0.000 
#    0.000    0.000    0.000    0.000    0.000    0.000 
#
# Total GULP energy -78097.586790 kJ/mol
# GULP energy per Si atom -5578.399056 kJ/mol
# Density = 2.456114 g / cm^3
# Si number density = 24.617166 Si / 1000 Ang^3
#
#
#
# Elastic Constant Matrix: (Units=GPa)
#
#
# Indices 1 2 3 4 5 6 
#
# 1 105.0115 30.0138 22.6444 0.0000 24.1270 0.0000
# 2 30.0138 59.1106 34.4706 0.0000 13.1096 0.0000
# 3 22.6444 34.4706 79.2719 0.0000 16.2223 0.0000
# 4 0.0000 0.0000 0.0000 20.8856 0.0000 10.5384
# 5 24.1270 13.1096 16.2223 0.0000 32.7596 0.0000
# 6 0.0000 0.0000 0.0000 10.5384 0.0000 25.8338
#
#
#
# Elastic Compliance Matrix: (Units=1/GPa)
#
#
# Indices 1 2 3 4 5 6 
#
# 1 0.012571 -0.004737 -0.000027 0.000000 -0.007349 0.000000
# 2 -0.004737 0.025108 -0.009150 0.000000 -0.002028 0.000000
# 3 -0.000027 -0.009150 0.017635 0.000000 -0.005051 0.000000
# 4 0.000000 0.000000 0.000000 0.060289 0.000000 -0.024594
# 5 -0.007349 -0.002028 -0.005051 0.000000 0.039251 0.000000
# 6 0.000000 0.000000 0.000000 -0.024594 0.000000 0.048742
#
#
# Mechanical properties :
#
#
# Convention : Reuss Voigt Hill
#
# Bulk Modulus (GPa) = 36.38230 46.40571 41.39401
# Shear Modulus (GPa) = 20.78250 26.31348 23.54799
#
# Velocity S-wave (km/s) = 2.90871 3.27296 3.09620
# Velocity P-wave (km/s) = 5.10805 5.75977 5.44367
#
# Compressibility (1/GPa) = 0.02748590
#
# Stress axis : x y z
#
# Youngs Moduli (GPa) = 79.54710 39.82726 56.70556
#
# Poissons Ratio (x) = 0.18868 0.00153
# Poissons Ratio (y) = 0.37685 0.51885
# Poissons Ratio (z) = 0.00215 0.36442
#
# Static dielectric constant tensor:
#      x y z
#    x 1.970090 0.000000 0.015420 
#    y 0.000000 2.006980 0.000000 
#    z 0.015420 0.000000 1.896840 
# 
# From -- ./inp_files/7191.got.cif
#   From: 2010.05.17/outbox.cif.g08.bks.cpg/sg9_4_cif.got.tgz:7191.got - 2010.06.03 20:04:27.
