data_PCOD9134763
_publ_section_title
;
Structure prediction by ZEFSAII (Michael W. Deem and Ramdas Pophale) SiO2 
 PCOD9134763
Probable space group: C C
;
_chemical_formula_sum "Si O2"
_cell_formula_units_Z 24
_cell_length_a 7.286038
_cell_length_b 17.340185
_cell_length_c 7.982815
_cell_angle_alpha 90.000000
_cell_angle_beta 72.178985
_cell_angle_gamma 90.000000
_cell_volume 960.165331
_symmetry_space_group_name_H-M "C C"
_symmetry_group_IT_number 9
_symmetry_cell_setting 'monoclinic'
loop_
_space_group_symop_operation_xyz
x,y,z
x,-y,1/2+z
1/2+x,1/2+y,z
1/2+x,1/2-y,1/2+z
loop_
_atom_site_type_symbol
_atom_site_label
_atom_site_fract_x
_atom_site_fract_y
_atom_site_fract_z
Si Si1 0.087320 0.092622 0.453330
Si Si2 0.758883 0.194585 0.631977
Si Si3 0.946898 0.345087 0.002394
Si Si4 0.860730 0.963815 0.722228
Si Si5 0.148506 0.199846 0.874460
Si Si6 0.772462 0.890989 0.445217
O O1 0.308947 0.098903 0.440165
O O2 0.016730 0.083434 0.284803
O O3 0.979578 0.168971 0.552381
O O4 0.989752 0.020582 0.572058
O O5 0.641869 0.132743 0.546083
O O6 0.718464 0.273552 0.542206
O O7 0.696456 0.174413 0.839239
O O8 0.819702 0.311710 0.195486
O O9 0.013971 0.273580 0.870116
O O10 0.723329 0.908311 0.651322
O O11 0.744574 0.027475 0.860838
O O12 0.001431 0.128985 0.904426
#
# Coordination Sequence:
#
# PCOD9134763 Si02
#       6
#     4   4   4   4   4   4
#     4  10  19  43  62  92 133 168 219 263 322 393
#     4   9  22  37  63  89 131 165 212 268 322 382
#     4  10  22  40  63  98 131 166 218 262 335 385
#     4   9  20  35  71  84 126 180 207 263 321 375
#     4  10  22  38  64  95 127 165 212 269 325 382
#     4  10  19  41  61  94 120 172 214 257 321 385
#
# _framework density 24.995694
#
# number of rings (size 3 to 8) (size 9 to 14) (size 15 to 20)
#    1.000    1.333    3.333    0.000    2.333    2.667 
#    0.000    6.667    0.000    0.000    0.000    0.000 
#    0.000    0.000    0.000    0.000    0.000    0.000 
#
# Total GULP energy -66836.574752 kJ/mol
# GULP energy per Si atom -5569.714563 kJ/mol
# Density = 2.493880 g / cm^3
# Si number density = 24.995694 Si / 1000 Ang^3
#
#
#
# Elastic Constant Matrix: (Units=GPa)
#
#
# Indices 1 2 3 4 5 6 
#
# 1 86.1557 7.0600 19.9064 0.0000 12.3265 0.0000
# 2 7.0600 71.3782 34.4629 0.0000 -0.6704 0.0000
# 3 19.9064 34.4629 115.3455 0.0000 42.0099 0.0000
# 4 0.0000 0.0000 0.0000 55.3572 0.0000 10.7874
# 5 12.3265 -0.6704 42.0099 0.0000 45.1158 0.0000
# 6 0.0000 0.0000 0.0000 10.7874 0.0000 28.9183
#
#
#
# Elastic Compliance Matrix: (Units=1/GPa)
#
#
# Indices 1 2 3 4 5 6 
#
# 1 0.012247 -0.000746 -0.001011 0.000000 -0.002416 0.000000
# 2 -0.000746 0.018156 -0.008274 0.000000 0.008178 0.000000
# 3 -0.001011 -0.008274 0.017039 0.000000 -0.015713 0.000000
# 4 0.000000 0.000000 0.000000 0.019481 0.000000 -0.007267
# 5 -0.002416 0.008178 -0.015713 0.000000 0.037578 0.000000
# 6 0.000000 0.000000 0.000000 -0.007267 0.000000 0.037291
#
#
# Mechanical properties :
#
#
# Convention : Reuss Voigt Hill
#
# Bulk Modulus (GPa) = 36.52384 43.97086 40.24735
# Shear Modulus (GPa) = 29.24316 39.97492 34.60904
#
# Velocity S-wave (km/s) = 3.42413 4.00343 3.72506
# Velocity P-wave (km/s) = 5.50242 6.24496 5.88541
#
# Compressibility (1/GPa) = 0.02737937
#
# Stress axis : x y z
#
# Youngs Moduli (GPa) = 81.65101 55.07965 58.68885
#
# Poissons Ratio (x) = 0.04109 0.05932
# Poissons Ratio (y) = 0.06091 0.48561
# Poissons Ratio (z) = 0.08253 0.45575
#
# Static dielectric constant tensor:
#      x y z
#    x 1.920660 0.000000 0.025450 
#    y 0.000000 1.958590 0.000000 
#    z 0.025450 0.000000 2.153000 
# 
# From -- ./inp_files/5232.got.cif
#   From: 2010.05.17/outbox.cif.g08.bks.cpg/sg9_3_cif.got.tgz:5232.got - 2010.06.03 20:04:27.
