data_PCOD9134532
_publ_section_title
;
Structure prediction by ZEFSAII (Michael W. Deem and Ramdas Pophale) SiO2 
 PCOD9134532
Probable space group: C C
;
_chemical_formula_sum "Si O2"
_cell_formula_units_Z 28
_cell_length_a 7.380388
_cell_length_b 17.412169
_cell_length_c 9.266325
_cell_angle_alpha 90.000000
_cell_angle_beta 122.030172
_cell_angle_gamma 90.000000
_cell_volume 1009.525023
_symmetry_space_group_name_H-M "C C"
_symmetry_group_IT_number 9
_symmetry_cell_setting 'monoclinic'
loop_
_space_group_symop_operation_xyz
x,y,z
x,-y,1/2+z
1/2+x,1/2+y,z
1/2+x,1/2-y,1/2+z
loop_
_atom_site_type_symbol
_atom_site_label
_atom_site_fract_x
_atom_site_fract_y
_atom_site_fract_z
Si Si1 0.123290 0.817795 0.948230
Si Si2 0.890335 0.506134 0.698890
Si Si3 0.974291 0.654266 0.814165
Si Si4 0.063504 0.184908 0.994116
Si Si5 0.566209 0.545019 0.812405
Si Si6 0.304273 0.395600 0.653075
Si Si7 0.440655 0.148288 0.345087
O O1 0.269985 0.867376 0.902084
O O2 0.101700 0.734592 0.865808
O O3 0.889038 0.854001 0.834115
O O4 0.247603 0.816306 0.151150
O O5 0.036093 0.581375 0.739060
O O6 0.721532 0.541311 0.741856
O O7 0.725576 0.480862 0.507888
O O8 0.017020 0.435687 0.825124
O O9 0.060914 0.620927 0.004908
O O10 0.932386 0.144700 0.072431
O O11 0.304473 0.175720 0.150440
O O12 0.049048 0.275094 0.952149
O O13 0.007180 0.131304 0.833919
O O14 0.377996 0.483588 0.703203
#
# Coordination Sequence:
#
# PCOD9134532 Si02
#       7
#     4   4   4   4   4   4   4
#     4  11  19  37  64  92 135 163 235 267 317 395
#     4  11  23  41  68  92 139 174 221 276 334 394
#     4  12  22  35  65 102 123 178 218 283 326 388
#     4  10  21  36  67  93 129 169 225 273 332 383
#     4  11  21  44  63  95 137 178 212 283 330 392
#     4  11  21  38  65 100 126 174 220 278 325 389
#     4  10  19  37  62  94 125 174 217 278 318 391
#
# _framework density 27.735814999999999
#
# number of rings (size 3 to 8) (size 9 to 14) (size 15 to 20)
#    0.000    1.143    8.571    0.857    0.000    1.143 
#    2.571    2.857    0.000    0.000    0.000    0.000 
#    0.000    0.000    0.000    0.000    0.000    0.000 
#
# Total GULP energy -78072.104447 kJ/mol
# GULP energy per Si atom -5576.578889 kJ/mol
# Density = 2.767269 g / cm^3
# Si number density = 27.735815 Si / 1000 Ang^3
#
#
#
# Elastic Constant Matrix: (Units=GPa)
#
#
# Indices 1 2 3 4 5 6 
#
# 1 56.2136 11.4624 28.0546 0.0000 -13.7254 0.0000
# 2 11.4624 217.0810 48.5504 0.0000 10.3422 0.0000
# 3 28.0546 48.5504 175.0023 0.0000 23.1068 0.0000
# 4 0.0000 0.0000 0.0000 73.8441 0.0000 2.3990
# 5 -13.7254 10.3422 23.1068 0.0000 25.0121 0.0000
# 6 0.0000 0.0000 0.0000 2.3990 0.0000 16.8123
#
#
#
# Elastic Compliance Matrix: (Units=1/GPa)
#
#
# Indices 1 2 3 4 5 6 
#
# 1 0.026557 -0.000890 -0.006814 0.000000 0.021236 0.000000
# 2 -0.000890 0.004958 -0.001022 0.000000 -0.001594 0.000000
# 3 -0.006814 -0.001022 0.008574 0.000000 -0.011238 0.000000
# 4 0.000000 0.000000 0.000000 0.013605 0.000000 -0.001941
# 5 0.021236 -0.001594 -0.011238 0.000000 0.062675 0.000000
# 6 0.000000 0.000000 0.000000 -0.001941 0.000000 0.059757
#
#
# Mechanical properties :
#
#
# Convention : Reuss Voigt Hill
#
# Bulk Modulus (GPa) = 44.17840 69.38129 56.77984
# Shear Modulus (GPa) = 24.86016 47.14899 36.00457
#
# Velocity S-wave (km/s) = 2.99711 4.12750 3.60686
# Velocity P-wave (km/s) = 5.28581 6.91262 6.15321
#
# Compressibility (1/GPa) = 0.02263550
#
# Stress axis : x y z
#
# Youngs Moduli (GPa) = 37.65516 201.68737 116.63105
#
# Poissons Ratio (x) = 0.17949 0.79477
# Poissons Ratio (y) = 0.03351 0.11924
# Poissons Ratio (z) = 0.25660 0.20620
#
# Static dielectric constant tensor:
#      x y z
#    x 2.295010 0.000000 0.075480 
#    y 0.000000 2.313760 0.000000 
#    z 0.075480 0.000000 2.219730 
# 
# From -- ./inp_files/7813.got.cif
#   From: 2010.05.17/outbox.cif.g08.bks.cpg/sg9_4_cif.got.tgz:7813.got - 2010.06.03 20:04:27.
