data_PCOD9134281
_publ_section_title
;
Structure prediction by ZEFSAII (Michael W. Deem and Ramdas Pophale) SiO2 
 PCOD9134281
Probable space group: C C
;
_chemical_formula_sum "Si O2"
_cell_formula_units_Z 28
_cell_length_a 5.369579
_cell_length_b 13.879696
_cell_length_c 15.397119
_cell_angle_alpha 90.000000
_cell_angle_beta 110.974565
_cell_angle_gamma 90.000000
_cell_volume 1071.483165
_symmetry_space_group_name_H-M "C C"
_symmetry_group_IT_number 9
_symmetry_cell_setting 'monoclinic'
loop_
_space_group_symop_operation_xyz
x,y,z
x,-y,1/2+z
1/2+x,1/2+y,z
1/2+x,1/2-y,1/2+z
loop_
_atom_site_type_symbol
_atom_site_label
_atom_site_fract_x
_atom_site_fract_y
_atom_site_fract_z
Si Si1 0.574130 0.716200 0.845760
Si Si2 0.999460 0.004951 0.276062
Si Si3 0.153823 0.782174 0.658081
Si Si4 0.662312 0.807669 0.431189
Si Si5 0.599323 0.027089 0.374228
Si Si6 0.799000 0.898986 0.086215
Si Si7 0.116809 0.290584 0.621158
O O1 0.553912 0.602842 0.822015
O O2 0.424843 0.764583 0.747732
O O3 0.404790 0.738221 0.910150
O O4 0.878908 0.744271 0.894018
O O5 0.789696 0.050332 0.316843
O O6 0.882564 0.982324 0.165067
O O7 0.292707 0.051007 0.314469
O O8 0.099337 0.674986 0.610833
O O9 0.327209 0.839883 0.605166
O O10 0.915847 0.803451 0.696509
O O11 0.616095 0.911452 0.383522
O O12 0.723347 0.823033 0.539317
O O13 0.695980 0.064813 0.480537
O O14 0.041930 0.822820 0.105563
#
# Coordination Sequence:
#
# PCOD9134281 Si02
#       7
#     4   4   4   4   4   4   4
#     4   9  17  32  53  77 102 136 183 231 258 321
#     4   9  20  33  56  84 106 144 196 218 270 348
#     4   9  19  32  56  78 102 143 188 217 272 329
#     4  10  19  33  53  80 107 136 183 230 275 327
#     4  10  21  35  59  82 110 148 183 234 282 325
#     4   9  22  35  61  78 118 144 189 234 280 327
#     4  10  20  32  56  79 109 139 188 222 281 327
#
# _framework density 26.132000000000001
#
# number of rings (size 3 to 8) (size 9 to 14) (size 15 to 20)
#    0.857    1.714    0.000    1.714    8.000    0.000 
#    0.000    0.000    9.429    0.000    0.000    0.000 
#    0.000    0.000    0.000    0.000    0.000    0.000 
#
# Total GULP energy -78065.882987 kJ/mol
# GULP energy per Si atom -5576.134499 kJ/mol
# Density = 2.607252 g / cm^3
# Si number density = 26.132000 Si / 1000 Ang^3
#
#
#
# Elastic Constant Matrix: (Units=GPa)
#
#
# Indices 1 2 3 4 5 6 
#
# 1 755.8936 -2.4434 316.7172 0.0000 58.3056 0.0000
# 2 -2.4434 85.3187 -1.7699 0.0000 -6.8588 0.0000
# 3 316.7172 -1.7699 249.8206 0.0000 29.2247 0.0000
# 4 0.0000 0.0000 0.0000 534.3470 0.0000 59.4951
# 5 58.3056 -6.8588 29.2247 0.0000 44.6342 0.0000
# 6 0.0000 0.0000 0.0000 59.4951 0.0000 26.0987
#
#
#
# Elastic Compliance Matrix: (Units=1/GPa)
#
#
# Indices 1 2 3 4 5 6 
#
# 1 0.002913 -0.000112 -0.003516 0.000000 -0.001520 0.000000
# 2 -0.000112 0.011876 -0.000005 0.000000 0.001974 0.000000
# 3 -0.003516 -0.000005 0.008580 0.000000 -0.001026 0.000000
# 4 0.000000 0.000000 0.000000 0.002508 0.000000 -0.005717
# 5 -0.001520 0.001974 -0.001026 0.000000 0.025365 0.000000
# 6 0.000000 0.000000 0.000000 -0.005717 0.000000 0.051349
#
#
# Mechanical properties :
#
#
# Convention : Reuss Voigt Hill
#
# Bulk Modulus (GPa) = 62.09737 190.67117 126.38427
# Shear Modulus (GPa) = 43.39283 172.91792 108.15538
#
# Velocity S-wave (km/s) = 4.07937 8.14338 6.44034
# Velocity P-wave (km/s) = 6.78255 12.70994 10.18689
#
# Compressibility (1/GPa) = 0.01610374
#
# Stress axis : x y z
#
# Youngs Moduli (GPa) = 343.28089 84.20225 116.54420
#
# Poissons Ratio (x) = 0.00941 0.40978
# Poissons Ratio (y) = 0.03836 0.00060
# Poissons Ratio (z) = 1.20700 0.00044
#
# Static dielectric constant tensor:
#      x y z
#    x -0.235350 0.000000 -0.347620 
#    y 0.000000 0.669390 0.000000 
#    z -0.347620 0.000000 2.209940 
# 
# From -- ./inp_files/13601.got.cif
#   From: 2010.05.17/outbox.cif.g08.bks.cpg/sg9_7_cif.got.tgz:13601.got - 2010.06.03 20:04:27.
