data_PCOD9134266
_publ_section_title
;
Structure prediction by ZEFSAII (Michael W. Deem and Ramdas Pophale) SiO2 
 PCOD9134266
Probable space group: C C
;
_chemical_formula_sum "Si O2"
_cell_formula_units_Z 24
_cell_length_a 30.030314
_cell_length_b 6.916481
_cell_length_c 5.202692
_cell_angle_alpha 90.000000
_cell_angle_beta 89.721352
_cell_angle_gamma 90.000000
_cell_volume 1080.607660
_symmetry_space_group_name_H-M "C C"
_symmetry_group_IT_number 9
_symmetry_cell_setting 'monoclinic'
loop_
_space_group_symop_operation_xyz
x,y,z
x,-y,1/2+z
1/2+x,1/2+y,z
1/2+x,1/2-y,1/2+z
loop_
_atom_site_type_symbol
_atom_site_label
_atom_site_fract_x
_atom_site_fract_y
_atom_site_fract_z
Si Si1 0.047130 0.787118 0.861230
Si Si2 0.330365 0.631046 0.937070
Si Si3 0.735382 0.869673 0.543589
Si Si4 0.510334 0.281386 0.361912
Si Si5 0.638433 0.135926 0.996750
Si Si6 0.418626 0.125163 0.525763
O O1 0.042785 0.697443 0.579188
O O2 0.097176 0.779560 0.963093
O O3 0.027471 0.000663 0.817873
O O4 0.016018 0.693162 0.079534
O O5 0.332068 0.538006 0.653431
O O6 0.282336 0.732228 0.985455
O O7 0.372291 0.766414 0.982197
O O8 0.687787 0.770217 0.497117
O O9 0.735780 0.955141 0.832594
O O10 0.460483 0.263431 0.464507
O O11 0.635405 0.986818 0.758577
O O12 0.421267 0.044298 0.813461
#
# Coordination Sequence:
#
# PCOD9134266 Si02
#       6
#     4   4   4   4   4   4
#     4  10  21  37  57  80 113 155 202 236 284 352
#     4  10  21  38  67  89 118 160 201 238 294 361
#     4   8  16  32  54  88 114 147 193 236 283 351
#     4  10  23  38  56  77 116 152 200 240 290 353
#     4  10  19  32  57  87 120 151 191 242 291 335
#     4  12  26  41  61  89 123 155 199 254 306 342
#
# _framework density 22.209726
#
# number of rings (size 3 to 8) (size 9 to 14) (size 15 to 20)
#    0.000    2.000    0.000    3.000    4.667    4.000 
#    0.000    0.000    7.333    0.000    0.000    0.000 
#    0.000    0.000    0.000    0.000    0.000    0.000 
#
# Total GULP energy -66968.987242 kJ/mol
# GULP energy per Si atom -5580.748937 kJ/mol
# Density = 2.215918 g / cm^3
# Si number density = 22.209726 Si / 1000 Ang^3
#
#
#
# Elastic Constant Matrix: (Units=GPa)
#
#
# Indices 1 2 3 4 5 6 
#
# 1 195.2517 21.8146 -11.0880 0.0000 6.0259 0.0000
# 2 21.8146 49.6532 -15.4832 0.0000 0.3415 0.0000
# 3 -11.0880 -15.4832 133.1824 0.0000 6.0895 0.0000
# 4 0.0000 0.0000 0.0000 17.6241 0.0000 12.9140
# 5 6.0259 0.3415 6.0895 0.0000 32.5770 0.0000
# 6 0.0000 0.0000 0.0000 12.9140 0.0000 34.1340
#
#
#
# Elastic Compliance Matrix: (Units=1/GPa)
#
#
# Indices 1 2 3 4 5 6 
#
# 1 0.005424 -0.002304 0.000230 0.000000 -0.001022 0.000000
# 2 -0.002304 0.021891 0.002364 0.000000 -0.000245 0.000000
# 3 0.000230 0.002364 0.007873 0.000000 -0.001539 0.000000
# 4 0.000000 0.000000 0.000000 0.078504 0.000000 -0.029700
# 5 -0.001022 -0.000245 -0.001539 0.000000 0.031176 0.000000
# 6 0.000000 0.000000 0.000000 -0.029700 0.000000 0.040533
#
#
# Mechanical properties :
#
#
# Convention : Reuss Voigt Hill
#
# Bulk Modulus (GPa) = 27.95714 40.95268 34.45491
# Shear Modulus (GPa) = 25.41412 42.38994 33.90203
#
# Velocity S-wave (km/s) = 3.38639 4.37352 3.91122
# Velocity P-wave (km/s) = 5.28255 6.63194 5.99533
#
# Compressibility (1/GPa) = 0.03576904
#
# Stress axis : x y z
#
# Youngs Moduli (GPa) = 184.37826 45.68126 127.01765
#
# Poissons Ratio (x) = 0.10525 -0.02927
# Poissons Ratio (y) = 0.42479 -0.30031
# Poissons Ratio (z) = -0.04249 -0.10801
#
# Static dielectric constant tensor:
#      x y z
#    x 1.850800 0.000000 -0.006440 
#    y 0.000000 1.224630 0.000000 
#    z -0.006440 0.000000 1.879720 
# 
# From -- ./inp_files/3277.got.cif
#   From: 2010.05.17/outbox.cif.g08.bks.cpg/sg9_2_cif.got.tgz:3277.got - 2010.06.03 20:04:27.
