data_PCOD9134753
_publ_section_title
;
Structure prediction by ZEFSAII (Michael W. Deem and Ramdas Pophale) SiO2 
 PCOD9134753
Probable space group: C C
;
_chemical_formula_sum "Si O2"
_cell_formula_units_Z 32
_cell_length_a 8.730186
_cell_length_b 11.735370
_cell_length_c 13.629606
_cell_angle_alpha 90.000000
_cell_angle_beta 85.456045
_cell_angle_gamma 90.000000
_cell_volume 1391.990856
_symmetry_space_group_name_H-M "C C"
_symmetry_group_IT_number 9
_symmetry_cell_setting 'monoclinic'
loop_
_space_group_symop_operation_xyz
x,y,z
x,-y,1/2+z
1/2+x,1/2+y,z
1/2+x,1/2-y,1/2+z
loop_
_atom_site_type_symbol
_atom_site_label
_atom_site_fract_x
_atom_site_fract_y
_atom_site_fract_z
Si Si1 0.658810 0.678719 0.262790
Si Si2 0.906371 0.938176 0.653634
Si Si3 0.575725 0.663420 0.593144
Si Si4 0.432679 0.793183 0.418099
Si Si5 0.970793 0.271088 0.779372
Si Si6 0.715175 0.507978 0.440521
Si Si7 0.715234 0.089632 0.357973
Si Si8 0.875045 0.105275 0.954180
O O1 0.560616 0.621942 0.182956
O O2 0.555605 0.774527 0.322960
O O3 0.826290 0.710087 0.216026
O O4 0.697314 0.585369 0.344691
O O5 0.802117 0.943299 0.753929
O O6 0.838607 0.864806 0.567835
O O7 0.945289 0.065548 0.616752
O O8 0.517090 0.751572 0.513200
O O9 0.596345 0.712928 0.701826
O O10 0.713801 0.592546 0.534528
O O11 0.348985 0.914524 0.430223
O O12 0.299860 0.700145 0.399344
O O13 0.895007 0.197034 0.869172
O O14 0.047174 0.375686 0.832047
O O15 0.548223 0.445946 0.451064
O O16 0.748156 0.986194 0.428438
#
# Coordination Sequence:
#
# PCOD9134753 Si02
#       8
#     4   4   4   4   4   4   4   4
#     4  10  23  40  61 101 135 172 224 282 340 405
#     4  10  20  41  65  86 128 170 222 277 330 392
#     4  10  21  38  65  98 129 172 226 274 340 400
#     4  10  20  40  70  95 124 179 230 268 339 411
#     4  12  25  37  64  97 140 175 220 276 349 401
#     4  10  19  40  70  94 125 176 223 283 330 399
#     4  11  21  40  63  97 126 175 226 267 336 412
#     4  11  21  40  68  90 129 179 221 281 336 400
#
# _framework density 22.988655000000001
#
# number of rings (size 3 to 8) (size 9 to 14) (size 15 to 20)
#    0.000    1.500    7.500    0.000    3.500    3.000 
#    0.000    0.000    0.000    0.000    0.000    0.000 
#    0.000    0.000    0.000    0.000    0.000    0.000 
#
# Total GULP energy -89364.689037 kJ/mol
# GULP energy per Si atom -5585.293065 kJ/mol
# Density = 2.293633 g / cm^3
# Si number density = 22.988655 Si / 1000 Ang^3
#
#
#
# Elastic Constant Matrix: (Units=GPa)
#
#
# Indices 1 2 3 4 5 6 
#
# 1 93.5128 41.9432 13.3394 0.0000 23.2528 0.0000
# 2 41.9432 95.9221 40.0786 0.0000 3.4921 0.0000
# 3 13.3394 40.0786 115.9076 0.0000 16.8850 0.0000
# 4 0.0000 0.0000 0.0000 26.8772 0.0000 3.6370
# 5 23.2528 3.4921 16.8850 0.0000 16.8837 0.0000
# 6 0.0000 0.0000 0.0000 3.6370 0.0000 43.2436
#
#
#
# Elastic Compliance Matrix: (Units=1/GPa)
#
#
# Indices 1 2 3 4 5 6 
#
# 1 0.024926 -0.012450 0.007096 0.000000 -0.038850 0.000000
# 2 -0.012450 0.018461 -0.008067 0.000000 0.021396 0.000000
# 3 0.007096 -0.008067 0.013790 0.000000 -0.021895 0.000000
# 4 0.000000 0.000000 0.000000 0.037635 0.000000 -0.003165
# 5 -0.038850 0.021396 -0.021895 0.000000 0.130206 0.000000
# 6 0.000000 0.000000 0.000000 -0.003165 0.000000 0.023391
#
#
# Mechanical properties :
#
#
# Convention : Reuss Voigt Hill
#
# Bulk Modulus (GPa) = 32.96605 55.11829 44.04217
# Shear Modulus (GPa) = 17.52158 31.39966 24.46062
#
# Velocity S-wave (km/s) = 2.76376 3.69979 3.26549
# Velocity P-wave (km/s) = 4.95538 6.50227 5.78080
#
# Compressibility (1/GPa) = 0.03033424
#
# Stress axis : x y z
#
# Youngs Moduli (GPa) = 40.11875 54.16905 72.51577
#
# Poissons Ratio (x) = 0.67438 -0.51456
# Poissons Ratio (y) = 0.49946 0.58502
# Poissons Ratio (z) = -0.28467 0.43701
#
# Static dielectric constant tensor:
#      x y z
#    x 1.931350 0.000000 -0.031150 
#    y 0.000000 1.914710 0.000000 
#    z -0.031150 0.000000 1.898480 
# 
# From -- ./inp_files/22760.got.cif
#   From: 2010.05.17/outbox.cif.g08.bks.cpg/sg9_12_cif.got.tgz:22760.got - 2010.06.03 20:04:27.
