data_PCOD9134645
_publ_section_title
;
Structure prediction by ZEFSAII (Michael W. Deem and Ramdas Pophale) SiO2 
 PCOD9134645
Probable space group: C C
;
_chemical_formula_sum "Si O2"
_cell_formula_units_Z 28
_cell_length_a 10.980895
_cell_length_b 8.083698
_cell_length_c 21.737333
_cell_angle_alpha 90.000000
_cell_angle_beta 34.653756
_cell_angle_gamma 90.000000
_cell_volume 1097.167624
_symmetry_space_group_name_H-M "C C"
_symmetry_group_IT_number 9
_symmetry_cell_setting 'monoclinic'
loop_
_space_group_symop_operation_xyz
x,y,z
x,-y,1/2+z
1/2+x,1/2+y,z
1/2+x,1/2-y,1/2+z
loop_
_atom_site_type_symbol
_atom_site_label
_atom_site_fract_x
_atom_site_fract_y
_atom_site_fract_z
Si Si1 0.128440 0.474690 0.633430
Si Si2 0.621521 0.589265 0.346925
Si Si3 0.085993 0.192533 0.091978
Si Si4 0.082223 0.889837 0.169693
Si Si5 0.749491 0.163091 0.708801
Si Si6 0.584214 0.725959 0.805547
Si Si7 0.656601 0.598722 0.474247
O O1 0.182409 0.624852 0.563512
O O2 0.163962 0.552533 0.687510
O O3 0.203645 0.282951 0.602923
O O4 0.875138 0.447233 0.730843
O O5 0.575071 0.711334 0.308975
O O6 0.523963 0.409056 0.380717
O O7 0.613151 0.634474 0.421438
O O8 0.830200 0.218298 0.206747
O O9 0.176888 0.062346 0.105277
O O10 0.115188 0.087246 0.017157
O O11 0.849531 0.896455 0.232906
O O12 0.060532 0.871280 0.250963
O O13 0.982025 0.211187 0.582443
O O14 0.403589 0.864222 0.884235
#
# Coordination Sequence:
#
# PCOD9134645 Si02
#       7
#     4   4   4   4   4   4   4
#     4  10  20  42  66  97 137 181 232 298 347 419
#     4  10  23  42  70 100 143 194 240 297 369 428
#     4  10  24  41  70  99 138 192 233 291 366 420
#     4  10  19  38  70  92 133 187 223 292 354 404
#     4  10  21  40  69  99 141 186 237 296 360 424
#     4  11  22  44  71  97 149 185 243 305 355 435
#     4  11  23  41  68 108 139 195 242 297 369 428
#
# _framework density 25.520257999999998
#
# number of rings (size 3 to 8) (size 9 to 14) (size 15 to 20)
#    0.000    1.714    2.857    2.571    0.000    5.714 
#    5.143    0.000   15.714    0.000    0.000    0.000 
#    0.000    0.000    0.000    0.000    0.000    0.000 
#
# Total GULP energy -77960.456743 kJ/mol
# GULP energy per Si atom -5568.604053 kJ/mol
# Density = 2.546217 g / cm^3
# Si number density = 25.520258 Si / 1000 Ang^3
#
#
#
# Elastic Constant Matrix: (Units=GPa)
#
#
# Indices 1 2 3 4 5 6 
#
# 1 70.2680 48.4989 9.5670 0.0000 4.1588 0.0000
# 2 48.4989 116.9200 39.6922 0.0000 1.1780 0.0000
# 3 9.5670 39.6922 79.0268 0.0000 8.9946 0.0000
# 4 0.0000 0.0000 0.0000 51.0123 0.0000 10.1926
# 5 4.1588 1.1780 8.9946 0.0000 44.4006 0.0000
# 6 0.0000 0.0000 0.0000 10.1926 0.0000 45.1591
#
#
#
# Elastic Compliance Matrix: (Units=1/GPa)
#
#
# Indices 1 2 3 4 5 6 
#
# 1 0.020433 -0.009280 0.002433 0.000000 -0.002161 0.000000
# 2 -0.009280 0.014553 -0.006388 0.000000 0.001777 0.000000
# 3 0.002433 -0.006388 0.015942 0.000000 -0.003288 0.000000
# 4 0.000000 0.000000 0.000000 0.020529 0.000000 -0.004633
# 5 -0.002161 0.001777 -0.003288 0.000000 0.023344 0.000000
# 6 0.000000 0.000000 0.000000 -0.004633 0.000000 0.023190
#
#
# Mechanical properties :
#
#
# Convention : Reuss Voigt Hill
#
# Bulk Modulus (GPa) = 40.88620 51.30346 46.09483
# Shear Modulus (GPa) = 32.76270 39.34484 36.05377
#
# Velocity S-wave (km/s) = 3.58689 3.93072 3.76274
# Velocity P-wave (km/s) = 5.76283 6.38337 6.08102
#
# Compressibility (1/GPa) = 0.02445813
#
# Stress axis : x y z
#
# Youngs Moduli (GPa) = 48.94098 68.71447 62.72668
#
# Poissons Ratio (x) = 0.63766 -0.15263
# Poissons Ratio (y) = 0.45417 0.40072
# Poissons Ratio (z) = -0.11908 0.43897
#
# Static dielectric constant tensor:
#      x y z
#    x 2.038360 0.000000 -0.017440 
#    y 0.000000 2.326650 0.000000 
#    z -0.017440 0.000000 2.041110 
# 
# From -- ./inp_files/35256.got.cif
#   From: 2010.05.17/outbox.cif.g08.bks.cpg/sg9_18_cif.got.tgz:35256.got - 2010.06.03 20:04:27.
