data_PCOD9134408
_publ_section_title
;
Structure prediction by ZEFSAII (Michael W. Deem and Ramdas Pophale) SiO2 
 PCOD9134408
Probable space group: C C
;
_chemical_formula_sum "Si O2"
_cell_formula_units_Z 32
_cell_length_a 8.760684
_cell_length_b 10.995691
_cell_length_c 18.981027
_cell_angle_alpha 90.000000
_cell_angle_beta 133.088009
_cell_angle_gamma 90.000000
_cell_volume 1335.317918
_symmetry_space_group_name_H-M "C C"
_symmetry_group_IT_number 9
_symmetry_cell_setting 'monoclinic'
loop_
_space_group_symop_operation_xyz
x,y,z
x,-y,1/2+z
1/2+x,1/2+y,z
1/2+x,1/2-y,1/2+z
loop_
_atom_site_type_symbol
_atom_site_label
_atom_site_fract_x
_atom_site_fract_y
_atom_site_fract_z
Si Si1 0.752830 0.507753 0.472650
Si Si2 0.401329 0.404923 0.259473
Si Si3 0.228259 0.285482 0.453392
Si Si4 0.609546 0.969770 0.969481
Si Si5 0.278887 0.359129 0.695139
Si Si6 0.868364 0.745400 0.026766
Si Si7 0.762625 0.696135 0.312779
Si Si8 0.261765 0.757411 0.328090
O O1 0.538840 0.477551 0.362268
O O2 0.750936 0.649623 0.495183
O O3 0.786556 0.386252 0.528987
O O4 0.940283 0.495239 0.475124
O O5 0.250768 0.498024 0.174022
O O6 0.286703 0.292221 0.258553
O O7 0.576790 0.352141 0.264102
O O8 0.264106 0.415973 0.500775
O O9 0.320935 0.264114 0.405091
O O10 0.979441 0.304561 0.366579
O O11 0.436103 0.910583 0.859514
O O12 0.761772 0.856590 0.032375
O O13 0.520093 0.338922 0.747891
O O14 0.219909 0.348023 0.759612
O O15 0.118024 0.268084 0.607964
O O16 0.798357 0.764184 0.922646
#
# Coordination Sequence:
#
# PCOD9134408 Si02
#       8
#     4   4   4   4   4   4   4   4
#     4  10  20  39  63  97 126 170 217 265 332 389
#     4  11  19  38  66  92 125 175 215 267 331 394
#     4  10  19  35  66  94 125 170 219 259 322 397
#     4  11  19  38  64 100 125 174 219 267 329 396
#     4  11  24  43  62  98 136 169 223 278 324 392
#     4  11  24  41  68  97 135 172 224 277 326 392
#     4  10  21  37  63  96 128 169 219 271 326 388
#     4  10  20  41  66  90 128 179 208 260 342 384
#
# _framework density 23.964331000000001
#
# number of rings (size 3 to 8) (size 9 to 14) (size 15 to 20)
#    0.000    1.500    8.750    0.000    1.750    1.000 
#    2.250    0.000    2.750    0.000    0.000    0.000 
#    0.000    0.000    0.000    0.000    0.000    0.000 
#
# Total GULP energy -89073.254130 kJ/mol
# GULP energy per Si atom -5567.078383 kJ/mol
# Density = 2.390979 g / cm^3
# Si number density = 23.964331 Si / 1000 Ang^3
#
#
#
# Elastic Constant Matrix: (Units=GPa)
#
#
# Indices 1 2 3 4 5 6 
#
# 1 36.8304 41.6696 4.8114 0.0000 -1.7898 0.0000
# 2 41.6696 181.9753 11.3542 0.0000 6.5718 0.0000
# 3 4.8114 11.3542 61.4930 0.0000 6.5606 0.0000
# 4 0.0000 0.0000 0.0000 18.6010 0.0000 7.5356
# 5 -1.7898 6.5718 6.5606 0.0000 17.2243 0.0000
# 6 0.0000 0.0000 0.0000 7.5356 0.0000 47.5718
#
#
#
# Elastic Compliance Matrix: (Units=1/GPa)
#
#
# Indices 1 2 3 4 5 6 
#
# 1 0.037805 -0.008813 -0.002198 0.000000 0.008128 0.000000
# 2 -0.008813 0.007668 -0.000330 0.000000 -0.003716 0.000000
# 3 -0.002198 -0.000330 0.017205 0.000000 -0.006656 0.000000
# 4 0.000000 0.000000 0.000000 0.057447 0.000000 -0.009100
# 5 0.008128 -0.003716 -0.006656 0.000000 0.062855 0.000000
# 6 0.000000 0.000000 0.000000 -0.009100 0.000000 0.022462
#
#
# Mechanical properties :
#
#
# Convention : Reuss Voigt Hill
#
# Bulk Modulus (GPa) = 25.00242 43.99658 34.49950
# Shear Modulus (GPa) = 20.70772 31.51032 26.10902
#
# Velocity S-wave (km/s) = 2.94276 3.63007 3.30433
# Velocity P-wave (km/s) = 4.69066 5.99741 5.38383
#
# Compressibility (1/GPa) = 0.03999612
#
# Stress axis : x y z
#
# Youngs Moduli (GPa) = 26.45172 130.41051 58.12272
#
# Poissons Ratio (x) = 1.14932 0.12775
# Poissons Ratio (y) = 0.23312 0.01917
# Poissons Ratio (z) = 0.05814 0.04302
#
# Static dielectric constant tensor:
#      x y z
#    x 1.907500 0.000000 -0.052700 
#    y 0.000000 2.074800 0.000000 
#    z -0.052700 0.000000 2.076800 
# 
# From -- ./inp_files/32640.got.cif
#   From: 2010.05.17/outbox.cif.g08.bks.cpg/sg9_17_cif.got.tgz:32640.got - 2010.06.03 20:04:27.
