data_PCOD9134900
_publ_section_title
;
Structure prediction by ZEFSAII (Michael W. Deem and Ramdas Pophale) SiO2 
 PCOD9134900
Probable space group: C C
;
_chemical_formula_sum "Si O2"
_cell_formula_units_Z 28
_cell_length_a 12.948275
_cell_length_b 17.042823
_cell_length_c 5.247460
_cell_angle_alpha 90.000000
_cell_angle_beta 78.637550
_cell_angle_gamma 90.000000
_cell_volume 1135.288164
_symmetry_space_group_name_H-M "C C"
_symmetry_group_IT_number 9
_symmetry_cell_setting 'monoclinic'
loop_
_space_group_symop_operation_xyz
x,y,z
x,-y,1/2+z
1/2+x,1/2+y,z
1/2+x,1/2-y,1/2+z
loop_
_atom_site_type_symbol
_atom_site_label
_atom_site_fract_x
_atom_site_fract_y
_atom_site_fract_z
Si Si1 0.107750 0.025747 0.534550
Si Si2 0.083138 0.201692 0.677313
Si Si3 0.397319 0.186802 0.193739
Si Si4 0.047865 0.549828 0.081039
Si Si5 0.941965 0.886352 0.586220
Si Si6 0.303302 0.249276 0.760026
Si Si7 0.270347 0.552529 0.837190
O O1 0.094988 0.118931 0.522325
O O2 0.166268 0.990288 0.267987
O O3 0.002448 0.968053 0.625010
O O4 0.187370 0.247831 0.700251
O O5 0.996290 0.255876 0.592787
O O6 0.035497 0.171353 0.968441
O O7 0.444918 0.102128 0.114605
O O8 0.365840 0.203390 0.502438
O O9 0.309035 0.207217 0.029912
O O10 0.050228 0.518849 0.369135
O O11 0.158291 0.592319 0.950980
O O12 0.856161 0.835105 0.779010
O O13 0.873214 0.898880 0.360369
O O14 0.273814 0.484697 0.056148
#
# Coordination Sequence:
#
# PCOD9134900 Si02
#       7
#     4   4   4   4   4   4   4
#     4  10  20  36  60  89 124 164 209 261 320 378
#     4  10  23  43  66  96 134 173 216 277 340 394
#     4  11  24  44  65  92 130 172 217 274 332 398
#     4  10  21  40  64  90 123 167 218 273 326 389
#     4  10  21  40  63  92 129 171 215 270 324 392
#     4  11  25  41  65  95 128 173 220 264 332 400
#     4  10  20  34  59  92 122 158 211 269 326 379
#
# _framework density 24.663342
#
# number of rings (size 3 to 8) (size 9 to 14) (size 15 to 20)
#    0.000    1.714    0.000    4.286    0.000    6.857 
#    0.000   12.857    0.000    0.000    0.000    0.000 
#    0.000    0.000    0.000    0.000    0.000    0.000 
#
# Total GULP energy -78104.856394 kJ/mol
# GULP energy per Si atom -5578.918314 kJ/mol
# Density = 2.460721 g / cm^3
# Si number density = 24.663342 Si / 1000 Ang^3
#
#
#
# Elastic Constant Matrix: (Units=GPa)
#
#
# Indices 1 2 3 4 5 6 
#
# 1 57.8963 20.7645 -0.1095 0.0000 11.1237 0.0000
# 2 20.7645 45.5385 4.6549 0.0000 -2.4272 0.0000
# 3 -0.1095 4.6549 98.3531 0.0000 7.9110 0.0000
# 4 0.0000 0.0000 0.0000 22.4274 0.0000 1.9833
# 5 11.1237 -2.4272 7.9110 0.0000 26.0431 0.0000
# 6 0.0000 0.0000 0.0000 1.9833 0.0000 23.9237
#
#
#
# Elastic Compliance Matrix: (Units=1/GPa)
#
#
# Indices 1 2 3 4 5 6 
#
# 1 0.023659 -0.011563 0.001510 0.000000 -0.011642 0.000000
# 2 -0.011563 0.027869 -0.001987 0.000000 0.008140 0.000000
# 3 0.001510 -0.001987 0.010589 0.000000 -0.004047 0.000000
# 4 0.000000 0.000000 0.000000 0.044918 0.000000 -0.003724
# 5 -0.011642 0.008140 -0.004047 0.000000 0.045358 0.000000
# 6 0.000000 0.000000 0.000000 -0.003724 0.000000 0.042108
#
#
# Mechanical properties :
#
#
# Convention : Reuss Voigt Hill
#
# Bulk Modulus (GPa) = 26.28984 28.04532 27.16758
# Shear Modulus (GPa) = 21.62088 26.24403 23.93246
#
# Velocity S-wave (km/s) = 2.96402 3.26558 3.11845
# Velocity P-wave (km/s) = 4.73250 5.06109 4.89955
#
# Compressibility (1/GPa) = 0.03803750
#
# Stress axis : x y z
#
# Youngs Moduli (GPa) = 42.26754 35.88255 94.44087
#
# Poissons Ratio (x) = 0.41490 -0.14260
# Poissons Ratio (y) = 0.48873 0.18761
# Poissons Ratio (z) = -0.06382 0.07128
#
# Static dielectric constant tensor:
#      x y z
#    x 1.987700 0.000000 -0.017680 
#    y 0.000000 1.989400 0.000000 
#    z -0.017680 0.000000 1.988780 
# 
# From -- ./inp_files/1639.got.cif
#   From: 2010.05.17/outbox.cif.g08.bks.cpg/sg9_1_cif.got.tgz:1639.got - 2010.06.03 20:04:27.
