data_PCOD9134062
_publ_section_title
;
Structure prediction by ZEFSAII (Michael W. Deem and Ramdas Pophale) SiO2 
 PCOD9134062
Probable space group: C C
;
_chemical_formula_sum "Si O2"
_cell_formula_units_Z 28
_cell_length_a 19.876318
_cell_length_b 8.847105
_cell_length_c 10.023426
_cell_angle_alpha 90.000000
_cell_angle_beta 38.707247
_cell_angle_gamma 90.000000
_cell_volume 1102.225521
_symmetry_space_group_name_H-M "C C"
_symmetry_group_IT_number 9
_symmetry_cell_setting 'monoclinic'
loop_
_space_group_symop_operation_xyz
x,y,z
x,-y,1/2+z
1/2+x,1/2+y,z
1/2+x,1/2-y,1/2+z
loop_
_atom_site_type_symbol
_atom_site_label
_atom_site_fract_x
_atom_site_fract_y
_atom_site_fract_z
Si Si1 0.214330 0.227574 0.707460
Si Si2 0.404261 0.468925 0.416328
Si Si3 0.074053 0.607443 0.631344
Si Si4 0.261796 0.698765 0.522907
Si Si5 0.374495 0.241812 0.084393
Si Si6 0.353783 0.936195 0.178846
Si Si7 0.558562 0.213298 0.217563
O O1 0.304118 0.357051 0.591313
O O2 0.274293 0.080863 0.673002
O O3 0.162474 0.239114 0.642203
O O4 0.118693 0.279079 0.952958
O O5 0.359971 0.577731 0.368569
O O6 0.417955 0.586926 0.519053
O O7 0.505633 0.362685 0.237250
O O8 0.153833 0.627119 0.634118
O O9 0.076881 0.430429 0.593773
O O10 0.956780 0.658919 0.855849
O O11 0.262947 0.738831 0.677359
O O12 0.294595 0.838255 0.381351
O O13 0.367274 0.110596 0.203805
O O14 0.466410 0.857819 0.961173
#
# Coordination Sequence:
#
# PCOD9134062 Si02
#       7
#     4   4   4   4   4   4   4
#     4  10  19  35  58  86 116 157 190 237 295 354
#     4   9  20  36  58  83 124 151 190 248 298 344
#     4  10  19  34  62  82 113 162 193 232 298 352
#     4   9  18  36  57  81 124 155 191 242 298 345
#     4   9  19  35  55  85 114 149 203 235 289 349
#     4   9  19  33  59  80 114 162 188 233 297 351
#     4  10  18  35  59  85 115 150 197 243 291 349
#
# _framework density 25.403148000000002
#
# number of rings (size 3 to 8) (size 9 to 14) (size 15 to 20)
#    0.857    1.714    1.429    0.857    0.000    1.143 
#    0.000    4.286   28.286    0.000    0.000    0.000 
#    0.000    0.000    0.000    0.000    0.000    0.000 
#
# Total GULP energy -78101.767591 kJ/mol
# GULP energy per Si atom -5578.697685 kJ/mol
# Density = 2.534533 g / cm^3
# Si number density = 25.403148 Si / 1000 Ang^3
#
#
#
# Elastic Constant Matrix: (Units=GPa)
#
#
# Indices 1 2 3 4 5 6 
#
# 1 77.6040 19.7179 6.2906 0.0000 -25.0258 0.0000
# 2 19.7179 127.4055 20.8139 0.0000 -21.9773 0.0000
# 3 6.2906 20.8139 62.0927 0.0000 -12.3688 0.0000
# 4 0.0000 0.0000 0.0000 36.9640 0.0000 -2.0779
# 5 -25.0258 -21.9773 -12.3688 0.0000 30.0120 0.0000
# 6 0.0000 0.0000 0.0000 -2.0779 0.0000 29.9212
#
#
#
# Elastic Compliance Matrix: (Units=1/GPa)
#
#
# Indices 1 2 3 4 5 6 
#
# 1 0.017728 -0.000362 0.001326 0.000000 0.015065 0.000000
# 2 -0.000362 0.009191 -0.001921 0.000000 0.005637 0.000000
# 3 0.001326 -0.001921 0.018035 0.000000 0.007132 0.000000
# 4 0.000000 0.000000 0.000000 0.027159 0.000000 0.001886
# 5 0.015065 0.005637 0.007132 0.000000 0.052949 0.000000
# 6 0.000000 0.000000 0.000000 0.001886 0.000000 0.033552
#
#
# Mechanical properties :
#
#
# Convention : Reuss Voigt Hill
#
# Bulk Modulus (GPa) = 23.23380 40.08300 31.65840
# Shear Modulus (GPa) = 28.59164 34.06477 31.32821
#
# Velocity S-wave (km/s) = 3.35851 3.66589 3.51556
# Velocity P-wave (km/s) = 4.91989 5.80787 5.38223
#
# Compressibility (1/GPa) = 0.04304075
#
# Stress axis : x y z
#
# Youngs Moduli (GPa) = 56.40661 108.79949 55.44687
#
# Poissons Ratio (x) = 0.03936 -0.07353
# Poissons Ratio (y) = 0.02041 0.10654
# Poissons Ratio (z) = -0.07480 0.20905
#
# Static dielectric constant tensor:
#      x y z
#    x 2.072860 0.000000 0.069570 
#    y 0.000000 2.060390 0.000000 
#    z 0.069570 0.000000 2.012340 
# 
# From -- ./inp_files/25612.got.cif
#   From: 2010.05.17/outbox.cif.g08.bks.cpg/sg9_13_cif.got.tgz:25612.got - 2010.06.03 20:04:27.
