data_PCOD9134999
_publ_section_title
;
Structure prediction by ZEFSAII (Michael W. Deem and Ramdas Pophale) SiO2 
 PCOD9134999
Probable space group: C C
;
_chemical_formula_sum "Si O2"
_cell_formula_units_Z 28
_cell_length_a 12.444038
_cell_length_b 14.776617
_cell_length_c 5.291624
_cell_angle_alpha 90.000000
_cell_angle_beta 68.059182
_cell_angle_gamma 90.000000
_cell_volume 902.551842
_symmetry_space_group_name_H-M "C C"
_symmetry_group_IT_number 9
_symmetry_cell_setting 'monoclinic'
loop_
_space_group_symop_operation_xyz
x,y,z
x,-y,1/2+z
1/2+x,1/2+y,z
1/2+x,1/2-y,1/2+z
loop_
_atom_site_type_symbol
_atom_site_label
_atom_site_fract_x
_atom_site_fract_y
_atom_site_fract_z
Si Si1 0.217790 0.887192 0.382650
Si Si2 0.830035 0.118291 0.825597
Si Si3 0.324797 0.296833 0.878020
Si Si4 0.977008 0.703646 0.056566
Si Si5 0.584236 0.388880 0.003891
Si Si6 0.150928 0.464464 0.218662
Si Si7 0.472489 0.881258 0.111531
O O1 0.229351 0.777797 0.386367
O O2 0.136915 0.908502 0.687588
O O3 0.164943 0.912818 0.163981
O O4 0.347800 0.924526 0.301992
O O5 0.953817 0.074054 0.636075
O O6 0.757905 0.115667 0.587419
O O7 0.723466 0.043576 0.975280
O O8 0.851542 0.147779 0.098205
O O9 0.356142 0.274692 0.174307
O O10 0.444726 0.225354 0.762748
O O11 0.072855 0.779542 0.031584
O O12 0.044076 0.615888 0.848336
O O13 0.952902 0.649349 0.337121
O O14 0.078058 0.543184 0.462413
#
# Coordination Sequence:
#
# PCOD9134999 Si02
#       7
#     4   4   4   4   4   4   4
#     4  11  21  34  59  96 135 166 202 248 324 421
#     4  11  23  41  64  89 130 176 219 276 331 375
#     4  10  20  36  58  94 133 175 210 245 319 416
#     4  10  20  36  58  94 133 175 210 245 319 416
#     4  11  21  34  59  96 135 166 202 248 324 421
#     4  12  28  48  70  92 118 176 246 298 324 364
#     4  11  23  41  64  89 130 176 219 276 331 375
#
# _framework density 31.023147000000002
#
# number of rings (size 3 to 8) (size 9 to 14) (size 15 to 20)
#    0.000    1.143    0.000   10.286    6.000    0.000 
#    0.000    0.000    0.000    5.143    0.000    0.000 
#    0.000    0.000    0.000    0.000    0.000    0.000 
#
# Total GULP energy -78398.081758 kJ/mol
# GULP energy per Si atom -5599.862983 kJ/mol
# Density = 3.095254 g / cm^3
# Si number density = 31.023147 Si / 1000 Ang^3
#
#
#
# Elastic Constant Matrix: (Units=GPa)
#
#
# Indices 1 2 3 4 5 6 
#
# 1 276.2435 83.2905 83.7754 0.0000 -5.0429 0.0000
# 2 83.2905 210.2938 88.3972 0.0000 5.1395 0.0000
# 3 83.7754 88.3972 305.8096 0.0000 -18.4222 0.0000
# 4 0.0000 0.0000 0.0000 111.8654 0.0000 22.4689
# 5 -5.0429 5.1395 -18.4222 0.0000 62.1882 0.0000
# 6 0.0000 0.0000 0.0000 22.4689 0.0000 117.0772
#
#
#
# Elastic Compliance Matrix: (Units=1/GPa)
#
#
# Indices 1 2 3 4 5 6 
#
# 1 0.004270 -0.001379 -0.000757 0.000000 0.000236 0.000000
# 2 -0.001379 0.005911 -0.001392 0.000000 -0.001013 0.000000
# 3 -0.000757 -0.001392 0.003954 0.000000 0.001225 0.000000
# 4 0.000000 0.000000 0.000000 0.009298 0.000000 -0.001784
# 5 0.000236 -0.001013 0.001225 0.000000 0.016546 0.000000
# 6 0.000000 0.000000 0.000000 -0.001784 0.000000 0.008884
#
#
# Mechanical properties :
#
#
# Convention : Reuss Voigt Hill
#
# Bulk Modulus (GPa) = 141.26039 144.80812 143.03425
# Shear Modulus (GPa) = 85.79804 94.01841 89.90823
#
# Velocity S-wave (km/s) = 5.26462 5.51105 5.38924
# Velocity P-wave (km/s) = 9.08777 9.34207 9.21580
#
# Compressibility (1/GPa) = 0.00707913
#
# Stress axis : x y z
#
# Youngs Moduli (GPa) = 234.21874 169.17153 252.93927
#
# Poissons Ratio (x) = 0.23322 0.19145
# Poissons Ratio (y) = 0.32290 0.35210
# Poissons Ratio (z) = 0.17728 0.23549
#
# Static dielectric constant tensor:
#      x y z
#    x 2.479060 0.000000 0.170180 
#    y 0.000000 2.329920 0.000000 
#    z 0.170180 0.000000 2.332840 
# 
# From -- ./inp_files/3037.got.cif
#   From: 2010.05.17/outbox.cif.g08.bks.cpg/sg9_2_cif.got.tgz:3037.got - 2010.06.03 20:04:27.
