data_PCOD9134721
_publ_section_title
;
Structure prediction by ZEFSAII (Michael W. Deem and Ramdas Pophale) SiO2 
 PCOD9134721
Probable space group: C C
;
_chemical_formula_sum "Si O2"
_cell_formula_units_Z 32
_cell_length_a 11.173460
_cell_length_b 14.788233
_cell_length_c 17.781641
_cell_angle_alpha 90.000000
_cell_angle_beta 27.076349
_cell_angle_gamma 90.000000
_cell_volume 1337.385134
_symmetry_space_group_name_H-M "C C"
_symmetry_group_IT_number 9
_symmetry_cell_setting 'monoclinic'
loop_
_space_group_symop_operation_xyz
x,y,z
x,-y,1/2+z
1/2+x,1/2+y,z
1/2+x,1/2-y,1/2+z
loop_
_atom_site_type_symbol
_atom_site_label
_atom_site_fract_x
_atom_site_fract_y
_atom_site_fract_z
Si Si1 0.732180 0.170288 0.672610
Si Si2 0.813861 0.620500 0.373431
Si Si3 0.047594 0.337003 0.898132
Si Si4 0.944639 0.193179 0.772917
Si Si5 0.506368 0.024850 0.533510
Si Si6 0.924008 0.642467 0.993531
Si Si7 0.674320 0.997664 0.099457
Si Si8 0.071934 0.856324 0.360937
O O1 0.779283 0.271740 0.613440
O O2 0.716699 0.099921 0.612008
O O3 0.007259 0.139330 0.559312
O O4 0.490745 0.157946 0.867401
O O5 0.009954 0.626997 0.334855
O O6 0.891573 0.704553 0.276879
O O7 0.889987 0.530758 0.287493
O O8 0.742100 0.329618 0.091896
O O9 0.165625 0.412970 0.885815
O O10 0.166406 0.237379 0.845914
O O11 0.909708 0.187886 0.882117
O O12 0.719521 0.136301 0.861836
O O13 0.685237 0.994897 0.503383
O O14 0.305500 0.087683 0.693514
O O15 0.336114 0.953522 0.578482
O O16 0.885755 0.073351 0.007478
#
# Coordination Sequence:
#
# PCOD9134721 Si02
#       8
#     4   4   4   4   4   4   4   4
#     4  11  26  40  70  99 137 179 223 283 336 392
#     4  10  20  35  66  93 128 162 226 274 327 383
#     4  10  19  40  64  96 123 167 221 277 329 381
#     4   9  17  33  64  93 116 155 213 282 315 366
#     4  11  25  41  67  97 133 176 225 274 337 403
#     4  11  23  44  66 101 132 175 229 279 332 394
#     4  12  23  41  61 100 135 178 220 271 336 409
#     4  10  21  38  66  95 126 170 217 276 332 390
#
# _framework density 23.927291
#
# number of rings (size 3 to 8) (size 9 to 14) (size 15 to 20)
#    0.000    1.500    3.750    1.500    5.250    0.000 
#    2.250    0.000    0.000    0.000    0.000    0.000 
#    0.000    0.000    0.000    0.000    0.000    0.000 
#
# Total GULP energy -89142.390739 kJ/mol
# GULP energy per Si atom -5571.399421 kJ/mol
# Density = 2.387283 g / cm^3
# Si number density = 23.927291 Si / 1000 Ang^3
#
#
#
# Elastic Constant Matrix: (Units=GPa)
#
#
# Indices 1 2 3 4 5 6 
#
# 1 48.1283 34.9875 17.7088 -0.0015 24.3174 -0.0020
# 2 34.9875 149.5362 13.7111 -0.0365 23.9297 0.0034
# 3 17.7088 13.7111 40.3190 0.0182 18.0982 -0.0363
# 4 -0.0015 -0.0365 0.0182 22.1694 -0.0071 9.9389
# 5 24.3174 23.9297 18.0982 -0.0071 31.4868 0.0102
# 6 -0.0020 0.0034 -0.0363 9.9389 0.0102 26.5127
#
#
#
# Elastic Compliance Matrix: (Units=1/GPa)
#
#
# Indices 1 2 3 4 5 6 
#
# 1 0.037304 -0.004689 -0.004660 -0.000013 -0.022568 0.000011
# 2 -0.004689 0.008203 0.000597 0.000014 -0.002955 -0.000005
# 3 -0.004660 0.000597 0.034009 -0.000067 -0.016403 0.000078
# 4 -0.000013 0.000014 -0.000067 0.054220 0.000057 -0.020326
# 5 -0.022568 -0.002955 -0.016403 0.000057 0.060863 -0.000069
# 6 0.000011 -0.000005 0.000078 -0.020326 -0.000069 0.045337
#
#
# Mechanical properties :
#
#
# Convention : Reuss Voigt Hill
#
# Bulk Modulus (GPa) = 16.12620 41.19982 28.66301
# Shear Modulus (GPa) = 17.97846 27.47219 22.72532
#
# Velocity S-wave (km/s) = 2.74410 3.39212 3.08517
# Velocity P-wave (km/s) = 4.09810 5.70947 4.96953
#
# Compressibility (1/GPa) = 0.06201089
#
# Stress axis : x y z
#
# Youngs Moduli (GPa) = 26.80669 121.90999 29.40420
#
# Poissons Ratio (x) = 0.57169 0.13701
# Poissons Ratio (y) = 0.12571 -0.01755
# Poissons Ratio (z) = 0.12491 -0.07275
#
# Static dielectric constant tensor:
#      x y z
#    x 2.022720 0.000030 0.007330 
#    y 0.000030 2.083380 0.000080 
#    z 0.007330 0.000080 2.003430 
# 
# From -- ./inp_files/16861.got.cif
#   From: 2010.05.17/outbox.cif.g08.bks.cpg/sg9_9_cif.got.tgz:16861.got - 2010.06.03 20:04:27.
