data_PCOD9134956
_publ_section_title
;
Structure prediction by ZEFSAII (Michael W. Deem and Ramdas Pophale) SiO2 
 PCOD9134956
Probable space group: C C
;
_chemical_formula_sum "Si O2"
_cell_formula_units_Z 20
_cell_length_a 16.098761
_cell_length_b 9.695222
_cell_length_c 10.158896
_cell_angle_alpha 90.000000
_cell_angle_beta 150.641453
_cell_angle_gamma 90.000000
_cell_volume 777.382887
_symmetry_space_group_name_H-M "C C"
_symmetry_group_IT_number 9
_symmetry_cell_setting 'monoclinic'
loop_
_space_group_symop_operation_xyz
x,y,z
x,-y,1/2+z
1/2+x,1/2+y,z
1/2+x,1/2-y,1/2+z
loop_
_atom_site_type_symbol
_atom_site_label
_atom_site_fract_x
_atom_site_fract_y
_atom_site_fract_z
Si Si1 0.392050 0.313492 0.417190
Si Si2 0.390615 0.181955 0.917081
Si Si3 0.216152 0.063964 0.290056
Si Si4 0.465537 0.651009 0.742154
Si Si5 0.681031 0.930281 0.666584
O O1 0.341652 0.193116 0.445494
O O2 0.566596 0.397326 0.684614
O O3 0.424987 0.257139 0.315373
O O4 0.240917 0.424311 0.194300
O O5 0.519806 0.271940 0.184680
O O6 0.489394 0.899785 0.441700
O O7 0.255517 0.298975 0.689041
O O8 0.312959 0.078183 0.917145
O O9 0.108661 0.057085 0.004033
O O10 0.295079 0.575975 0.458394
#
# Coordination Sequence:
#
# PCOD9134956 Si02
#       5
#     4   4   4   4   4
#     4  10  20  35  62  90 127 161 210 260 315 372
#     4  10  20  37  63  89 123 168 210 254 319 376
#     4  10  20  35  62  88 124 163 210 255 314 380
#     4   8  22  36  64  87 124 164 206 252 319 374
#     4  10  20  37  63  86 126 164 210 259 315 378
#
# _framework density 25.727347999999999
#
# number of rings (size 3 to 8) (size 9 to 14) (size 15 to 20)
#    2.400    0.000    0.000    3.600    0.000    0.000 
#    0.000    0.000   17.600    0.000    0.000    0.000 
#    0.000    0.000    0.000    0.000    0.000    0.000 
#
# Total GULP energy -55694.523151 kJ/mol
# GULP energy per Si atom -5569.452315 kJ/mol
# Density = 2.566879 g / cm^3
# Si number density = 25.727348 Si / 1000 Ang^3
#
#
#
# Elastic Constant Matrix: (Units=GPa)
#
#
# Indices 1 2 3 4 5 6 
#
# 1 100.0420 36.3056 14.2841 0.0000 27.7188 0.0000
# 2 36.3056 106.3481 -2.0350 0.0000 21.9079 0.0000
# 3 14.2841 -2.0350 40.2707 0.0000 8.8390 0.0000
# 4 0.0000 0.0000 0.0000 24.3659 0.0000 9.5141
# 5 27.7188 21.9079 8.8390 0.0000 42.1487 0.0000
# 6 0.0000 0.0000 0.0000 9.5141 0.0000 43.3073
#
#
#
# Elastic Compliance Matrix: (Units=1/GPa)
#
#
# Indices 1 2 3 4 5 6 
#
# 1 0.013490 -0.003359 -0.003554 0.000000 -0.006380 0.000000
# 2 -0.003359 0.011495 0.002724 0.000000 -0.004337 0.000000
# 3 -0.003554 0.002724 0.027284 0.000000 -0.004800 0.000000
# 4 0.000000 0.000000 0.000000 0.044892 0.000000 -0.009862
# 5 -0.006380 -0.004337 -0.004800 0.000000 0.031183 0.000000
# 6 0.000000 0.000000 0.000000 -0.009862 0.000000 0.025257
#
#
# Mechanical properties :
#
#
# Convention : Reuss Voigt Hill
#
# Bulk Modulus (GPa) = 22.78339 38.19672 30.49005
# Shear Modulus (GPa) = 28.31101 35.17145 31.74123
#
# Velocity S-wave (km/s) = 3.32086 3.70142 3.51629
# Velocity P-wave (km/s) = 4.85583 5.75728 5.32567
#
# Compressibility (1/GPa) = 0.04389162
#
# Stress axis : x y z
#
# Youngs Moduli (GPa) = 74.12851 86.99127 36.65155
#
# Poissons Ratio (x) = 0.29220 0.13027
# Poissons Ratio (y) = 0.24899 -0.09985
# Poissons Ratio (z) = 0.26347 -0.23699
#
# Static dielectric constant tensor:
#      x y z
#    x 1.999430 0.000000 0.028170 
#    y 0.000000 1.995670 0.000000 
#    z 0.028170 0.000000 2.072430 
# 
# From -- ./inp_files/27998.got.cif
#   From: 2010.05.17/outbox.cif.g08.bks.cpg/sg9_14_cif.got.tgz:27998.got - 2010.06.03 20:04:27.
