data_PCOD9134909
_publ_section_title
;
Structure prediction by ZEFSAII (Michael W. Deem and Ramdas Pophale) SiO2 
 PCOD9134909
Probable space group: C C
;
_chemical_formula_sum "Si O2"
_cell_formula_units_Z 28
_cell_length_a 6.735798
_cell_length_b 31.236484
_cell_length_c 5.167991
_cell_angle_alpha 90.000000
_cell_angle_beta 77.062997
_cell_angle_gamma 90.000000
_cell_volume 1059.758344
_symmetry_space_group_name_H-M "C C"
_symmetry_group_IT_number 9
_symmetry_cell_setting 'monoclinic'
loop_
_space_group_symop_operation_xyz
x,y,z
x,-y,1/2+z
1/2+x,1/2+y,z
1/2+x,1/2-y,1/2+z
loop_
_atom_site_type_symbol
_atom_site_label
_atom_site_fract_x
_atom_site_fract_y
_atom_site_fract_z
Si Si1 0.925110 0.985172 0.363880
Si Si2 0.900737 0.294858 0.186773
Si Si3 0.654275 0.092247 0.772886
Si Si4 0.415078 0.659305 0.377468
Si Si5 0.410844 0.841581 0.685253
Si Si6 0.925336 0.205387 0.875116
Si Si7 0.486262 0.022893 0.491021
O O1 0.815386 0.939491 0.371608
O O2 0.045290 0.001558 0.574626
O O3 0.733331 0.017472 0.401755
O O4 0.966964 0.302505 0.465056
O O5 0.662947 0.303142 0.280901
O O6 0.976298 0.329564 0.956765
O O7 0.913356 0.250048 0.031679
O O8 0.804595 0.119907 0.547222
O O9 0.484832 0.067407 0.644964
O O10 0.518941 0.118464 0.017948
O O11 0.662705 0.653705 0.281521
O O12 0.359989 0.698696 0.595306
O O13 0.349967 0.670517 0.104425
O O14 0.426448 0.013812 0.215640
#
# Coordination Sequence:
#
# PCOD9134909 Si02
#       7
#     4   4   4   4   4   4   4
#     4   8  16  30  50  78 106 136 172 212 256 310
#     4  10  22  38  55  74 106 138 176 226 267 317
#     4  10  20  34  62  78 108 146 176 216 270 320
#     4  10  23  37  52  82 107 134 179 224 265 310
#     4  10  23  37  52  82 107 134 179 224 265 310
#     4  10  22  38  55  74 106 138 176 226 267 317
#     4   8  16  30  50  78 106 136 172 212 256 310
#
# _framework density 26.421119000000001
#
# number of rings (size 3 to 8) (size 9 to 14) (size 15 to 20)
#    0.000    2.857    0.000    0.857    4.000    9.143 
#    0.000    0.000    0.000   15.429    0.000    0.000 
#    0.000    0.000    0.000    0.000    0.000    0.000 
#
# Total GULP energy -78112.292501 kJ/mol
# GULP energy per Si atom -5579.449464 kJ/mol
# Density = 2.636098 g / cm^3
# Si number density = 26.421119 Si / 1000 Ang^3
#
#
#
# Elastic Constant Matrix: (Units=GPa)
#
#
# Indices 1 2 3 4 5 6 
#
# 1 68.7490 1.6376 43.9652 0.0000 5.7816 0.0000
# 2 1.6376 137.2366 65.7523 0.0000 -0.5084 0.0000
# 3 43.9652 65.7523 216.0775 0.0000 1.3264 0.0000
# 4 0.0000 0.0000 0.0000 73.1040 0.0000 -45.3066
# 5 5.7816 -0.5084 1.3264 0.0000 68.4205 0.0000
# 6 0.0000 0.0000 0.0000 -45.3066 0.0000 226.2406
#
#
#
# Elastic Compliance Matrix: (Units=1/GPa)
#
#
# Indices 1 2 3 4 5 6 
#
# 1 0.017183 0.001710 -0.004008 0.000000 -0.001362 0.000000
# 2 0.001710 0.008702 -0.002996 0.000000 -0.000022 0.000000
# 3 -0.004008 -0.002996 0.006354 0.000000 0.000193 0.000000
# 4 0.000000 0.000000 0.000000 0.015617 0.000000 0.003128
# 5 -0.001362 -0.000022 0.000193 0.000000 0.014727 0.000000
# 6 0.000000 0.000000 0.000000 0.003128 0.000000 0.005046
#
#
# Mechanical properties :
#
#
# Convention : Reuss Voigt Hill
#
# Bulk Modulus (GPa) = 46.18753 71.64147 58.91450
# Shear Modulus (GPa) = 58.52547 94.26687 76.39617
#
# Velocity S-wave (km/s) = 4.71159 5.97964 5.38308
# Velocity P-wave (km/s) = 6.86426 8.65152 7.80919
#
# Compressibility (1/GPa) = 0.02165086
#
# Stress axis : x y z
#
# Youngs Moduli (GPa) = 58.19801 114.92269 157.38263
#
# Poissons Ratio (x) = -0.19656 0.63083
# Poissons Ratio (y) = -0.09954 0.47148
# Poissons Ratio (z) = 0.23327 0.34428
#
# Static dielectric constant tensor:
#      x y z
#    x 2.141880 0.000000 0.081340 
#    y 0.000000 2.355480 0.000000 
#    z 0.081340 0.000000 2.299650 
# 
# From -- ./inp_files/1199.got.cif
#   From: 2010.05.17/outbox.cif.g08.bks.cpg/sg9_1_cif.got.tgz:1199.got - 2010.06.03 20:04:27.
