data_PCOD9134636
_publ_section_title
;
Structure prediction by ZEFSAII (Michael W. Deem and Ramdas Pophale) SiO2 
 PCOD9134636
Probable space group: C C
;
_chemical_formula_sum "Si O2"
_cell_formula_units_Z 32
_cell_length_a 6.843992
_cell_length_b 17.412416
_cell_length_c 13.950749
_cell_angle_alpha 90.000000
_cell_angle_beta 118.498664
_cell_angle_gamma 90.000000
_cell_volume 1461.066745
_symmetry_space_group_name_H-M "C C"
_symmetry_group_IT_number 9
_symmetry_cell_setting 'monoclinic'
loop_
_space_group_symop_operation_xyz
x,y,z
x,-y,1/2+z
1/2+x,1/2+y,z
1/2+x,1/2-y,1/2+z
loop_
_atom_site_type_symbol
_atom_site_label
_atom_site_fract_x
_atom_site_fract_y
_atom_site_fract_z
Si Si1 0.517600 0.108656 0.730680
Si Si2 0.460848 0.925527 0.423400
Si Si3 0.999903 0.959016 0.320069
Si Si4 0.401569 0.358742 0.603903
Si Si5 0.655920 0.092525 0.427987
Si Si6 0.399552 0.799986 0.018106
Si Si7 0.437983 0.639278 0.333235
Si Si8 0.091833 0.019367 0.621509
O O1 0.460067 0.126497 0.827351
O O2 0.478851 0.171546 0.641218
O O3 0.340389 0.044134 0.655407
O O4 0.768294 0.078503 0.792360
O O5 0.222334 0.924622 0.417420
O O6 0.659649 0.898045 0.535975
O O7 0.510584 0.013569 0.398046
O O8 0.036156 0.951383 0.215218
O O9 0.995659 0.049141 0.338004
O O10 0.426032 0.291034 0.533201
O O11 0.423478 0.333284 0.719757
O O12 0.566215 0.428320 0.618234
O O13 0.545298 0.152572 0.475343
O O14 0.709393 0.136273 0.341017
O O15 0.899701 0.060783 0.515748
O O16 0.141770 0.819289 0.934857
#
# Coordination Sequence:
#
# PCOD9134636 Si02
#       8
#     4   4   4   4   4   4   4   4
#     4  11  21  38  74 100 138 172 234 284 338 400
#     4  10  22  40  69 105 135 177 235 286 331 414
#     4  10  19  38  68 106 130 176 231 285 332 397
#     4  10  26  46  68  99 151 179 229 284 359 410
#     4  11  20  41  70 101 130 181 238 275 343 405
#     4  12  25  43  71 100 144 183 219 294 347 427
#     4  11  23  42  69  99 137 182 229 284 351 407
#     4   9  20  40  67 102 131 176 229 280 329 412
#
# _framework density 21.901806000000001
#
# number of rings (size 3 to 8) (size 9 to 14) (size 15 to 20)
#    0.000    1.500    5.000    0.000    1.750    0.000 
#    0.000    6.250    2.750    0.000    0.000    0.000 
#    0.000    0.000    0.000    0.000    0.000    0.000 
#
# Total GULP energy -89344.949003 kJ/mol
# GULP energy per Si atom -5584.059313 kJ/mol
# Density = 2.185196 g / cm^3
# Si number density = 21.901806 Si / 1000 Ang^3
#
#
#
# Elastic Constant Matrix: (Units=GPa)
#
#
# Indices 1 2 3 4 5 6 
#
# 1 110.6576 31.4164 19.3929 0.0000 9.0124 0.0000
# 2 31.4164 66.5293 5.4602 0.0000 -2.6759 0.0000
# 3 19.3929 5.4602 47.1751 0.0000 -1.7713 0.0000
# 4 0.0000 0.0000 0.0000 31.2927 0.0000 -1.8973
# 5 9.0124 -2.6759 -1.7713 0.0000 38.2187 0.0000
# 6 0.0000 0.0000 0.0000 -1.8973 0.0000 8.4867
#
#
#
# Elastic Compliance Matrix: (Units=1/GPa)
#
#
# Indices 1 2 3 4 5 6 
#
# 1 0.011536 -0.005230 -0.004260 0.000000 -0.003284 0.000000
# 2 -0.005230 0.017583 0.000208 0.000000 0.002474 0.000000
# 3 -0.004260 0.000208 0.023003 0.000000 0.002085 0.000000
# 4 0.000000 0.000000 0.000000 0.032395 0.000000 0.007243
# 5 -0.003284 0.002474 0.002085 0.000000 0.027209 0.000000
# 6 0.000000 0.000000 0.000000 0.007243 0.000000 0.119450
#
#
# Mechanical properties :
#
#
# Convention : Reuss Voigt Hill
#
# Bulk Modulus (GPa) = 29.79974 37.43344 33.61659
# Shear Modulus (GPa) = 19.16244 26.80580 22.98412
#
# Velocity S-wave (km/s) = 2.96112 3.50224 3.24298
# Velocity P-wave (km/s) = 5.03255 5.78643 5.42261
#
# Compressibility (1/GPa) = 0.03355734
#
# Stress axis : x y z
#
# Youngs Moduli (GPa) = 86.68740 56.87300 43.47231
#
# Poissons Ratio (x) = 0.29743 0.18520
# Poissons Ratio (y) = 0.45336 -0.00903
# Poissons Ratio (z) = 0.36930 -0.01181
#
# Static dielectric constant tensor:
#      x y z
#    x 1.804520 0.000000 -0.010540 
#    y 0.000000 1.798800 0.000000 
#    z -0.010540 0.000000 1.868620 
# 
# From -- ./inp_files/22005.got.cif
#   From: 2010.05.17/outbox.cif.g08.bks.cpg/sg9_12_cif.got.tgz:22005.got - 2010.06.03 20:04:27.
