data_PCOD9134375
_publ_section_title
;
Structure prediction by ZEFSAII (Michael W. Deem and Ramdas Pophale) SiO2 
 PCOD9134375
Probable space group: C C
;
_chemical_formula_sum "Si O2"
_cell_formula_units_Z 32
_cell_length_a 26.347233
_cell_length_b 11.314096
_cell_length_c 9.227166
_cell_angle_alpha 90.000000
_cell_angle_beta 153.312006
_cell_angle_gamma 90.000000
_cell_volume 1235.369854
_symmetry_space_group_name_H-M "C C"
_symmetry_group_IT_number 9
_symmetry_cell_setting 'monoclinic'
loop_
_space_group_symop_operation_xyz
x,y,z
x,-y,1/2+z
1/2+x,1/2+y,z
1/2+x,1/2-y,1/2+z
loop_
_atom_site_type_symbol
_atom_site_label
_atom_site_fract_x
_atom_site_fract_y
_atom_site_fract_z
Si Si1 0.479730 0.080576 0.231750
Si Si2 0.754646 0.116175 0.223544
Si Si3 0.567909 0.919222 0.671707
Si Si4 0.941411 0.081975 0.194842
Si Si5 0.172456 0.769510 0.774347
Si Si6 0.757202 0.721517 0.191060
Si Si7 0.079242 0.955320 0.761318
Si Si8 0.783337 0.351998 0.449583
O O1 0.518987 0.953899 0.391410
O O2 0.586793 0.167284 0.510789
O O3 0.462733 0.084022 0.016228
O O4 0.392765 0.127308 0.129371
O O5 0.747876 0.214590 0.330626
O O6 0.859666 0.030140 0.513203
O O7 0.647032 0.030210 0.926844
O O8 0.763780 0.198686 0.103550
O O9 0.653542 0.809894 0.884445
O O10 0.986229 0.071707 0.145591
O O11 0.865620 0.197809 0.004855
O O12 0.037753 0.069159 0.564065
O O13 0.219990 0.827116 0.751619
O O14 0.102696 0.859172 0.695618
O O15 0.787228 0.636989 0.133123
O O16 0.190897 0.935599 0.141425
#
# Coordination Sequence:
#
# PCOD9134375 Si02
#       8
#     4   4   4   4   4   4   4   4
#     4  10  19  35  58  83 116 155 197 244 304 363
#     4   9  18  36  62  89 119 152 202 259 309 362
#     4   9  19  35  60  88 112 147 199 254 298 357
#     4  11  21  39  65  93 122 165 212 258 310 373
#     4   9  19  37  60  91 120 152 200 262 313 364
#     4  10  20  38  65  91 117 155 207 256 309 371
#     4  11  25  39  58  89 127 162 204 257 311 368
#     4  11  23  39  58  88 125 162 199 250 312 376
#
# _framework density 25.903172000000001
#
# number of rings (size 3 to 8) (size 9 to 14) (size 15 to 20)
#    0.000    2.000    0.000    3.750    0.000    6.000 
#    0.000    7.500    0.000    0.000    0.000    0.000 
#    0.000    0.000    0.000    0.000    0.000    0.000 
#
# Total GULP energy -89501.384989 kJ/mol
# GULP energy per Si atom -5593.836562 kJ/mol
# Density = 2.584421 g / cm^3
# Si number density = 25.903172 Si / 1000 Ang^3
#
#
#
# Elastic Constant Matrix: (Units=GPa)
#
#
# Indices 1 2 3 4 5 6 
#
# 1 213.3453 25.5957 35.0625 0.0000 -10.8156 0.0000
# 2 25.5957 87.7019 19.2141 0.0000 -0.1174 0.0000
# 3 35.0625 19.2141 78.3418 0.0000 -10.9364 0.0000
# 4 0.0000 0.0000 0.0000 12.5146 0.0000 9.9034
# 5 -10.8156 -0.1174 -10.9364 0.0000 27.4536 0.0000
# 6 0.0000 0.0000 0.0000 9.9034 0.0000 10.3238
#
#
#
# Elastic Compliance Matrix: (Units=1/GPa)
#
#
# Indices 1 2 3 4 5 6 
#
# 1 0.005193 -0.001104 -0.001873 0.000000 0.001295 0.000000
# 2 -0.001104 0.012321 -0.002733 0.000000 -0.001471 0.000000
# 3 -0.001873 -0.002733 0.015003 0.000000 0.005227 0.000000
# 4 0.000000 0.000000 0.000000 0.331736 0.000000 -0.318227
# 5 0.001295 -0.001471 0.005227 0.000000 0.039011 0.000000
# 6 0.000000 0.000000 0.000000 -0.318227 0.000000 0.402132
#
#
# Mechanical properties :
#
#
# Convention : Reuss Voigt Hill
#
# Bulk Modulus (GPa) = 47.39831 59.90371 53.65101
# Shear Modulus (GPa) = 6.06908 30.02618 18.04763
#
# Velocity S-wave (km/s) = 1.53234 3.40835 2.64244
# Velocity P-wave (km/s) = 4.63344 6.21815 5.48334
#
# Compressibility (1/GPa) = 0.02109780
#
# Stress axis : x y z
#
# Youngs Moduli (GPa) = 192.56441 81.16098 66.65421
#
# Poissons Ratio (x) = 0.08957 0.12483
# Poissons Ratio (y) = 0.21251 0.18219
# Poissons Ratio (z) = 0.36062 0.22184
#
# Static dielectric constant tensor:
#      x y z
#    x 2.054160 0.000000 -0.016720 
#    y 0.000000 2.009050 0.000000 
#    z -0.016720 0.000000 2.056470 
# 
# From -- ./inp_files/12246.got.cif
#   From: 2010.05.17/outbox.cif.g08.bks.cpg/sg9_7_cif.got.tgz:12246.got - 2010.06.03 20:04:27.
