data_PCOD9134952
_publ_section_title
;
Structure prediction by ZEFSAII (Michael W. Deem and Ramdas Pophale) SiO2 
 PCOD9134952
Probable space group: C C
;
_chemical_formula_sum "Si O2"
_cell_formula_units_Z 32
_cell_length_a 8.479286
_cell_length_b 19.998231
_cell_length_c 12.599411
_cell_angle_alpha 90.000000
_cell_angle_beta 125.164133
_cell_angle_gamma 90.000000
_cell_volume 1746.593482
_symmetry_space_group_name_H-M "C C"
_symmetry_group_IT_number 9
_symmetry_cell_setting 'monoclinic'
loop_
_space_group_symop_operation_xyz
x,y,z
x,-y,1/2+z
1/2+x,1/2+y,z
1/2+x,1/2-y,1/2+z
loop_
_atom_site_type_symbol
_atom_site_label
_atom_site_fract_x
_atom_site_fract_y
_atom_site_fract_z
Si Si1 0.862150 0.329156 0.581000
Si Si2 0.162776 0.223970 0.635067
Si Si3 0.743920 0.395565 0.319220
Si Si4 0.502198 0.682557 0.356843
Si Si5 0.036061 0.487951 0.884911
Si Si6 0.217514 0.574083 0.267977
Si Si7 0.415893 0.501120 0.153112
Si Si8 0.190868 0.114493 0.224340
O O1 0.757715 0.352281 0.432283
O O2 0.739642 0.339386 0.641445
O O3 0.966425 0.257903 0.604760
O O4 0.039482 0.380937 0.661751
O O5 0.209537 0.153443 0.707241
O O6 0.341115 0.270297 0.740644
O O7 0.131719 0.218209 0.496392
O O8 0.565851 0.446379 0.250249
O O9 0.932608 0.442910 0.376484
O O10 0.378555 0.626044 0.373921
O O11 0.620110 0.652330 0.302963
O O12 0.122857 0.483958 0.800868
O O13 0.879525 0.428757 0.828841
O O14 0.226867 0.472483 0.025100
O O15 0.331642 0.541289 0.218016
O O16 0.533305 0.557423 0.131997
#
# Coordination Sequence:
#
# PCOD9134952 Si02
#       8
#     4   4   4   4   4   4   4   4
#     4  10  20  41  59  82 124 158 201 248 295 349
#     4  11  22  40  63  84 118 163 208 247 294 356
#     4  11  22  37  61  92 118 158 203 245 300 367
#     4  10  21  41  62  86 118 161 206 246 302 356
#     4  10  20  37  58  90 122 144 197 247 302 359
#     4   9  19  36  61  83 119 157 180 250 304 354
#     4  10  20  35  60  92 118 151 193 240 309 363
#     4   9  22  39  60  85 119 160 190 251 308 352
#
# _framework density 18.321379
#
# number of rings (size 3 to 8) (size 9 to 14) (size 15 to 20)
#    0.000    2.000    2.500    0.750    1.750    1.000 
#    9.000    1.250    0.000    0.000    0.000    0.000 
#    0.000    0.000    0.000    0.000    0.000    0.000 
#
# Total GULP energy -89081.411516 kJ/mol
# GULP energy per Si atom -5567.588220 kJ/mol
# Density = 1.827968 g / cm^3
# Si number density = 18.321379 Si / 1000 Ang^3
#
#
#
# Elastic Constant Matrix: (Units=GPa)
#
#
# Indices 1 2 3 4 5 6 
#
# 1 84.7334 -5.8768 16.9121 0.0000 -5.3417 0.0000
# 2 -5.8768 -60.4879 -30.2741 0.0000 -21.9441 0.0000
# 3 16.9121 -30.2741 74.1451 0.0000 -7.6892 0.0000
# 4 0.0000 0.0000 0.0000 20.0405 0.0000 -12.0090
# 5 -5.3417 -21.9441 -7.6892 0.0000 21.3429 0.0000
# 6 0.0000 0.0000 0.0000 -12.0090 0.0000 5.5770
#
#
#
# Elastic Compliance Matrix: (Units=1/GPa)
#
#
# Indices 1 2 3 4 5 6 
#
# 1 0.012444 -0.000403 -0.002829 0.000000 0.001681 0.000000
# 2 -0.000403 -0.009651 -0.005078 0.000000 -0.011853 0.000000
# 3 -0.002829 -0.005078 0.011888 0.000000 -0.001646 0.000000
# 4 0.000000 0.000000 0.000000 -0.171856 0.000000 -0.370062
# 5 0.001681 -0.011853 -0.001646 0.000000 0.034494 0.000000
# 6 0.000000 0.000000 0.000000 -0.370062 0.000000 -0.617554
#
#
# Mechanical properties :
#
#
# Convention : Reuss Voigt Hill
#
# Bulk Modulus (GPa) = -515.86140 6.65699 -254.60220
# Shear Modulus (GPa) = -6.90359 17.23404 5.16522
#
# Velocity S-wave (km/s) = -1.94325 3.07033 1.68088
# Velocity P-wave (km/s) = 16.94723 4.02624 11.64041
#
# Compressibility (1/GPa) = -0.00193851
#
# Stress axis : x y z
#
# Youngs Moduli (GPa) = 80.35791 -103.61318 84.11706
#
# Poissons Ratio (x) = -0.04177 0.23795
# Poissons Ratio (y) = 0.03239 0.42715
# Poissons Ratio (z) = 0.22731 -0.52615
#
# Static dielectric constant tensor:
#      x y z
#    x 1.622050 0.000000 0.009230 
#    y 0.000000 1.685140 0.000000 
#    z 0.009230 0.000000 1.765170 
# 
# From -- ./inp_files/5610.got.cif
#   From: 2010.05.17/outbox.cif.g08.bks.cpg/sg9_3_cif.got.tgz:5610.got - 2010.06.03 20:04:27.
