data_PCOD9134049
_publ_section_title
;
Structure prediction by ZEFSAII (Michael W. Deem and Ramdas Pophale) SiO2 
 PCOD9134049
Probable space group: C C
;
_chemical_formula_sum "Si O2"
_cell_formula_units_Z 28
_cell_length_a 27.371006
_cell_length_b 7.899954
_cell_length_c 5.431622
_cell_angle_alpha 90.000000
_cell_angle_beta 102.937039
_cell_angle_gamma 90.000000
_cell_volume 1144.665771
_symmetry_space_group_name_H-M "C C"
_symmetry_group_IT_number 9
_symmetry_cell_setting 'monoclinic'
loop_
_space_group_symop_operation_xyz
x,y,z
x,-y,1/2+z
1/2+x,1/2+y,z
1/2+x,1/2-y,1/2+z
loop_
_atom_site_type_symbol
_atom_site_label
_atom_site_fract_x
_atom_site_fract_y
_atom_site_fract_z
Si Si1 0.066080 0.600760 0.627760
Si Si2 0.780368 0.698877 0.374548
Si Si3 0.426654 0.041340 0.583182
Si Si4 0.180475 0.392104 0.303110
Si Si5 0.525102 0.562625 0.273141
Si Si6 0.823210 0.673433 0.925298
Si Si7 0.907949 0.071099 0.161435
O O1 0.061785 0.538458 0.341385
O O2 0.123202 0.669612 0.721832
O O3 0.029501 0.751132 0.665678
O O4 0.723150 0.752035 0.324826
O O5 0.809246 0.759644 0.652136
O O6 0.788846 0.497264 0.376563
O O7 0.806150 0.765815 0.153327
O O8 0.409416 0.234058 0.579904
O O9 0.454567 0.003784 0.363799
O O10 0.378319 0.913688 0.516656
O O11 0.186958 0.482665 0.575650
O O12 0.547120 0.450075 0.073989
O O13 0.466738 0.517885 0.249790
O O14 0.887388 0.039385 0.412572
#
# Coordination Sequence:
#
# PCOD9134049 Si02
#       7
#     4   4   4   4   4   4   4
#     4  10  21  38  61  87 124 154 194 243 291 347
#     4  10  18  35  55  75 106 145 182 227 294 319
#     4  12  21  38  64  85 117 150 201 247 294 340
#     4  10  21  37  55  81 115 152 186 234 285 349
#     4  10  21  40  61  87 124 154 194 238 293 352
#     4  10  19  35  56  74 107 141 180 251 275 316
#     4  10  23  41  60  87 123 158 187 242 300 357
#
# _framework density 24.461289000000001
#
# number of rings (size 3 to 8) (size 9 to 14) (size 15 to 20)
#    0.000    1.714    2.857    2.571    0.000    1.143 
#    5.143    1.429    0.000    0.000    0.000    0.000 
#    0.000    0.000    0.000    0.000    0.000    0.000 
#
# Total GULP energy -78258.750753 kJ/mol
# GULP energy per Si atom -5589.910768 kJ/mol
# Density = 2.440561 g / cm^3
# Si number density = 24.461289 Si / 1000 Ang^3
#
#
#
# Elastic Constant Matrix: (Units=GPa)
#
#
# Indices 1 2 3 4 5 6 
#
# 1 91.8108 -4.8087 17.7382 0.0000 -10.1909 0.0000
# 2 -4.8087 44.2956 10.2547 0.0000 4.1613 0.0000
# 3 17.7382 10.2547 192.4983 0.0000 -39.9084 0.0000
# 4 0.0000 0.0000 0.0000 29.6229 0.0000 -1.2301
# 5 -10.1909 4.1613 -39.9084 0.0000 22.9926 0.0000
# 6 0.0000 0.0000 0.0000 -1.2301 0.0000 41.6499
#
#
#
# Elastic Compliance Matrix: (Units=1/GPa)
#
#
# Indices 1 2 3 4 5 6 
#
# 1 0.011484 0.000831 -0.000122 0.000000 0.004727 0.000000
# 2 0.000831 0.024413 -0.003463 0.000000 -0.010060 0.000000
# 3 -0.000122 -0.003463 0.008606 0.000000 0.015510 0.000000
# 4 0.000000 0.000000 0.000000 0.033799 0.000000 0.000998
# 5 0.004727 -0.010060 0.015510 0.000000 0.074329 0.000000
# 6 0.000000 0.000000 0.000000 0.000998 0.000000 0.024039
#
#
# Mechanical properties :
#
#
# Convention : Reuss Voigt Hill
#
# Bulk Modulus (GPa) = 25.64497 41.66368 33.65433
# Shear Modulus (GPa) = 25.61785 39.21444 32.41614
#
# Velocity S-wave (km/s) = 3.23968 4.00824 3.64428
# Velocity P-wave (km/s) = 4.94982 6.20410 5.61211
#
# Compressibility (1/GPa) = 0.03899400
#
# Stress axis : x y z
#
# Youngs Moduli (GPa) = 87.07888 40.96249 116.19615
#
# Poissons Ratio (x) = -0.03404 0.01423
# Poissons Ratio (y) = -0.07236 0.40236
# Poissons Ratio (z) = 0.01067 0.14184
#
# Static dielectric constant tensor:
#      x y z
#    x 1.964570 0.000000 -0.036320 
#    y 0.000000 1.971270 0.000000 
#    z -0.036320 0.000000 2.066740 
# 
# From -- ./inp_files/3386.got.cif
#   From: 2010.05.17/outbox.cif.g08.bks.cpg/sg9_2_cif.got.tgz:3386.got - 2010.06.03 20:04:27.
