data_PCOD9134623
_publ_section_title
;
Structure prediction by ZEFSAII (Michael W. Deem and Ramdas Pophale) SiO2 
 PCOD9134623
Probable space group: C C
;
_chemical_formula_sum "Si O2"
_cell_formula_units_Z 28
_cell_length_a 15.439950
_cell_length_b 12.116384
_cell_length_c 8.995866
_cell_angle_alpha 90.000000
_cell_angle_beta 45.708902
_cell_angle_gamma 90.000000
_cell_volume 1204.631848
_symmetry_space_group_name_H-M "C C"
_symmetry_group_IT_number 9
_symmetry_cell_setting 'monoclinic'
loop_
_space_group_symop_operation_xyz
x,y,z
x,-y,1/2+z
1/2+x,1/2+y,z
1/2+x,1/2-y,1/2+z
loop_
_atom_site_type_symbol
_atom_site_label
_atom_site_fract_x
_atom_site_fract_y
_atom_site_fract_z
Si Si1 0.712150 0.214618 0.229920
Si Si2 0.750964 0.359153 0.597641
Si Si3 0.486297 0.102643 0.638586
Si Si4 0.162542 0.950515 0.391996
Si Si5 0.053704 0.428125 0.760426
Si Si6 0.879718 0.052735 0.181680
Si Si7 0.242257 0.607854 0.644592
O O1 0.614185 0.167637 0.471708
O O2 0.706130 0.343781 0.247954
O O3 0.835145 0.151495 0.124493
O O4 0.650927 0.169733 0.152203
O O5 0.887331 0.349152 0.367443
O O6 0.681083 0.415487 0.541732
O O7 0.711311 0.236141 0.687195
O O8 0.954213 0.602082 0.502874
O O9 0.233851 0.940946 0.755874
O O10 0.503255 0.976795 0.671595
O O11 0.021735 0.965538 0.520287
O O12 0.128022 0.531646 0.740146
O O13 0.834615 0.087175 0.398000
O O14 0.806891 0.946215 0.209906
#
# Coordination Sequence:
#
# PCOD9134623 Si02
#       7
#     4   4   4   4   4   4   4
#     4   9  21  38  70  92 124 177 226 267 337 397
#     4  12  26  43  65  99 143 181 220 277 352 406
#     4  10  19  38  65  92 126 168 224 273 330 399
#     4  12  25  45  63 103 141 184 220 285 343 409
#     4   9  18  36  65  96 115 166 229 273 319 395
#     4  11  22  42  75  99 133 177 237 281 342 403
#     4  11  21  44  69  99 130 177 226 280 337 405
#
# _framework density 23.243615999999999
#
# number of rings (size 3 to 8) (size 9 to 14) (size 15 to 20)
#    0.857    0.571    2.857    2.571    0.000    1.143 
#    7.714    0.000    3.143    0.000    0.000    0.000 
#    0.000    0.000    0.000    0.000    0.000    0.000 
#
# Total GULP energy -78146.520044 kJ/mol
# GULP energy per Si atom -5581.894289 kJ/mol
# Density = 2.319071 g / cm^3
# Si number density = 23.243616 Si / 1000 Ang^3
#
#
#
# Elastic Constant Matrix: (Units=GPa)
#
#
# Indices 1 2 3 4 5 6 
#
# 1 64.8125 12.4546 13.1945 0.0000 -7.3360 0.0000
# 2 12.4546 133.2043 25.4114 0.0000 10.9332 0.0000
# 3 13.1945 25.4114 60.7392 0.0000 -12.0145 0.0000
# 4 0.0000 0.0000 0.0000 19.1498 0.0000 4.7776
# 5 -7.3360 10.9332 -12.0145 0.0000 36.9558 0.0000
# 6 0.0000 0.0000 0.0000 4.7776 0.0000 21.6507
#
#
#
# Elastic Compliance Matrix: (Units=1/GPa)
#
#
# Indices 1 2 3 4 5 6 
#
# 1 0.016507 -0.001306 -0.002474 0.000000 0.002859 0.000000
# 2 -0.001306 0.008783 -0.004228 0.000000 -0.004232 0.000000
# 3 -0.002474 -0.004228 0.020221 0.000000 0.007334 0.000000
# 4 0.000000 0.000000 0.000000 0.055262 0.000000 -0.012194
# 5 0.002859 -0.004232 0.007334 0.000000 0.031263 0.000000
# 6 0.000000 0.000000 0.000000 -0.012194 0.000000 0.048879
#
#
# Mechanical properties :
#
#
# Convention : Reuss Voigt Hill
#
# Bulk Modulus (GPa) = 33.90399 40.09743 37.00071
# Shear Modulus (GPa) = 24.18219 29.39764 26.78992
#
# Velocity S-wave (km/s) = 3.22899 3.56021 3.39864
# Velocity P-wave (km/s) = 5.34040 5.84709 5.59948
#
# Compressibility (1/GPa) = 0.02949505
#
# Stress axis : x y z
#
# Youngs Moduli (GPa) = 60.57901 113.85145 49.45400
#
# Poissons Ratio (x) = 0.14870 0.12235
# Poissons Ratio (y) = 0.07912 0.20910
# Poissons Ratio (z) = 0.14987 0.48138
#
# Static dielectric constant tensor:
#      x y z
#    x 1.954140 0.000000 0.001860 
#    y 0.000000 1.863200 0.000000 
#    z 0.001860 0.000000 1.929060 
# 
# From -- ./inp_files/18165.got.cif
#   From: 2010.05.17/outbox.cif.g08.bks.cpg/sg9_10_cif.got.tgz:18165.got - 2010.06.03 20:04:27.
