data_PCOD9134587
_publ_section_title
;
Structure prediction by ZEFSAII (Michael W. Deem and Ramdas Pophale) SiO2 
 PCOD9134587
Probable space group: C C
;
_chemical_formula_sum "Si O2"
_cell_formula_units_Z 28
_cell_length_a 10.439875
_cell_length_b 9.370774
_cell_length_c 14.218745
_cell_angle_alpha 90.000000
_cell_angle_beta 40.862290
_cell_angle_gamma 90.000000
_cell_volume 910.062551
_symmetry_space_group_name_H-M "C C"
_symmetry_group_IT_number 9
_symmetry_cell_setting 'monoclinic'
loop_
_space_group_symop_operation_xyz
x,y,z
x,-y,1/2+z
1/2+x,1/2+y,z
1/2+x,1/2-y,1/2+z
loop_
_atom_site_type_symbol
_atom_site_label
_atom_site_fract_x
_atom_site_fract_y
_atom_site_fract_z
Si Si1 0.239330 0.202876 0.690750
Si Si2 0.110602 0.728468 0.931545
Si Si3 0.552160 0.499077 0.697566
Si Si4 0.338576 0.503758 0.124951
Si Si5 0.378732 0.118207 0.396711
Si Si6 0.599191 0.955891 0.070569
Si Si7 0.821690 0.691002 0.947657
O O1 0.058115 0.072876 0.793362
O O2 0.401255 0.332995 0.570330
O O3 0.394332 0.121177 0.670775
O O4 0.092780 0.335667 0.807083
O O5 0.081021 0.599346 0.020267
O O6 0.972650 0.864763 0.025430
O O7 0.322930 0.785861 0.839373
O O8 0.040175 0.683180 0.868698
O O9 0.384696 0.510667 0.714066
O O10 0.735041 0.628763 0.571300
O O11 0.669584 0.352270 0.617782
O O12 0.171065 0.484932 0.135826
O O13 0.307840 0.961311 0.407064
O O14 0.765281 0.843345 0.939736
#
# Coordination Sequence:
#
# PCOD9134587 Si02
#       7
#     4   4   4   4   4   4   4
#     4  12  21  39  64  87 119 165 200 251 307 352
#     4  10  19  38  59  87 120 158 200 250 302 358
#     4   9  19  40  59  83 119 155 200 247 299 356
#     4  10  21  36  59  88 119 153 201 247 297 365
#     4   9  21  38  59  87 120 155 201 249 300 358
#     4  11  20  36  67  87 115 167 199 245 310 362
#     4   9  19  39  59  85 116 159 199 243 305 359
#
# _framework density 30.767116000000001
#
# number of rings (size 3 to 8) (size 9 to 14) (size 15 to 20)
#    0.857    1.143    2.857    1.714    0.000    1.143 
#    0.000   11.429    0.000    0.000    0.000    0.000 
#    0.000    0.000    0.000    0.000    0.000    0.000 
#
# Total GULP energy -77992.411070 kJ/mol
# GULP energy per Si atom -5570.886505 kJ/mol
# Density = 3.069709 g / cm^3
# Si number density = 30.767116 Si / 1000 Ang^3
#
#
#
# Elastic Constant Matrix: (Units=GPa)
#
#
# Indices 1 2 3 4 5 6 
#
# 1 244.1417 120.8565 58.4173 0.0000 -38.5247 0.0000
# 2 120.8565 245.0371 7.2236 0.0000 4.1927 0.0000
# 3 58.4173 7.2236 70.6734 -0.0002 4.8155 0.0001
# 4 0.0000 0.0000 -0.0002 26.0695 0.0000 -7.8691
# 5 -38.5247 4.1927 4.8155 0.0000 66.5074 0.0000
# 6 0.0000 0.0000 0.0001 -7.8691 0.0000 84.2815
#
#
#
# Elastic Compliance Matrix: (Units=1/GPa)
#
#
# Indices 1 2 3 4 5 6 
#
# 1 0.008911 -0.004281 -0.007334 0.000000 0.005963 0.000000
# 2 -0.004281 0.006153 0.003120 0.000000 -0.003094 0.000000
# 3 -0.007334 0.003120 0.020296 0.000000 -0.005915 0.000000
# 4 0.000000 0.000000 0.000000 0.039471 0.000000 0.003685
# 5 0.005963 -0.003094 -0.005915 0.000000 0.019113 0.000000
# 6 0.000000 0.000000 0.000000 0.003685 0.000000 0.012209
#
#
# Mechanical properties :
#
#
# Convention : Reuss Voigt Hill
#
# Bulk Modulus (GPa) = 54.43468 103.64966 79.04217
# Shear Modulus (GPa) = 38.67962 60.26201 49.47082
#
# Velocity S-wave (km/s) = 3.54951 4.43046 4.01423
# Velocity P-wave (km/s) = 5.87619 7.74168 6.87253
#
# Compressibility (1/GPa) = 0.01837064
#
# Stress axis : x y z
#
# Youngs Moduli (GPa) = 112.22214 162.51349 49.27060
#
# Poissons Ratio (x) = 0.69569 0.36137
# Poissons Ratio (y) = 0.48040 -0.15374
# Poissons Ratio (z) = 0.82307 -0.50709
#
# Static dielectric constant tensor:
#      x y z
#    x 2.489410 0.000000 0.079440 
#    y 0.000000 2.562140 0.000000 
#    z 0.079440 0.000000 3.441070 
# 
# From -- ./inp_files/35218.got.cif
#   From: 2010.05.17/outbox.cif.g08.bks.cpg/sg9_18_cif.got.tgz:35218.got - 2010.06.03 20:04:27.
