data_PCOD9134788
_publ_section_title
;
Structure prediction by ZEFSAII (Michael W. Deem and Ramdas Pophale) SiO2 
 PCOD9134788
Probable space group: C C
;
_chemical_formula_sum "Si O2"
_cell_formula_units_Z 32
_cell_length_a 28.870280
_cell_length_b 8.588891
_cell_length_c 9.696107
_cell_angle_alpha 90.000000
_cell_angle_beta 31.512619
_cell_angle_gamma 90.000000
_cell_volume 1256.685595
_symmetry_space_group_name_H-M "C C"
_symmetry_group_IT_number 9
_symmetry_cell_setting 'monoclinic'
loop_
_space_group_symop_operation_xyz
x,y,z
x,-y,1/2+z
1/2+x,1/2+y,z
1/2+x,1/2-y,1/2+z
loop_
_atom_site_type_symbol
_atom_site_label
_atom_site_fract_x
_atom_site_fract_y
_atom_site_fract_z
Si Si1 0.705160 0.466709 0.016750
Si Si2 0.346701 0.862106 0.356098
Si Si3 0.785498 0.130976 0.340265
Si Si4 0.898531 0.656594 0.348245
Si Si5 0.793682 0.810291 0.386207
Si Si6 0.093161 0.946462 0.558787
Si Si7 0.029248 0.697633 0.232861
Si Si8 0.637716 0.115592 0.505239
O O1 0.618429 0.456308 0.333989
O O2 0.775810 0.550747 0.936146
O O3 0.743051 0.295236 0.905256
O O4 0.679753 0.542424 0.938195
O O5 0.301795 0.693261 0.454327
O O6 0.366772 0.977379 0.430759
O O7 0.444330 0.842272 0.043405
O O8 0.686938 0.126957 0.529036
O O9 0.828508 0.962626 0.226280
O O10 0.841114 0.237223 0.095553
O O11 0.871642 0.721381 0.267670
O O12 0.996488 0.673821 0.157837
O O13 0.716551 0.859127 0.691512
O O14 0.050238 0.117485 0.698400
O O15 0.070879 0.763502 0.647145
O O16 0.097063 0.556944 0.092124
#
# Coordination Sequence:
#
# PCOD9134788 Si02
#       8
#     4   4   4   4   4   4   4   4
#     4  10  22  43  73  99 139 192 241 294 367 431
#     4  10  22  42  68  90 140 187 226 300 358 427
#     4  10  19  41  69  97 128 178 246 292 347 437
#     4   9  22  44  60  99 140 177 240 287 367 438
#     4   9  20  40  69  99 130 179 236 301 347 439
#     4  11  24  44  71 105 141 185 248 298 354 446
#     4  11  25  43  66 100 144 185 226 305 368 423
#     4  10  22  41  66 101 136 173 239 291 360 425
#
# _framework density 25.463809000000001
#
# number of rings (size 3 to 8) (size 9 to 14) (size 15 to 20)
#    0.000    2.000    1.250    1.500    5.250    4.000 
#   15.750    0.000    0.000    0.000    0.000    0.000 
#    0.000    0.000    0.000    0.000    0.000    0.000 
#
# Total GULP energy -89211.650230 kJ/mol
# GULP energy per Si atom -5575.728139 kJ/mol
# Density = 2.540585 g / cm^3
# Si number density = 25.463809 Si / 1000 Ang^3
#
#
#
# Elastic Constant Matrix: (Units=GPa)
#
#
# Indices 1 2 3 4 5 6 
#
# 1 68.5939 16.4375 10.9890 0.0000 -3.6281 0.0000
# 2 16.4375 131.9412 12.7567 0.0000 -7.3658 0.0000
# 3 10.9890 12.7567 72.3886 0.0000 -5.4838 0.0000
# 4 0.0000 0.0000 0.0000 24.6359 0.0000 -5.2307
# 5 -3.6281 -7.3658 -5.4838 0.0000 32.8486 0.0000
# 6 0.0000 0.0000 0.0000 -5.2307 0.0000 46.4198
#
#
#
# Elastic Compliance Matrix: (Units=1/GPa)
#
#
# Indices 1 2 3 4 5 6 
#
# 1 0.015345 -0.001667 -0.001960 0.000000 0.000994 0.000000
# 2 -0.001667 0.007967 -0.001043 0.000000 0.001428 0.000000
# 3 -0.001960 -0.001043 0.014444 0.000000 0.001961 0.000000
# 4 0.000000 0.000000 0.000000 0.041586 0.000000 0.004686
# 5 0.000994 0.001428 0.001961 0.000000 0.031200 0.000000
# 6 0.000000 0.000000 0.000000 0.004686 0.000000 0.022071
#
#
# Mechanical properties :
#
#
# Convention : Reuss Voigt Hill
#
# Bulk Modulus (GPa) = 35.19093 39.25446 37.22270
# Shear Modulus (GPa) = 33.01967 36.29689 34.65828
#
# Velocity S-wave (km/s) = 3.60492 3.77958 3.69328
# Velocity P-wave (km/s) = 5.58366 5.87335 5.73034
#
# Compressibility (1/GPa) = 0.02841641
#
# Stress axis : x y z
#
# Youngs Moduli (GPa) = 65.16963 125.51252 69.23169
#
# Poissons Ratio (x) = 0.20918 0.13572
# Poissons Ratio (y) = 0.10861 0.07220
# Poissons Ratio (z) = 0.12776 0.13089
#
# Static dielectric constant tensor:
#      x y z
#    x 2.046120 0.000000 0.043640 
#    y 0.000000 2.217760 0.000000 
#    z 0.043640 0.000000 2.065210 
# 
# From -- ./inp_files/21169.got.cif
#   From: 2010.05.17/outbox.cif.g08.bks.cpg/sg9_11_cif.got.tgz:21169.got - 2010.06.03 20:04:27.
