data_PCOD9134862
_publ_section_title
;
Structure prediction by ZEFSAII (Michael W. Deem and Ramdas Pophale) SiO2 
 PCOD9134862
Probable space group: C C
;
_chemical_formula_sum "Si O2"
_cell_formula_units_Z 32
_cell_length_a 8.710151
_cell_length_b 17.649102
_cell_length_c 19.491307
_cell_angle_alpha 90.000000
_cell_angle_beta 147.633016
_cell_angle_gamma 90.000000
_cell_volume 1604.054402
_symmetry_space_group_name_H-M "C C"
_symmetry_group_IT_number 9
_symmetry_cell_setting 'monoclinic'
loop_
_space_group_symop_operation_xyz
x,y,z
x,-y,1/2+z
1/2+x,1/2+y,z
1/2+x,1/2-y,1/2+z
loop_
_atom_site_type_symbol
_atom_site_label
_atom_site_fract_x
_atom_site_fract_y
_atom_site_fract_z
Si Si1 0.418580 0.188855 0.004350
Si Si2 0.102246 0.325060 0.724929
Si Si3 0.317595 0.936369 0.192899
Si Si4 0.736838 0.071480 0.392769
Si Si5 0.917496 0.663695 0.851631
Si Si6 0.423032 0.790536 0.154677
Si Si7 0.460195 0.201929 0.378381
Si Si8 0.511931 0.263648 0.543262
O O1 0.528264 0.154338 0.117850
O O2 0.611964 0.263376 0.062117
O O3 0.432695 0.143807 0.938200
O O4 0.104863 0.224014 0.897562
O O5 0.287542 0.381560 0.841342
O O6 0.256202 0.243813 0.783235
O O7 0.800483 0.313251 0.651026
O O8 0.258636 0.896236 0.243826
O O9 0.477926 0.870644 0.209744
O O10 0.525961 0.004972 0.289370
O O11 0.029367 0.954322 0.041055
O O12 0.573527 0.127481 0.384418
O O13 0.237540 0.680502 0.943456
O O14 0.624305 0.719678 0.251050
O O15 0.461428 0.790661 0.088367
O O16 0.543152 0.211612 0.488472
#
# Coordination Sequence:
#
# PCOD9134862 Si02
#       8
#     4   4   4   4   4   4   4   4
#     4  10  20  34  66  98 124 156 228 274 316 368
#     4  11  20  39  64  96 129 166 217 272 318 381
#     4  12  26  42  63  96 138 175 211 265 331 391
#     4  12  26  42  63  96 138 175 211 265 331 391
#     4  11  20  39  64  96 129 166 217 272 318 381
#     4  11  19  37  62  97 124 166 212 264 317 382
#     4  11  19  37  62  97 124 166 212 264 317 382
#     4  10  20  32  68  96 120 156 224 268 316 370
#
# _framework density 19.949448
#
# number of rings (size 3 to 8) (size 9 to 14) (size 15 to 20)
#    0.000    1.000    6.250    1.500    1.750    0.000 
#    0.000    1.250    0.000    9.000    0.000    0.000 
#    0.000    0.000    0.000    0.000    0.000    0.000 
#
# Total GULP energy -89240.043206 kJ/mol
# GULP energy per Si atom -5577.502700 kJ/mol
# Density = 1.990404 g / cm^3
# Si number density = 19.949448 Si / 1000 Ang^3
#
#
#
# Elastic Constant Matrix: (Units=GPa)
#
#
# Indices 1 2 3 4 5 6 
#
# 1 93.7300 21.4791 41.7352 0.0016 -27.6837 0.0009
# 2 21.4791 59.0941 37.4971 0.0005 -17.5766 0.0009
# 3 41.7352 37.4971 131.0235 0.0021 -15.0561 0.0019
# 4 0.0016 0.0005 0.0021 34.0644 0.0008 -3.7563
# 5 -27.6837 -17.5766 -15.0561 0.0008 49.2956 0.0006
# 6 0.0009 0.0009 0.0019 -3.7563 0.0006 23.3887
#
#
#
# Elastic Compliance Matrix: (Units=1/GPa)
#
#
# Indices 1 2 3 4 5 6 
#
# 1 0.014451 -0.001019 -0.003545 -0.000001 0.006669 0.000000
# 2 -0.001019 0.022462 -0.005440 0.000000 0.005775 -0.000001
# 3 -0.003545 -0.005440 0.010225 0.000000 -0.000807 -0.000001
# 4 -0.000001 0.000000 0.000000 0.029885 -0.000001 0.004800
# 5 0.006669 0.005775 -0.000807 -0.000001 0.025844 -0.000001
# 6 0.000000 -0.000001 -0.000001 0.004800 -0.000001 0.043526
#
#
# Mechanical properties :
#
#
# Convention : Reuss Voigt Hill
#
# Bulk Modulus (GPa) = 36.86003 53.91894 45.38948
# Shear Modulus (GPa) = 28.49878 33.55883 31.02881
#
# Velocity S-wave (km/s) = 3.78372 4.10590 3.94810
# Velocity P-wave (km/s) = 6.13233 7.04020 6.60189
#
# Compressibility (1/GPa) = 0.02712966
#
# Stress axis : x y z
#
# Youngs Moduli (GPa) = 69.20043 44.51906 97.79486
#
# Poissons Ratio (x) = 0.04539 0.34667
# Poissons Ratio (y) = 0.07055 0.53201
# Poissons Ratio (z) = 0.24531 0.24219
#
# Static dielectric constant tensor:
#      x y z
#    x 1.717770 0.000000 -0.043100 
#    y 0.000000 1.684130 0.000000 
#    z -0.043100 0.000000 1.824900 
# 
# From -- ./inp_files/21012.got.cif
#   From: 2010.05.17/outbox.cif.g08.bks.cpg/sg9_11_cif.got.tgz:21012.got - 2010.06.03 20:04:27.
