data_PCOD9134886
_publ_section_title
;
Structure prediction by ZEFSAII (Michael W. Deem and Ramdas Pophale) SiO2 
 PCOD9134886
Probable space group: C C
;
_chemical_formula_sum "Si O2"
_cell_formula_units_Z 28
_cell_length_a 8.511930
_cell_length_b 10.918737
_cell_length_c 13.688289
_cell_angle_alpha 90.000000
_cell_angle_beta 65.638234
_cell_angle_gamma 90.000000
_cell_volume 1158.906786
_symmetry_space_group_name_H-M "C C"
_symmetry_group_IT_number 9
_symmetry_cell_setting 'monoclinic'
loop_
_space_group_symop_operation_xyz
x,y,z
x,-y,1/2+z
1/2+x,1/2+y,z
1/2+x,1/2-y,1/2+z
loop_
_atom_site_type_symbol
_atom_site_label
_atom_site_fract_x
_atom_site_fract_y
_atom_site_fract_z
Si Si1 0.771870 0.963563 0.676620
Si Si2 0.643091 0.435355 0.587018
Si Si3 0.530670 0.798454 0.242421
Si Si4 0.727236 0.536465 0.763511
Si Si5 0.499543 0.832239 0.470069
Si Si6 0.968429 0.298483 0.697716
Si Si7 0.356014 0.435330 0.353113
O O1 0.656858 0.849245 0.675739
O O2 0.962971 0.967993 0.582636
O O3 0.657565 0.085437 0.691668
O O4 0.810722 0.963899 0.782935
O O5 0.593390 0.310414 0.657698
O O6 0.688392 0.536126 0.657193
O O7 0.826632 0.410723 0.490132
O O8 0.533786 0.767447 0.357504
O O9 0.342246 0.849214 0.264389
O O10 0.536136 0.532039 0.857495
O O11 0.841537 0.414589 0.748468
O O12 0.465295 0.767462 0.582640
O O13 0.672465 0.910713 0.449998
O O14 0.905709 0.189617 0.782440
#
# Coordination Sequence:
#
# PCOD9134886 Si02
#       7
#     4   4   4   4   4   4   4
#     4   9  19  36  58  76 103 147 177 218 275 312
#     4  10  20  38  56  79 112 141 178 223 267 317
#     4  10  20  38  56  79 112 141 178 223 267 317
#     4   9  19  36  58  76 103 147 177 218 275 312
#     4  10  20  34  56  82 108 142 182 220 260 320
#     4  10  20  38  56  79 112 141 178 223 267 317
#     4  10  20  38  56  79 112 141 178 223 267 317
#
# _framework density 24.160701
#
# number of rings (size 3 to 8) (size 9 to 14) (size 15 to 20)
#    0.000    2.286    0.000    4.286    0.000    1.143 
#    0.000   45.714    0.000    0.000    0.000    0.000 
#    0.000    0.000    0.000    0.000    0.000    0.000 
#
# Total GULP energy -78127.883623 kJ/mol
# GULP energy per Si atom -5580.563116 kJ/mol
# Density = 2.410571 g / cm^3
# Si number density = 24.160701 Si / 1000 Ang^3
#
#
#
# Elastic Constant Matrix: (Units=GPa)
#
#
# Indices 1 2 3 4 5 6 
#
# 1 193.4093 39.7995 39.6585 0.0000 -43.2843 0.0000
# 2 39.7995 79.1069 27.8730 0.0000 -4.6213 0.0000
# 3 39.6585 27.8730 104.0877 0.0000 -13.7875 0.0000
# 4 0.0000 0.0000 0.0000 9.1364 0.0000 0.3962
# 5 -43.2843 -4.6213 -13.7875 0.0000 42.6132 0.0000
# 6 0.0000 0.0000 0.0000 0.3962 0.0000 48.8366
#
#
#
# Elastic Compliance Matrix: (Units=1/GPa)
#
#
# Indices 1 2 3 4 5 6 
#
# 1 0.007596 -0.003003 -0.001161 0.000000 0.007015 0.000000
# 2 -0.003003 0.015149 -0.003238 0.000000 -0.002455 0.000000
# 3 -0.001161 -0.003238 0.011194 0.000000 0.002091 0.000000
# 4 0.000000 0.000000 0.000000 0.109491 0.000000 -0.000888
# 5 0.007015 -0.002455 0.002091 0.000000 0.031002 0.000000
# 6 0.000000 0.000000 0.000000 -0.000888 0.000000 0.020484
#
#
# Mechanical properties :
#
#
# Convention : Reuss Voigt Hill
#
# Bulk Modulus (GPa) = 52.25775 65.69622 58.97699
# Shear Modulus (GPa) = 23.13766 38.06875 30.60320
#
# Velocity S-wave (km/s) = 3.09796 3.97375 3.56287
# Velocity P-wave (km/s) = 5.87134 6.95015 6.43340
#
# Compressibility (1/GPa) = 0.01913592
#
# Stress axis : x y z
#
# Youngs Moduli (GPa) = 131.64482 66.00953 89.33619
#
# Poissons Ratio (x) = 0.19822 0.10372
# Poissons Ratio (y) = 0.39531 0.28925
# Poissons Ratio (z) = 0.15283 0.21373
#
# Static dielectric constant tensor:
#      x y z
#    x 2.015240 0.000000 -0.027580 
#    y 0.000000 1.943400 0.000000 
#    z -0.027580 0.000000 1.983370 
# 
# From -- ./inp_files/22663.got.cif
#   From: 2010.05.17/outbox.cif.g08.bks.cpg/sg9_12_cif.got.tgz:22663.got - 2010.06.03 20:04:27.
