data_PCOD9134928
_publ_section_title
;
Structure prediction by ZEFSAII (Michael W. Deem and Ramdas Pophale) SiO2 
 PCOD9134928
Probable space group: C C
;
_chemical_formula_sum "Si O2"
_cell_formula_units_Z 32
_cell_length_a 10.378427
_cell_length_b 16.603629
_cell_length_c 13.706398
_cell_angle_alpha 90.000000
_cell_angle_beta 35.303366
_cell_angle_gamma 90.000000
_cell_volume 1364.943813
_symmetry_space_group_name_H-M "C C"
_symmetry_group_IT_number 9
_symmetry_cell_setting 'monoclinic'
loop_
_space_group_symop_operation_xyz
x,y,z
x,-y,1/2+z
1/2+x,1/2+y,z
1/2+x,1/2-y,1/2+z
loop_
_atom_site_type_symbol
_atom_site_label
_atom_site_fract_x
_atom_site_fract_y
_atom_site_fract_z
Si Si1 0.396050 0.148649 0.184810
Si Si2 0.650758 0.379949 0.637386
Si Si3 0.610959 0.428472 0.155525
Si Si4 0.963777 0.822384 0.083093
Si Si5 0.322400 0.562000 0.008706
Si Si6 0.092578 0.541036 0.333358
Si Si7 0.007470 0.367553 0.280053
Si Si8 0.210787 0.592509 0.471329
O O1 0.316292 0.123525 0.126966
O O2 0.170361 0.154897 0.387100
O O3 0.503504 0.236542 0.107687
O O4 0.584180 0.092081 0.114119
O O5 0.607083 0.475042 0.645727
O O6 0.406315 0.347720 0.816352
O O7 0.777672 0.339416 0.469561
O O8 0.450102 0.388065 0.176688
O O9 0.522927 0.405365 0.317755
O O10 0.864441 0.406648 0.970636
O O11 0.726871 0.818055 0.175082
O O12 0.327711 0.467426 0.977687
O O13 0.296112 0.573841 0.140657
O O14 0.040906 0.455149 0.313791
O O15 0.137537 0.543710 0.420821
O O16 0.012233 0.374377 0.160432
#
# Coordination Sequence:
#
# PCOD9134928 Si02
#       8
#     4   4   4   4   4   4   4   4
#     4  12  23  39  63  95 127 164 207 267 323 377
#     4  10  20  37  58  88 124 160 201 256 316 372
#     4  10  20  37  58  88 124 160 201 256 316 372
#     4  12  23  39  63  95 127 164 207 267 323 377
#     4  10  20  36  56  87 122 156 203 258 305 366
#     4  10  20  35  57  86 121 160 205 249 305 371
#     4  10  20  36  56  87 122 156 203 258 305 366
#     4  10  20  35  57  86 121 160 205 249 305 371
#
# _framework density 23.444188
#
# number of rings (size 3 to 8) (size 9 to 14) (size 15 to 20)
#    0.000    1.500    2.500    5.250    0.000    1.000 
#    0.000    0.000    0.000    1.500    0.000    0.000 
#    0.000    0.000    0.000    0.000    0.000    0.000 
#
# Total GULP energy -89291.045339 kJ/mol
# GULP energy per Si atom -5580.690334 kJ/mol
# Density = 2.339083 g / cm^3
# Si number density = 23.444188 Si / 1000 Ang^3
#
#
#
# Elastic Constant Matrix: (Units=GPa)
#
#
# Indices 1 2 3 4 5 6 
#
# 1 59.3985 9.2228 37.6870 0.0056 25.6735 -0.0017
# 2 9.2228 44.0089 10.6247 0.0107 0.5840 -0.0062
# 3 37.6870 10.6247 213.3208 0.0089 34.2920 -0.0048
# 4 0.0056 0.0107 0.0089 24.7530 -0.0094 -1.1693
# 5 25.6735 0.5840 34.2920 -0.0094 44.2117 0.0037
# 6 -0.0017 -0.0062 -0.0048 -1.1693 0.0037 17.4046
#
#
#
# Elastic Compliance Matrix: (Units=1/GPa)
#
#
# Indices 1 2 3 4 5 6 
#
# 1 0.024180 -0.004405 -0.002062 -0.000007 -0.012384 0.000002
# 2 -0.004405 0.023819 -0.000878 -0.000008 0.002925 0.000007
# 3 -0.002062 -0.000878 0.005600 -0.000002 -0.003134 0.000002
# 4 -0.000007 -0.000008 -0.000002 0.040528 0.000015 0.002723
# 5 -0.012384 0.002925 -0.003134 0.000015 0.032202 -0.000007
# 6 0.000002 0.000007 0.000002 0.002723 -0.000007 0.057639
#
#
# Mechanical properties :
#
#
# Convention : Reuss Voigt Hill
#
# Bulk Modulus (GPa) = 25.70130 47.97746 36.83938
# Shear Modulus (GPa) = 23.62638 34.55346 29.08992
#
# Velocity S-wave (km/s) = 3.17799 3.84325 3.52634
# Velocity P-wave (km/s) = 4.94497 6.34059 5.68576
#
# Compressibility (1/GPa) = 0.03890854
#
# Stress axis : x y z
#
# Youngs Moduli (GPa) = 41.35602 41.98317 178.58346
#
# Poissons Ratio (x) = 0.18495 0.36819
# Poissons Ratio (y) = 0.18219 0.15683
# Poissons Ratio (z) = 0.08526 0.03687
#
# Static dielectric constant tensor:
#      x y z
#    x 1.896070 0.000000 0.000280 
#    y 0.000000 1.938420 0.000000 
#    z 0.000280 0.000000 2.026760 
# 
# From -- ./inp_files/25045.got.cif
#   From: 2010.05.17/outbox.cif.g08.bks.cpg/sg9_13_cif.got.tgz:25045.got - 2010.06.03 20:04:27.
