data_PCOD9134571
_publ_section_title
;
Structure prediction by ZEFSAII (Michael W. Deem and Ramdas Pophale) SiO2 
 PCOD9134571
Probable space group: C C
;
_chemical_formula_sum "Si O2"
_cell_formula_units_Z 32
_cell_length_a 10.447936
_cell_length_b 12.317219
_cell_length_c 13.066566
_cell_angle_alpha 90.000000
_cell_angle_beta 74.865214
_cell_angle_gamma 90.000000
_cell_volume 1623.204993
_symmetry_space_group_name_H-M "C C"
_symmetry_group_IT_number 9
_symmetry_cell_setting 'monoclinic'
loop_
_space_group_symop_operation_xyz
x,y,z
x,-y,1/2+z
1/2+x,1/2+y,z
1/2+x,1/2-y,1/2+z
loop_
_atom_site_type_symbol
_atom_site_label
_atom_site_fract_x
_atom_site_fract_y
_atom_site_fract_z
Si Si1 0.501190 0.678453 0.504280
Si Si2 0.083122 0.390811 0.919083
Si Si3 0.242799 0.531607 0.199277
Si Si4 0.883085 0.261459 0.834508
Si Si5 0.686456 0.815619 0.109217
Si Si6 0.525116 0.568066 0.694265
Si Si7 0.653347 0.626642 0.267204
Si Si8 0.667948 0.117758 0.995977
O O1 0.344205 0.676277 0.554296
O O2 0.567316 0.593963 0.569519
O O3 0.549665 0.652902 0.380031
O O4 0.552966 0.794706 0.528568
O O5 0.175988 0.394158 0.799149
O O6 0.948708 0.338631 0.905195
O O7 0.123267 0.324367 0.011042
O O8 0.102485 0.513267 0.956610
O O9 0.164940 0.417976 0.191017
O O10 0.388148 0.499625 0.209264
O O11 0.235001 0.587324 0.089782
O O12 0.987264 0.182480 0.755594
O O13 0.798206 0.340155 0.778946
O O14 0.779063 0.176028 0.904150
O O15 0.637416 0.708498 0.175860
O O16 0.627504 0.495300 0.735538
#
# Coordination Sequence:
#
# PCOD9134571 Si02
#       8
#     4   4   4   4   4   4   4   4
#     4  10  21  42  65  93 133 171 214 276 328 383
#     4  11  22  40  67  95 123 175 218 269 328 387
#     4  10  19  37  67  89 124 177 216 263 338 377
#     4  11  23  44  64  96 135 171 217 275 322 395
#     4  10  22  41  64  98 127 168 227 265 321 400
#     4  11  22  39  67  90 131 174 220 269 326 384
#     4  11  23  41  67  94 133 174 215 273 332 380
#     4  10  22  40  63  91 130 172 215 270 331 386
#
# _framework density 19.714084
#
# number of rings (size 3 to 8) (size 9 to 14) (size 15 to 20)
#    0.000    1.500    3.750    2.250    5.250    0.000 
#    6.750    0.000    2.750    0.000    0.000    0.000 
#    0.000    0.000    0.000    0.000    0.000    0.000 
#
# Total GULP energy -89228.618711 kJ/mol
# GULP energy per Si atom -5576.788669 kJ/mol
# Density = 1.966921 g / cm^3
# Si number density = 19.714084 Si / 1000 Ang^3
#
#
#
# Elastic Constant Matrix: (Units=GPa)
#
#
# Indices 1 2 3 4 5 6 
#
# 1 64.4658 58.3372 39.1384 0.0000 27.3617 0.0000
# 2 58.3372 84.1479 54.3763 0.0000 16.6888 0.0000
# 3 39.1384 54.3763 107.4841 0.0000 14.0502 0.0000
# 4 0.0000 0.0000 0.0000 22.6258 0.0000 10.3439
# 5 27.3617 16.6888 14.0502 0.0000 27.3848 0.0000
# 6 0.0000 0.0000 0.0000 10.3439 0.0000 31.2455
#
#
#
# Elastic Compliance Matrix: (Units=1/GPa)
#
#
# Indices 1 2 3 4 5 6 
#
# 1 0.073222 -0.041679 0.000714 0.000000 -0.048127 0.000000
# 2 -0.041679 0.042576 -0.009019 0.000000 0.020325 0.000000
# 3 0.000714 -0.009019 0.013915 0.000000 -0.002356 0.000000
# 4 0.000000 0.000000 0.000000 0.052080 0.000000 -0.017241
# 5 -0.048127 0.020325 -0.002356 0.000000 0.073425 0.000000
# 6 0.000000 0.000000 0.000000 -0.017241 0.000000 0.037712
#
#
# Mechanical properties :
#
#
# Convention : Reuss Voigt Hill
#
# Bulk Modulus (GPa) = 33.62058 62.20017 47.91038
# Shear Modulus (GPa) = 12.41269 23.20096 17.80682
#
# Velocity S-wave (km/s) = 2.51198 3.43428 3.00868
# Velocity P-wave (km/s) = 5.05020 6.88079 6.03530
#
# Compressibility (1/GPa) = 0.02974369
#
# Stress axis : x y z
#
# Youngs Moduli (GPa) = 13.65705 23.48728 71.86712
#
# Poissons Ratio (x) = 0.97894 -0.05132
# Poissons Ratio (y) = 0.56922 0.64820
# Poissons Ratio (z) = -0.00975 0.21184
#
# Static dielectric constant tensor:
#      x y z
#    x 1.692200 0.000000 -0.001790 
#    y 0.000000 1.706590 0.000000 
#    z -0.001790 0.000000 1.727220 
# 
# From -- ./inp_files/16145.got.cif
#   From: 2010.05.17/outbox.cif.g08.bks.cpg/sg9_9_cif.got.tgz:16145.got - 2010.06.03 20:04:27.
