data_PCOD9134882
_publ_section_title
;
Structure prediction by ZEFSAII (Michael W. Deem and Ramdas Pophale) SiO2 
 PCOD9134882
Probable space group: C C
;
_chemical_formula_sum "Si O2"
_cell_formula_units_Z 28
_cell_length_a 28.273835
_cell_length_b 8.631373
_cell_length_c 8.724300
_cell_angle_alpha 90.000000
_cell_angle_beta 39.629326
_cell_angle_gamma 90.000000
_cell_volume 1357.976200
_symmetry_space_group_name_H-M "C C"
_symmetry_group_IT_number 9
_symmetry_cell_setting 'monoclinic'
loop_
_space_group_symop_operation_xyz
x,y,z
x,-y,1/2+z
1/2+x,1/2+y,z
1/2+x,1/2-y,1/2+z
loop_
_atom_site_type_symbol
_atom_site_label
_atom_site_fract_x
_atom_site_fract_y
_atom_site_fract_z
Si Si1 0.196050 0.727822 0.973670
Si Si2 0.907550 0.857687 0.698863
Si Si3 0.609915 0.543654 0.182592
Si Si4 0.749229 0.974768 0.630200
Si Si5 0.005328 0.047838 0.692592
Si Si6 0.268313 0.182240 0.768832
Si Si7 0.819317 0.593526 0.983387
O O1 0.193109 0.602640 0.841749
O O2 0.267511 0.828637 0.742650
O O3 0.132183 0.859853 0.148241
O O4 0.214657 0.630292 0.080707
O O5 0.949566 0.850627 0.432248
O O6 0.956917 0.952977 0.693587
O O7 0.895197 0.686214 0.793932
O O8 0.826931 0.941488 0.890788
O O9 0.574047 0.615430 0.424645
O O10 0.548065 0.558150 0.207779
O O11 0.684387 0.627919 0.949295
O O12 0.770603 0.859846 0.716150
O O13 0.319803 0.085402 0.524101
O O14 0.286365 0.131290 0.897313
#
# Coordination Sequence:
#
# PCOD9134882 Si02
#       7
#     4   4   4   4   4   4   4
#     4  10  20  34  54  84 117 142 186 245 288 337
#     4  10  20  36  55  84 109 145 193 229 285 340
#     4  10  20  36  55  84 109 145 193 229 285 340
#     4  11  20  34  59  86 114 146 184 244 301 339
#     4  10  20  34  58  74 110 154 186 226 264 356
#     4  11  20  34  59  86 114 146 184 244 301 339
#     4  10  20  34  54  84 117 142 186 245 288 337
#
# _framework density 20.618918000000001
#
# number of rings (size 3 to 8) (size 9 to 14) (size 15 to 20)
#    0.000    1.714    0.000    8.571    0.000    0.000 
#    0.000    0.000    0.000   30.857    0.000    0.000 
#    0.000    0.000    0.000    0.000    0.000    0.000 
#
# Total GULP energy -78038.487858 kJ/mol
# GULP energy per Si atom -5574.177704 kJ/mol
# Density = 2.057199 g / cm^3
# Si number density = 20.618918 Si / 1000 Ang^3
#
#
#
# Elastic Constant Matrix: (Units=GPa)
#
#
# Indices 1 2 3 4 5 6 
#
# 1 78.8685 8.2617 12.1359 0.0000 10.8784 0.0000
# 2 8.2617 83.8207 31.5226 0.0000 1.2641 0.0000
# 3 12.1359 31.5226 104.2566 0.0000 9.9228 0.0000
# 4 0.0000 0.0000 0.0000 12.9078 0.0000 15.4744
# 5 10.8784 1.2641 9.9228 0.0000 26.7020 0.0000
# 6 0.0000 0.0000 0.0000 15.4744 0.0000 21.8529
#
#
#
# Elastic Compliance Matrix: (Units=1/GPa)
#
#
# Indices 1 2 3 4 5 6 
#
# 1 0.013621 -0.000964 -0.000799 0.000000 -0.005207 0.000000
# 2 -0.000964 0.013550 -0.004106 0.000000 0.001277 0.000000
# 3 -0.000799 -0.004106 0.011276 0.000000 -0.003670 0.000000
# 4 0.000000 0.000000 0.000000 0.512788 0.000000 -0.363113
# 5 -0.005207 0.001277 -0.003670 0.000000 0.040875 0.000000
# 6 0.000000 0.000000 0.000000 -0.363113 0.000000 0.302887
#
#
# Mechanical properties :
#
#
# Convention : Reuss Voigt Hill
#
# Bulk Modulus (GPa) = 37.43942 41.19846 39.31894
# Shear Modulus (GPa) = 5.46067 26.62757 16.04412
#
# Velocity S-wave (km/s) = 1.62915 3.59752 2.79252
# Velocity P-wave (km/s) = 4.66219 6.10578 5.43215
#
# Compressibility (1/GPa) = 0.02670981
#
# Stress axis : x y z
#
# Youngs Moduli (GPa) = 73.41406 73.79941 88.68708
#
# Poissons Ratio (x) = 0.07112 0.07083
# Poissons Ratio (y) = 0.07075 0.36418
# Poissons Ratio (z) = 0.05863 0.30305
#
# Static dielectric constant tensor:
#      x y z
#    x 1.772630 0.000000 0.052130 
#    y 0.000000 1.780170 0.000000 
#    z 0.052130 0.000000 1.805050 
# 
# From -- ./inp_files/11374.got.cif
#   From: 2010.05.17/outbox.cif.g08.bks.cpg/sg9_6_cif.got.tgz:11374.got - 2010.06.03 20:04:27.
