data_PCOD9134028
_publ_section_title
;
Structure prediction by ZEFSAII (Michael W. Deem and Ramdas Pophale) SiO2 
 PCOD9134028
Probable space group: C C
;
_chemical_formula_sum "Si O2"
_cell_formula_units_Z 32
_cell_length_a 13.467077
_cell_length_b 10.747495
_cell_length_c 21.490059
_cell_angle_alpha 90.000000
_cell_angle_beta 26.893958
_cell_angle_gamma 90.000000
_cell_volume 1406.966751
_symmetry_space_group_name_H-M "C C"
_symmetry_group_IT_number 9
_symmetry_cell_setting 'monoclinic'
loop_
_space_group_symop_operation_xyz
x,y,z
x,-y,1/2+z
1/2+x,1/2+y,z
1/2+x,1/2-y,1/2+z
loop_
_atom_site_type_symbol
_atom_site_label
_atom_site_fract_x
_atom_site_fract_y
_atom_site_fract_z
Si Si1 0.737960 0.538397 0.065990
Si Si2 0.478978 0.410324 0.823632
Si Si3 0.905458 0.973300 0.097323
Si Si4 0.056253 0.328470 0.836344
Si Si5 0.172811 0.467974 0.097810
Si Si6 0.878376 0.777373 0.757838
Si Si7 0.841507 0.659604 0.335834
Si Si8 0.147077 0.716281 0.827334
O O1 0.646576 0.515537 0.186302
O O2 0.526679 0.603677 0.151686
O O3 0.869660 0.422932 0.965757
O O4 0.916455 0.647718 0.965490
O O5 0.356774 0.316861 0.842696
O O6 0.609277 0.331094 0.802125
O O7 0.305965 0.485839 0.960245
O O8 0.828674 0.940474 0.069831
O O9 0.808815 0.874804 0.200311
O O10 0.766117 0.097475 0.189964
O O11 0.166142 0.949641 0.951873
O O12 0.936278 0.271899 0.843503
O O13 0.161286 0.262423 0.837668
O O14 0.016980 0.348189 0.176991
O O15 0.034259 0.587932 0.192775
O O16 0.734207 0.749950 0.346163
#
# Coordination Sequence:
#
# PCOD9134028 Si02
#       8
#     4   4   4   4   4   4   4   4
#     4   9  20  36  66  87 114 163 211 250 286 364
#     4  10  18  34  61  88 114 149 210 252 289 340
#     4  10  20  39  65  85 116 163 211 244 288 375
#     4  10  22  37  59  93 121 162 199 245 317 354
#     4  11  21  38  63  95 115 164 206 249 300 360
#     4  10  20  37  60  88 123 159 201 252 292 364
#     4  11  23  37  63  91 125 154 202 255 304 367
#     4  11  18  38  65  91 110 154 216 255 294 348
#
# _framework density 22.743962
#
# number of rings (size 3 to 8) (size 9 to 14) (size 15 to 20)
#    0.750    1.000    3.750    1.500    0.000    2.000 
#    0.000    3.750    5.500    0.000    0.000    0.000 
#    0.000    0.000    0.000    0.000    0.000    0.000 
#
# Total GULP energy -89288.938198 kJ/mol
# GULP energy per Si atom -5580.558637 kJ/mol
# Density = 2.269220 g / cm^3
# Si number density = 22.743962 Si / 1000 Ang^3
#
#
#
# Elastic Constant Matrix: (Units=GPa)
#
#
# Indices 1 2 3 4 5 6 
#
# 1 165.1399 7.3645 32.0505 -0.0023 -6.0431 0.0027
# 2 7.3645 19.1521 -0.0481 0.0001 2.7350 -0.0014
# 3 32.0505 -0.0481 88.5896 0.0149 16.7154 -0.0113
# 4 -0.0023 0.0001 0.0149 -4.9168 -0.0061 9.7601
# 5 -6.0431 2.7350 16.7154 -0.0061 29.3570 -0.0004
# 6 0.0027 -0.0014 -0.0113 9.7601 -0.0004 6.5046
#
#
#
# Elastic Compliance Matrix: (Units=1/GPa)
#
#
# Indices 1 2 3 4 5 6 
#
# 1 0.006944 -0.003183 -0.003182 -0.000009 0.003538 0.000004
# 2 -0.003183 0.054469 0.002535 0.000013 -0.007173 -0.000003
# 3 -0.003182 0.002535 0.014126 0.000027 -0.008934 -0.000014
# 4 -0.000009 0.000013 0.000027 -0.051120 -0.000028 0.076705
# 5 0.003538 -0.007173 -0.008934 -0.000028 0.040547 0.000026
# 6 0.000004 -0.000003 -0.000014 0.076705 0.000026 0.038642
#
#
# Mechanical properties :
#
#
# Convention : Reuss Voigt Hill
#
# Bulk Modulus (GPa) = 14.73224 39.06838 26.90031
# Shear Modulus (GPa) = 37.34275 21.75659 29.54967
#
# Velocity S-wave (km/s) = 4.05640 3.09623 3.60840
# Velocity P-wave (km/s) = 5.33204 5.47695 5.40498
#
# Compressibility (1/GPa) = 0.06787836
#
# Stress axis : x y z
#
# Youngs Moduli (GPa) = 144.00123 18.35923 70.79044
#
# Poissons Ratio (x) = 0.05845 0.22523
# Poissons Ratio (y) = 0.45842 -0.17943
# Poissons Ratio (z) = 0.45815 -0.04654
#
# Static dielectric constant tensor:
#      x y z
#    x 1.880730 0.000000 -0.012060 
#    y 0.000000 1.877100 0.000000 
#    z -0.012060 0.000000 1.858140 
# 
# From -- ./inp_files/33391.got.cif
#   From: 2010.05.17/outbox.cif.g08.bks.cpg/sg9_17_cif.got.tgz:33391.got - 2010.06.03 20:04:27.
