data_PCOD9134329
_publ_section_title
;
Structure prediction by ZEFSAII (Michael W. Deem and Ramdas Pophale) SiO2 
 PCOD9134329
Probable space group: C C
;
_chemical_formula_sum "Si O2"
_cell_formula_units_Z 24
_cell_length_a 15.124193
_cell_length_b 14.646799
_cell_length_c 8.292535
_cell_angle_alpha 90.000000
_cell_angle_beta 150.135050
_cell_angle_gamma 90.000000
_cell_volume 914.733065
_symmetry_space_group_name_H-M "C C"
_symmetry_group_IT_number 9
_symmetry_cell_setting 'monoclinic'
loop_
_space_group_symop_operation_xyz
x,y,z
x,-y,1/2+z
1/2+x,1/2+y,z
1/2+x,1/2-y,1/2+z
loop_
_atom_site_type_symbol
_atom_site_label
_atom_site_fract_x
_atom_site_fract_y
_atom_site_fract_z
Si Si1 0.569790 0.693964 0.397860
Si Si2 0.469778 0.194081 0.047990
Si Si3 0.520451 0.470268 0.018857
Si Si4 0.009278 0.862603 0.317403
Si Si5 0.455933 0.967652 0.731825
Si Si6 0.935191 0.636884 0.518980
O O1 0.568601 0.750925 0.564967
O O2 0.771940 0.677940 0.669487
O O3 0.480702 0.598994 0.307901
O O4 0.491340 0.760001 0.139475
O O5 0.457857 0.260428 0.186672
O O6 0.531161 0.096827 0.209263
O O7 0.457520 0.572728 0.884751
O O8 0.453151 0.422437 0.073001
O O9 0.737896 0.467293 0.374887
O O10 0.223036 0.861552 0.667767
O O11 0.503400 0.917093 0.970927
O O12 0.500611 0.072473 0.769587
#
# Coordination Sequence:
#
# PCOD9134329 Si02
#       6
#     4   4   4   4   4   4
#     4  10  21  37  56  80 114 147 180 227 277 323
#     4  10  21  39  56  80 114 147 180 227 277 325
#     4   8  17  33  53  77 106 142 179 217 266 326
#     4   9  18  34  55  77 104 141 184 221 262 320
#     4   9  18  33  55  79 109 146 184 220 271 333
#     4  10  19  34  57  83 107 145 189 226 267 327
#
# _framework density 26.237162999999999
#
# number of rings (size 3 to 8) (size 9 to 14) (size 15 to 20)
#    0.000    2.667    0.000    2.000    0.000    6.667 
#    0.000    8.333    0.000    0.000    0.000    0.000 
#    0.000    0.000    0.000    0.000    0.000    0.000 
#
# Total GULP energy -67097.631207 kJ/mol
# GULP energy per Si atom -5591.469267 kJ/mol
# Density = 2.617745 g / cm^3
# Si number density = 26.237163 Si / 1000 Ang^3
#
#
#
# Elastic Constant Matrix: (Units=GPa)
#
#
# Indices 1 2 3 4 5 6 
#
# 1 47.7151 1.3653 23.6806 0.0000 -11.4324 0.0000
# 2 1.3653 162.6012 27.7158 0.0000 -18.7635 0.0000
# 3 23.6806 27.7158 65.8589 0.0000 -12.5019 0.0000
# 4 0.0000 0.0000 0.0000 38.5487 0.0000 -19.6067
# 5 -11.4324 -18.7635 -12.5019 0.0000 33.7327 0.0000
# 6 0.0000 0.0000 0.0000 -19.6067 0.0000 37.0258
#
#
#
# Elastic Compliance Matrix: (Units=1/GPa)
#
#
# Indices 1 2 3 4 5 6 
#
# 1 0.027218 0.002173 -0.009381 0.000000 0.006957 0.000000
# 2 0.002173 0.007064 -0.003086 0.000000 0.003522 0.000000
# 3 -0.009381 -0.003086 0.020358 0.000000 0.002650 0.000000
# 4 0.000000 0.000000 0.000000 0.035504 0.000000 0.018801
# 5 0.006957 0.003522 0.002650 0.000000 0.034944 0.000000
# 6 0.000000 0.000000 0.000000 0.018801 0.000000 0.036964
#
#
# Mechanical properties :
#
#
# Convention : Reuss Voigt Hill
#
# Bulk Modulus (GPa) = 29.36482 42.41096 35.88789
# Shear Modulus (GPa) = 25.77462 36.75567 31.26514
#
# Velocity S-wave (km/s) = 3.13768 3.74692 3.45575
# Velocity P-wave (km/s) = 4.93387 5.90921 5.44343
#
# Compressibility (1/GPa) = 0.03405436
#
# Stress axis : x y z
#
# Youngs Moduli (GPa) = 36.74067 141.55918 49.11977
#
# Poissons Ratio (x) = -0.30763 0.46077
# Poissons Ratio (y) = -0.07984 0.15156
# Poissons Ratio (z) = 0.34465 0.43680
#
# Static dielectric constant tensor:
#      x y z
#    x 2.091670 0.000000 -0.070950 
#    y 0.000000 2.008660 0.000000 
#    z -0.070950 0.000000 2.043910 
# 
# From -- ./inp_files/4895.got.cif
#   From: 2010.05.17/outbox.cif.g08.bks.cpg/sg9_3_cif.got.tgz:4895.got - 2010.06.03 20:04:27.
