data_PCOD9134844
_publ_section_title
;
Structure prediction by ZEFSAII (Michael W. Deem and Ramdas Pophale) SiO2 
 PCOD9134844
Probable space group: C C
;
_chemical_formula_sum "Si O2"
_cell_formula_units_Z 32
_cell_length_a 11.818242
_cell_length_b 20.822993
_cell_length_c 5.421398
_cell_angle_alpha 90.000000
_cell_angle_beta 116.640227
_cell_angle_gamma 90.000000
_cell_volume 1192.523477
_symmetry_space_group_name_H-M "C C"
_symmetry_group_IT_number 9
_symmetry_cell_setting 'monoclinic'
loop_
_space_group_symop_operation_xyz
x,y,z
x,-y,1/2+z
1/2+x,1/2+y,z
1/2+x,1/2-y,1/2+z
loop_
_atom_site_type_symbol
_atom_site_label
_atom_site_fract_x
_atom_site_fract_y
_atom_site_fract_z
Si Si1 0.386310 0.390940 0.609060
Si Si2 0.608797 0.755864 0.760385
Si Si3 0.939878 0.132176 0.659170
Si Si4 0.357101 0.123458 0.376844
Si Si5 0.666813 0.525793 0.180161
Si Si6 0.265016 0.748629 0.924456
Si Si7 0.420322 0.061900 0.931689
Si Si8 0.168776 0.601272 0.209175
O O1 0.462839 0.403403 0.438194
O O2 0.341385 0.316611 0.548094
O O3 0.250903 0.421153 0.550096
O O4 0.474772 0.398048 0.932288
O O5 0.495074 0.704371 0.691080
O O6 0.695374 0.731453 0.612628
O O7 0.593690 0.829756 0.648560
O O8 0.674897 0.757999 0.095709
O O9 0.786802 0.121154 0.498448
O O10 0.363951 0.197639 0.441663
O O11 0.375606 0.108546 0.108217
O O12 0.214365 0.097906 0.276998
O O13 0.437004 0.090550 0.672901
O O14 0.610637 0.491891 0.362283
O O15 0.809340 0.490112 0.297516
O O16 0.563361 0.048549 0.161340
#
# Coordination Sequence:
#
# PCOD9134844 Si02
#       8
#     4   4   4   4   4   4   4   4
#     4   9  19  33  44  64 100 129 174 215 240 286
#     4  11  22  33  50  68 101 141 176 218 247 295
#     4  10  20  35  47  64 102 134 172 220 247 280
#     4  10  21  31  53  74 106 133 168 212 257 322
#     4   8  16  33  46  73 104 127 154 204 263 316
#     4  11  20  35  46  74  97 134 184 209 252 306
#     4  10  20  31  53  76 104 137 164 206 267 319
#     4   9  22  31  49  73  98 135 180 208 251 306
#
# _framework density 26.833852
#
# number of rings (size 3 to 8) (size 9 to 14) (size 15 to 20)
#    0.750    1.500    1.250    1.500    5.250    0.000 
#    0.000    0.000    0.000    0.000    0.000    0.000 
#    0.000   54.000    0.000    0.000    0.000    0.000 
#
# Total GULP energy -89107.840646 kJ/mol
# GULP energy per Si atom -5569.240040 kJ/mol
# Density = 2.677278 g / cm^3
# Si number density = 26.833852 Si / 1000 Ang^3
#
#
#
# Elastic Constant Matrix: (Units=GPa)
#
#
# Indices 1 2 3 4 5 6 
#
# 1 81.4717 15.2250 32.3950 0.0000 -11.0371 0.0000
# 2 15.2250 28.3737 21.0879 0.0000 2.8522 0.0000
# 3 32.3950 21.0879 173.9998 0.0000 -30.9384 0.0000
# 4 0.0000 0.0000 0.0000 26.9576 0.0000 -2.7486
# 5 -11.0371 2.8522 -30.9384 0.0000 44.6669 0.0000
# 6 0.0000 0.0000 0.0000 -2.7486 0.0000 39.7102
#
#
#
# Elastic Compliance Matrix: (Units=1/GPa)
#
#
# Indices 1 2 3 4 5 6 
#
# 1 0.014553 -0.007180 -0.001275 0.000000 0.003171 0.000000
# 2 -0.007180 0.044019 -0.005490 0.000000 -0.008387 0.000000
# 3 -0.001275 -0.005490 0.007591 0.000000 0.005293 0.000000
# 4 0.000000 0.000000 0.000000 0.037359 0.000000 0.002586
# 5 0.003171 -0.008387 0.005293 0.000000 0.027373 0.000000
# 6 0.000000 0.000000 0.000000 0.002586 0.000000 0.025361
#
#
# Mechanical properties :
#
#
# Convention : Reuss Voigt Hill
#
# Bulk Modulus (GPa) = 26.12745 46.80678 36.46711
# Shear Modulus (GPa) = 25.39310 36.60944 31.00127
#
# Velocity S-wave (km/s) = 3.07955 3.69765 3.40266
# Velocity P-wave (km/s) = 4.73315 5.97589 5.39045
#
# Compressibility (1/GPa) = 0.03827393
#
# Stress axis : x y z
#
# Youngs Moduli (GPa) = 68.71631 22.71727 131.73342
#
# Poissons Ratio (x) = 0.16310 0.16802
# Poissons Ratio (y) = 0.49335 0.72316
# Poissons Ratio (z) = 0.08764 0.12471
#
# Static dielectric constant tensor:
#      x y z
#    x 2.251310 0.000000 0.002170 
#    y 0.000000 2.145050 0.000000 
#    z 0.002170 0.000000 2.246230 
# 
# From -- ./inp_files/2800.got.cif
#   From: 2010.05.17/outbox.cif.g08.bks.cpg/sg9_2_cif.got.tgz:2800.got - 2010.06.03 20:04:27.
