data_PCOD9134787
_publ_section_title
;
Structure prediction by ZEFSAII (Michael W. Deem and Ramdas Pophale) SiO2 
 PCOD9134787
Probable space group: C C
;
_chemical_formula_sum "Si O2"
_cell_formula_units_Z 32
_cell_length_a 25.949464
_cell_length_b 8.683877
_cell_length_c 14.084187
_cell_angle_alpha 90.000000
_cell_angle_beta 156.585298
_cell_angle_gamma 90.000000
_cell_volume 1261.198740
_symmetry_space_group_name_H-M "C C"
_symmetry_group_IT_number 9
_symmetry_cell_setting 'monoclinic'
loop_
_space_group_symop_operation_xyz
x,y,z
x,-y,1/2+z
1/2+x,1/2+y,z
1/2+x,1/2-y,1/2+z
loop_
_atom_site_type_symbol
_atom_site_label
_atom_site_fract_x
_atom_site_fract_y
_atom_site_fract_z
Si Si1 0.413540 0.458042 0.391110
Si Si2 0.549803 0.801771 0.435400
Si Si3 0.633667 0.009024 0.894753
Si Si4 0.112203 0.276266 0.200324
Si Si5 0.822986 0.782036 0.425254
Si Si6 0.617576 0.350012 0.351321
Si Si7 0.324889 0.926465 0.175230
Si Si8 0.219278 0.962844 0.190179
O O1 0.502735 0.342256 0.482428
O O2 0.357041 0.358302 0.383693
O O3 0.508496 0.583529 0.597607
O O4 0.286620 0.523434 0.127589
O O5 0.465000 0.891553 0.369512
O O6 0.656288 0.674159 0.644110
O O7 0.607490 0.911350 0.451170
O O8 0.442135 0.701832 0.197142
O O9 0.603553 0.829674 0.842740
O O10 0.559721 0.103125 0.688034
O O11 0.192889 0.348856 0.251668
O O12 0.216007 0.173974 0.435867
O O13 0.795762 0.597900 0.372012
O O14 0.762294 0.401904 0.560296
O O15 0.617311 0.441716 0.451374
O O16 0.308935 0.888723 0.259575
#
# Coordination Sequence:
#
# PCOD9134787 Si02
#       8
#     4   4   4   4   4   4   4   4
#     4  11  21  45  63  91 138 177 222 280 331 413
#     4  11  21  40  70  97 140 174 231 288 335 411
#     4  12  22  41  67  97 134 182 222 288 344 398
#     4  10  22  41  65  98 132 174 229 277 340 407
#     4  11  21  41  72  95 132 184 226 277 352 404
#     4   9  20  40  64  94 136 173 227 279 338 405
#     4   8  18  41  64  90 136 174 218 281 332 398
#     4  10  19  41  69  96 130 186 221 278 348 398
#
# _framework density 25.372686999999999
#
# number of rings (size 3 to 8) (size 9 to 14) (size 15 to 20)
#    0.750    1.000    5.000    0.000    0.000    3.000 
#    6.750    0.000    5.500    0.000    0.000    0.000 
#    0.000    0.000    0.000    0.000    0.000    0.000 
#
# Total GULP energy -89506.625083 kJ/mol
# GULP energy per Si atom -5594.164068 kJ/mol
# Density = 2.531494 g / cm^3
# Si number density = 25.372687 Si / 1000 Ang^3
#
#
#
# Elastic Constant Matrix: (Units=GPa)
#
#
# Indices 1 2 3 4 5 6 
#
# 1 90.1344 37.2558 11.2653 0.0000 25.7060 0.0000
# 2 37.2558 134.7644 30.0066 0.0000 25.9215 0.0000
# 3 11.2653 30.0066 87.3788 0.0000 17.7380 0.0000
# 4 0.0000 0.0000 0.0000 47.0674 0.0000 -0.2869
# 5 25.7060 25.9215 17.7380 0.0000 33.8158 0.0000
# 6 0.0000 0.0000 0.0000 -0.2869 0.0000 32.3013
#
#
#
# Elastic Compliance Matrix: (Units=1/GPa)
#
#
# Indices 1 2 3 4 5 6 
#
# 1 0.014789 -0.002391 0.000923 0.000000 -0.009894 0.000000
# 2 -0.002391 0.009360 -0.002035 0.000000 -0.004290 0.000000
# 3 0.000923 -0.002035 0.013262 0.000000 -0.006098 0.000000
# 4 0.000000 0.000000 0.000000 0.021247 0.000000 0.000189
# 5 -0.009894 -0.004290 -0.006098 0.000000 0.043580 0.000000
# 6 0.000000 0.000000 0.000000 0.000189 0.000000 0.030960
#
#
# Mechanical properties :
#
#
# Convention : Reuss Voigt Hill
#
# Bulk Modulus (GPa) = 32.88998 52.14812 42.51905
# Shear Modulus (GPa) = 33.25809 38.22025 35.73917
#
# Velocity S-wave (km/s) = 3.62440 3.88539 3.75716
# Velocity P-wave (km/s) = 5.52322 6.38168 5.96790
#
# Compressibility (1/GPa) = 0.03040440
#
# Stress axis : x y z
#
# Youngs Moduli (GPa) = 67.61744 106.84280 75.40188
#
# Poissons Ratio (x) = 0.25545 -0.06958
# Poissons Ratio (y) = 0.16167 0.15345
# Poissons Ratio (z) = -0.06240 0.21744
#
# Static dielectric constant tensor:
#      x y z
#    x 1.995320 0.000000 0.038340 
#    y 0.000000 1.999600 0.000000 
#    z 0.038340 0.000000 2.027100 
# 
# From -- ./inp_files/31872.got.cif
#   From: 2010.05.17/outbox.cif.g08.bks.cpg/sg9_16_cif.got.tgz:31872.got - 2010.06.03 20:04:27.
