data_PCOD9134446
_publ_section_title
;
Structure prediction by ZEFSAII (Michael W. Deem and Ramdas Pophale) SiO2 
 PCOD9134446
Probable space group: C C
;
_chemical_formula_sum "Si O2"
_cell_formula_units_Z 32
_cell_length_a 21.598152
_cell_length_b 16.397499
_cell_length_c 8.988908
_cell_angle_alpha 90.000000
_cell_angle_beta 148.018213
_cell_angle_gamma 90.000000
_cell_volume 1686.125288
_symmetry_space_group_name_H-M "C C"
_symmetry_group_IT_number 9
_symmetry_cell_setting 'monoclinic'
loop_
_space_group_symop_operation_xyz
x,y,z
x,-y,1/2+z
1/2+x,1/2+y,z
1/2+x,1/2-y,1/2+z
loop_
_atom_site_type_symbol
_atom_site_label
_atom_site_fract_x
_atom_site_fract_y
_atom_site_fract_z
Si Si1 0.065210 0.940617 0.763880
Si Si2 0.410650 0.303669 0.341219
Si Si3 0.443189 0.828873 0.159629
Si Si4 0.634996 0.788226 0.785432
Si Si5 0.623491 0.597991 0.719405
Si Si6 0.484238 0.822149 0.749549
Si Si7 0.312348 0.874277 0.157137
Si Si8 0.396687 0.945178 0.801417
O O1 0.958754 0.893267 0.471116
O O2 0.072873 0.035395 0.737282
O O3 0.071957 0.925612 0.953675
O O4 0.182267 0.899658 0.932934
O O5 0.441126 0.248683 0.547676
O O6 0.472788 0.256380 0.331945
O O7 0.271657 0.300587 0.037325
O O8 0.555697 0.827615 0.494764
O O9 0.331050 0.828421 0.040221
O O10 0.434268 0.907085 0.035067
O O11 0.605169 0.692015 0.719257
O O12 0.593393 0.820447 0.861126
O O13 0.763607 0.584195 0.999346
O O14 0.371659 0.824837 0.411128
O O15 0.474484 0.902142 0.833897
O O16 0.387093 0.957939 0.289948
#
# Coordination Sequence:
#
# PCOD9134446 Si02
#       8
#     4   4   4   4   4   4   4   4
#     4  11  24  37  63  92 123 158 199 269 319 367
#     4  11  23  39  61  88 132 157 207 253 314 376
#     4  10  21  35  60  87 119 163 197 253 311 366
#     4  11  22  40  61  87 129 162 208 254 306 383
#     4  11  22  38  61  93 123 153 204 259 315 368
#     4  10  21  36  59  91 118 162 199 251 314 369
#     4  10  20  35  63  93 119 147 202 264 316 362
#     4  10  19  36  60  93 119 144 200 269 307 357
#
# _framework density 18.978422999999999
#
# number of rings (size 3 to 8) (size 9 to 14) (size 15 to 20)
#    0.000    1.500    5.000    0.750    8.750    0.000 
#    0.000    0.000   11.000    0.000    0.000    0.000 
#    0.000    0.000    0.000    0.000    0.000    0.000 
#
# Total GULP energy -89351.179870 kJ/mol
# GULP energy per Si atom -5584.448742 kJ/mol
# Density = 1.893523 g / cm^3
# Si number density = 18.978423 Si / 1000 Ang^3
#
#
#
# Elastic Constant Matrix: (Units=GPa)
#
#
# Indices 1 2 3 4 5 6 
#
# 1 41.1975 -3.8418 14.5434 0.0000 -21.5552 0.0000
# 2 -3.8418 66.2086 14.9624 0.0000 -6.7296 0.0000
# 3 14.5434 14.9624 60.9290 0.0000 -8.4053 0.0000
# 4 0.0000 0.0000 0.0000 24.5378 0.0000 5.5250
# 5 -21.5552 -6.7296 -8.4053 0.0000 28.1532 0.0000
# 6 0.0000 0.0000 0.0000 5.5250 0.0000 20.8551
#
#
#
# Elastic Compliance Matrix: (Units=1/GPa)
#
#
# Indices 1 2 3 4 5 6 
#
# 1 0.046121 0.008063 -0.008189 0.000000 0.034795 0.000000
# 2 0.008063 0.017610 -0.005024 0.000000 0.008883 0.000000
# 3 -0.008189 -0.005024 0.019368 0.000000 -0.001688 0.000000
# 4 0.000000 0.000000 0.000000 0.043339 0.000000 -0.011481
# 5 0.034795 0.008883 -0.001688 0.000000 0.063780 0.000000
# 6 0.000000 0.000000 0.000000 -0.011481 0.000000 0.050992
#
#
# Mechanical properties :
#
#
# Convention : Reuss Voigt Hill
#
# Bulk Modulus (GPa) = 13.73610 24.40699 19.07155
# Shear Modulus (GPa) = 18.13076 24.22064 21.17570
#
# Velocity S-wave (km/s) = 3.09420 3.57630 3.34395
# Velocity P-wave (km/s) = 4.47425 5.47188 4.99802
#
# Compressibility (1/GPa) = 0.07280086
#
# Stress axis : x y z
#
# Youngs Moduli (GPa) = 21.68192 56.78629 51.63155
#
# Poissons Ratio (x) = -0.45790 0.42281
# Poissons Ratio (y) = -0.17483 0.25938
# Poissons Ratio (z) = 0.17755 0.28528
#
# Static dielectric constant tensor:
#      x y z
#    x 1.677440 0.000000 -0.016330 
#    y 0.000000 1.659770 0.000000 
#    z -0.016330 0.000000 1.641990 
# 
# From -- ./inp_files/7431.got.cif
#   From: 2010.05.17/outbox.cif.g08.bks.cpg/sg9_4_cif.got.tgz:7431.got - 2010.06.03 20:04:27.
