data_PCOD9134906
_publ_section_title
;
Structure prediction by ZEFSAII (Michael W. Deem and Ramdas Pophale) SiO2 
 PCOD9134906
Probable space group: C C
;
_chemical_formula_sum "Si O2"
_cell_formula_units_Z 24
_cell_length_a 15.101416
_cell_length_b 5.391847
_cell_length_c 15.365511
_cell_angle_alpha 90.000000
_cell_angle_beta 50.828416
_cell_angle_gamma 90.000000
_cell_volume 969.947910
_symmetry_space_group_name_H-M "C C"
_symmetry_group_IT_number 9
_symmetry_cell_setting 'monoclinic'
loop_
_space_group_symop_operation_xyz
x,y,z
x,-y,1/2+z
1/2+x,1/2+y,z
1/2+x,1/2-y,1/2+z
loop_
_atom_site_type_symbol
_atom_site_label
_atom_site_fract_x
_atom_site_fract_y
_atom_site_fract_z
Si Si1 0.573310 0.222817 0.740690
Si Si2 0.573015 0.277247 0.331220
Si Si3 0.869682 0.225877 0.630963
Si Si4 0.352213 0.562268 0.457053
Si Si5 0.243890 0.441123 0.848597
Si Si6 0.963554 0.267345 0.130232
O O1 0.606194 0.946725 0.747071
O O2 0.622677 0.469815 0.757428
O O3 0.444165 0.244341 0.861285
O O4 0.558620 0.244921 0.646308
O O5 0.437102 0.327403 0.418229
O O6 0.628763 0.187372 0.387042
O O7 0.812511 0.177471 0.572645
O O8 0.941480 0.475544 0.594820
O O9 0.782072 0.175146 0.765065
O O10 0.958936 0.995387 0.583579
O O11 0.260950 0.505199 0.439138
O O12 0.342701 0.252428 0.757722
#
# Coordination Sequence:
#
# PCOD9134906 Si02
#       6
#     4   4   4   4   4   4
#     4   9  19  35  59  83 113 153 195 237 294 351
#     4  10  20  35  60  89 113 158 199 243 295 356
#     4  10  20  34  61  88 113 156 200 239 296 357
#     4   9  21  38  61  86 119 162 195 247 297 359
#     4   9  21  38  63  84 121 160 195 245 302 353
#     4   9  19  36  58  84 111 157 192 239 294 354
#
# _framework density 24.743596
#
# number of rings (size 3 to 8) (size 9 to 14) (size 15 to 20)
#    2.000    0.667    0.000    2.000    4.667    0.000 
#    0.000    1.667   14.667    0.000    0.000    0.000 
#    0.000    0.000    0.000    0.000    0.000    0.000 
#
# Total GULP energy -66820.607054 kJ/mol
# GULP energy per Si atom -5568.383921 kJ/mol
# Density = 2.468728 g / cm^3
# Si number density = 24.743596 Si / 1000 Ang^3
#
#
#
# Elastic Constant Matrix: (Units=GPa)
#
#
# Indices 1 2 3 4 5 6 
#
# 1 125.1554 56.3200 34.2141 0.0001 46.1497 0.0005
# 2 56.3200 176.3877 26.6432 -0.0008 24.3222 0.0006
# 3 34.2141 26.6432 74.7635 0.0001 24.0543 -0.0004
# 4 0.0001 -0.0008 0.0001 30.1061 -0.0002 -3.1915
# 5 46.1497 24.3222 24.0543 -0.0002 63.2361 -0.0001
# 6 0.0005 0.0006 -0.0004 -3.1915 -0.0001 34.1024
#
#
#
# Elastic Compliance Matrix: (Units=1/GPa)
#
#
# Indices 1 2 3 4 5 6 
#
# 1 0.012490 -0.002626 -0.002475 0.000000 -0.007164 0.000000
# 2 -0.002626 0.006709 -0.001111 0.000000 -0.000241 0.000000
# 3 -0.002475 -0.001111 0.016164 0.000000 -0.003915 0.000000
# 4 0.000000 0.000000 0.000000 0.033549 0.000000 0.003140
# 5 -0.007164 -0.000241 -0.003915 0.000000 0.022624 0.000000
# 6 0.000000 0.000000 0.000000 0.003140 0.000000 0.029617
#
#
# Mechanical properties :
#
#
# Convention : Reuss Voigt Hill
#
# Bulk Modulus (GPa) = 43.59757 67.85127 55.72442
# Shear Modulus (GPa) = 35.40479 42.76420 39.08449
#
# Velocity S-wave (km/s) = 3.78678 4.16179 3.97870
# Velocity P-wave (km/s) = 6.06446 7.11163 6.60881
#
# Compressibility (1/GPa) = 0.02293706
#
# Stress axis : x y z
#
# Youngs Moduli (GPa) = 80.06376 149.05280 61.86676
#
# Poissons Ratio (x) = 0.39147 0.15312
# Poissons Ratio (y) = 0.21028 0.06876
# Poissons Ratio (z) = 0.19816 0.16566
#
# Static dielectric constant tensor:
#      x y z
#    x 2.054400 0.000000 -0.027130 
#    y 0.000000 1.879340 0.000000 
#    z -0.027130 0.000000 2.045630 
# 
# From -- ./inp_files/25184.got.cif
#   From: 2010.05.17/outbox.cif.g08.bks.cpg/sg9_13_cif.got.tgz:25184.got - 2010.06.03 20:04:27.
