data_PCOD9134926
_publ_section_title
;
Structure prediction by ZEFSAII (Michael W. Deem and Ramdas Pophale) SiO2 
 PCOD9134926
Probable space group: C C
;
_chemical_formula_sum "Si O2"
_cell_formula_units_Z 32
_cell_length_a 10.714593
_cell_length_b 31.382152
_cell_length_c 5.361928
_cell_angle_alpha 90.000000
_cell_angle_beta 126.142187
_cell_angle_gamma 90.000000
_cell_volume 1455.968368
_symmetry_space_group_name_H-M "C C"
_symmetry_group_IT_number 9
_symmetry_cell_setting 'monoclinic'
loop_
_space_group_symop_operation_xyz
x,y,z
x,-y,1/2+z
1/2+x,1/2+y,z
1/2+x,1/2-y,1/2+z
loop_
_atom_site_type_symbol
_atom_site_label
_atom_site_fract_x
_atom_site_fract_y
_atom_site_fract_z
Si Si1 0.729430 0.621517 0.289490
Si Si2 0.683905 0.238293 0.788884
Si Si3 0.749961 0.475485 0.820466
Si Si4 0.896478 0.297197 0.743671
Si Si5 0.830377 0.828185 0.794456
Si Si6 0.157545 0.813983 0.078123
Si Si7 0.869685 0.121321 0.815484
Si Si8 0.872501 0.024037 0.880195
O O1 0.796004 0.574184 0.361850
O O2 0.835474 0.658251 0.291613
O O3 0.696305 0.638727 0.529963
O O4 0.555025 0.620336 0.974770
O O5 0.828053 0.256331 0.807824
O O6 0.576062 0.210229 0.486017
O O7 0.722750 0.210163 0.077042
O O8 0.615296 0.283224 0.800536
O O9 0.799665 0.501286 0.633399
O O10 0.561231 0.475448 0.603589
O O11 0.814864 0.297058 0.381971
O O12 0.847036 0.855278 0.555176
O O13 0.788387 0.856198 0.984212
O O14 0.004048 0.811558 0.060090
O O15 0.819903 0.072536 0.787367
O O16 0.823591 0.996331 0.584353
#
# Coordination Sequence:
#
# PCOD9134926 Si02
#       8
#     4   4   4   4   4   4   4   4
#     4   9  20  34  54  86 116 158 198 245 306 351
#     4  11  25  38  57  87 116 162 208 251 300 358
#     4   9  18  29  51  81 120 151 188 240 298 358
#     4  11  23  39  59  84 121 159 207 254 301 360
#     4  11  22  39  57  84 118 160 198 241 300 356
#     4  10  22  36  58  80 118 159 199 247 303 355
#     4  10  20  35  57  84 121 156 196 246 299 358
#     4   9  16  28  49  82 116 149 186 238 299 354
#
# _framework density 21.9785
#
# number of rings (size 3 to 8) (size 9 to 14) (size 15 to 20)
#    0.000    2.000    2.500    0.750    5.250    3.000 
#    0.000    0.000    0.000    0.000    0.000    5.250 
#    0.000    0.000    0.000    0.000    0.000    0.000 
#
# Total GULP energy -89268.374135 kJ/mol
# GULP energy per Si atom -5579.273383 kJ/mol
# Density = 2.192848 g / cm^3
# Si number density = 21.978500 Si / 1000 Ang^3
#
#
#
# Elastic Constant Matrix: (Units=GPa)
#
#
# Indices 1 2 3 4 5 6 
#
# 1 24.6866 25.9416 11.2290 0.0000 -12.1949 0.0000
# 2 25.9416 141.5402 47.8407 0.0000 -2.8298 0.0000
# 3 11.2290 47.8407 90.7892 0.0000 -19.9470 0.0000
# 4 0.0000 0.0000 0.0000 34.0662 0.0000 -8.7049
# 5 -12.1949 -2.8298 -19.9470 0.0000 21.5064 0.0000
# 6 0.0000 0.0000 0.0000 -8.7049 0.0000 13.1877
#
#
#
# Elastic Compliance Matrix: (Units=1/GPa)
#
#
# Indices 1 2 3 4 5 6 
#
# 1 0.079983 -0.017280 0.010899 0.000000 0.053188 0.000000
# 2 -0.017280 0.012592 -0.007896 0.000000 -0.015464 0.000000
# 3 0.010899 -0.007896 0.018784 0.000000 0.022563 0.000000
# 4 0.000000 0.000000 0.000000 0.035310 0.000000 0.023308
# 5 0.053188 -0.015464 0.022563 0.000000 0.095550 0.000000
# 6 0.000000 0.000000 0.000000 0.023308 0.000000 0.091213
#
#
# Mechanical properties :
#
#
# Convention : Reuss Voigt Hill
#
# Bulk Modulus (GPa) = 12.07647 47.44874 29.76261
# Shear Modulus (GPa) = 12.83409 25.21904 19.02657
#
# Velocity S-wave (km/s) = 2.41910 3.39107 2.94545
# Velocity P-wave (km/s) = 3.64820 6.08013 5.01385
#
# Compressibility (1/GPa) = 0.08280564
#
# Stress axis : x y z
#
# Youngs Moduli (GPa) = 12.50271 79.41741 53.23569
#
# Poissons Ratio (x) = 1.37231 -0.58020
# Poissons Ratio (y) = 0.21604 0.42033
# Poissons Ratio (z) = -0.13626 0.62704
#
# Static dielectric constant tensor:
#      x y z
#    x 1.856350 0.000000 0.011380 
#    y 0.000000 1.791400 0.000000 
#    z 0.011380 0.000000 1.856880 
# 
# From -- ./inp_files/1229.got.cif
#   From: 2010.05.17/outbox.cif.g08.bks.cpg/sg9_1_cif.got.tgz:1229.got - 2010.06.03 20:04:27.
