data_PCOD9134796
_publ_section_title
;
Structure prediction by ZEFSAII (Michael W. Deem and Ramdas Pophale) SiO2 
 PCOD9134796
Probable space group: C C
;
_chemical_formula_sum "Si O2"
_cell_formula_units_Z 28
_cell_length_a 11.308391
_cell_length_b 8.030559
_cell_length_c 13.989542
_cell_angle_alpha 90.000000
_cell_angle_beta 115.472719
_cell_angle_gamma 90.000000
_cell_volume 1146.929993
_symmetry_space_group_name_H-M "C C"
_symmetry_group_IT_number 9
_symmetry_cell_setting 'monoclinic'
loop_
_space_group_symop_operation_xyz
x,y,z
x,-y,1/2+z
1/2+x,1/2+y,z
1/2+x,1/2-y,1/2+z
loop_
_atom_site_type_symbol
_atom_site_label
_atom_site_fract_x
_atom_site_fract_y
_atom_site_fract_z
Si Si1 0.492730 0.015038 0.694890
Si Si2 0.017390 0.266699 0.864513
Si Si3 0.753553 0.815389 0.294302
Si Si4 0.743920 0.203226 0.565723
Si Si5 0.222104 0.899660 0.088740
Si Si6 0.226576 0.929706 0.313134
Si Si7 0.466445 0.222278 0.009367
O O1 0.630678 0.077607 0.781810
O O2 0.376409 0.146203 0.630482
O O3 0.448365 0.893454 0.766019
O O4 0.511106 0.911726 0.604404
O O5 0.904005 0.159547 0.875602
O O6 0.111712 0.154324 0.833404
O O7 0.110768 0.359754 0.971256
O O8 0.754138 0.843593 0.179330
O O9 0.724210 0.628252 0.318300
O O10 0.724472 0.406295 0.558045
O O11 0.869373 0.163348 0.543014
O O12 0.202420 0.886834 0.195152
O O13 0.094575 0.804509 0.006543
O O14 0.364286 0.857517 0.399253
#
# Coordination Sequence:
#
# PCOD9134796 Si02
#       7
#     4   4   4   4   4   4   4
#     4  11  23  38  63  93 127 161 206 254 311 366
#     4  11  21  42  62  90 124 163 203 260 307 363
#     4  11  23  41  62  91 127 161 206 260 299 372
#     4   9  21  39  65  87 123 164 209 248 314 360
#     4  10  19  42  61  91 124 161 206 257 298 374
#     4  10  21  40  67  85 123 165 203 252 314 359
#     4  10  20  40  66  89 124 163 205 257 309 364
#
# _framework density 24.412997000000001
#
# number of rings (size 3 to 8) (size 9 to 14) (size 15 to 20)
#    0.000    1.714    5.714    0.000    2.000    3.429 
#    7.714    0.000    0.000    0.000    0.000    0.000 
#    0.000    0.000    0.000    0.000    0.000    0.000 
#
# Total GULP energy -78174.274826 kJ/mol
# GULP energy per Si atom -5583.876773 kJ/mol
# Density = 2.435743 g / cm^3
# Si number density = 24.412997 Si / 1000 Ang^3
#
#
#
# Elastic Constant Matrix: (Units=GPa)
#
#
# Indices 1 2 3 4 5 6 
#
# 1 137.7502 33.1781 15.0135 0.0000 38.7648 0.0000
# 2 33.1781 21.0019 12.6064 0.0000 9.7412 0.0000
# 3 15.0135 12.6064 70.4093 0.0000 16.8974 0.0000
# 4 0.0000 0.0000 0.0000 23.1034 0.0000 8.6747
# 5 38.7648 9.7412 16.8974 0.0000 50.6224 0.0000
# 6 0.0000 0.0000 0.0000 8.6747 0.0000 45.2268
#
#
#
# Elastic Compliance Matrix: (Units=1/GPa)
#
#
# Indices 1 2 3 4 5 6 
#
# 1 0.013956 -0.019957 0.002436 0.000000 -0.007660 0.000000
# 2 -0.019957 0.084792 -0.011608 0.000000 0.002840 0.000000
# 3 0.002436 -0.011608 0.017038 0.000000 -0.005319 0.000000
# 4 0.000000 0.000000 0.000000 0.046643 0.000000 -0.008946
# 5 -0.007660 0.002840 -0.005319 0.000000 0.026849 0.000000
# 6 0.000000 0.000000 0.000000 -0.008946 0.000000 0.023827
#
#
# Mechanical properties :
#
#
# Convention : Reuss Voigt Hill
#
# Bulk Modulus (GPa) = 17.38281 38.97304 28.17792
# Shear Modulus (GPa) = 17.20941 35.01475 26.11208
#
# Velocity S-wave (km/s) = 2.65793 3.79128 3.27402
# Velocity P-wave (km/s) = 4.06881 5.92991 5.08522
#
# Compressibility (1/GPa) = 0.05752811
#
# Stress axis : x y z
#
# Youngs Moduli (GPa) = 71.65144 11.79358 58.69221
#
# Poissons Ratio (x) = 0.23536 -0.14295
# Poissons Ratio (y) = 1.42994 0.68129
# Poissons Ratio (z) = -0.17451 0.13690
#
# Static dielectric constant tensor:
#      x y z
#    x 1.993430 0.000000 0.037630 
#    y 0.000000 1.977730 0.000000 
#    z 0.037630 0.000000 1.953020 
# 
# From -- ./inp_files/24043.got.cif
#   From: 2010.05.17/outbox.cif.g08.bks.cpg/sg9_13_cif.got.tgz:24043.got - 2010.06.03 20:04:27.
