data_PCOD9134105
_publ_section_title
;
Structure prediction by ZEFSAII (Michael W. Deem and Ramdas Pophale) SiO2 
 PCOD9134105
Probable space group: C C
;
_chemical_formula_sum "Si O2"
_cell_formula_units_Z 32
_cell_length_a 7.701968
_cell_length_b 15.959357
_cell_length_c 22.626734
_cell_angle_alpha 90.000000
_cell_angle_beta 33.787945
_cell_angle_gamma 90.000000
_cell_volume 1546.707110
_symmetry_space_group_name_H-M "C C"
_symmetry_group_IT_number 9
_symmetry_cell_setting 'monoclinic'
loop_
_space_group_symop_operation_xyz
x,y,z
x,-y,1/2+z
1/2+x,1/2+y,z
1/2+x,1/2-y,1/2+z
loop_
_atom_site_type_symbol
_atom_site_label
_atom_site_fract_x
_atom_site_fract_y
_atom_site_fract_z
Si Si1 0.919820 0.990264 0.348330
Si Si2 0.378139 0.089523 0.072564
Si Si3 0.797198 0.346556 0.724884
Si Si4 0.218765 0.495937 0.774630
Si Si5 0.451223 0.173478 0.307971
Si Si6 0.083756 0.672469 0.813582
Si Si7 0.709612 0.333468 0.218482
Si Si8 0.285244 0.758329 0.506358
O O1 0.689458 0.956777 0.463243
O O2 0.188641 0.921008 0.258515
O O3 0.716033 0.994053 0.346041
O O4 0.060980 0.082081 0.315388
O O5 0.417113 0.120848 0.128640
O O6 0.311053 0.169040 0.048767
O O7 0.076992 0.027529 0.156391
O O8 0.025189 0.335519 0.716584
O O9 0.637747 0.255973 0.760665
O O10 0.079621 0.580905 0.786207
O O11 0.023209 0.414495 0.815143
O O12 0.651807 0.251563 0.275455
O O13 0.099326 0.203051 0.416462
O O14 0.402623 0.665267 0.763201
O O15 0.803361 0.693509 0.938175
O O16 0.009952 0.307233 0.096393
#
# Coordination Sequence:
#
# PCOD9134105 Si02
#       8
#     4   4   4   4   4   4   4   4
#     4  10  20  40  60  89 114 162 201 237 292 368
#     4  11  19  37  64  86 115 160 201 238 299 364
#     4   9  22  37  57  84 125 151 193 248 294 348
#     4  10  20  37  64  84 117 155 203 244 292 354
#     4  10  20  38  58  88 119 148 194 257 293 345
#     4   9  20  40  57  88 118 155 198 248 291 357
#     4   9  17  35  63  82 113 155 194 241 299 346
#     4  10  18  36  65  83 117 158 196 243 304 348
#
# _framework density 20.689115000000001
#
# number of rings (size 3 to 8) (size 9 to 14) (size 15 to 20)
#    0.000    2.500    5.000    0.000    0.000    6.000 
#    4.500    6.250   11.000    0.000    0.000    0.000 
#    0.000    0.000    0.000    0.000    0.000    0.000 
#
# Total GULP energy -89129.061538 kJ/mol
# GULP energy per Si atom -5570.566346 kJ/mol
# Density = 2.064203 g / cm^3
# Si number density = 20.689115 Si / 1000 Ang^3
#
#
#
# Elastic Constant Matrix: (Units=GPa)
#
#
# Indices 1 2 3 4 5 6 
#
# 1 27.8120 13.2007 4.0099 -0.0143 16.4697 -0.0217
# 2 13.2007 167.7958 22.2462 0.0437 7.1006 -0.0505
# 3 4.0099 22.2462 96.5962 -0.3180 8.7315 -0.0849
# 4 -0.0143 0.0437 -0.3180 31.9255 0.0160 1.0475
# 5 16.4697 7.1006 8.7315 0.0160 26.5322 0.0362
# 6 -0.0217 -0.0505 -0.0849 1.0475 0.0362 30.6229
#
#
#
# Elastic Compliance Matrix: (Units=1/GPa)
#
#
# Indices 1 2 3 4 5 6 
#
# 1 0.058631 -0.003298 0.001583 0.000062 -0.036034 0.000081
# 2 -0.003298 0.006371 -0.001403 -0.000025 0.000804 0.000004
# 3 0.001583 -0.001403 0.010992 0.000113 -0.004225 0.000030
# 4 0.000062 -0.000025 0.000113 0.031359 -0.000087 -0.001072
# 5 -0.036034 0.000804 -0.004225 -0.000087 0.061233 -0.000105
# 6 0.000081 0.000004 0.000030 -0.001072 -0.000105 0.032692
#
#
# Mechanical properties :
#
#
# Convention : Reuss Voigt Hill
#
# Bulk Modulus (GPa) = 14.33509 41.23528 27.78518
# Shear Modulus (GPa) = 21.66681 34.66593 28.16637
#
# Velocity S-wave (km/s) = 3.23965 4.09781 3.69373
# Velocity P-wave (km/s) = 4.57576 6.50873 5.62588
#
# Compressibility (1/GPa) = 0.06975891
#
# Stress axis : x y z
#
# Youngs Moduli (GPa) = 17.05575 156.95949 90.97468
#
# Poissons Ratio (x) = 0.51759 -0.14401
# Poissons Ratio (y) = 0.05624 0.12765
# Poissons Ratio (z) = -0.02700 0.22023
#
# Static dielectric constant tensor:
#      x y z
#    x 1.792990 0.000000 -0.002700 
#    y 0.000000 1.840820 -0.000020 
#    z -0.002700 -0.000020 1.749570 
# 
# From -- ./inp_files/35061.got.cif
#   From: 2010.05.17/outbox.cif.g08.bks.cpg/sg9_18_cif.got.tgz:35061.got - 2010.06.03 20:04:27.
