data_PCOD9134741
_publ_section_title
;
Structure prediction by ZEFSAII (Michael W. Deem and Ramdas Pophale) SiO2 
 PCOD9134741
Probable space group: C C
;
_chemical_formula_sum "Si O2"
_cell_formula_units_Z 32
_cell_length_a 9.525225
_cell_length_b 11.858392
_cell_length_c 11.506454
_cell_angle_alpha 90.000000
_cell_angle_beta 83.703162
_cell_angle_gamma 90.000000
_cell_volume 1291.857234
_symmetry_space_group_name_H-M "C C"
_symmetry_group_IT_number 9
_symmetry_cell_setting 'monoclinic'
loop_
_space_group_symop_operation_xyz
x,y,z
x,-y,1/2+z
1/2+x,1/2+y,z
1/2+x,1/2-y,1/2+z
loop_
_atom_site_type_symbol
_atom_site_label
_atom_site_fract_x
_atom_site_fract_y
_atom_site_fract_z
Si Si1 0.197950 0.522189 0.841650
Si Si2 0.526074 0.188879 0.363334
Si Si3 0.290246 0.783389 0.487687
Si Si4 0.095176 0.763717 0.892353
Si Si5 0.110107 0.161284 0.655322
Si Si6 0.927903 0.311552 0.108892
Si Si7 0.605500 0.596301 0.172865
Si Si8 0.222484 0.439974 0.093823
O O1 0.059424 0.443153 0.849229
O O2 0.180488 0.655168 0.843780
O O3 0.259942 0.494727 0.708097
O O4 0.257845 0.495463 0.965361
O O5 0.662996 0.244642 0.415165
O O6 0.521292 0.254617 0.244456
O O7 0.408005 0.200468 0.471132
O O8 0.433129 0.782709 0.402789
O O9 0.237445 0.886712 0.571443
O O10 0.299316 0.679626 0.577772
O O11 0.130243 0.866651 0.803738
O O12 0.108122 0.796125 0.024461
O O13 0.276632 0.162611 0.675815
O O14 0.062285 0.032674 0.670073
O O15 0.994335 0.192863 0.143809
O O16 0.053913 0.404950 0.114045
#
# Coordination Sequence:
#
# PCOD9134741 Si02
#       8
#     4   4   4   4   4   4   4   4
#     4  10  19  40  67  94 133 167 233 288 338 428
#     4   9  22  42  64  98 131 177 231 273 355 423
#     4   9  21  43  67  90 132 181 220 284 358 413
#     4  12  24  42  66 104 131 176 239 289 354 434
#     4  12  26  43  68 105 140 180 239 289 355 436
#     4   9  21  46  64  92 137 185 218 287 364 406
#     4  10  24  46  68  99 139 183 235 293 356 426
#     4   9  19  40  64 100 127 175 233 277 352 432
#
# _framework density 24.770537999999998
#
# number of rings (size 3 to 8) (size 9 to 14) (size 15 to 20)
#    0.000    2.500    2.500    1.500    7.000    1.000 
#   15.750    0.000    0.000    0.000    0.000    0.000 
#    0.000    0.000    0.000    0.000    0.000    0.000 
#
# Total GULP energy -89331.212082 kJ/mol
# GULP energy per Si atom -5583.200755 kJ/mol
# Density = 2.471416 g / cm^3
# Si number density = 24.770538 Si / 1000 Ang^3
#
#
#
# Elastic Constant Matrix: (Units=GPa)
#
#
# Indices 1 2 3 4 5 6 
#
# 1 87.5650 -6.6558 7.3142 0.0000 -12.7719 0.0000
# 2 -6.6558 71.8227 39.9157 0.0000 1.8871 0.0000
# 3 7.3142 39.9157 178.7309 0.0000 14.5033 0.0000
# 4 0.0000 0.0000 0.0000 29.3422 0.0000 9.8515
# 5 -12.7719 1.8871 14.5033 0.0000 26.4941 0.0000
# 6 0.0000 0.0000 0.0000 9.8515 0.0000 7.9881
#
#
#
# Elastic Compliance Matrix: (Units=1/GPa)
#
#
# Indices 1 2 3 4 5 6 
#
# 1 0.012671 0.001815 -0.001475 0.000000 0.006786 0.000000
# 2 0.001815 0.016175 -0.003834 0.000000 0.001822 0.000000
# 3 -0.001475 -0.003834 0.006852 0.000000 -0.004188 0.000000
# 4 0.000000 0.000000 0.000000 0.058164 0.000000 -0.071732
# 5 0.006786 0.001822 -0.004188 0.000000 0.043179 0.000000
# 6 0.000000 0.000000 0.000000 -0.071732 0.000000 0.213652
#
#
# Mechanical properties :
#
#
# Convention : Reuss Voigt Hill
#
# Bulk Modulus (GPa) = 34.83104 46.58518 40.70811
# Shear Modulus (GPa) = 13.61475 32.60117 23.10796
#
# Velocity S-wave (km/s) = 2.34697 3.63178 3.05762
# Velocity P-wave (km/s) = 4.62994 6.03606 5.37914
#
# Compressibility (1/GPa) = 0.02871002
#
# Stress axis : x y z
#
# Youngs Moduli (GPa) = 78.91984 61.82563 145.95241
#
# Poissons Ratio (x) = -0.11224 0.21523
# Poissons Ratio (y) = -0.14328 0.55964
# Poissons Ratio (z) = 0.11638 0.23706
#
# Static dielectric constant tensor:
#      x y z
#    x 2.101080 0.000000 0.023730 
#    y 0.000000 1.898520 0.000000 
#    z 0.023730 0.000000 2.020920 
# 
# From -- ./inp_files/16175.got.cif
#   From: 2010.05.17/outbox.cif.g08.bks.cpg/sg9_9_cif.got.tgz:16175.got - 2010.06.03 20:04:27.
