data_PCOD9134517
_publ_section_title
;
Structure prediction by ZEFSAII (Michael W. Deem and Ramdas Pophale) SiO2 
 PCOD9134517
Probable space group: C C
;
_chemical_formula_sum "Si O2"
_cell_formula_units_Z 32
_cell_length_a 7.558853
_cell_length_b 16.662672
_cell_length_c 11.635674
_cell_angle_alpha 90.000000
_cell_angle_beta 89.405604
_cell_angle_gamma 90.000000
_cell_volume 1465.442287
_symmetry_space_group_name_H-M "C C"
_symmetry_group_IT_number 9
_symmetry_cell_setting 'monoclinic'
loop_
_space_group_symop_operation_xyz
x,y,z
x,-y,1/2+z
1/2+x,1/2+y,z
1/2+x,1/2-y,1/2+z
loop_
_atom_site_type_symbol
_atom_site_label
_atom_site_fract_x
_atom_site_fract_y
_atom_site_fract_z
Si Si1 0.170970 0.123446 0.330300
Si Si2 0.110856 0.100866 0.579562
Si Si3 0.110761 0.249733 0.722350
Si Si4 0.964212 0.204860 0.143360
Si Si5 0.044139 0.587904 0.300338
Si Si6 0.295303 0.549537 0.727843
Si Si7 0.532723 0.873532 0.061764
Si Si8 0.833047 0.801955 0.392733
O O1 0.072503 0.090225 0.444360
O O2 0.337417 0.064166 0.306154
O O3 0.235854 0.215613 0.367912
O O4 0.068877 0.138849 0.212961
O O5 0.063650 0.191712 0.618290
O O6 0.326867 0.100833 0.586524
O O7 0.991841 0.050036 0.669982
O O8 0.318902 0.259755 0.731351
O O9 0.042441 0.339682 0.709603
O O10 0.025095 0.211400 0.834717
O O11 0.071074 0.283716 0.105660
O O12 0.859930 0.181430 0.027443
O O13 0.066674 0.623578 0.427025
O O14 0.207162 0.530057 0.278262
O O15 0.267374 0.620968 0.821769
O O16 0.165873 0.568735 0.623461
#
# Coordination Sequence:
#
# PCOD9134517 Si02
#       8
#     4   4   4   4   4   4   4   4
#     4  10  19  38  66  94 132 176 221 283 334 391
#     4   9  20  39  64  96 125 170 226 276 322 399
#     4   9  18  35  60  89 126 159 216 282 310 390
#     4  11  19  35  66  95 125 169 231 284 329 386
#     4  10  22  41  59  94 135 171 215 271 339 414
#     4  11  23  39  67  92 134 180 214 268 353 402
#     4  10  20  40  63  90 131 175 216 278 333 392
#     4  10  19  37  61  98 128 166 233 276 328 408
#
# _framework density 21.836410999999998
#
# number of rings (size 3 to 8) (size 9 to 14) (size 15 to 20)
#    0.000    2.000    6.250    0.000    1.750    1.000 
#    2.250    0.000    5.500    0.000    0.000    0.000 
#    0.000    0.000    0.000    0.000    0.000    0.000 
#
# Total GULP energy -89092.072624 kJ/mol
# GULP energy per Si atom -5568.254539 kJ/mol
# Density = 2.178671 g / cm^3
# Si number density = 21.836411 Si / 1000 Ang^3
#
#
#
# Elastic Constant Matrix: (Units=GPa)
#
#
# Indices 1 2 3 4 5 6 
#
# 1 56.2284 28.6485 34.1251 0.0000 -10.1997 0.0000
# 2 28.6485 60.1446 17.0143 0.0000 -17.0001 0.0000
# 3 34.1251 17.0143 76.3689 0.0000 -11.0020 0.0000
# 4 0.0000 0.0000 0.0000 7.6334 0.0000 -8.5036
# 5 -10.1997 -17.0001 -11.0020 0.0000 39.7462 0.0000
# 6 0.0000 0.0000 0.0000 -8.5036 0.0000 30.5395
#
#
#
# Elastic Compliance Matrix: (Units=1/GPa)
#
#
# Indices 1 2 3 4 5 6 
#
# 1 0.030194 -0.011310 -0.010991 0.000000 -0.000132 0.000000
# 2 -0.011310 0.023919 0.000813 0.000000 0.007553 0.000000
# 3 -0.010991 0.000813 0.018194 0.000000 0.002563 0.000000
# 4 0.000000 0.000000 0.000000 0.189912 0.000000 0.052880
# 5 -0.000132 0.007553 0.002563 0.000000 0.029066 0.000000
# 6 0.000000 0.000000 0.000000 0.052880 0.000000 0.047469
#
#
# Mechanical properties :
#
#
# Convention : Reuss Voigt Hill
#
# Bulk Modulus (GPa) = 34.09453 39.14642 36.62048
# Shear Modulus (GPa) = 12.77119 23.11408 17.94264
#
# Velocity S-wave (km/s) = 2.42101 3.25701 2.86961
# Velocity P-wave (km/s) = 4.84381 5.66658 5.27128
#
# Compressibility (1/GPa) = 0.02933022
#
# Stress axis : x y z
#
# Youngs Moduli (GPa) = 33.11943 41.80818 54.96376
#
# Poissons Ratio (x) = 0.47285 0.60411
# Poissons Ratio (y) = 0.37458 -0.04469
# Poissons Ratio (z) = 0.36402 -0.03399
#
# Static dielectric constant tensor:
#      x y z
#    x 1.876860 0.000000 -0.028430 
#    y 0.000000 1.897780 0.000000 
#    z -0.028430 0.000000 1.826000 
# 
# From -- ./inp_files/15072.got.cif
#   From: 2010.05.17/outbox.cif.g08.bks.cpg/sg9_8_cif.got.tgz:15072.got - 2010.06.03 20:04:27.
