data_PCOD9134427
_publ_section_title
;
Structure prediction by ZEFSAII (Michael W. Deem and Ramdas Pophale) SiO2 
 PCOD9134427
Probable space group: C C
;
_chemical_formula_sum "Si O2"
_cell_formula_units_Z 32
_cell_length_a 11.839786
_cell_length_b 19.659384
_cell_length_c 9.221993
_cell_angle_alpha 90.000000
_cell_angle_beta 49.294713
_cell_angle_gamma 90.000000
_cell_volume 1627.234862
_symmetry_space_group_name_H-M "C C"
_symmetry_group_IT_number 9
_symmetry_cell_setting 'monoclinic'
loop_
_space_group_symop_operation_xyz
x,y,z
x,-y,1/2+z
1/2+x,1/2+y,z
1/2+x,1/2-y,1/2+z
loop_
_atom_site_type_symbol
_atom_site_label
_atom_site_fract_x
_atom_site_fract_y
_atom_site_fract_z
Si Si1 0.869610 0.142277 0.964180
Si Si2 0.942321 0.922199 0.806463
Si Si3 0.661890 0.615893 0.898156
Si Si4 0.887136 0.298128 0.042485
Si Si5 0.657254 0.116661 0.386789
Si Si6 0.473061 0.433323 0.122313
Si Si7 0.405786 0.010552 0.586507
Si Si8 0.324232 0.917465 0.873778
O O1 0.874531 0.221771 0.999358
O O2 0.878752 0.122721 0.789361
O O3 0.018438 0.111739 0.913591
O O4 0.728960 0.112053 0.166531
O O5 0.796463 0.880868 0.878012
O O6 0.090808 0.886341 0.617123
O O7 0.937292 0.994468 0.727021
O O8 0.945293 0.933318 0.974710
O O9 0.759374 0.679939 0.763750
O O10 0.768461 0.552144 0.775023
O O11 0.868161 0.349062 0.921254
O O12 0.044655 0.319692 0.980599
O O13 0.556041 0.050636 0.498996
O O14 0.647391 0.418097 0.001862
O O15 0.376162 0.022943 0.441901
O O16 0.399059 0.935841 0.658303
#
# Coordination Sequence:
#
# PCOD9134427 Si02
#       8
#     4   4   4   4   4   4   4   4
#     4  11  20  39  66  89 121 166 213 246 293 382
#     4  11  22  36  62  97 125 157 205 261 323 356
#     4   9  18  36  60  88 113 158 204 248 298 361
#     4  10  21  39  67  88 120 164 211 240 309 375
#     4   9  22  37  58  89 123 156 199 259 307 365
#     4  12  22  36  65  93 126 162 210 259 304 375
#     4  10  19  36  58  88 120 146 200 248 316 356
#     4  10  20  35  60  90 116 159 198 255 298 370
#
# _framework density 19.665261999999998
#
# number of rings (size 3 to 8) (size 9 to 14) (size 15 to 20)
#    0.000    2.000    3.750    3.000    0.000    4.000 
#    0.000    0.000   11.000    1.500    0.000    0.000 
#    0.000    0.000    0.000    0.000    0.000    0.000 
#
# Total GULP energy -89289.444265 kJ/mol
# GULP energy per Si atom -5580.590267 kJ/mol
# Density = 1.962050 g / cm^3
# Si number density = 19.665262 Si / 1000 Ang^3
#
#
#
# Elastic Constant Matrix: (Units=GPa)
#
#
# Indices 1 2 3 4 5 6 
#
# 1 70.8857 19.2155 41.9606 0.0000 2.9515 0.0000
# 2 19.2155 90.0666 42.0719 0.0000 3.1076 0.0000
# 3 41.9606 42.0719 124.9455 0.0000 4.0678 0.0000
# 4 0.0000 0.0000 0.0000 25.4524 0.0000 3.3433
# 5 2.9515 3.1076 4.0678 0.0000 42.9698 0.0000
# 6 0.0000 0.0000 0.0000 3.3433 0.0000 14.9579
#
#
#
# Elastic Compliance Matrix: (Units=1/GPa)
#
#
# Indices 1 2 3 4 5 6 
#
# 1 0.017730 -0.001174 -0.005539 0.000000 -0.000609 0.000000
# 2 -0.001174 0.013265 -0.004056 0.000000 -0.000495 0.000000
# 3 -0.005539 -0.004056 0.011242 0.000000 -0.000390 0.000000
# 4 0.000000 0.000000 0.000000 0.040477 0.000000 -0.009047
# 5 -0.000609 -0.000495 -0.000390 0.000000 0.023387 0.000000
# 6 0.000000 0.000000 0.000000 -0.009047 0.000000 0.068876
#
#
# Mechanical properties :
#
#
# Convention : Reuss Voigt Hill
#
# Bulk Modulus (GPa) = 48.31344 54.71044 51.51194
# Shear Modulus (GPa) = 24.58022 28.85269 26.71645
#
# Velocity S-wave (km/s) = 3.53927 3.83455 3.68986
# Velocity P-wave (km/s) = 6.42831 6.89103 6.66369
#
# Compressibility (1/GPa) = 0.02069817
#
# Stress axis : x y z
#
# Youngs Moduli (GPa) = 56.40273 75.38503 88.95062
#
# Poissons Ratio (x) = 0.08852 0.49270
# Poissons Ratio (y) = 0.06623 0.36081
# Poissons Ratio (z) = 0.31241 0.30578
#
# Static dielectric constant tensor:
#      x y z
#    x 1.698200 0.000000 -0.008630 
#    y 0.000000 1.713900 0.000000 
#    z -0.008630 0.000000 1.727740 
# 
# From -- ./inp_files/8286.got.cif
#   From: 2010.05.17/outbox.cif.g08.bks.cpg/sg9_5_cif.got.tgz:8286.got - 2010.06.03 20:04:27.
