data_PCOD9134462
_publ_section_title
;
Structure prediction by ZEFSAII (Michael W. Deem and Ramdas Pophale) SiO2 
 PCOD9134462
Probable space group: C C
;
_chemical_formula_sum "Si O2"
_cell_formula_units_Z 28
_cell_length_a 12.430484
_cell_length_b 13.525119
_cell_length_c 11.096815
_cell_angle_alpha 90.000000
_cell_angle_beta 142.277364
_cell_angle_gamma 90.000000
_cell_volume 1141.471441
_symmetry_space_group_name_H-M "C C"
_symmetry_group_IT_number 9
_symmetry_cell_setting 'monoclinic'
loop_
_space_group_symop_operation_xyz
x,y,z
x,-y,1/2+z
1/2+x,1/2+y,z
1/2+x,1/2-y,1/2+z
loop_
_atom_site_type_symbol
_atom_site_label
_atom_site_fract_x
_atom_site_fract_y
_atom_site_fract_z
Si Si1 0.533980 0.402393 0.327620
Si Si2 0.686900 0.894415 0.883429
Si Si3 0.483894 0.709071 0.020320
Si Si4 0.115782 0.608689 0.738794
Si Si5 0.077677 0.876887 0.861199
Si Si6 0.186822 0.313865 0.559084
Si Si7 0.989482 0.750404 0.111560
O O1 0.565414 0.331937 0.469228
O O2 0.619056 0.508939 0.413705
O O3 0.590506 0.346663 0.255778
O O4 0.320176 0.418397 0.112127
O O5 0.805776 0.806933 0.929052
O O6 0.504868 0.833281 0.730752
O O7 0.650803 0.991757 0.772558
O O8 0.477884 0.827123 0.039555
O O9 0.564217 0.656326 0.210221
O O10 0.289804 0.664242 0.847970
O O11 0.099989 0.633737 0.866457
O O12 0.881094 0.859338 0.741303
O O13 0.206534 0.801106 0.039470
O O14 0.051381 0.306380 0.548306
#
# Coordination Sequence:
#
# PCOD9134462 Si02
#       7
#     4   4   4   4   4   4   4
#     4  10  23  38  64  93 128 175 204 267 327 380
#     4  10  22  42  61  94 131 169 215 253 341 370
#     4  10  21  38  66  89 133 163 227 257 319 389
#     4  10  22  41  64  97 120 179 210 271 316 386
#     4  10  21  38  63  92 119 173 215 257 321 373
#     4  10  19  36  62  89 123 160 221 261 306 389
#     4  10  22  37  60  94 128 167 210 268 318 393
#
# _framework density 24.529741000000001
#
# number of rings (size 3 to 8) (size 9 to 14) (size 15 to 20)
#    0.857    1.143    2.857    0.857    8.000    0.000 
#    0.000    7.143    3.143    0.000    0.000    0.000 
#    0.000    0.000    0.000    0.000    0.000    0.000 
#
# Total GULP energy -77942.348015 kJ/mol
# GULP energy per Si atom -5567.310573 kJ/mol
# Density = 2.447391 g / cm^3
# Si number density = 24.529741 Si / 1000 Ang^3
#
#
#
# Elastic Constant Matrix: (Units=GPa)
#
#
# Indices 1 2 3 4 5 6 
#
# 1 72.1894 21.4449 9.5738 0.0000 -10.5337 0.0000
# 2 21.4449 188.5122 28.1371 0.0000 10.2572 0.0000
# 3 9.5738 28.1371 36.0581 0.0000 -3.0815 0.0000
# 4 0.0000 0.0000 0.0000 34.8462 0.0000 8.6005
# 5 -10.5337 10.2572 -3.0815 0.0000 28.8020 0.0000
# 6 0.0000 0.0000 0.0000 8.6005 0.0000 23.4866
#
#
#
# Elastic Compliance Matrix: (Units=1/GPa)
#
#
# Indices 1 2 3 4 5 6 
#
# 1 0.015561 -0.001768 -0.002232 0.000000 0.006082 0.000000
# 2 -0.001768 0.006414 -0.004831 0.000000 -0.003448 0.000000
# 3 -0.002232 -0.004831 0.032469 0.000000 0.004378 0.000000
# 4 0.000000 0.000000 0.000000 0.031549 0.000000 -0.011553
# 5 0.006082 -0.003448 0.004378 0.000000 0.038640 0.000000
# 6 0.000000 0.000000 0.000000 -0.011553 0.000000 0.046808
#
#
# Mechanical properties :
#
#
# Convention : Reuss Voigt Hill
#
# Bulk Modulus (GPa) = 27.18634 46.11903 36.65268
# Shear Modulus (GPa) = 24.83057 33.26724 29.04890
#
# Velocity S-wave (km/s) = 3.18506 3.68666 3.44500
# Velocity P-wave (km/s) = 4.96319 6.07980 5.54965
#
# Compressibility (1/GPa) = 0.03678317
#
# Stress axis : x y z
#
# Youngs Moduli (GPa) = 64.26257 155.89875 30.79833
#
# Poissons Ratio (x) = 0.27562 0.06875
# Poissons Ratio (y) = 0.11361 0.14877
# Poissons Ratio (z) = 0.14345 0.75308
#
# Static dielectric constant tensor:
#      x y z
#    x 2.115180 0.000000 0.069300 
#    y 0.000000 1.957850 0.000000 
#    z 0.069300 0.000000 2.123260 
# 
# From -- ./inp_files/18143.got.cif
#   From: 2010.05.17/outbox.cif.g08.bks.cpg/sg9_10_cif.got.tgz:18143.got - 2010.06.03 20:04:27.
