data_PCOD9134761
_publ_section_title
;
Structure prediction by ZEFSAII (Michael W. Deem and Ramdas Pophale) SiO2 
 PCOD9134761
Probable space group: C C
;
_chemical_formula_sum "Si O2"
_cell_formula_units_Z 32
_cell_length_a 7.306369
_cell_length_b 26.299666
_cell_length_c 9.294624
_cell_angle_alpha 90.000000
_cell_angle_beta 73.971701
_cell_angle_gamma 90.000000
_cell_volume 1716.578753
_symmetry_space_group_name_H-M "C C"
_symmetry_group_IT_number 9
_symmetry_cell_setting 'monoclinic'
loop_
_space_group_symop_operation_xyz
x,y,z
x,-y,1/2+z
1/2+x,1/2+y,z
1/2+x,1/2-y,1/2+z
loop_
_atom_site_type_symbol
_atom_site_label
_atom_site_fract_x
_atom_site_fract_y
_atom_site_fract_z
Si Si1 0.300170 0.405893 0.488530
Si Si2 0.766473 0.262940 0.779517
Si Si3 0.842515 0.115026 0.645223
Si Si4 0.129449 0.198836 0.606163
Si Si5 0.929177 0.014720 0.456223
Si Si6 0.400589 0.860436 0.580652
Si Si7 0.975964 0.680418 0.745435
Si Si8 0.096867 0.942667 0.624864
O O1 0.356739 0.389578 0.315506
O O2 0.280434 0.467617 0.481201
O O3 0.462574 0.401380 0.573353
O O4 0.117114 0.374191 0.572321
O O5 0.808173 0.317216 0.698792
O O6 0.590221 0.233175 0.744628
O O7 0.957452 0.229821 0.717290
O O8 0.715494 0.269118 0.956905
O O9 0.853470 0.061117 0.566163
O O10 0.642026 0.142238 0.655789
O O11 0.022337 0.149638 0.563458
O O12 0.297994 0.185105 0.678458
O O13 0.996277 0.034559 0.287406
O O14 0.102996 0.987926 0.505954
O O15 0.406521 0.840094 0.415397
O O16 0.287855 0.913250 0.616054
#
# Coordination Sequence:
#
# PCOD9134761 Si02
#       8
#     4   4   4   4   4   4   4   4
#     4   9  20  39  57  86 122 157 194 248 299 352
#     4  11  24  42  62  95 128 153 213 258 300 380
#     4  10  20  41  61  88 125 154 207 248 298 371
#     4  11  24  40  65  91 124 166 200 257 314 360
#     4  10  19  41  59  86 125 159 195 256 295 357
#     4  11  22  41  63  91 120 161 205 250 304 371
#     4  10  24  41  65  92 121 164 199 255 315 366
#     4  10  21  37  60  87 121 162 199 244 305 355
#
# _framework density 18.641732000000001
#
# number of rings (size 3 to 8) (size 9 to 14) (size 15 to 20)
#    0.750    1.000    2.500    1.500    1.750    2.000 
#    9.000    0.000    0.000    0.000    0.000    0.000 
#    0.000    0.000    0.000    0.000    0.000    0.000 
#
# Total GULP energy -89187.258291 kJ/mol
# GULP energy per Si atom -5574.203643 kJ/mol
# Density = 1.859930 g / cm^3
# Si number density = 18.641732 Si / 1000 Ang^3
#
#
#
# Elastic Constant Matrix: (Units=GPa)
#
#
# Indices 1 2 3 4 5 6 
#
# 1 63.7256 8.0560 14.6560 0.0000 -2.5934 0.0000
# 2 8.0560 65.8866 17.0159 0.0000 -11.3714 0.0000
# 3 14.6560 17.0159 47.7426 0.0000 -9.8918 0.0000
# 4 0.0000 0.0000 0.0000 12.2695 0.0000 -0.1081
# 5 -2.5934 -11.3714 -9.8918 0.0000 17.0098 0.0000
# 6 0.0000 0.0000 0.0000 -0.1081 0.0000 26.0015
#
#
#
# Elastic Compliance Matrix: (Units=1/GPa)
#
#
# Indices 1 2 3 4 5 6 
#
# 1 0.016936 -0.000932 -0.005072 0.000000 -0.000990 0.000000
# 2 -0.000932 0.018002 -0.004168 0.000000 0.009469 0.000000
# 3 -0.005072 -0.004168 0.026436 0.000000 0.011813 0.000000
# 4 0.000000 0.000000 0.000000 0.081506 0.000000 0.000339
# 5 -0.000990 0.009469 0.011813 0.000000 0.071839 0.000000
# 6 0.000000 0.000000 0.000000 0.000339 0.000000 0.038461
#
#
# Mechanical properties :
#
#
# Convention : Reuss Voigt Hill
#
# Bulk Modulus (GPa) = 24.37245 28.53453 26.45349
# Shear Modulus (GPa) = 17.40943 20.23130 18.82037
#
# Velocity S-wave (km/s) = 3.05929 3.29792 3.18084
# Velocity P-wave (km/s) = 5.05781 5.46276 5.26418
#
# Compressibility (1/GPa) = 0.04102994
#
# Stress axis : x y z
#
# Youngs Moduli (GPa) = 59.04477 55.54862 37.82721
#
# Poissons Ratio (x) = 0.05176 0.19187
# Poissons Ratio (y) = 0.05502 0.15768
# Poissons Ratio (z) = 0.29949 0.23154
#
# Static dielectric constant tensor:
#      x y z
#    x 1.624700 0.000000 0.008120 
#    y 0.000000 1.664460 0.000000 
#    z 0.008120 0.000000 1.624400 
# 
# From -- ./inp_files/4341.got.cif
#   From: 2010.05.17/outbox.cif.g08.bks.cpg/sg9_3_cif.got.tgz:4341.got - 2010.06.03 20:04:27.
