data_PCOD9134755
_publ_section_title
;
Structure prediction by ZEFSAII (Michael W. Deem and Ramdas Pophale) SiO2 
 PCOD9134755
Probable space group: C C
;
_chemical_formula_sum "Si O2"
_cell_formula_units_Z 24
_cell_length_a 18.727935
_cell_length_b 4.717823
_cell_length_c 13.828506
_cell_angle_alpha 90.000000
_cell_angle_beta 137.053348
_cell_angle_gamma 90.000000
_cell_volume 832.446036
_symmetry_space_group_name_H-M "C C"
_symmetry_group_IT_number 9
_symmetry_cell_setting 'monoclinic'
loop_
_space_group_symop_operation_xyz
x,y,z
x,-y,1/2+z
1/2+x,1/2+y,z
1/2+x,1/2-y,1/2+z
loop_
_atom_site_type_symbol
_atom_site_label
_atom_site_fract_x
_atom_site_fract_y
_atom_site_fract_z
Si Si1 0.737180 0.665006 0.454270
Si Si2 0.416217 0.629341 0.601503
Si Si3 0.547459 0.555394 0.392904
Si Si4 0.984772 0.629346 0.543058
Si Si5 0.663808 0.334989 0.190290
Si Si6 0.853529 0.444644 0.251658
O O1 0.809730 0.942302 0.508712
O O2 0.632175 0.726072 0.412344
O O3 0.700494 0.499994 0.322281
O O4 0.798793 0.473926 0.596417
O O5 0.492787 0.670884 0.769315
O O6 0.415983 0.919617 0.543511
O O7 0.485011 0.419619 0.601057
O O8 0.602193 0.473938 0.548141
O O9 0.450498 0.750032 0.322287
O O10 0.908194 0.670920 0.375244
O O11 0.091260 0.442313 0.635847
O O12 0.768816 0.273947 0.232218
#
# Coordination Sequence:
#
# PCOD9134755 Si02
#       6
#     4   4   4   4   4   4
#     4  10  19  40  71  99 142 185 239 287 363 423
#     4  11  23  42  71 103 141 184 236 294 355 422
#     4   9  20  39  67 100 140 181 235 292 351 421
#     4  11  23  42  71 103 141 184 236 294 355 422
#     4  10  19  40  71  99 142 185 239 287 363 423
#     4   9  20  39  67 100 140 181 235 292 351 421
#
# _framework density 28.830698999999999
#
# number of rings (size 3 to 8) (size 9 to 14) (size 15 to 20)
#    0.000    2.000    3.333    0.000    0.000    1.333 
#    0.000   15.000    7.333    0.000    0.000    0.000 
#    0.000    0.000    0.000    0.000    0.000    0.000 
#
# Total GULP energy -67244.087575 kJ/mol
# GULP energy per Si atom -5603.673965 kJ/mol
# Density = 2.876508 g / cm^3
# Si number density = 28.830699 Si / 1000 Ang^3
#
#
#
# Elastic Constant Matrix: (Units=GPa)
#
#
# Indices 1 2 3 4 5 6 
#
# 1 181.9114 16.3005 69.3324 0.0012 4.7504 0.0009
# 2 16.3005 136.7842 50.4140 0.0042 -20.6586 0.0046
# 3 69.3324 50.4140 226.5312 0.0012 -39.8691 0.0012
# 4 0.0012 0.0042 0.0012 48.9601 0.0007 -1.3282
# 5 4.7504 -20.6586 -39.8691 0.0007 75.3264 0.0004
# 6 0.0009 0.0046 0.0012 -1.3282 0.0004 31.8744
#
#
#
# Elastic Compliance Matrix: (Units=1/GPa)
#
#
# Indices 1 2 3 4 5 6 
#
# 1 0.006395 -0.000197 -0.002199 0.000000 -0.001621 0.000000
# 2 -0.000197 0.008101 -0.001488 -0.000001 0.001447 -0.000001
# 3 -0.002199 -0.001488 0.005923 0.000000 0.002865 0.000000
# 4 0.000000 -0.000001 0.000000 0.020448 0.000000 0.000852
# 5 -0.001621 0.001447 0.002865 0.000000 0.015291 0.000000
# 6 0.000000 -0.000001 0.000000 0.000852 0.000000 0.031409
#
#
# Mechanical properties :
#
#
# Convention : Reuss Voigt Hill
#
# Bulk Modulus (GPa) = 79.03809 90.81340 84.92574
# Shear Modulus (GPa) = 50.22529 58.51083 54.36806
#
# Velocity S-wave (km/s) = 4.17835 4.50984 4.34726
# Velocity P-wave (km/s) = 7.12406 7.66064 7.39722
#
# Compressibility (1/GPa) = 0.01265213
#
# Stress axis : x y z
#
# Youngs Moduli (GPa) = 156.36748 123.43909 168.83629
#
# Poissons Ratio (x) = 0.02426 0.37125
# Poissons Ratio (y) = 0.03073 0.25126
# Poissons Ratio (z) = 0.34383 0.18370
#
# Static dielectric constant tensor:
#      x y z
#    x 2.449540 0.000000 -0.029560 
#    y 0.000000 2.255240 -0.000010 
#    z -0.029560 -0.000010 2.352010 
# 
# From -- ./inp_files/26990.got.cif
#   From: 2010.05.17/outbox.cif.g08.bks.cpg/sg9_14_cif.got.tgz:26990.got - 2010.06.03 20:04:27.
