data_PCOD9134919
_publ_section_title
;
Structure prediction by ZEFSAII (Michael W. Deem and Ramdas Pophale) SiO2 
 PCOD9134919
Probable space group: C C
;
_chemical_formula_sum "Si O2"
_cell_formula_units_Z 32
_cell_length_a 13.084572
_cell_length_b 7.656849
_cell_length_c 14.332961
_cell_angle_alpha 90.000000
_cell_angle_beta 77.732932
_cell_angle_gamma 90.000000
_cell_volume 1403.184232
_symmetry_space_group_name_H-M "C C"
_symmetry_group_IT_number 9
_symmetry_cell_setting 'monoclinic'
loop_
_space_group_symop_operation_xyz
x,y,z
x,-y,1/2+z
1/2+x,1/2+y,z
1/2+x,1/2-y,1/2+z
loop_
_atom_site_type_symbol
_atom_site_label
_atom_site_fract_x
_atom_site_fract_y
_atom_site_fract_z
Si Si1 0.441140 0.238017 0.480010
Si Si2 0.291139 0.914108 0.140320
Si Si3 0.457446 0.522249 0.627671
Si Si4 0.790297 0.757958 0.231502
Si Si5 0.611791 0.834883 0.599835
Si Si6 0.893496 0.213329 0.294728
Si Si7 0.250997 0.447084 0.417790
Si Si8 0.489178 0.936279 0.795184
O O1 0.387886 0.080451 0.548928
O O2 0.482895 0.375243 0.547288
O O3 0.344565 0.338764 0.449277
O O4 0.514833 0.172513 0.382870
O O5 0.203353 0.794437 0.113719
O O6 0.335224 0.810251 0.220780
O O7 0.246834 0.100637 0.179074
O O8 0.337330 0.590734 0.656277
O O9 0.521877 0.695443 0.593029
O O10 0.464705 0.434786 0.729881
O O11 0.724565 0.844414 0.326919
O O12 0.889922 0.664632 0.265602
O O13 0.654713 0.949878 0.507023
O O14 0.573846 0.941228 0.697133
O O15 0.957045 0.368759 0.329242
O O16 0.807370 0.124776 0.376459
#
# Coordination Sequence:
#
# PCOD9134919 Si02
#       8
#     4   4   4   4   4   4   4   4
#     4   9  18  33  54  78 107 148 186 217 269 341
#     4   9  18  34  55  79 107 141 185 230 273 323
#     4   9  18  34  56  79 108 145 187 229 271 325
#     4   8  16  33  55  76 103 145 183 215 269 338
#     4  10  20  35  54  84 118 140 177 240 279 311
#     4   9  18  37  57  74 104 153 191 218 271 342
#     4   9  18  34  55  79 108 141 182 228 276 327
#     4   9  18  34  54  77 109 145 183 225 268 321
#
# _framework density 22.805273
#
# number of rings (size 3 to 8) (size 9 to 14) (size 15 to 20)
#    0.000    3.000    0.000    0.750    0.000    2.000 
#    0.000   16.250    0.000    0.000    0.000    0.000 
#    0.000    0.000    0.000    0.000    0.000    0.000 
#
# Total GULP energy -89274.787655 kJ/mol
# GULP energy per Si atom -5579.674228 kJ/mol
# Density = 2.275337 g / cm^3
# Si number density = 22.805273 Si / 1000 Ang^3
#
#
#
# Elastic Constant Matrix: (Units=GPa)
#
#
# Indices 1 2 3 4 5 6 
#
# 1 17.4299 -4.5953 18.4861 0.0000 -5.0277 0.0000
# 2 -4.5953 110.8852 67.6045 0.0000 -11.4781 0.0000
# 3 18.4861 67.6045 186.3608 0.0000 -35.0220 0.0000
# 4 0.0000 0.0000 0.0000 10.3938 0.0000 6.1326
# 5 -5.0277 -11.4781 -35.0220 0.0000 25.9868 0.0000
# 6 0.0000 0.0000 0.0000 6.1326 0.0000 16.9546
#
#
#
# Elastic Compliance Matrix: (Units=1/GPa)
#
#
# Indices 1 2 3 4 5 6 
#
# 1 0.071341 0.009263 -0.009474 0.000000 0.005126 0.000000
# 2 0.009263 0.012792 -0.005572 0.000000 -0.000067 0.000000
# 3 -0.009474 -0.005572 0.010071 0.000000 0.009278 0.000000
# 4 0.000000 0.000000 0.000000 0.122315 0.000000 -0.044242
# 5 0.005126 -0.000067 0.009278 0.000000 0.051947 0.000000
# 6 0.000000 0.000000 0.000000 -0.044242 0.000000 0.074984
#
#
# Mechanical properties :
#
#
# Convention : Reuss Voigt Hill
#
# Bulk Modulus (GPa) = 12.10083 53.07406 32.58745
# Shear Modulus (GPa) = 13.06981 26.21242 19.64112
#
# Velocity S-wave (km/s) = 2.39656 3.39396 2.93790
# Velocity P-wave (km/s) = 3.60217 6.21947 5.08220
#
# Compressibility (1/GPa) = 0.08263898
#
# Stress axis : x y z
#
# Youngs Moduli (GPa) = 14.01714 78.17117 99.29932
#
# Poissons Ratio (x) = -0.72410 0.94072
# Poissons Ratio (y) = -0.12984 0.55330
# Poissons Ratio (z) = 0.13279 0.43557
#
# Static dielectric constant tensor:
#      x y z
#    x 1.917690 0.000000 -0.001870 
#    y 0.000000 1.870740 0.000000 
#    z -0.001870 0.000000 1.872120 
# 
# From -- ./inp_files/25393.got.cif
#   From: 2010.05.17/outbox.cif.g08.bks.cpg/sg9_13_cif.got.tgz:25393.got - 2010.06.03 20:04:27.
