data_PCOD9134766
_publ_section_title
;
Structure prediction by ZEFSAII (Michael W. Deem and Ramdas Pophale) SiO2 
 PCOD9134766
Probable space group: C C
;
_chemical_formula_sum "Si O2"
_cell_formula_units_Z 32
_cell_length_a 7.079864
_cell_length_b 20.317505
_cell_length_c 8.940806
_cell_angle_alpha 90.000000
_cell_angle_beta 88.635061
_cell_angle_gamma 90.000000
_cell_volume 1285.726855
_symmetry_space_group_name_H-M "C C"
_symmetry_group_IT_number 9
_symmetry_cell_setting 'monoclinic'
loop_
_space_group_symop_operation_xyz
x,y,z
x,-y,1/2+z
1/2+x,1/2+y,z
1/2+x,1/2-y,1/2+z
loop_
_atom_site_type_symbol
_atom_site_label
_atom_site_fract_x
_atom_site_fract_y
_atom_site_fract_z
Si Si1 0.647840 0.331054 0.327700
Si Si2 0.982551 0.740531 0.896897
Si Si3 0.512486 0.916718 0.744313
Si Si4 0.238414 0.709966 0.156514
Si Si5 0.115774 0.057704 0.289633
Si Si6 0.434734 0.634319 0.560320
Si Si7 0.645339 0.032164 0.543383
Si Si8 0.480034 0.447442 0.470901
O O1 0.859285 0.326292 0.387982
O O2 0.613408 0.256036 0.274247
O O3 0.609920 0.366561 0.170217
O O4 0.508300 0.370792 0.437130
O O5 0.942863 0.771042 0.729043
O O6 0.880278 0.792580 0.011029
O O7 0.177558 0.729740 0.986712
O O8 0.662076 0.863244 0.685047
O O9 0.293631 0.900573 0.731355
O O10 0.536435 0.985077 0.656147
O O11 0.531916 0.928904 0.920321
O O12 0.003953 0.039766 0.144576
O O13 0.000448 0.101314 0.406529
O O14 0.139708 0.988855 0.378549
O O15 0.268191 0.588612 0.622904
O O16 0.782159 0.982903 0.445379
#
# Coordination Sequence:
#
# PCOD9134766 Si02
#       8
#     4   4   4   4   4   4   4   4
#     4   9  19  35  64  87 123 156 215 255 312 371
#     4   9  18  36  66  90 122 170 205 272 312 380
#     4  12  23  40  59  94 128 161 208 270 317 370
#     4   9  20  37  63  89 126 164 212 262 321 373
#     4  11  24  37  61  88 130 161 210 261 328 378
#     4  10  19  41  62  93 120 171 211 259 318 390
#     4  11  22  37  65  89 125 164 210 262 316 376
#     4  11  21  39  60  92 118 171 209 253 318 396
#
# _framework density 24.888645
#
# number of rings (size 3 to 8) (size 9 to 14) (size 15 to 20)
#    0.750    1.000    1.250    5.250    0.000    0.000 
#    0.000    3.750    0.000    6.000    0.000    0.000 
#    0.000    0.000    0.000    0.000    0.000    0.000 
#
# Total GULP energy -89116.277118 kJ/mol
# GULP energy per Si atom -5569.767320 kJ/mol
# Density = 2.483200 g / cm^3
# Si number density = 24.888645 Si / 1000 Ang^3
#
#
#
# Elastic Constant Matrix: (Units=GPa)
#
#
# Indices 1 2 3 4 5 6 
#
# 1 47.3317 -2.0255 23.5385 0.0000 18.7108 0.0000
# 2 -2.0255 57.4089 13.9769 0.0000 10.1008 0.0000
# 3 23.5385 13.9769 119.1836 0.0000 35.7143 0.0000
# 4 0.0000 0.0000 0.0000 32.2483 0.0000 8.1693
# 5 18.7108 10.1008 35.7143 0.0000 39.2575 0.0000
# 6 0.0000 0.0000 0.0000 8.1693 0.0000 23.0795
#
#
#
# Elastic Compliance Matrix: (Units=1/GPa)
#
#
# Indices 1 2 3 4 5 6 
#
# 1 0.027046 0.003570 -0.002230 0.000000 -0.011780 0.000000
# 2 0.003570 0.018804 -0.001307 0.000000 -0.005351 0.000000
# 3 -0.002230 -0.001307 0.011775 0.000000 -0.009313 0.000000
# 4 0.000000 0.000000 0.000000 0.034064 0.000000 -0.012057
# 5 -0.011780 -0.005351 -0.009313 0.000000 0.040937 0.000000
# 6 0.000000 0.000000 0.000000 -0.012057 0.000000 0.047596
#
#
# Mechanical properties :
#
#
# Convention : Reuss Voigt Hill
#
# Bulk Modulus (GPa) = 17.33362 32.76710 25.05036
# Shear Modulus (GPa) = 25.07684 31.47934 28.27809
#
# Velocity S-wave (km/s) = 3.17765 3.56027 3.37439
# Velocity P-wave (km/s) = 4.52138 5.48587 5.02681
#
# Compressibility (1/GPa) = 0.05769136
#
# Stress axis : x y z
#
# Youngs Moduli (GPa) = 36.97372 53.17878 84.92701
#
# Poissons Ratio (x) = -0.18984 0.18940
# Poissons Ratio (y) = -0.13199 0.11099
# Poissons Ratio (z) = 0.08246 0.06950
#
# Static dielectric constant tensor:
#      x y z
#    x 2.017570 0.000000 0.033780 
#    y 0.000000 2.077860 0.000000 
#    z 0.033780 0.000000 1.963890 
# 
# From -- ./inp_files/5938.got.cif
#   From: 2010.05.17/outbox.cif.g08.bks.cpg/sg9_3_cif.got.tgz:5938.got - 2010.06.03 20:04:27.
