data_PCOD9134316
_publ_section_title
;
Structure prediction by ZEFSAII (Michael W. Deem and Ramdas Pophale) SiO2 
 PCOD9134316
Probable space group: C C
;
_chemical_formula_sum "Si O2"
_cell_formula_units_Z 28
_cell_length_a 13.815469
_cell_length_b 16.085773
_cell_length_c 5.700003
_cell_angle_alpha 90.000000
_cell_angle_beta 125.518740
_cell_angle_gamma 90.000000
_cell_volume 1031.020570
_symmetry_space_group_name_H-M "C C"
_symmetry_group_IT_number 9
_symmetry_cell_setting 'monoclinic'
loop_
_space_group_symop_operation_xyz
x,y,z
x,-y,1/2+z
1/2+x,1/2+y,z
1/2+x,1/2-y,1/2+z
loop_
_atom_site_type_symbol
_atom_site_label
_atom_site_fract_x
_atom_site_fract_y
_atom_site_fract_z
Si Si1 0.025290 0.818510 0.346470
Si Si2 0.031145 0.017482 0.590820
Si Si3 0.303320 0.381158 0.328341
Si Si4 0.749589 0.280404 0.998061
Si Si5 0.802176 0.539949 0.449477
Si Si6 0.622172 0.803055 0.702455
Si Si7 0.611853 0.978451 0.563227
O O1 0.132873 0.793548 0.668805
O O2 0.006888 0.735106 0.167382
O O3 0.053171 0.888656 0.195289
O O4 0.923190 0.862633 0.351914
O O5 0.972829 0.019649 0.249176
O O6 0.157614 0.972404 0.741849
O O7 0.308643 0.309762 0.534486
O O8 0.205541 0.343566 0.013202
O O9 0.238248 0.471206 0.277786
O O10 0.824389 0.362863 0.041802
O O11 0.696814 0.269523 0.182449
O O12 0.837030 0.487555 0.733382
O O13 0.607643 0.879920 0.507159
O O14 0.557463 0.013879 0.247415
#
# Coordination Sequence:
#
# PCOD9134316 Si02
#       7
#     4   4   4   4   4   4   4
#     4  11  23  38  63  97 134 173 226 277 341 408
#     4  10  19  34  54  91 126 163 202 263 327 397
#     4  10  24  40  62  99 130 174 224 288 334 406
#     4  11  21  40  64  89 135 176 218 272 348 408
#     4  10  19  34  58  90 120 163 208 260 325 400
#     4  10  22  40  65  92 134 184 219 276 343 415
#     4  10  20  42  64  94 133 179 223 276 342 408
#
# _framework density 27.157558000000002
#
# number of rings (size 3 to 8) (size 9 to 14) (size 15 to 20)
#    0.000    1.714    4.286    1.714    2.000    3.429 
#    0.000    0.000    0.000    5.143    0.000    0.000 
#    0.000    0.000    0.000    0.000    0.000    0.000 
#
# Total GULP energy -78056.831862 kJ/mol
# GULP energy per Si atom -5575.487990 kJ/mol
# Density = 2.709575 g / cm^3
# Si number density = 27.157558 Si / 1000 Ang^3
#
#
#
# Elastic Constant Matrix: (Units=GPa)
#
#
# Indices 1 2 3 4 5 6 
#
# 1 113.3950 55.3969 38.1400 0.0000 -27.2681 0.0000
# 2 55.3969 150.3001 6.6158 0.0000 -21.4194 0.0000
# 3 38.1400 6.6158 105.4576 0.0000 -17.7521 0.0000
# 4 0.0000 0.0000 0.0000 36.3298 0.0000 -39.0703
# 5 -27.2681 -21.4194 -17.7521 0.0000 58.4595 0.0000
# 6 0.0000 0.0000 0.0000 -39.0703 0.0000 31.4541
#
#
#
# Elastic Compliance Matrix: (Units=1/GPa)
#
#
# Indices 1 2 3 4 5 6 
#
# 1 0.012934 -0.004120 -0.003855 0.000000 0.003353 0.000000
# 2 -0.004120 0.008332 0.001220 0.000000 0.001502 0.000000
# 3 -0.003855 0.001220 0.011142 0.000000 0.002032 0.000000
# 4 0.000000 0.000000 0.000000 -0.081960 0.000000 -0.101806
# 5 0.003353 0.001502 0.002032 0.000000 0.019837 0.000000
# 6 0.000000 0.000000 0.000000 -0.101806 0.000000 -0.094665
#
#
# Mechanical properties :
#
#
# Convention : Reuss Voigt Hill
#
# Bulk Modulus (GPa) = 52.91195 63.27314 58.09255
# Shear Modulus (GPa) = -47.81465 43.18199 -2.31633
#
# Velocity S-wave (km/s) = -4.20055 3.99187 -0.92454
# Velocity P-wave (km/s) = 2.00013 6.67801 4.50529
#
# Compressibility (1/GPa) = 0.01889932
#
# Stress axis : x y z
#
# Youngs Moduli (GPa) = 77.31417 120.01790 89.74838
#
# Poissons Ratio (x) = 0.49444 0.34598
# Poissons Ratio (y) = 0.31851 -0.10950
# Poissons Ratio (z) = 0.29804 -0.14643
#
# Static dielectric constant tensor:
#      x y z
#    x 2.206220 0.000000 0.034570 
#    y 0.000000 2.374530 0.000000 
#    z 0.034570 0.000000 2.150630 
# 
# From -- ./inp_files/2419.got.cif
#   From: 2010.05.17/outbox.cif.g08.bks.cpg/sg9_2_cif.got.tgz:2419.got - 2010.06.03 20:04:27.
