data_PCOD9134440
_publ_section_title
;
Structure prediction by ZEFSAII (Michael W. Deem and Ramdas Pophale) SiO2 
 PCOD9134440
Probable space group: C C
;
_chemical_formula_sum "Si O2"
_cell_formula_units_Z 32
_cell_length_a 11.682328
_cell_length_b 13.198006
_cell_length_c 12.929821
_cell_angle_alpha 90.000000
_cell_angle_beta 138.677956
_cell_angle_gamma 90.000000
_cell_volume 1316.331834
_symmetry_space_group_name_H-M "C C"
_symmetry_group_IT_number 9
_symmetry_cell_setting 'monoclinic'
loop_
_space_group_symop_operation_xyz
x,y,z
x,-y,1/2+z
1/2+x,1/2+y,z
1/2+x,1/2-y,1/2+z
loop_
_atom_site_type_symbol
_atom_site_label
_atom_site_fract_x
_atom_site_fract_y
_atom_site_fract_z
Si Si1 0.683390 0.902523 0.458150
Si Si2 0.002569 0.434432 0.975785
Si Si3 0.695125 0.433456 0.288304
Si Si4 0.797538 0.392668 0.139526
Si Si5 0.838698 0.374652 0.589533
Si Si6 0.786427 0.055165 0.804288
Si Si7 0.481195 0.264290 0.353886
Si Si8 0.993095 0.082343 0.297866
O O1 0.494960 0.855259 0.299420
O O2 0.788949 0.925046 0.425925
O O3 0.832624 0.858298 0.635593
O O4 0.623574 0.006126 0.476022
O O5 0.087895 0.466753 0.141019
O O6 0.809025 0.471077 0.833857
O O7 0.984491 0.317520 0.945295
O O8 0.687133 0.378746 0.171975
O O9 0.823077 0.373999 0.454313
O O10 0.545871 0.486701 0.256857
O O11 0.832272 0.511472 0.129990
O O12 0.668510 0.362323 0.956836
O O13 0.653108 0.327012 0.488287
O O14 0.969976 0.299824 0.739108
O O15 0.829770 0.155772 0.768482
O O16 0.910268 0.969164 0.843950
#
# Coordination Sequence:
#
# PCOD9134440 Si02
#       8
#     4   4   4   4   4   4   4   4
#     4  10  21  35  56  89 120 156 197 248 292 356
#     4  10  22  35  59  90 114 157 205 239 297 357
#     4  10  19  36  60  85 117 164 196 246 292 357
#     4  10  19  38  59  87 116 159 202 243 288 356
#     4  11  22  37  58  90 125 153 200 248 309 356
#     4  11  20  35  56  88 125 152 191 253 301 352
#     4  12  21  36  55  92 123 147 193 255 302 353
#     4  10  20  32  55  91 118 148 206 244 295 345
#
# _framework density 24.309979999999999
#
# number of rings (size 3 to 8) (size 9 to 14) (size 15 to 20)
#    0.000    1.500    6.250    2.250    0.000    0.000 
#    0.000    0.000    0.000    0.000   32.500    0.000 
#    0.000    0.000    0.000    0.000    0.000    0.000 
#
# Total GULP energy -89070.968009 kJ/mol
# GULP energy per Si atom -5566.935501 kJ/mol
# Density = 2.425465 g / cm^3
# Si number density = 24.309980 Si / 1000 Ang^3
#
#
#
# Elastic Constant Matrix: (Units=GPa)
#
#
# Indices 1 2 3 4 5 6 
#
# 1 96.9103 0.1496 15.0181 0.0000 -12.3629 0.0000
# 2 0.1496 28.9091 4.8005 0.0000 9.8621 0.0000
# 3 15.0181 4.8005 167.3548 0.0001 1.9087 0.0000
# 4 0.0000 0.0000 0.0001 24.5440 0.0000 -5.2618
# 5 -12.3629 9.8621 1.9087 0.0000 43.3929 0.0000
# 6 0.0000 0.0000 0.0000 -5.2618 0.0000 7.0137
#
#
#
# Elastic Compliance Matrix: (Units=1/GPa)
#
#
# Indices 1 2 3 4 5 6 
#
# 1 0.010906 -0.001049 -0.000987 0.000000 0.003389 0.000000
# 2 -0.001049 0.037760 -0.000888 0.000000 -0.008842 0.000000
# 3 -0.000987 -0.000888 0.006093 0.000000 -0.000347 0.000000
# 4 0.000000 0.000000 0.000000 0.048552 0.000000 0.036425
# 5 0.003389 -0.008842 -0.000347 0.000000 0.026036 0.000000
# 6 0.000000 0.000000 0.000000 0.036425 0.000000 0.169905
#
#
# Mechanical properties :
#
#
# Convention : Reuss Voigt Hill
#
# Bulk Modulus (GPa) = 20.44512 37.01230 28.72871
# Shear Modulus (GPa) = 15.55673 33.20384 24.38028
#
# Velocity S-wave (km/s) = 2.53243 3.69975 3.17028
# Velocity P-wave (km/s) = 4.12060 5.78870 5.02436
#
# Compressibility (1/GPa) = 0.04891142
#
# Stress axis : x y z
#
# Youngs Moduli (GPa) = 91.69472 26.48280 164.11305
#
# Poissons Ratio (x) = 0.02777 0.16202
# Poissons Ratio (y) = 0.09615 0.14577
# Poissons Ratio (z) = 0.09052 0.02352
#
# Static dielectric constant tensor:
#      x y z
#    x 2.010310 0.000000 -0.043590 
#    y 0.000000 1.938870 0.000000 
#    z -0.043590 0.000000 2.098620 
# 
# From -- ./inp_files/24865.got.cif
#   From: 2010.05.17/outbox.cif.g08.bks.cpg/sg9_13_cif.got.tgz:24865.got - 2010.06.03 20:04:27.
