data_PCOD9134338
_publ_section_title
;
Structure prediction by ZEFSAII (Michael W. Deem and Ramdas Pophale) SiO2 
 PCOD9134338
Probable space group: C C
;
_chemical_formula_sum "Si O2"
_cell_formula_units_Z 28
_cell_length_a 12.259013
_cell_length_b 17.181576
_cell_length_c 9.387116
_cell_angle_alpha 90.000000
_cell_angle_beta 136.663185
_cell_angle_gamma 90.000000
_cell_volume 1356.924625
_symmetry_space_group_name_H-M "C C"
_symmetry_group_IT_number 9
_symmetry_cell_setting 'monoclinic'
loop_
_space_group_symop_operation_xyz
x,y,z
x,-y,1/2+z
1/2+x,1/2+y,z
1/2+x,1/2-y,1/2+z
loop_
_atom_site_type_symbol
_atom_site_label
_atom_site_fract_x
_atom_site_fract_y
_atom_site_fract_z
Si Si1 0.426210 0.621593 0.799000
Si Si2 0.718157 0.475898 0.457334
Si Si3 0.867909 0.835478 0.956296
Si Si4 0.269900 0.543052 0.175388
Si Si5 0.401354 0.070723 0.861984
Si Si6 0.185214 0.788212 0.104494
Si Si7 0.016308 0.872971 0.699999
O O1 0.586767 0.586253 0.880985
O O2 0.353744 0.678670 0.610686
O O3 0.311467 0.547147 0.704243
O O4 0.464237 0.651481 0.992956
O O5 0.800319 0.509663 0.675100
O O6 0.849150 0.441722 0.475230
O O7 0.632100 0.551490 0.305462
O O8 0.836961 0.925594 0.890167
O O9 0.747716 0.790115 0.737350
O O10 0.045043 0.817142 0.074165
O O11 0.367786 0.592958 0.150716
O O12 0.083638 0.558011 0.999358
O O13 0.337415 0.155242 0.756347
O O14 0.104939 0.804274 0.873584
#
# Coordination Sequence:
#
# PCOD9134338 Si02
#       7
#     4   4   4   4   4   4   4
#     4  11  20  38  61  92 125 162 205 259 310 357
#     4  10  19  34  59  88 124 163 201 252 311 355
#     4  11  22  41  64  87 121 168 212 253 302 382
#     4  10  22  35  61  92 129 163 204 250 312 363
#     4  11  21  35  59  95 128 160 205 257 302 368
#     4  10  22  41  63  85 122 172 210 241 314 379
#     4   9  20  38  57  87 125 168 199 254 307 370
#
# _framework density 20.634896999999999
#
# number of rings (size 3 to 8) (size 9 to 14) (size 15 to 20)
#    0.000    1.714    2.857    3.429    4.000    0.000 
#    0.000    2.857    0.000    0.000    0.000    0.000 
#    0.000    0.000    0.000    0.000    0.000    0.000 
#
# Total GULP energy -78113.265485 kJ/mol
# GULP energy per Si atom -5579.518963 kJ/mol
# Density = 2.058793 g / cm^3
# Si number density = 20.634897 Si / 1000 Ang^3
#
#
#
# Elastic Constant Matrix: (Units=GPa)
#
#
# Indices 1 2 3 4 5 6 
#
# 1 76.0542 16.1900 57.3853 0.0000 -5.9333 0.0000
# 2 16.1900 43.9155 39.4322 0.0000 -6.2462 0.0000
# 3 57.3853 39.4322 102.2286 0.0000 -20.0461 0.0000
# 4 0.0000 0.0000 0.0000 28.4527 0.0000 -0.6671
# 5 -5.9333 -6.2462 -20.0461 0.0000 56.9309 0.0000
# 6 0.0000 0.0000 0.0000 -0.6671 0.0000 1.6244
#
#
#
# Elastic Compliance Matrix: (Units=1/GPa)
#
#
# Indices 1 2 3 4 5 6 
#
# 1 0.023803 0.005061 -0.015810 0.000000 -0.002531 0.000000
# 2 0.005061 0.035963 -0.017010 0.000000 -0.001516 0.000000
# 3 -0.015810 -0.017010 0.026348 0.000000 0.005764 0.000000
# 4 0.000000 0.000000 0.000000 0.035488 0.000000 0.014573
# 5 -0.002531 -0.001516 0.005764 0.000000 0.019164 0.000000
# 6 0.000000 0.000000 0.000000 0.014573 0.000000 0.621614
#
#
# Mechanical properties :
#
#
# Convention : Reuss Voigt Hill
#
# Bulk Modulus (GPa) = 32.68436 49.80147 41.24292
# Shear Modulus (GPa) = 6.03794 24.68099 15.35947
#
# Velocity S-wave (km/s) = 1.71244 3.46219 2.73123
# Velocity P-wave (km/s) = 4.44788 6.33793 5.47508
#
# Compressibility (1/GPa) = 0.03059567
#
# Stress axis : x y z
#
# Youngs Moduli (GPa) = 42.01180 27.80630 37.95334
#
# Poissons Ratio (x) = -0.14072 0.60004
# Poissons Ratio (y) = -0.21261 0.64559
# Poissons Ratio (z) = 0.66420 0.47299
#
# Static dielectric constant tensor:
#      x y z
#    x 1.723970 0.000000 -0.013750 
#    y 0.000000 1.797860 0.000000 
#    z -0.013750 0.000000 1.770290 
# 
# From -- ./inp_files/7853.got.cif
#   From: 2010.05.17/outbox.cif.g08.bks.cpg/sg9_4_cif.got.tgz:7853.got - 2010.06.03 20:04:27.
