data_PCOD9134144
_publ_section_title
;
Structure prediction by ZEFSAII (Michael W. Deem and Ramdas Pophale) SiO2 
 PCOD9134144
Probable space group: C C
;
_chemical_formula_sum "Si O2"
_cell_formula_units_Z 32
_cell_length_a 17.939817
_cell_length_b 7.828646
_cell_length_c 12.314597
_cell_angle_alpha 90.000000
_cell_angle_beta 132.923333
_cell_angle_gamma 90.000000
_cell_volume 1266.465939
_symmetry_space_group_name_H-M "C C"
_symmetry_group_IT_number 9
_symmetry_cell_setting 'monoclinic'
loop_
_space_group_symop_operation_xyz
x,y,z
x,-y,1/2+z
1/2+x,1/2+y,z
1/2+x,1/2-y,1/2+z
loop_
_atom_site_type_symbol
_atom_site_label
_atom_site_fract_x
_atom_site_fract_y
_atom_site_fract_z
Si Si1 0.695700 0.574768 0.115560
Si Si2 0.599716 0.617711 0.316163
Si Si3 0.533758 0.271251 0.132286
Si Si4 0.850682 0.152955 0.668496
Si Si5 0.666240 0.993135 0.380131
Si Si6 0.532471 0.159100 0.431185
Si Si7 0.870435 0.558544 0.888390
Si Si8 0.439060 0.324515 0.819525
O O1 0.777606 0.705156 0.145085
O O2 0.755911 0.504458 0.280933
O O3 0.661655 0.457495 0.981178
O O4 0.600965 0.694254 0.050356
O O5 0.567526 0.450372 0.216122
O O6 0.489580 0.677957 0.253405
O O7 0.653837 0.795296 0.336920
O O8 0.612173 0.124091 0.244007
O O9 0.418406 0.186735 0.023372
O O10 0.528007 0.304262 0.997044
O O11 0.782342 0.054963 0.511725
O O12 0.960588 0.245243 0.771690
O O13 0.878499 0.998166 0.777697
O O14 0.604319 0.031161 0.432980
O O15 0.457977 0.078155 0.446716
O O16 0.866973 0.666706 0.772521
#
# Coordination Sequence:
#
# PCOD9134144 Si02
#       8
#     4   4   4   4   4   4   4   4
#     4  10  20  36  69  95 125 183 224 270 338 409
#     4  12  21  41  71  97 133 182 221 275 353 398
#     4  10  23  42  63 103 137 170 223 295 325 397
#     4  10  19  36  68  94 128 179 218 271 342 401
#     4  11  21  39  68  94 131 177 223 280 336 400
#     4  10  18  37  67  95 128 178 229 266 337 412
#     4   9  21  39  63  95 138 174 217 286 337 386
#     4  10  21  40  65  91 134 177 213 279 342 395
#
# _framework density 25.267163
#
# number of rings (size 3 to 8) (size 9 to 14) (size 15 to 20)
#    0.750    1.000    5.000    0.750    0.000    2.000 
#    0.000    2.500   13.750    0.000    0.000    0.000 
#    0.000    0.000    0.000    0.000    0.000    0.000 
#
# Total GULP energy -89226.585318 kJ/mol
# GULP energy per Si atom -5576.661582 kJ/mol
# Density = 2.520965 g / cm^3
# Si number density = 25.267163 Si / 1000 Ang^3
#
#
#
# Elastic Constant Matrix: (Units=GPa)
#
#
# Indices 1 2 3 4 5 6 
#
# 1 26.5748 19.7500 28.2237 0.0000 10.1550 0.0000
# 2 19.7500 166.1740 66.6288 0.0000 3.0962 0.0000
# 3 28.2237 66.6288 164.4233 0.0000 11.0285 0.0000
# 4 0.0000 0.0000 0.0000 54.7703 0.0000 5.0307
# 5 10.1550 3.0962 11.0285 0.0000 28.1797 0.0000
# 6 0.0000 0.0000 0.0000 5.0307 0.0000 26.8414
#
#
#
# Elastic Compliance Matrix: (Units=1/GPa)
#
#
# Indices 1 2 3 4 5 6 
#
# 1 0.053490 -0.003356 -0.006730 0.000000 -0.016273 0.000000
# 2 -0.003356 0.007399 -0.002515 0.000000 0.001381 0.000000
# 3 -0.006730 -0.002515 0.008293 0.000000 -0.000544 0.000000
# 4 0.000000 0.000000 0.000000 0.018578 0.000000 -0.003482
# 5 -0.016273 0.001381 -0.000544 0.000000 0.041412 0.000000
# 6 0.000000 0.000000 0.000000 -0.003482 0.000000 0.037909
#
#
# Mechanical properties :
#
#
# Convention : Reuss Voigt Hill
#
# Bulk Modulus (GPa) = 22.73758 65.15302 43.94530
# Shear Modulus (GPa) = 24.16133 38.12958 31.14546
#
# Velocity S-wave (km/s) = 3.09566 3.88887 3.51471
# Velocity P-wave (km/s) = 4.66861 6.78278 5.82245
#
# Compressibility (1/GPa) = 0.04398005
#
# Stress axis : x y z
#
# Youngs Moduli (GPa) = 18.69512 135.14819 120.58684
#
# Poissons Ratio (x) = 0.45349 0.81160
# Poissons Ratio (y) = 0.06273 0.30328
# Poissons Ratio (z) = 0.12583 0.33990
#
# Static dielectric constant tensor:
#      x y z
#    x 2.157530 0.000000 -0.006140 
#    y 0.000000 2.032880 0.000000 
#    z -0.006140 0.000000 2.021430 
# 
# From -- ./inp_files/31678.got.cif
#   From: 2010.05.17/outbox.cif.g08.bks.cpg/sg9_16_cif.got.tgz:31678.got - 2010.06.03 20:04:27.
