data_PCOD9134514
_publ_section_title
;
Structure prediction by ZEFSAII (Michael W. Deem and Ramdas Pophale) SiO2 
 PCOD9134514
Probable space group: C C
;
_chemical_formula_sum "Si O2"
_cell_formula_units_Z 32
_cell_length_a 8.663547
_cell_length_b 12.134011
_cell_length_c 23.446463
_cell_angle_alpha 90.000000
_cell_angle_beta 31.461967
_cell_angle_gamma 90.000000
_cell_volume 1286.446617
_symmetry_space_group_name_H-M "C C"
_symmetry_group_IT_number 9
_symmetry_cell_setting 'monoclinic'
loop_
_space_group_symop_operation_xyz
x,y,z
x,-y,1/2+z
1/2+x,1/2+y,z
1/2+x,1/2-y,1/2+z
loop_
_atom_site_type_symbol
_atom_site_label
_atom_site_fract_x
_atom_site_fract_y
_atom_site_fract_z
Si Si1 0.088560 0.936940 0.350690
Si Si2 0.086911 0.456221 0.047501
Si Si3 0.680105 0.158701 0.779476
Si Si4 0.583900 0.918042 0.831376
Si Si5 0.519779 0.155782 0.961052
Si Si6 0.456719 0.776241 0.177327
Si Si7 0.130668 0.894955 0.741911
Si Si8 0.291753 0.916497 0.031197
O O1 0.344238 0.846442 0.267562
O O2 0.814196 0.878545 0.402831
O O3 0.196067 0.037084 0.278018
O O4 0.916704 0.999999 0.455478
O O5 0.939371 0.364426 0.132714
O O6 0.891317 0.565561 0.117952
O O7 0.057585 0.403446 0.993602
O O8 0.008633 0.127780 0.653497
O O9 0.627005 0.188300 0.863331
O O10 0.608628 0.269464 0.767495
O O11 0.523024 0.037333 0.823202
O O12 0.335875 0.872412 0.953201
O O13 0.729351 0.826148 0.745244
O O14 0.847126 0.935294 0.795335
O O15 0.308857 0.048378 0.017883
O O16 0.295713 0.238206 0.063689
#
# Coordination Sequence:
#
# PCOD9134514 Si02
#       8
#     4   4   4   4   4   4   4   4
#     4  10  20  39  61  94 122 166 224 266 326 404
#     4  10  19  37  61  90 122 169 217 267 331 401
#     4  11  20  35  63  91 120 163 221 273 323 393
#     4  11  21  39  58  94 127 166 220 275 327 401
#     4  10  19  37  63  92 123 164 214 276 326 394
#     4  11  22  35  67  93 129 168 218 276 341 399
#     4  11  20  35  63  88 118 165 220 266 321 392
#     4  10  19  37  62  88 121 161 222 265 323 394
#
# _framework density 24.87472
#
# number of rings (size 3 to 8) (size 9 to 14) (size 15 to 20)
#    0.000    1.500    6.250    2.250    1.750    0.000 
#    0.000    0.000   13.750    0.000    0.000    0.000 
#    0.000    0.000    0.000    0.000    0.000    0.000 
#
# Total GULP energy -89127.248559 kJ/mol
# GULP energy per Si atom -5570.453035 kJ/mol
# Density = 2.481810 g / cm^3
# Si number density = 24.874720 Si / 1000 Ang^3
#
#
#
# Elastic Constant Matrix: (Units=GPa)
#
#
# Indices 1 2 3 4 5 6 
#
# 1 27.1129 41.6529 24.7964 -0.0101 0.2423 -0.0073
# 2 41.6529 148.1159 56.1524 -0.0014 14.9816 -0.0030
# 3 24.7964 56.1524 172.6227 -0.0050 3.5369 -0.0211
# 4 -0.0101 -0.0014 -0.0050 57.5175 -0.0043 2.9847
# 5 0.2423 14.9816 3.5369 -0.0043 18.6730 0.0061
# 6 -0.0073 -0.0030 -0.0211 2.9847 0.0061 21.6032
#
#
#
# Elastic Compliance Matrix: (Units=1/GPa)
#
#
# Indices 1 2 3 4 5 6 
#
# 1 0.071423 -0.020181 -0.004023 0.000012 0.016027 0.000011
# 2 -0.020181 0.014066 -0.001456 -0.000004 -0.010748 -0.000003
# 3 -0.004023 -0.001456 0.006846 0.000000 -0.000076 0.000005
# 4 0.000012 -0.000004 0.000000 0.017512 0.000008 -0.002419
# 5 0.016027 -0.010748 -0.000076 0.000008 0.061983 -0.000015
# 6 0.000011 -0.000003 0.000005 -0.002419 -0.000015 0.046624
#
#
# Mechanical properties :
#
#
# Convention : Reuss Voigt Hill
#
# Bulk Modulus (GPa) = 24.38212 65.89498 45.13855
# Shear Modulus (GPa) = 17.64001 34.57539 26.10770
#
# Velocity S-wave (km/s) = 2.66588 3.73229 3.24322
# Velocity P-wave (km/s) = 4.39308 6.71726 5.67542
#
# Compressibility (1/GPa) = 0.04101365
#
# Stress axis : x y z
#
# Youngs Moduli (GPa) = 14.00104 71.09305 146.06646
#
# Poissons Ratio (x) = 1.43476 0.58765
# Poissons Ratio (y) = 0.28256 0.21273
# Poissons Ratio (z) = 0.05633 0.10354
#
# Static dielectric constant tensor:
#      x y z
#    x 1.991860 0.000020 0.016070 
#    y 0.000020 2.022250 -0.000030 
#    z 0.016070 -0.000030 2.093290 
# 
# From -- ./inp_files/29992.got.cif
#   From: 2010.05.17/outbox.cif.g08.bks.cpg/sg9_15_cif.got.tgz:29992.got - 2010.06.03 20:04:27.
