data_PCOD9134219
_publ_section_title
;
Structure prediction by ZEFSAII (Michael W. Deem and Ramdas Pophale) SiO2 
 PCOD9134219
Probable space group: C C
;
_chemical_formula_sum "Si O2"
_cell_formula_units_Z 32
_cell_length_a 15.349472
_cell_length_b 14.765660
_cell_length_c 5.730810
_cell_angle_alpha 90.000000
_cell_angle_beta 122.065250
_cell_angle_gamma 90.000000
_cell_volume 1100.711122
_symmetry_space_group_name_H-M "C C"
_symmetry_group_IT_number 9
_symmetry_cell_setting 'monoclinic'
loop_
_space_group_symop_operation_xyz
x,y,z
x,-y,1/2+z
1/2+x,1/2+y,z
1/2+x,1/2-y,1/2+z
loop_
_atom_site_type_symbol
_atom_site_label
_atom_site_fract_x
_atom_site_fract_y
_atom_site_fract_z
Si Si1 0.313550 0.446494 0.089250
Si Si2 0.945796 0.302088 0.320332
Si Si3 0.696957 0.700543 0.453039
Si Si4 0.045989 0.500279 0.465373
Si Si5 0.025871 0.047392 0.755001
Si Si6 0.943391 0.697919 0.317663
Si Si7 0.709829 0.243228 0.469264
Si Si8 0.241614 0.001164 0.039653
O O1 0.308008 0.492897 0.341035
O O2 0.425582 0.398659 0.197033
O O3 0.239107 0.361683 0.990235
O O4 0.979757 0.407732 0.369466
O O5 0.980772 0.267629 0.620979
O O6 0.821908 0.292323 0.141545
O O7 0.974739 0.260859 0.111610
O O8 0.664550 0.745785 0.164710
O O9 0.679791 0.593500 0.434646
O O10 0.660085 0.739149 0.645968
O O11 0.103026 0.504035 0.796513
O O12 0.980194 0.592732 0.372780
O O13 0.147232 0.072540 0.923741
O O14 0.014070 0.022525 0.462550
O O15 0.818386 0.700461 0.133675
O O16 0.295994 0.004355 0.866826
#
# Coordination Sequence:
#
# PCOD9134219 Si02
#       8
#     4   4   4   4   4   4   4   4
#     4  10  19  33  52  68  85 119 173 219 254 292
#     4   8  14  21  30  44  67 102 140 168 192 243
#     4  10  19  28  40  62  94 126 157 198 243 296
#     4   8  12  18  27  39  58  89 128 159 184 225
#     4   8  16  30  47  67  88 115 166 216 242 273
#     4   8  14  22  31  45  68  96 129 174 212 244
#     4  10  19  30  42  62  89 118 159 203 250 298
#     4  10  19  30  45  67  97 135 176 201 235 295
#
# _framework density 29.072116000000001
#
# number of rings (size 3 to 8) (size 9 to 14) (size 15 to 20)
#    0.000    3.000    0.000    1.500    0.000    5.000 
#    0.000    0.000    0.000    0.000    0.000    0.000 
#    0.000    0.000    0.000    0.000    0.000 1912.500 
#
# Total GULP energy -89326.539841 kJ/mol
# GULP energy per Si atom -5582.908740 kJ/mol
# Density = 2.900595 g / cm^3
# Si number density = 29.072116 Si / 1000 Ang^3
#
#
#
# Elastic Constant Matrix: (Units=GPa)
#
#
# Indices 1 2 3 4 5 6 
#
# 1 151.4540 18.2085 89.1092 0.0000 -60.2147 0.0000
# 2 18.2085 88.4119 57.8734 0.0000 -18.1512 0.0000
# 3 89.1092 57.8734 341.9297 0.0000 -90.6438 0.0000
# 4 0.0000 0.0000 0.0000 40.3618 0.0000 -22.0831
# 5 -60.2147 -18.1512 -90.6438 0.0000 71.6792 0.0000
# 6 0.0000 0.0000 0.0000 -22.0831 0.0000 -18.4039
#
#
#
# Elastic Compliance Matrix: (Units=1/GPa)
#
#
# Indices 1 2 3 4 5 6 
#
# 1 0.009988 -0.000123 -0.000551 0.000000 0.007663 0.000000
# 2 -0.000123 0.012748 -0.001951 0.000000 0.000657 0.000000
# 3 -0.000551 -0.001951 0.004731 0.000000 0.005025 0.000000
# 4 0.000000 0.000000 0.000000 0.014957 0.000000 -0.017947
# 5 0.007663 0.000657 0.005025 0.000000 0.026910 0.000000
# 6 0.000000 0.000000 0.000000 -0.017947 0.000000 -0.032802
#
#
# Mechanical properties :
#
#
# Convention : Reuss Voigt Hill
#
# Bulk Modulus (GPa) = 45.01239 101.35309 73.18274
# Shear Modulus (GPa) = 101.65031 46.50105 74.07568
#
# Velocity S-wave (km/s) = 5.91953 4.00372 5.05325
# Velocity P-wave (km/s) = 7.88909 7.50409 7.69900
#
# Compressibility (1/GPa) = 0.02221610
#
# Stress axis : x y z
#
# Youngs Moduli (GPa) = 100.11893 78.44155 211.38975
#
# Poissons Ratio (x) = 0.00968 0.11641
# Poissons Ratio (y) = 0.01235 0.41252
# Poissons Ratio (z) = 0.05513 0.15307
#
# Static dielectric constant tensor:
#      x y z
#    x 2.257070 0.000000 0.051260 
#    y 0.000000 2.309970 0.000000 
#    z 0.051260 0.000000 2.229150 
# 
# From -- ./inp_files/2922.got.cif
#   From: 2010.05.17/outbox.cif.g08.bks.cpg/sg9_2_cif.got.tgz:2922.got - 2010.06.03 20:04:27.
