data_PCOD9134869
_publ_section_title
;
Structure prediction by ZEFSAII (Michael W. Deem and Ramdas Pophale) SiO2 
 PCOD9134869
Probable space group: C C
;
_chemical_formula_sum "Si O2"
_cell_formula_units_Z 32
_cell_length_a 25.735341
_cell_length_b 8.502838
_cell_length_c 8.731701
_cell_angle_alpha 90.000000
_cell_angle_beta 40.316706
_cell_angle_gamma 90.000000
_cell_volume 1236.246595
_symmetry_space_group_name_H-M "C C"
_symmetry_group_IT_number 9
_symmetry_cell_setting 'monoclinic'
loop_
_space_group_symop_operation_xyz
x,y,z
x,-y,1/2+z
1/2+x,1/2+y,z
1/2+x,1/2-y,1/2+z
loop_
_atom_site_type_symbol
_atom_site_label
_atom_site_fract_x
_atom_site_fract_y
_atom_site_fract_z
Si Si1 0.741550 0.780347 0.570610
Si Si2 0.696380 0.055263 0.484914
Si Si3 0.387299 0.197816 0.448019
Si Si4 0.528735 0.569703 0.350285
Si Si5 0.565860 0.855914 0.478995
Si Si6 0.164064 0.145021 0.469265
Si Si7 0.297234 0.798542 0.448147
Si Si8 0.420641 0.572160 0.333001
O O1 0.702256 0.880574 0.798880
O O2 0.820425 0.698406 0.463571
O O3 0.686318 0.662477 0.597851
O O4 0.754146 0.912313 0.408583
O O5 0.610889 0.028496 0.761008
O O6 0.732376 0.202881 0.495916
O O7 0.352662 0.135221 0.687282
O O8 0.402089 0.389359 0.419749
O O9 0.472690 0.114211 0.226775
O O10 0.561639 0.698157 0.388738
O O11 0.462971 0.643576 0.385833
O O12 0.484893 0.439785 0.551446
O O13 0.599745 0.491630 0.097223
O O14 0.621013 0.803817 0.499871
O O15 0.244180 0.111927 0.192737
O O16 0.349771 0.674058 0.424917
#
# Coordination Sequence:
#
# PCOD9134869 Si02
#       8
#     4   4   4   4   4   4   4   4
#     4  11  23  36  62  92 126 157 204 253 310 368
#     4  10  21  37  58  94 123 163 198 255 305 365
#     4  10  20  37  59  96 123 155 204 266 308 351
#     4  11  22  37  60  92 125 160 199 257 310 366
#     4  10  22  39  61  91 126 161 203 258 311 364
#     4  11  23  37  55  97 127 163 197 258 313 369
#     4  10  20  33  57  88 129 156 197 250 315 356
#     4  11  19  34  62  90 121 153 204 263 308 349
#
# _framework density 25.884801
#
# number of rings (size 3 to 8) (size 9 to 14) (size 15 to 20)
#    0.000    1.500    5.000    1.500    7.000    0.000 
#    0.000    0.000    0.000    0.000   61.750    0.000 
#    0.000    0.000    0.000    0.000    0.000    0.000 
#
# Total GULP energy -89475.155795 kJ/mol
# GULP energy per Si atom -5592.197237 kJ/mol
# Density = 2.582589 g / cm^3
# Si number density = 25.884801 Si / 1000 Ang^3
#
#
#
# Elastic Constant Matrix: (Units=GPa)
#
#
# Indices 1 2 3 4 5 6 
#
# 1 195.4358 19.0050 68.4047 0.0000 16.6000 0.0000
# 2 19.0050 30.8825 34.6479 0.0000 7.2634 0.0000
# 3 68.4047 34.6479 194.5193 0.0000 3.1148 0.0000
# 4 0.0000 0.0000 0.0000 34.2692 0.0000 6.3080
# 5 16.6000 7.2634 3.1148 0.0000 35.4938 0.0000
# 6 0.0000 0.0000 0.0000 6.3080 0.0000 26.9092
#
#
#
# Elastic Compliance Matrix: (Units=1/GPa)
#
#
# Indices 1 2 3 4 5 6 
#
# 1 0.006099 -0.001011 -0.001925 0.000000 -0.002477 0.000000
# 2 -0.001011 0.042827 -0.007150 0.000000 -0.007664 0.000000
# 3 -0.001925 -0.007150 0.007064 0.000000 0.001744 0.000000
# 4 0.000000 0.000000 0.000000 0.030497 0.000000 -0.007149
# 5 -0.002477 -0.007664 0.001744 0.000000 0.030748 0.000000
# 6 0.000000 0.000000 0.000000 -0.007149 0.000000 0.038838
#
#
# Mechanical properties :
#
#
# Convention : Reuss Voigt Hill
#
# Bulk Modulus (GPa) = 27.91938 73.88364 50.90151
# Shear Modulus (GPa) = 26.56971 39.25311 32.91141
#
# Velocity S-wave (km/s) = 3.20732 3.89839 3.56962
# Velocity P-wave (km/s) = 4.95230 6.99060 6.05780
#
# Compressibility (1/GPa) = 0.03581742
#
# Stress axis : x y z
#
# Youngs Moduli (GPa) = 163.95394 23.34954 141.57235
#
# Poissons Ratio (x) = 0.02361 0.27254
# Poissons Ratio (y) = 0.16578 1.01226
# Poissons Ratio (z) = 0.31563 0.16695
#
# Static dielectric constant tensor:
#      x y z
#    x 2.014220 0.000000 -0.021620 
#    y 0.000000 2.078060 0.000000 
#    z -0.021620 0.000000 2.115100 
# 
# From -- ./inp_files/9269.got.cif
#   From: 2010.05.17/outbox.cif.g08.bks.cpg/sg9_5_cif.got.tgz:9269.got - 2010.06.03 20:04:27.
