data_PCOD9134456
_publ_section_title
;
Structure prediction by ZEFSAII (Michael W. Deem and Ramdas Pophale) SiO2 
 PCOD9134456
Probable space group: C C
;
_chemical_formula_sum "Si O2"
_cell_formula_units_Z 28
_cell_length_a 26.847857
_cell_length_b 5.047134
_cell_length_c 14.083516
_cell_angle_alpha 90.000000
_cell_angle_beta 141.898373
_cell_angle_gamma 90.000000
_cell_volume 1177.583456
_symmetry_space_group_name_H-M "C C"
_symmetry_group_IT_number 9
_symmetry_cell_setting 'monoclinic'
loop_
_space_group_symop_operation_xyz
x,y,z
x,-y,1/2+z
1/2+x,1/2+y,z
1/2+x,1/2-y,1/2+z
loop_
_atom_site_type_symbol
_atom_site_label
_atom_site_fract_x
_atom_site_fract_y
_atom_site_fract_z
Si Si1 0.786310 0.155957 0.112930
Si Si2 0.023308 0.021674 0.826983
Si Si3 0.617025 0.943270 0.689887
Si Si4 0.867879 0.258451 0.586194
Si Si5 0.719518 0.560344 0.335878
Si Si6 0.624648 0.008192 0.925680
Si Si7 0.449337 0.150141 0.859476
O O1 0.865611 0.268927 0.282688
O O2 0.817571 0.941647 0.080367
O O3 0.741264 0.379581 0.980514
O O4 0.719800 0.044533 0.084252
O O5 0.074955 0.776015 0.867056
O O6 0.986987 0.916729 0.871165
O O7 0.081504 0.272165 0.915605
O O8 0.940856 0.097427 0.646254
O O9 0.652636 0.659766 0.715433
O O10 0.620120 0.943900 0.807877
O O11 0.523952 0.981408 0.523715
O O12 0.678960 0.164913 0.744826
O O13 0.804269 0.431173 0.430613
O O14 0.917136 0.466206 0.725560
#
# Coordination Sequence:
#
# PCOD9134456 Si02
#       7
#     4   4   4   4   4   4   4
#     4   9  20  37  66  88 118 166 215 246 292 387
#     4  11  23  38  63  91 128 161 207 258 313 368
#     4  11  23  37  65  97 121 157 212 264 299 363
#     4  10  19  41  61  93 115 171 208 250 292 394
#     4  10  19  36  61  91 119 154 214 251 291 359
#     4  11  21  39  63  93 121 162 212 260 308 358
#     4  10  23  40  65  95 126 163 210 253 313 369
#
# _framework density 23.777511000000001
#
# number of rings (size 3 to 8) (size 9 to 14) (size 15 to 20)
#    0.000    1.714    4.286    1.714    6.000    0.000 
#    0.000    0.000    3.143    6.857    0.000    0.000 
#    0.000    0.000    0.000    0.000    0.000    0.000 
#
# Total GULP energy -78133.515270 kJ/mol
# GULP energy per Si atom -5580.965376 kJ/mol
# Density = 2.372339 g / cm^3
# Si number density = 23.777511 Si / 1000 Ang^3
#
#
#
# Elastic Constant Matrix: (Units=GPa)
#
#
# Indices 1 2 3 4 5 6 
#
# 1 52.7652 20.8851 17.4796 0.0000 27.0013 -0.0001
# 2 20.8851 144.1807 43.7713 0.0000 30.3286 -0.0001
# 3 17.4796 43.7713 146.7433 0.0000 32.5438 0.0000
# 4 0.0000 0.0000 0.0000 32.7906 0.0000 17.0316
# 5 27.0013 30.3286 32.5438 0.0000 41.0341 -0.0001
# 6 -0.0001 -0.0001 0.0000 17.0316 -0.0001 21.8547
#
#
#
# Elastic Compliance Matrix: (Units=1/GPa)
#
#
# Indices 1 2 3 4 5 6 
#
# 1 0.028695 -0.000380 0.000996 0.000000 -0.019391 0.000000
# 2 -0.000380 0.008440 -0.001389 0.000000 -0.004887 0.000000
# 3 0.000996 -0.001389 0.008528 0.000000 -0.006392 0.000000
# 4 0.000000 0.000000 0.000000 0.051236 0.000000 -0.039928
# 5 -0.019391 -0.004887 -0.006392 0.000000 0.045811 0.000000
# 6 0.000000 0.000000 0.000000 -0.039928 0.000000 0.076873
#
#
# Mechanical properties :
#
#
# Convention : Reuss Voigt Hill
#
# Bulk Modulus (GPa) = 22.66667 56.44015 39.55341
# Shear Modulus (GPa) = 21.20127 36.57275 28.88701
#
# Velocity S-wave (km/s) = 2.98929 3.92615 3.48931
# Velocity P-wave (km/s) = 4.63336 6.65891 5.73625
#
# Compressibility (1/GPa) = 0.04411763
#
# Stress axis : x y z
#
# Youngs Moduli (GPa) = 34.84898 118.47892 117.26306
#
# Poissons Ratio (x) = 0.04502 -0.11675
# Poissons Ratio (y) = 0.01324 0.16282
# Poissons Ratio (z) = -0.03470 0.16451
#
# Static dielectric constant tensor:
#      x y z
#    x 1.965170 0.000000 0.008770 
#    y 0.000000 1.964380 0.000000 
#    z 0.008770 0.000000 1.970710 
# 
# From -- ./inp_files/26314.got.cif
#   From: 2010.05.17/outbox.cif.g08.bks.cpg/sg9_14_cif.got.tgz:26314.got - 2010.06.03 20:04:27.
