data_PCOD9134349
_publ_section_title
;
Structure prediction by ZEFSAII (Michael W. Deem and Ramdas Pophale) SiO2 
 PCOD9134349
Probable space group: C C
;
_chemical_formula_sum "Si O2"
_cell_formula_units_Z 32
_cell_length_a 13.275928
_cell_length_b 21.878950
_cell_length_c 10.424972
_cell_angle_alpha 90.000000
_cell_angle_beta 32.179749
_cell_angle_gamma 90.000000
_cell_volume 1612.682220
_symmetry_space_group_name_H-M "C C"
_symmetry_group_IT_number 9
_symmetry_cell_setting 'monoclinic'
loop_
_space_group_symop_operation_xyz
x,y,z
x,-y,1/2+z
1/2+x,1/2+y,z
1/2+x,1/2-y,1/2+z
loop_
_atom_site_type_symbol
_atom_site_label
_atom_site_fract_x
_atom_site_fract_y
_atom_site_fract_z
Si Si1 0.988740 0.393657 0.694750
Si Si2 0.005593 0.182496 0.234003
Si Si3 0.682080 0.454030 0.851657
Si Si4 0.019859 0.475360 0.282095
Si Si5 0.699467 0.215051 0.381051
Si Si6 0.304787 0.604494 0.642006
Si Si7 0.256633 0.078413 0.867613
Si Si8 0.880466 0.328447 0.050311
O O1 0.796643 0.410142 0.825144
O O2 0.048091 0.453936 0.713421
O O3 0.153560 0.381862 0.415448
O O4 0.949434 0.338273 0.833329
O O5 0.872396 0.178238 0.252431
O O6 0.877143 0.165661 0.492682
O O7 0.103951 0.247885 0.103280
O O8 0.162222 0.129814 0.057840
O O9 0.839806 0.469759 0.572751
O O10 0.640795 0.516490 0.973238
O O11 0.491094 0.427280 0.999536
O O12 0.951075 0.442590 0.225130
O O13 0.194775 0.440455 0.160363
O O14 0.766690 0.267451 0.209157
O O15 0.552647 0.174544 0.464747
O O16 0.270727 0.111510 0.715357
#
# Coordination Sequence:
#
# PCOD9134349 Si02
#       8
#     4   4   4   4   4   4   4   4
#     4  10  23  38  56  87 129 158 188 232 297 355
#     4  10  20  38  60  88 110 152 199 256 292 337
#     4  10  21  38  55  89 125 158 190 225 286 372
#     4  10  20  37  57  88 123 155 194 232 281 361
#     4   9  21  38  64  85 107 145 217 253 293 334
#     4  11  23  37  60  89 123 158 195 233 293 357
#     4  10  19  34  62  84 119 155 186 246 298 335
#     4  10  19  40  58  84 116 151 193 257 294 339
#
# _framework density 19.84272
#
# number of rings (size 3 to 8) (size 9 to 14) (size 15 to 20)
#    0.000    2.000    2.500    0.750    1.750    1.000 
#    6.750    1.250    0.000    0.000    0.000    0.000 
#    0.000    0.000    0.000    0.000    0.000    0.000 
#
# Total GULP energy -89214.215708 kJ/mol
# GULP energy per Si atom -5575.888482 kJ/mol
# Density = 1.979756 g / cm^3
# Si number density = 19.842720 Si / 1000 Ang^3
#
#
#
# Elastic Constant Matrix: (Units=GPa)
#
#
# Indices 1 2 3 4 5 6 
#
# 1 66.5159 32.7170 28.0425 -0.0001 -6.1870 0.0001
# 2 32.7170 42.2122 16.2843 -0.0008 4.7362 0.0001
# 3 28.0425 16.2843 73.3474 -0.0036 8.6379 -0.0004
# 4 -0.0001 -0.0008 -0.0036 14.1961 0.0006 10.3419
# 5 -6.1870 4.7362 8.6379 0.0006 37.8900 -0.0001
# 6 0.0001 0.0001 -0.0004 10.3419 -0.0001 19.3952
#
#
#
# Elastic Compliance Matrix: (Units=1/GPa)
#
#
# Indices 1 2 3 4 5 6 
#
# 1 0.029366 -0.020823 -0.007682 -0.000005 0.009149 0.000003
# 2 -0.020823 0.040820 -0.000103 0.000004 -0.008479 -0.000002
# 3 -0.007682 -0.000103 0.017201 0.000007 -0.005163 -0.000003
# 4 -0.000005 0.000004 0.000007 0.115186 -0.000005 -0.061419
# 5 0.009149 -0.008479 -0.005163 -0.000005 0.030123 0.000003
# 6 0.000003 -0.000002 -0.000003 -0.061419 0.000003 0.084309
#
#
# Mechanical properties :
#
#
# Convention : Reuss Voigt Hill
#
# Bulk Modulus (GPa) = 33.14359 37.35144 35.24751
# Shear Modulus (GPa) = 13.01138 21.29837 17.15487
#
# Velocity S-wave (km/s) = 2.56349 3.27977 2.94350
# Velocity P-wave (km/s) = 5.04989 5.76256 5.41796
#
# Compressibility (1/GPa) = 0.03017175
#
# Stress axis : x y z
#
# Youngs Moduli (GPa) = 34.05316 24.49758 58.13455
#
# Poissons Ratio (x) = 0.51012 0.44657
# Poissons Ratio (y) = 0.70911 0.00598
# Poissons Ratio (z) = 0.26158 0.00252
#
# Static dielectric constant tensor:
#      x y z
#    x 1.690540 0.000000 0.028310 
#    y 0.000000 1.699490 0.000000 
#    z 0.028310 0.000000 1.771670 
# 
# From -- ./inp_files/18622.got.cif
#   From: 2010.05.17/outbox.cif.g08.bks.cpg/sg9_10_cif.got.tgz:18622.got - 2010.06.03 20:04:27.
