data_PCOD9134341
_publ_section_title
;
Structure prediction by ZEFSAII (Michael W. Deem and Ramdas Pophale) SiO2 
 PCOD9134341
Probable space group: C C
;
_chemical_formula_sum "Si O2"
_cell_formula_units_Z 28
_cell_length_a 15.781741
_cell_length_b 10.445398
_cell_length_c 9.298534
_cell_angle_alpha 90.000000
_cell_angle_beta 43.348652
_cell_angle_gamma 90.000000
_cell_volume 1052.190783
_symmetry_space_group_name_H-M "C C"
_symmetry_group_IT_number 9
_symmetry_cell_setting 'monoclinic'
loop_
_space_group_symop_operation_xyz
x,y,z
x,-y,1/2+z
1/2+x,1/2+y,z
1/2+x,1/2-y,1/2+z
loop_
_atom_site_type_symbol
_atom_site_label
_atom_site_fract_x
_atom_site_fract_y
_atom_site_fract_z
Si Si1 0.956380 0.802685 0.815370
Si Si2 0.348086 0.462585 0.581990
Si Si3 0.480894 0.066323 0.954438
Si Si4 0.617599 0.451888 0.814286
Si Si5 0.945914 0.286579 0.005439
Si Si6 0.678037 0.323130 0.044960
Si Si7 0.643335 0.928484 0.519774
O O1 0.910595 0.681641 0.964936
O O2 0.971921 0.753080 0.636522
O O3 0.867326 0.926761 0.938793
O O4 0.085136 0.843502 0.734583
O O5 0.478657 0.489097 0.502593
O O6 0.350565 0.689006 0.052104
O O7 0.225616 0.479836 0.820221
O O8 0.589050 0.016567 0.713792
O O9 0.532545 0.108103 0.045136
O O10 0.408728 0.933766 0.060901
O O11 0.653200 0.396959 0.925081
O O12 0.695820 0.562728 0.637252
O O13 0.064455 0.258967 0.758271
O O14 0.740313 0.190281 0.919414
#
# Coordination Sequence:
#
# PCOD9134341 Si02
#       7
#     4   4   4   4   4   4   4
#     4  10  20  38  61  84 117 163 199 240 290 376
#     4   9  22  35  66  84 123 147 206 246 304 343
#     4  11  22  38  62  85 124 155 204 243 303 357
#     4   9  18  33  59  86 114 161 200 233 285 367
#     4  10  21  37  59  91 111 163 203 244 290 373
#     4  10  19  34  60  88 121 156 207 242 295 358
#     4  11  22  37  59  94 120 153 197 266 299 344
#
# _framework density 26.611142999999998
#
# number of rings (size 3 to 8) (size 9 to 14) (size 15 to 20)
#    0.857    1.143    2.857    1.714    2.000    0.000 
#    0.000    0.000    6.286    0.000    0.000    0.000 
#    0.000    0.000    0.000    0.000    0.000    0.000 
#
# Total GULP energy -78048.263836 kJ/mol
# GULP energy per Si atom -5574.875988 kJ/mol
# Density = 2.655058 g / cm^3
# Si number density = 26.611143 Si / 1000 Ang^3
#
#
#
# Elastic Constant Matrix: (Units=GPa)
#
#
# Indices 1 2 3 4 5 6 
#
# 1 89.1010 12.1255 38.3639 0.0000 47.6314 0.0000
# 2 12.1255 166.5076 20.1124 0.0000 24.4734 0.0000
# 3 38.3639 20.1124 92.3208 0.0000 39.9930 0.0000
# 4 0.0000 0.0000 0.0000 22.1893 0.0000 21.0189
# 5 47.6314 24.4734 39.9930 0.0000 39.4143 0.0000
# 6 0.0000 0.0000 0.0000 21.0189 0.0000 12.0240
#
#
#
# Elastic Compliance Matrix: (Units=1/GPa)
#
#
# Indices 1 2 3 4 5 6 
#
# 1 0.036516 0.004443 0.007439 0.000000 -0.054436 0.000000
# 2 0.004443 0.007168 0.001510 0.000000 -0.011353 0.000000
# 3 0.007439 0.001510 0.020898 0.000000 -0.031133 0.000000
# 4 0.000000 0.000000 0.000000 -0.068714 0.000000 0.120116
# 5 -0.054436 -0.011353 -0.031133 0.000000 0.129795 0.000000
# 6 0.000000 0.000000 0.000000 0.120116 0.000000 -0.126805
#
#
# Mechanical properties :
#
#
# Convention : Reuss Voigt Hill
#
# Bulk Modulus (GPa) = 10.94489 54.34812 32.64650
# Shear Modulus (GPa) = 1977.33645 33.21405 1005.27525
#
# Velocity S-wave (km/s) = 27.28848 3.53671 19.45726
# Velocity P-wave (km/s) = 31.57536 6.09469 22.73927
#
# Compressibility (1/GPa) = 0.09136686
#
# Stress axis : x y z
#
# Youngs Moduli (GPa) = 27.38559 139.50090 47.85163
#
# Poissons Ratio (x) = -0.61984 -0.35598
# Poissons Ratio (y) = -0.12168 -0.07225
# Poissons Ratio (z) = -0.20373 -0.21063
#
# Static dielectric constant tensor:
#      x y z
#    x 2.223670 0.000000 -0.048490 
#    y 0.000000 2.424410 0.000000 
#    z -0.048490 0.000000 2.152710 
# 
# From -- ./inp_files/8908.got.cif
#   From: 2010.05.17/outbox.cif.g08.bks.cpg/sg9_5_cif.got.tgz:8908.got - 2010.06.03 20:04:27.
