data_PCOD9134190
_publ_section_title
;
Structure prediction by ZEFSAII (Michael W. Deem and Ramdas Pophale) SiO2 
 PCOD9134190
Probable space group: C C
;
_chemical_formula_sum "Si O2"
_cell_formula_units_Z 32
_cell_length_a 9.411984
_cell_length_b 23.174554
_cell_length_c 9.123126
_cell_angle_alpha 90.000000
_cell_angle_beta 42.737986
_cell_angle_gamma 90.000000
_cell_volume 1350.454682
_symmetry_space_group_name_H-M "C C"
_symmetry_group_IT_number 9
_symmetry_cell_setting 'monoclinic'
loop_
_space_group_symop_operation_xyz
x,y,z
x,-y,1/2+z
1/2+x,1/2+y,z
1/2+x,1/2-y,1/2+z
loop_
_atom_site_type_symbol
_atom_site_label
_atom_site_fract_x
_atom_site_fract_y
_atom_site_fract_z
Si Si1 0.826560 0.929388 0.089640
Si Si2 0.104132 0.600193 0.379583
Si Si3 0.852635 0.571023 0.840522
Si Si4 0.586883 0.291812 0.269888
Si Si5 0.953808 0.008335 0.214539
Si Si6 0.859762 0.206781 0.218728
Si Si7 0.141590 0.160243 0.216403
Si Si8 0.389704 0.170500 0.313015
O O1 0.579882 0.931031 0.245309
O O2 0.875621 0.947189 0.217237
O O3 0.925057 0.978198 0.906957
O O4 0.955108 0.873380 0.942253
O O5 0.292641 0.554786 0.259956
O O6 0.184853 0.660117 0.392481
O O7 0.910278 0.579371 0.626779
O O8 0.027975 0.618886 0.275844
O O9 0.694066 0.518227 0.986114
O O10 0.726591 0.621488 0.018596
O O11 0.769554 0.267264 0.236611
O O12 0.438561 0.319384 0.502783
O O13 0.489368 0.233400 0.273690
O O14 0.681059 0.329504 0.071131
O O15 0.029547 0.212513 0.217213
O O16 0.324306 0.169185 0.194407
#
# Coordination Sequence:
#
# PCOD9134190 Si02
#       8
#     4   4   4   4   4   4   4   4
#     4  10  23  40  57  94 122 158 210 256 300 367
#     4  10  20  39  62  88 116 168 207 240 300 387
#     4  10  20  40  62  84 120 168 199 250 299 365
#     4   9  21  39  60  88 123 164 201 259 302 378
#     4  10  22  38  61  87 124 159 212 247 306 364
#     4  10  18  40  61  85 117 160 212 237 304 376
#     4  11  22  39  61  94 122 161 205 256 306 368
#     4  10  22  37  60  92 128 152 208 259 317 357
#
# _framework density 23.695723000000001
#
# number of rings (size 3 to 8) (size 9 to 14) (size 15 to 20)
#    0.000    2.000    3.750    0.750    0.000    8.000 
#    6.750    0.000    0.000    0.000    0.000    0.000 
#    0.000    0.000    0.000    0.000    0.000    0.000 
#
# Total GULP energy -89294.481771 kJ/mol
# GULP energy per Si atom -5580.905111 kJ/mol
# Density = 2.364179 g / cm^3
# Si number density = 23.695723 Si / 1000 Ang^3
#
#
#
# Elastic Constant Matrix: (Units=GPa)
#
#
# Indices 1 2 3 4 5 6 
#
# 1 114.6225 12.3227 4.4606 0.0000 4.5592 0.0000
# 2 12.3227 19.3417 4.2647 0.0000 -1.1623 0.0000
# 3 4.4606 4.2647 64.1005 0.0000 -20.7746 0.0000
# 4 0.0000 0.0000 0.0000 13.3427 0.0000 1.4426
# 5 4.5592 -1.1623 -20.7746 0.0000 36.5851 0.0000
# 6 0.0000 0.0000 0.0000 1.4426 0.0000 32.1320
#
#
#
# Elastic Compliance Matrix: (Units=1/GPa)
#
#
# Indices 1 2 3 4 5 6 
#
# 1 0.009472 -0.005956 -0.000866 0.000000 -0.001862 0.000000
# 2 -0.005956 0.056221 -0.003072 0.000000 0.000784 0.000000
# 3 -0.000866 -0.003072 0.019448 0.000000 0.011054 0.000000
# 4 0.000000 0.000000 0.000000 0.075313 0.000000 -0.003381
# 5 -0.001862 0.000784 0.011054 0.000000 0.033867 0.000000
# 6 0.000000 0.000000 0.000000 -0.003381 0.000000 0.031273
#
#
# Mechanical properties :
#
#
# Convention : Reuss Voigt Hill
#
# Bulk Modulus (GPa) = 15.30157 26.68453 20.99305
# Shear Modulus (GPa) = 18.71494 28.21307 23.46401
#
# Velocity S-wave (km/s) = 2.81339 3.45431 3.15019
# Velocity P-wave (km/s) = 4.12615 5.21492 4.70216
#
# Compressibility (1/GPa) = 0.06535279
#
# Stress axis : x y z
#
# Youngs Moduli (GPa) = 105.57075 17.78703 51.42041
#
# Poissons Ratio (x) = 0.10593 0.04454
# Poissons Ratio (y) = 0.62875 0.15796
# Poissons Ratio (z) = 0.09145 0.05464
#
# Static dielectric constant tensor:
#      x y z
#    x 1.924260 0.000000 -0.028910 
#    y 0.000000 1.887290 0.000000 
#    z -0.028910 0.000000 1.953940 
# 
# From -- ./inp_files/6512.got.cif
#   From: 2010.05.17/outbox.cif.g08.bks.cpg/sg9_4_cif.got.tgz:6512.got - 2010.06.03 20:04:27.
