data_PCOD9134468
_publ_section_title
;
Structure prediction by ZEFSAII (Michael W. Deem and Ramdas Pophale) SiO2 
 PCOD9134468
Probable space group: C C
;
_chemical_formula_sum "Si O2"
_cell_formula_units_Z 24
_cell_length_a 9.462313
_cell_length_b 15.871406
_cell_length_c 9.814134
_cell_angle_alpha 90.000000
_cell_angle_beta 43.088606
_cell_angle_gamma 90.000000
_cell_volume 1006.855475
_symmetry_space_group_name_H-M "C C"
_symmetry_group_IT_number 9
_symmetry_cell_setting 'monoclinic'
loop_
_space_group_symop_operation_xyz
x,y,z
x,-y,1/2+z
1/2+x,1/2+y,z
1/2+x,1/2-y,1/2+z
loop_
_atom_site_type_symbol
_atom_site_label
_atom_site_fract_x
_atom_site_fract_y
_atom_site_fract_z
Si Si1 0.511080 0.170938 0.711770
Si Si2 0.053225 0.615728 0.265001
Si Si3 0.858415 0.849473 0.777105
Si Si4 0.901221 0.990719 0.086289
Si Si5 0.296454 0.955068 0.162422
Si Si6 0.592373 0.113723 0.942484
O O1 0.736664 0.140060 0.503474
O O2 0.500617 0.268960 0.683018
O O3 0.349776 0.116683 0.736440
O O4 0.487653 0.159137 0.888774
O O5 0.176676 0.668274 0.292609
O O6 0.199229 0.532127 0.154875
O O7 0.836352 0.587376 0.485540
O O8 0.063916 0.656430 0.109170
O O9 0.954465 0.936041 0.659248
O O10 0.822377 0.911066 0.228614
O O11 0.089727 0.996142 0.849325
O O12 0.475539 0.024873 0.045064
#
# Coordination Sequence:
#
# PCOD9134468 Si02
#       6
#     4   4   4   4   4   4
#     4  11  21  40  64  91 130 165 215 262 318 378
#     4   8  20  37  56  88 124 166 205 262 307 371
#     4   9  21  39  62  84 122 175 207 245 319 391
#     4   9  20  36  65  90 122 168 215 247 321 378
#     4  10  19  36  63  92 123 168 211 250 315 388
#     4  11  21  38  60  97 133 154 209 286 306 352
#
# _framework density 23.836590000000001
#
# number of rings (size 3 to 8) (size 9 to 14) (size 15 to 20)
#    1.000    1.333    1.667    3.000    0.000    2.667 
#    3.000    3.333    0.000    0.000    0.000    0.000 
#    0.000    0.000    0.000    0.000    0.000    0.000 
#
# Total GULP energy -66924.033946 kJ/mol
# GULP energy per Si atom -5577.002829 kJ/mol
# Density = 2.378234 g / cm^3
# Si number density = 23.836590 Si / 1000 Ang^3
#
#
#
# Elastic Constant Matrix: (Units=GPa)
#
#
# Indices 1 2 3 4 5 6 
#
# 1 48.3197 13.0675 66.3433 0.0000 18.5026 0.0002
# 2 13.0675 48.5113 -1.1016 0.0000 9.5947 0.0000
# 3 66.3433 -1.1016 180.3000 -0.0001 13.8031 0.0002
# 4 0.0000 0.0000 -0.0001 20.5862 0.0001 -1.2526
# 5 18.5026 9.5947 13.8031 0.0001 56.2784 -0.0002
# 6 0.0002 0.0000 0.0002 -1.2526 -0.0002 19.7342
#
#
#
# Elastic Compliance Matrix: (Units=1/GPa)
#
#
# Indices 1 2 3 4 5 6 
#
# 1 0.055546 -0.013196 -0.019663 0.000000 -0.011190 0.000000
# 2 -0.013196 0.024499 0.005088 0.000000 -0.001086 0.000000
# 3 -0.019663 0.005088 0.012621 0.000000 0.002502 0.000000
# 4 0.000000 0.000000 0.000000 0.048765 0.000000 0.003095
# 5 -0.011190 -0.001086 0.002502 0.000000 0.021019 0.000000
# 6 0.000000 0.000000 0.000000 0.003095 0.000000 0.050870
#
#
# Mechanical properties :
#
#
# Convention : Reuss Voigt Hill
#
# Bulk Modulus (GPa) = 26.93574 48.19437 37.56506
# Shear Modulus (GPa) = 17.77872 32.57453 25.17662
#
# Velocity S-wave (km/s) = 2.73400 3.70073 3.25348
# Velocity P-wave (km/s) = 4.61422 6.20670 5.46874
#
# Compressibility (1/GPa) = 0.03712540
#
# Stress axis : x y z
#
# Youngs Moduli (GPa) = 18.00308 40.81841 79.23292
#
# Poissons Ratio (x) = 0.53863 1.55794
# Poissons Ratio (y) = 0.23757 -0.40317
# Poissons Ratio (z) = 0.35399 -0.20770
#
# Static dielectric constant tensor:
#      x y z
#    x 1.966820 0.000000 0.022440 
#    y 0.000000 1.934810 0.000000 
#    z 0.022440 0.000000 1.973450 
# 
# From -- ./inp_files/8222.got.cif
#   From: 2010.05.17/outbox.cif.g08.bks.cpg/sg9_5_cif.got.tgz:8222.got - 2010.06.03 20:04:27.
