data_PCOD9134776
_publ_section_title
;
Structure prediction by ZEFSAII (Michael W. Deem and Ramdas Pophale) SiO2 
 PCOD9134776
Probable space group: C C
;
_chemical_formula_sum "Si O2"
_cell_formula_units_Z 32
_cell_length_a 8.960014
_cell_length_b 11.439375
_cell_length_c 18.266624
_cell_angle_alpha 90.000000
_cell_angle_beta 53.337452
_cell_angle_gamma 90.000000
_cell_volume 1501.874309
_symmetry_space_group_name_H-M "C C"
_symmetry_group_IT_number 9
_symmetry_cell_setting 'monoclinic'
loop_
_space_group_symop_operation_xyz
x,y,z
x,-y,1/2+z
1/2+x,1/2+y,z
1/2+x,1/2-y,1/2+z
loop_
_atom_site_type_symbol
_atom_site_label
_atom_site_fract_x
_atom_site_fract_y
_atom_site_fract_z
Si Si1 0.118770 0.888517 0.386290
Si Si2 0.548639 0.537104 0.737896
Si Si3 0.383411 0.073834 0.385742
Si Si4 0.555272 0.727201 0.482609
Si Si5 0.409761 0.927507 0.621479
Si Si6 0.830621 0.265915 0.775856
Si Si7 0.222843 0.618245 0.374858
Si Si8 0.274574 0.462358 0.026362
O O1 0.170602 0.753677 0.379852
O O2 0.273134 0.966825 0.382125
O O3 0.101895 0.924921 0.305803
O O4 0.920680 0.930059 0.478236
O O5 0.742264 0.507211 0.642511
O O6 0.430722 0.642737 0.738760
O O7 0.412902 0.425545 0.782090
O O8 0.449135 0.155518 0.298723
O O9 0.553155 0.047596 0.387874
O O10 0.227675 0.157741 0.468896
O O11 0.510031 0.849635 0.531314
O O12 0.634019 0.741267 0.376560
O O13 0.379167 0.642195 0.536581
O O14 0.319871 0.837083 0.704956
O O15 0.573388 0.999523 0.612997
O O16 0.240702 0.584841 0.454229
#
# Coordination Sequence:
#
# PCOD9134776 Si02
#       8
#     4   4   4   4   4   4   4   4
#     4  10  19  41  65  93 126 165 217 271 327 398
#     4  11  23  38  61  97 130 169 219 264 334 392
#     4   9  19  39  69  90 123 175 217 258 338 389
#     4   9  21  44  65  91 126 172 220 269 332 393
#     4  12  23  41  67  93 137 175 221 282 326 393
#     4  10  21  44  67  89 132 176 216 270 335 390
#     4  11  21  37  68  96 122 170 212 277 328 400
#     4  10  23  40  64  95 128 170 220 269 340 387
#
# _framework density 21.306709999999999
#
# number of rings (size 3 to 8) (size 9 to 14) (size 15 to 20)
#    0.750    1.000    2.500    3.000    0.000    6.000 
#    2.250    1.250    0.000    0.000    0.000    0.000 
#    0.000    0.000    0.000    0.000    0.000    0.000 
#
# Total GULP energy -89312.729399 kJ/mol
# GULP energy per Si atom -5582.045587 kJ/mol
# Density = 2.125821 g / cm^3
# Si number density = 21.306710 Si / 1000 Ang^3
#
#
#
# Elastic Constant Matrix: (Units=GPa)
#
#
# Indices 1 2 3 4 5 6 
#
# 1 86.8781 37.8965 8.8202 0.0000 -29.3871 0.0000
# 2 37.8965 117.6559 18.4996 0.0000 -22.1612 0.0000
# 3 8.8202 18.4996 48.2032 0.0000 -20.7546 0.0000
# 4 0.0000 0.0000 0.0000 21.1342 0.0000 1.9262
# 5 -29.3871 -22.1612 -20.7546 0.0000 33.2008 0.0000
# 6 0.0000 0.0000 0.0000 1.9262 0.0000 29.6222
#
#
#
# Elastic Compliance Matrix: (Units=1/GPa)
#
#
# Indices 1 2 3 4 5 6 
#
# 1 0.018334 -0.003504 0.005432 0.000000 0.017285 0.000000
# 2 -0.003504 0.010449 -0.002328 0.000000 0.002418 0.000000
# 3 0.005432 -0.002328 0.030165 0.000000 0.022111 0.000000
# 4 0.000000 0.000000 0.000000 0.047599 0.000000 -0.003095
# 5 0.017285 0.002418 0.022111 0.000000 0.060856 0.000000
# 6 0.000000 0.000000 0.000000 -0.003095 0.000000 0.033960
#
#
# Mechanical properties :
#
#
# Convention : Reuss Voigt Hill
#
# Bulk Modulus (GPa) = 17.19685 42.57442 29.88563
# Shear Modulus (GPa) = 22.56873 29.29284 25.93079
#
# Velocity S-wave (km/s) = 3.25811 3.71188 3.49237
# Velocity P-wave (km/s) = 4.71618 6.19643 5.50628
#
# Compressibility (1/GPa) = 0.05815019
#
# Stress axis : x y z
#
# Youngs Moduli (GPa) = 54.54333 95.69895 33.15061
#
# Poissons Ratio (x) = 0.33530 -0.18008
# Poissons Ratio (y) = 0.19110 0.07717
# Poissons Ratio (z) = -0.29630 0.22278
#
# Static dielectric constant tensor:
#      x y z
#    x 1.764200 0.000000 -0.005560 
#    y 0.000000 1.778150 0.000000 
#    z -0.005560 0.000000 1.797960 
# 
# From -- ./inp_files/32558.got.cif
#   From: 2010.05.17/outbox.cif.g08.bks.cpg/sg9_17_cif.got.tgz:32558.got - 2010.06.03 20:04:27.
