data_PCOD9134700
_publ_section_title
;
Structure prediction by ZEFSAII (Michael W. Deem and Ramdas Pophale) SiO2 
 PCOD9134700
Probable space group: C C
;
_chemical_formula_sum "Si O2"
_cell_formula_units_Z 32
_cell_length_a 10.723882
_cell_length_b 11.368997
_cell_length_c 12.148757
_cell_angle_alpha 90.000000
_cell_angle_beta 90.974815
_cell_angle_gamma 90.000000
_cell_volume 1480.959438
_symmetry_space_group_name_H-M "C C"
_symmetry_group_IT_number 9
_symmetry_cell_setting 'monoclinic'
loop_
_space_group_symop_operation_xyz
x,y,z
x,-y,1/2+z
1/2+x,1/2+y,z
1/2+x,1/2-y,1/2+z
loop_
_atom_site_type_symbol
_atom_site_label
_atom_site_fract_x
_atom_site_fract_y
_atom_site_fract_z
Si Si1 0.146560 0.346818 0.025800
Si Si2 0.952725 0.808171 0.664745
Si Si3 0.391884 0.442736 0.085937
Si Si4 0.855071 0.691518 0.080029
Si Si5 0.241229 0.826188 0.058126
Si Si6 0.247413 0.991219 0.746608
Si Si7 0.041948 0.873656 0.888726
Si Si8 0.937994 0.510436 0.430889
O O1 0.240676 0.439337 0.086434
O O2 0.248087 0.245957 0.997048
O O3 0.050188 0.276607 0.102947
O O4 0.067541 0.418355 0.934940
O O5 0.817560 0.777149 0.615272
O O6 0.977263 0.796689 0.794293
O O7 0.959182 0.947886 0.641766
O O8 0.419840 0.309287 0.127679
O O9 0.440842 0.440874 0.960808
O O10 0.784234 0.623792 0.176130
O O11 0.937328 0.599819 0.013987
O O12 0.207646 0.912193 0.157848
O O13 0.128141 0.801301 0.974905
O O14 0.340018 0.899098 0.985553
O O15 0.138072 0.961187 0.829778
O O16 0.373858 0.022927 0.814864
#
# Coordination Sequence:
#
# PCOD9134700 Si02
#       8
#     4   4   4   4   4   4   4   4
#     4   9  21  43  63  89 140 167 214 277 318 385
#     4  11  22  45  64  92 140 173 215 280 330 391
#     4  10  24  40  63  99 132 174 216 273 330 394
#     4   9  20  41  62  92 135 164 219 275 319 392
#     4   9  22  38  64 100 120 173 228 263 329 400
#     4  10  19  39  68  95 126 174 225 269 332 392
#     4  11  21  39  65  94 129 171 218 267 334 386
#     4   9  19  37  69  93 124 178 217 268 334 382
#
# _framework density 21.607613000000001
#
# number of rings (size 3 to 8) (size 9 to 14) (size 15 to 20)
#    0.750    1.500    1.250    0.750    5.250    1.000 
#    9.000    5.000    0.000    0.000    0.000    0.000 
#    0.000    0.000    0.000    0.000    0.000    0.000 
#
# Total GULP energy -89079.911547 kJ/mol
# GULP energy per Si atom -5567.494472 kJ/mol
# Density = 2.155843 g / cm^3
# Si number density = 21.607613 Si / 1000 Ang^3
#
#
#
# Elastic Constant Matrix: (Units=GPa)
#
#
# Indices 1 2 3 4 5 6 
#
# 1 66.8201 40.7225 23.5703 0.0000 13.8323 0.0000
# 2 40.7225 76.4274 37.3134 0.0000 4.8147 0.0000
# 3 23.5703 37.3134 80.6944 0.0000 28.9762 0.0000
# 4 0.0000 0.0000 0.0000 8.2234 0.0000 -0.2279
# 5 13.8323 4.8147 28.9762 0.0000 38.2407 0.0000
# 6 0.0000 0.0000 0.0000 -0.2279 0.0000 19.5655
#
#
#
# Elastic Compliance Matrix: (Units=1/GPa)
#
#
# Indices 1 2 3 4 5 6 
#
# 1 0.024172 -0.013461 0.002329 0.000000 -0.008813 0.000000
# 2 -0.013461 0.025187 -0.011436 0.000000 0.010364 0.000000
# 3 0.002329 -0.011436 0.023060 0.000000 -0.016876 0.000000
# 4 0.000000 0.000000 0.000000 0.121643 0.000000 0.001417
# 5 -0.008813 0.010364 -0.016876 0.000000 0.040821 0.000000
# 6 0.000000 0.000000 0.000000 0.001417 0.000000 0.051127
#
#
# Mechanical properties :
#
#
# Convention : Reuss Voigt Hill
#
# Bulk Modulus (GPa) = 36.65375 47.46161 42.05768
# Shear Modulus (GPa) = 14.69540 21.36165 18.02852
#
# Velocity S-wave (km/s) = 2.61071 3.14764 2.89166
# Velocity P-wave (km/s) = 5.10763 5.93490 5.53674
#
# Compressibility (1/GPa) = 0.02728234
#
# Stress axis : x y z
#
# Youngs Moduli (GPa) = 41.36955 39.70239 43.36466
#
# Poissons Ratio (x) = 0.53445 -0.10098
# Poissons Ratio (y) = 0.55689 0.49593
# Poissons Ratio (z) = -0.09634 0.45404
#
# Static dielectric constant tensor:
#      x y z
#    x 1.875470 0.000000 0.038720 
#    y 0.000000 1.832760 0.000000 
#    z 0.038720 0.000000 1.782020 
# 
# From -- ./inp_files/16475.got.cif
#   From: 2010.05.17/outbox.cif.g08.bks.cpg/sg9_9_cif.got.tgz:16475.got - 2010.06.03 20:04:27.
