data_PCOD9134679
_publ_section_title
;
Structure prediction by ZEFSAII (Michael W. Deem and Ramdas Pophale) SiO2 
 PCOD9134679
Probable space group: C C
;
_chemical_formula_sum "Si O2"
_cell_formula_units_Z 28
_cell_length_a 13.978372
_cell_length_b 4.922335
_cell_length_c 15.292395
_cell_angle_alpha 90.000000
_cell_angle_beta 95.394777
_cell_angle_gamma 90.000000
_cell_volume 1047.551312
_symmetry_space_group_name_H-M "C C"
_symmetry_group_IT_number 9
_symmetry_cell_setting 'monoclinic'
loop_
_space_group_symop_operation_xyz
x,y,z
x,-y,1/2+z
1/2+x,1/2+y,z
1/2+x,1/2-y,1/2+z
loop_
_atom_site_type_symbol
_atom_site_label
_atom_site_fract_x
_atom_site_fract_y
_atom_site_fract_z
Si Si1 0.567840 0.672613 0.875000
Si Si2 0.282548 0.954169 0.879417
Si Si3 0.964399 0.305490 0.318691
Si Si4 0.246257 0.334321 0.193167
Si Si5 0.521175 0.857407 0.147066
Si Si6 0.262970 0.808221 0.072511
Si Si7 0.539752 0.333042 0.040771
O O1 0.680521 0.611601 0.877755
O O2 0.540402 0.985933 0.870184
O O3 0.510570 0.486454 0.801529
O O4 0.523746 0.511909 0.954008
O O5 0.366641 0.164436 0.862619
O O6 0.275949 0.753057 0.794224
O O7 0.302875 0.823724 0.976732
O O8 0.953972 0.428724 0.221611
O O9 0.131771 0.407385 0.188021
O O10 0.295680 0.582914 0.145616
O O11 0.258043 0.088879 0.125319
O O12 0.521800 0.552315 0.113968
O O13 0.490914 0.056694 0.065941
O O14 0.150889 0.746849 0.043889
#
# Coordination Sequence:
#
# PCOD9134679 Si02
#       7
#     4   4   4   4   4   4   4
#     4  11  25  46  71  99 141 184 229 292 355 405
#     4  11  26  48  75 101 148 187 231 297 355 412
#     4  12  26  43  70 107 135 180 240 279 351 431
#     4  10  21  41  71  96 137 188 221 287 358 395
#     4  10  19  39  65  97 134 170 235 278 334 430
#     4   9  22  40  67 103 131 180 240 275 341 430
#     4   9  19  39  67  91 132 183 216 286 352 391
#
# _framework density 26.729002000000001
#
# number of rings (size 3 to 8) (size 9 to 14) (size 15 to 20)
#    0.000    1.714    1.429    1.714    4.000    8.000 
#    7.714    0.000    0.000    0.000    0.000    0.000 
#    0.000    0.000    0.000    0.000    0.000    0.000 
#
# Total GULP energy -78305.526023 kJ/mol
# GULP energy per Si atom -5593.251859 kJ/mol
# Density = 2.666817 g / cm^3
# Si number density = 26.729002 Si / 1000 Ang^3
#
#
#
# Elastic Constant Matrix: (Units=GPa)
#
#
# Indices 1 2 3 4 5 6 
#
# 1 133.8310 22.2775 28.0326 0.0000 -8.9986 0.0000
# 2 22.2775 88.6395 22.6206 0.0000 -2.9782 0.0000
# 3 28.0326 22.6206 168.4091 0.0000 -26.5699 0.0000
# 4 0.0000 0.0000 0.0000 24.3459 0.0000 5.0582
# 5 -8.9986 -2.9782 -26.5699 0.0000 28.2826 0.0000
# 6 0.0000 0.0000 0.0000 5.0582 0.0000 20.0855
#
#
#
# Elastic Compliance Matrix: (Units=1/GPa)
#
#
# Indices 1 2 3 4 5 6 
#
# 1 0.008049 -0.001751 -0.000857 0.000000 0.001572 0.000000
# 2 -0.001751 0.012065 -0.001428 0.000000 -0.000628 0.000000
# 3 -0.000857 -0.001428 0.007285 0.000000 0.006421 0.000000
# 4 0.000000 0.000000 0.000000 0.043342 0.000000 -0.010915
# 5 0.001572 -0.000628 0.006421 0.000000 0.041824 0.000000
# 6 0.000000 0.000000 0.000000 -0.010915 0.000000 0.052536
#
#
# Mechanical properties :
#
#
# Convention : Reuss Voigt Hill
#
# Bulk Modulus (GPa) = 51.74117 59.63789 55.68953
# Shear Modulus (GPa) = 27.83711 35.73938 31.78824
#
# Velocity S-wave (km/s) = 3.23066 3.66061 3.45233
# Velocity P-wave (km/s) = 5.77200 6.34249 6.06396
#
# Compressibility (1/GPa) = 0.01932697
#
# Stress axis : x y z
#
# Youngs Moduli (GPa) = 124.24280 82.88302 137.26027
#
# Poissons Ratio (x) = 0.14517 0.11757
# Poissons Ratio (y) = 0.21761 0.19604
# Poissons Ratio (z) = 0.10642 0.11837
#
# Static dielectric constant tensor:
#      x y z
#    x 2.126070 0.000000 0.047210 
#    y 0.000000 2.096200 0.000000 
#    z 0.047210 0.000000 2.419370 
# 
# From -- ./inp_files/25266.got.cif
#   From: 2010.05.17/outbox.cif.g08.bks.cpg/sg9_13_cif.got.tgz:25266.got - 2010.06.03 20:04:27.
