data_PCOD9134191
_publ_section_title
;
Structure prediction by ZEFSAII (Michael W. Deem and Ramdas Pophale) SiO2 
 PCOD9134191
Probable space group: C C
;
_chemical_formula_sum "Si O2"
_cell_formula_units_Z 32
_cell_length_a 22.015773
_cell_length_b 7.619612
_cell_length_c 15.342867
_cell_angle_alpha 90.000000
_cell_angle_beta 33.186969
_cell_angle_gamma 90.000000
_cell_volume 1408.823570
_symmetry_space_group_name_H-M "C C"
_symmetry_group_IT_number 9
_symmetry_cell_setting 'monoclinic'
loop_
_space_group_symop_operation_xyz
x,y,z
x,-y,1/2+z
1/2+x,1/2+y,z
1/2+x,1/2-y,1/2+z
loop_
_atom_site_type_symbol
_atom_site_label
_atom_site_fract_x
_atom_site_fract_y
_atom_site_fract_z
Si Si1 0.221700 0.467299 0.524140
Si Si2 0.986358 0.326866 0.745127
Si Si3 0.119155 0.513663 0.822130
Si Si4 0.994181 0.869859 0.973512
Si Si5 0.214442 0.336472 0.868885
Si Si6 0.834783 0.670907 0.286003
Si Si7 0.927329 0.758579 0.499326
Si Si8 0.104133 0.004558 0.517032
O O1 0.095890 0.429532 0.644125
O O2 0.215745 0.493404 0.633915
O O3 0.262300 0.610485 0.405815
O O4 0.290385 0.298711 0.414594
O O5 0.912139 0.316675 0.920706
O O6 0.028922 0.130218 0.667648
O O7 0.934709 0.414810 0.720508
O O8 0.063729 0.699261 0.862956
O O9 0.168298 0.490842 0.860404
O O10 0.026234 0.361249 0.921108
O O11 0.063639 0.950795 0.969589
O O12 0.966521 0.037188 0.947783
O O13 0.884139 0.784457 0.148103
O O14 0.315821 0.256027 0.690488
O O15 0.113959 0.203682 0.010666
O O16 0.730750 0.561995 0.381038
#
# Coordination Sequence:
#
# PCOD9134191 Si02
#       8
#     4   4   4   4   4   4   4   4
#     4  10  22  38  61  89 124 165 203 259 313 368
#     4   9  21  39  62  88 127 165 207 258 316 374
#     4  11  24  42  63  94 130 163 211 266 314 378
#     4  11  22  40  65  89 126 166 207 260 317 373
#     4  12  22  40  64  95 126 164 216 262 315 383
#     4  10  18  40  61  90 121 167 205 256 318 371
#     4  11  23  41  63  94 126 170 210 257 316 385
#     4  10  22  38  67  93 124 166 213 258 323 378
#
# _framework density 22.713985000000001
#
# number of rings (size 3 to 8) (size 9 to 14) (size 15 to 20)
#    0.000    1.500    2.500    3.750    1.750    0.000 
#    0.000    0.000    2.750    0.000    0.000    0.000 
#    0.000    0.000    0.000    0.000    0.000    0.000 
#
# Total GULP energy -89272.088852 kJ/mol
# GULP energy per Si atom -5579.505553 kJ/mol
# Density = 2.266229 g / cm^3
# Si number density = 22.713985 Si / 1000 Ang^3
#
#
#
# Elastic Constant Matrix: (Units=GPa)
#
#
# Indices 1 2 3 4 5 6 
#
# 1 54.6411 -12.2600 -1.0928 -0.0001 1.8535 -0.0002
# 2 -12.2600 57.0188 -2.3810 -0.0003 6.2749 0.0003
# 3 -1.0928 -2.3810 75.0253 -0.0005 6.3848 0.0003
# 4 -0.0001 -0.0003 -0.0005 17.8982 -0.0007 -2.5347
# 5 1.8535 6.2749 6.3848 -0.0007 26.7836 0.0005
# 6 -0.0002 0.0003 0.0003 -2.5347 0.0005 18.1923
#
#
#
# Elastic Compliance Matrix: (Units=1/GPa)
#
#
# Indices 1 2 3 4 5 6 
#
# 1 0.019405 0.004479 0.000641 0.000000 -0.002545 0.000000
# 2 0.004479 0.019103 0.001101 0.000000 -0.005048 0.000000
# 3 0.000641 0.001101 0.013676 0.000000 -0.003563 0.000000
# 4 0.000000 0.000000 0.000000 0.056996 0.000001 0.007941
# 5 -0.002545 -0.005048 -0.003563 0.000001 0.039544 -0.000001
# 6 0.000000 0.000000 0.000000 0.007941 -0.000001 0.056075
#
#
# Mechanical properties :
#
#
# Convention : Reuss Voigt Hill
#
# Bulk Modulus (GPa) = 15.47312 17.24641 16.35976
# Shear Modulus (GPa) = 23.37556 26.06942 24.72249
#
# Velocity S-wave (km/s) = 3.21148 3.39149 3.30271
# Velocity P-wave (km/s) = 4.53634 4.79015 4.66498
#
# Compressibility (1/GPa) = 0.06462822
#
# Stress axis : x y z
#
# Youngs Moduli (GPa) = 51.53187 52.34855 73.11919
#
# Poissons Ratio (x) = -0.23449 -0.04690
# Poissons Ratio (y) = -0.23083 -0.08051
# Poissons Ratio (z) = -0.03305 -0.05764
#
# Static dielectric constant tensor:
#      x y z
#    x 1.904980 0.000000 -0.039260 
#    y 0.000000 1.916290 0.000000 
#    z -0.039260 0.000000 1.872160 
# 
# From -- ./inp_files/17927.got.cif
#   From: 2010.05.17/outbox.cif.g08.bks.cpg/sg9_9_cif.got.tgz:17927.got - 2010.06.03 20:04:27.
