data_PCOD9134453
_publ_section_title
;
Structure prediction by ZEFSAII (Michael W. Deem and Ramdas Pophale) SiO2 
 PCOD9134453
Probable space group: C C
;
_chemical_formula_sum "Si O2"
_cell_formula_units_Z 28
_cell_length_a 25.338084
_cell_length_b 4.969300
_cell_length_c 17.752005
_cell_angle_alpha 90.000000
_cell_angle_beta 151.422985
_cell_angle_gamma 90.000000
_cell_volume 1069.184710
_symmetry_space_group_name_H-M "C C"
_symmetry_group_IT_number 9
_symmetry_cell_setting 'monoclinic'
loop_
_space_group_symop_operation_xyz
x,y,z
x,-y,1/2+z
1/2+x,1/2+y,z
1/2+x,1/2-y,1/2+z
loop_
_atom_site_type_symbol
_atom_site_label
_atom_site_fract_x
_atom_site_fract_y
_atom_site_fract_z
Si Si1 0.212220 0.165913 0.261730
Si Si2 0.436998 0.792659 0.960521
Si Si3 0.499124 0.684137 0.631335
Si Si4 0.859628 0.154091 0.067649
Si Si5 0.933062 0.051234 0.798813
Si Si6 0.065542 0.439218 0.853340
Si Si7 0.117327 0.650290 0.066200
O O1 0.317825 0.271062 0.347705
O O2 0.257171 0.195124 0.402300
O O3 0.120700 0.383095 0.121493
O O4 0.187785 0.873704 0.197869
O O5 0.409037 0.737401 0.838774
O O6 0.518657 0.570135 0.101379
O O7 0.465127 0.078043 0.033029
O O8 0.401747 0.587612 0.566328
O O9 0.590545 0.794132 0.805075
O O10 0.837817 0.044745 0.123626
O O11 0.966497 0.351929 0.207878
O O12 0.015629 0.211074 0.846374
O O13 0.997945 0.790753 0.910178
O O14 0.146029 0.587010 0.014409
#
# Coordination Sequence:
#
# PCOD9134453 Si02
#       7
#     4   4   4   4   4   4   4
#     4  11  21  39  63  91 121 161 207 253 308 357
#     4  11  23  37  65  95 121 157 212 269 300 358
#     4  10  19  36  61  90 116 155 214 250 297 359
#     4   9  20  37  65  88 119 167 211 246 292 389
#     4  10  23  40  65  92 124 163 212 253 313 363
#     4  10  19  41  62  91 116 170 208 247 292 396
#     4  11  23  38  63  89 127 159 204 248 308 372
#
# _framework density 26.188179000000002
#
# number of rings (size 3 to 8) (size 9 to 14) (size 15 to 20)
#    0.000    1.714    4.286    1.714    6.000    0.000 
#    0.000    0.000    9.429    0.000    0.000    0.000 
#    0.000    0.000    0.000    0.000    0.000    0.000 
#
# Total GULP energy -78238.910129 kJ/mol
# GULP energy per Si atom -5588.493581 kJ/mol
# Density = 2.612857 g / cm^3
# Si number density = 26.188179 Si / 1000 Ang^3
#
#
#
# Elastic Constant Matrix: (Units=GPa)
#
#
# Indices 1 2 3 4 5 6 
#
# 1 71.9600 36.7413 45.3122 0.0002 -53.7511 0.0002
# 2 36.7413 181.2778 71.9985 0.0004 -41.6189 -0.0006
# 3 45.3122 71.9985 181.3994 0.0002 -59.9205 -0.0001
# 4 0.0002 0.0004 0.0002 51.9496 -0.0001 -20.5007
# 5 -53.7511 -41.6189 -59.9205 -0.0001 53.5784 -0.0002
# 6 0.0002 -0.0006 -0.0001 -20.5007 -0.0002 34.2187
#
#
#
# Elastic Compliance Matrix: (Units=1/GPa)
#
#
# Indices 1 2 3 4 5 6 
#
# 1 0.062112 0.000745 0.007872 0.000000 0.071694 0.000000
# 2 0.000745 0.006988 -0.001459 0.000000 0.004544 0.000000
# 3 0.007872 -0.001459 0.010085 0.000000 0.018043 0.000000
# 4 0.000000 0.000000 0.000000 0.025210 0.000000 0.015103
# 5 0.071694 0.004544 0.018043 0.000000 0.114298 0.000000
# 6 0.000000 0.000000 0.000000 0.015103 0.000000 0.038272
#
#
# Mechanical properties :
#
#
# Convention : Reuss Voigt Hill
#
# Bulk Modulus (GPa) = 10.69505 82.52678 46.61092
# Shear Modulus (GPa) = 18.26033 46.65502 32.45768
#
# Velocity S-wave (km/s) = 2.64346 4.22540 3.52433
# Velocity P-wave (km/s) = 3.66196 7.44222 5.86501
#
# Compressibility (1/GPa) = 0.09350118
#
# Stress axis : x y z
#
# Youngs Moduli (GPa) = 16.09986 143.10192 99.15274
#
# Poissons Ratio (x) = -0.10658 -0.78048
# Poissons Ratio (y) = -0.01199 0.14462
# Poissons Ratio (z) = -0.12673 0.20873
#
# Static dielectric constant tensor:
#      x y z
#    x 2.190440 0.000000 0.066810 
#    y 0.000000 2.089550 0.000000 
#    z 0.066810 0.000000 2.129360 
# 
# From -- ./inp_files/30821.got.cif
#   From: 2010.05.17/outbox.cif.g08.bks.cpg/sg9_16_cif.got.tgz:30821.got - 2010.06.03 20:04:27.
