data_PCOD9134104
_publ_section_title
;
Structure prediction by ZEFSAII (Michael W. Deem and Ramdas Pophale) SiO2 
 PCOD9134104
Probable space group: C C
;
_chemical_formula_sum "Si O2"
_cell_formula_units_Z 32
_cell_length_a 13.617826
_cell_length_b 19.832070
_cell_length_c 8.229825
_cell_angle_alpha 90.000000
_cell_angle_beta 131.236514
_cell_angle_gamma 90.000000
_cell_volume 1671.403739
_symmetry_space_group_name_H-M "C C"
_symmetry_group_IT_number 9
_symmetry_cell_setting 'monoclinic'
loop_
_space_group_symop_operation_xyz
x,y,z
x,-y,1/2+z
1/2+x,1/2+y,z
1/2+x,1/2-y,1/2+z
loop_
_atom_site_type_symbol
_atom_site_label
_atom_site_fract_x
_atom_site_fract_y
_atom_site_fract_z
Si Si1 0.549890 0.520115 0.986320
Si Si2 0.841021 0.469700 0.384300
Si Si3 0.737536 0.653152 0.959584
Si Si4 0.319371 0.273152 0.834753
Si Si5 0.551499 0.768349 0.343039
Si Si6 0.144243 0.148701 0.230483
Si Si7 0.469556 0.399061 0.078271
Si Si8 0.413532 0.900412 0.148426
O O1 0.498915 0.556505 0.770096
O O2 0.700208 0.492688 0.154775
O O3 0.556568 0.581166 0.124245
O O4 0.464455 0.455324 0.934406
O O5 0.811336 0.416567 0.496559
O O6 0.922287 0.430578 0.337851
O O7 0.910970 0.536468 0.524496
O O8 0.811981 0.716786 0.967414
O O9 0.601855 0.645237 0.712456
O O10 0.699772 0.659581 0.107659
O O11 0.183345 0.274318 0.590711
O O12 0.514931 0.158899 0.729482
O O13 0.432498 0.253010 0.830772
O O14 0.353856 0.346012 0.947290
O O15 0.571373 0.712181 0.226035
O O16 0.269391 0.132204 0.476497
#
# Coordination Sequence:
#
# PCOD9134104 Si02
#       8
#     4   4   4   4   4   4   4   4
#     4   9  19  35  61  95 121 156 209 260 300 361
#     4  10  18  36  64  95 124 161 207 265 302 368
#     4  10  20  39  64  97 121 160 213 263 306 365
#     4  12  24  42  65  90 127 167 206 254 316 375
#     4  12  24  43  63  92 127 168 207 255 315 376
#     4  10  21  37  64  96 123 160 212 265 305 361
#     4  10  21  36  62  90 122 160 207 253 311 356
#     4  11  21  38  63  93 125 162 213 255 313 360
#
# _framework density 19.145583999999999
#
# number of rings (size 3 to 8) (size 9 to 14) (size 15 to 20)
#    0.000    1.500    3.750    3.750    3.500    2.000 
#    0.000    1.250    0.000    0.000    0.000    0.000 
#    0.000    0.000    0.000    0.000    0.000    0.000 
#
# Total GULP energy -89294.003546 kJ/mol
# GULP energy per Si atom -5580.875222 kJ/mol
# Density = 1.910201 g / cm^3
# Si number density = 19.145584 Si / 1000 Ang^3
#
#
#
# Elastic Constant Matrix: (Units=GPa)
#
#
# Indices 1 2 3 4 5 6 
#
# 1 66.1821 56.5235 31.3817 0.0000 -9.3750 0.0000
# 2 56.5235 162.9513 40.6682 0.0000 -11.3247 0.0000
# 3 31.3817 40.6682 45.0638 0.0000 -5.5698 0.0000
# 4 0.0000 0.0000 0.0000 33.4647 0.0000 -0.7733
# 5 -9.3750 -11.3247 -5.5698 0.0000 23.3576 0.0000
# 6 0.0000 0.0000 0.0000 -0.7733 0.0000 48.6870
#
#
#
# Elastic Compliance Matrix: (Units=1/GPa)
#
#
# Indices 1 2 3 4 5 6 
#
# 1 0.026824 -0.005747 -0.012887 0.000000 0.004907 0.000000
# 2 -0.005747 0.009264 -0.004212 0.000000 0.001180 0.000000
# 3 -0.012887 -0.004212 0.035109 0.000000 0.001158 0.000000
# 4 0.000000 0.000000 0.000000 0.029893 0.000000 0.000475
# 5 0.004907 0.001180 0.001158 0.000000 0.045630 0.000000
# 6 0.000000 0.000000 0.000000 0.000475 0.000000 0.020547
#
#
# Mechanical properties :
#
#
# Convention : Reuss Voigt Hill
#
# Bulk Modulus (GPa) = 39.20806 59.03823 49.12314
# Shear Modulus (GPa) = 22.57748 30.81011 26.69379
#
# Velocity S-wave (km/s) = 3.43775 4.01590 3.73802
# Velocity P-wave (km/s) = 6.02336 7.23925 6.65911
#
# Compressibility (1/GPa) = 0.02550496
#
# Stress axis : x y z
#
# Youngs Moduli (GPa) = 37.28009 107.94972 28.48297
#
# Poissons Ratio (x) = 0.62043 0.36705
# Poissons Ratio (y) = 0.21426 0.11996
# Poissons Ratio (z) = 0.48041 0.45465
#
# Static dielectric constant tensor:
#      x y z
#    x 1.684420 0.000000 -0.042580 
#    y 0.000000 1.698960 0.000000 
#    z -0.042580 0.000000 1.692490 
# 
# From -- ./inp_files/10989.got.cif
#   From: 2010.05.17/outbox.cif.g08.bks.cpg/sg9_6_cif.got.tgz:10989.got - 2010.06.03 20:04:27.
