data_PCOD9134473
_publ_section_title
;
Structure prediction by ZEFSAII (Michael W. Deem and Ramdas Pophale) SiO2 
 PCOD9134473
Probable space group: C C
;
_chemical_formula_sum "Si O2"
_cell_formula_units_Z 32
_cell_length_a 13.415773
_cell_length_b 15.894404
_cell_length_c 5.803828
_cell_angle_alpha 90.000000
_cell_angle_beta 84.022221
_cell_angle_gamma 90.000000
_cell_volume 1230.853886
_symmetry_space_group_name_H-M "C C"
_symmetry_group_IT_number 9
_symmetry_cell_setting 'monoclinic'
loop_
_space_group_symop_operation_xyz
x,y,z
x,-y,1/2+z
1/2+x,1/2+y,z
1/2+x,1/2-y,1/2+z
loop_
_atom_site_type_symbol
_atom_site_label
_atom_site_fract_x
_atom_site_fract_y
_atom_site_fract_z
Si Si1 0.801550 0.727738 0.922710
Si Si2 0.555183 0.584064 0.943715
Si Si3 0.186160 0.732971 0.831094
Si Si4 0.835235 0.542287 0.833803
Si Si5 0.126831 0.898297 0.926927
Si Si6 0.557152 0.016991 0.296248
Si Si7 0.875205 0.837271 0.505235
Si Si8 0.993590 0.296760 0.698771
O O1 0.787385 0.634459 0.826604
O O2 0.840034 0.802102 0.755434
O O3 0.697741 0.762213 0.054319
O O4 0.892535 0.708448 0.073611
O O5 0.574022 0.622083 0.193830
O O6 0.434347 0.575513 0.977198
O O7 0.621192 0.499007 0.924924
O O8 0.576814 0.620160 0.684504
O O9 0.215611 0.830167 0.890167
O O10 0.274715 0.670504 0.881367
O O11 0.085592 0.716725 0.995911
O O12 0.810295 0.495176 0.596560
O O13 0.956900 0.541380 0.811611
O O14 0.516032 0.112369 0.301505
O O15 0.607833 0.999292 0.532953
O O16 0.960371 0.769283 0.404579
#
# Coordination Sequence:
#
# PCOD9134473 Si02
#       8
#     4   4   4   4   4   4   4   4
#     4  11  24  40  66  96 140 185 228 299 365 441
#     4  10  22  44  76  99 140 198 244 295 371 440
#     4  11  26  42  65 108 142 178 247 298 369 425
#     4  10  19  37  60  93 126 169 218 266 342 421
#     4  10  22  46  72 103 139 193 247 303 367 437
#     4  10  19  36  64  93 122 170 224 267 340 423
#     4  11  24  41  70 103 142 188 244 298 368 437
#     4  11  22  42  69  91 141 187 230 296 364 444
#
# _framework density 25.99821
#
# number of rings (size 3 to 8) (size 9 to 14) (size 15 to 20)
#    0.000    1.500    3.750    2.250    5.250    1.000 
#    4.500    0.000    5.500    0.000    0.000    0.000 
#    0.000    0.000    0.000    0.000    0.000    0.000 
#
# Total GULP energy -89154.767945 kJ/mol
# GULP energy per Si atom -5572.172997 kJ/mol
# Density = 2.593904 g / cm^3
# Si number density = 25.998210 Si / 1000 Ang^3
#
#
#
# Elastic Constant Matrix: (Units=GPa)
#
#
# Indices 1 2 3 4 5 6 
#
# 1 81.8697 -1.1189 40.4607 0.0000 -17.1605 0.0000
# 2 -1.1189 21.4407 15.5539 0.0000 -6.3356 0.0000
# 3 40.4607 15.5539 206.0492 0.0000 -9.9361 0.0000
# 4 0.0000 0.0000 0.0000 30.6336 0.0000 -5.3963
# 5 -17.1605 -6.3356 -9.9361 0.0000 47.9164 0.0000
# 6 0.0000 0.0000 0.0000 -5.3963 0.0000 15.6685
#
#
#
# Elastic Compliance Matrix: (Units=1/GPa)
#
#
# Indices 1 2 3 4 5 6 
#
# 1 0.014873 0.004524 -0.003006 0.000000 0.005301 0.000000
# 2 0.004524 0.052373 -0.004474 0.000000 0.007617 0.000000
# 3 -0.003006 -0.004474 0.005758 0.000000 -0.000474 0.000000
# 4 0.000000 0.000000 0.000000 0.034752 0.000000 0.011969
# 5 0.005301 0.007617 -0.000474 0.000000 0.023677 0.000000
# 6 0.000000 0.000000 0.000000 0.011969 0.000000 0.067945
#
#
# Mechanical properties :
#
#
# Convention : Reuss Voigt Hill
#
# Bulk Modulus (GPa) = 14.90521 46.57233 30.73877
# Shear Modulus (GPa) = 21.96287 35.80795 28.88541
#
# Velocity S-wave (km/s) = 2.90967 3.71526 3.33686
# Velocity P-wave (km/s) = 4.12721 6.02965 5.16675
#
# Compressibility (1/GPa) = 0.06709062
#
# Stress axis : x y z
#
# Youngs Moduli (GPa) = 67.23424 19.09376 173.65769
#
# Poissons Ratio (x) = -0.08637 0.52209
# Poissons Ratio (y) = -0.30415 0.77702
# Poissons Ratio (z) = 0.20214 0.08543
#
# Static dielectric constant tensor:
#      x y z
#    x 2.083200 0.000000 0.031710 
#    y 0.000000 2.229560 0.000000 
#    z 0.031710 0.000000 2.125750 
# 
# From -- ./inp_files/2569.got.cif
#   From: 2010.05.17/outbox.cif.g08.bks.cpg/sg9_2_cif.got.tgz:2569.got - 2010.06.03 20:04:27.
