data_PCOD9134778
_publ_section_title
;
Structure prediction by ZEFSAII (Michael W. Deem and Ramdas Pophale) SiO2 
 PCOD9134778
Probable space group: C C
;
_chemical_formula_sum "Si O2"
_cell_formula_units_Z 28
_cell_length_a 8.176372
_cell_length_b 16.731666
_cell_length_c 13.882313
_cell_angle_alpha 90.000000
_cell_angle_beta 149.299928
_cell_angle_gamma 90.000000
_cell_volume 969.604977
_symmetry_space_group_name_H-M "C C"
_symmetry_group_IT_number 9
_symmetry_cell_setting 'monoclinic'
loop_
_space_group_symop_operation_xyz
x,y,z
x,-y,1/2+z
1/2+x,1/2+y,z
1/2+x,1/2-y,1/2+z
loop_
_atom_site_type_symbol
_atom_site_label
_atom_site_fract_x
_atom_site_fract_y
_atom_site_fract_z
Si Si1 0.567100 0.075922 0.838960
Si Si2 0.293510 0.262995 0.242421
Si Si3 0.875380 0.404450 0.026917
Si Si4 0.019082 0.038842 0.751314
Si Si5 0.884103 0.347898 0.571490
Si Si6 0.654751 0.689587 0.727442
Si Si7 0.315788 0.085001 0.228242
O O1 0.372461 0.076827 0.639712
O O2 0.488550 0.156752 0.856779
O O3 0.449126 0.997639 0.838257
O O4 0.944171 0.065328 0.019325
O O5 0.960672 0.309674 0.068120
O O6 0.539266 0.311973 0.434941
O O7 0.507955 0.276089 0.253593
O O8 0.307533 0.170660 0.275786
O O9 0.204962 0.441323 0.153919
O O10 0.602619 0.446578 0.823108
O O11 0.975634 0.102100 0.637985
O O12 0.304876 0.088095 0.950026
O O13 0.006582 0.396243 0.725692
O O14 0.087262 0.272499 0.636692
#
# Coordination Sequence:
#
# PCOD9134778 Si02
#       7
#     4   4   4   4   4   4   4
#     4  12  22  40  63 101 123 160 214 269 303 380
#     4   9  21  43  65  84 130 175 201 257 320 386
#     4  10  19  41  66  90 123 166 216 252 316 375
#     4  10  20  41  63  91 123 172 208 255 316 384
#     4   9  17  42  64  87 120 178 201 254 312 384
#     4   9  22  37  62  90 130 158 213 249 322 363
#     4  11  23  40  65  93 129 161 213 258 323 364
#
# _framework density 28.877741
#
# number of rings (size 3 to 8) (size 9 to 14) (size 15 to 20)
#    0.000    2.286    4.286    0.000    2.000    2.286 
#   10.286    0.000    0.000    0.000    0.000    0.000 
#    0.000    0.000    0.000    0.000    0.000    0.000 
#
# Total GULP energy -78012.521331 kJ/mol
# GULP energy per Si atom -5572.322952 kJ/mol
# Density = 2.881201 g / cm^3
# Si number density = 28.877741 Si / 1000 Ang^3
#
#
#
# Elastic Constant Matrix: (Units=GPa)
#
#
# Indices 1 2 3 4 5 6 
#
# 1 83.9778 32.2968 21.3449 0.0192 -16.8854 0.0056
# 2 32.2968 249.6074 46.5988 0.0091 11.4205 -0.0083
# 3 21.3449 46.5988 59.9462 0.0219 5.4866 -0.0078
# 4 0.0192 0.0091 0.0219 72.0707 0.0026 10.0250
# 5 -16.8854 11.4205 5.4866 0.0026 40.9907 0.0006
# 6 0.0056 -0.0083 -0.0078 10.0250 0.0006 48.6706
#
#
#
# Elastic Compliance Matrix: (Units=1/GPa)
#
#
# Indices 1 2 3 4 5 6 
#
# 1 0.015174 -0.001362 -0.005013 -0.000002 0.007301 -0.000002
# 2 -0.001362 0.004836 -0.003139 0.000001 -0.001488 0.000000
# 3 -0.005013 -0.003139 0.021276 -0.000005 -0.004038 0.000005
# 4 -0.000002 0.000001 -0.000005 0.014285 -0.000001 -0.002942
# 5 0.007301 -0.001488 -0.004038 -0.000001 0.028358 -0.000002
# 6 -0.000002 0.000000 0.000005 -0.002942 -0.000002 0.021152
#
#
# Mechanical properties :
#
#
# Convention : Reuss Voigt Hill
#
# Bulk Modulus (GPa) = 44.92295 66.00140 55.46217
# Shear Modulus (GPa) = 38.01503 51.89912 44.95707
#
# Velocity S-wave (km/s) = 3.63218 4.24394 3.94992
# Velocity P-wave (km/s) = 5.76023 6.84980 6.32851
#
# Compressibility (1/GPa) = 0.02226034
#
# Stress axis : x y z
#
# Youngs Moduli (GPa) = 65.90396 206.76117 47.00163
#
# Poissons Ratio (x) = 0.28152 0.23560
# Poissons Ratio (y) = 0.08973 0.14752
# Poissons Ratio (z) = 0.33035 0.64894
#
# Static dielectric constant tensor:
#      x y z
#    x 2.408370 0.000000 -0.202870 
#    y 0.000000 2.370640 0.000010 
#    z -0.202870 0.000010 2.627290 
# 
# From -- ./inp_files/29537.got.cif
#   From: 2010.05.17/outbox.cif.g08.bks.cpg/sg9_15_cif.got.tgz:29537.got - 2010.06.03 20:04:27.
