data_PCOD9134023
_publ_section_title
;
Structure prediction by ZEFSAII (Michael W. Deem and Ramdas Pophale) SiO2 
 PCOD9134023
Probable space group: C C
;
_chemical_formula_sum "Si O2"
_cell_formula_units_Z 24
_cell_length_a 12.420824
_cell_length_b 13.900693
_cell_length_c 5.237474
_cell_angle_alpha 90.000000
_cell_angle_beta 96.495111
_cell_angle_gamma 90.000000
_cell_volume 898.487918
_symmetry_space_group_name_H-M "C C"
_symmetry_group_IT_number 9
_symmetry_cell_setting 'monoclinic'
loop_
_space_group_symop_operation_xyz
x,y,z
x,-y,1/2+z
1/2+x,1/2+y,z
1/2+x,1/2-y,1/2+z
loop_
_atom_site_type_symbol
_atom_site_label
_atom_site_fract_x
_atom_site_fract_y
_atom_site_fract_z
Si Si1 0.439400 0.942640 0.894920
Si Si2 0.236940 0.530879 0.206073
Si Si3 0.733768 0.332379 0.872756
Si Si4 0.505534 0.268755 0.584764
Si Si5 0.299589 0.265127 0.888388
Si Si6 0.485340 0.543548 0.761389
O O1 0.308347 0.926586 0.870216
O O2 0.466135 0.980123 0.621083
O O3 0.496132 0.840732 0.981618
O O4 0.187956 0.463973 0.411940
O O5 0.240244 0.634038 0.336320
O O6 0.360902 0.493652 0.195016
O O7 0.616303 0.305602 0.738636
O O8 0.799638 0.266750 0.679885
O O9 0.740354 0.306127 0.173834
O O10 0.415270 0.276534 0.782398
O O11 0.485425 0.348273 0.359381
O O12 0.537047 0.480941 0.004003
#
# Coordination Sequence:
#
# PCOD9134023 Si02
#       6
#     4   4   4   4   4   4
#     4  11  26  50  74 102 151 207 248 302 374 450
#     4  10  18  34  59  97 132 167 207 271 374 418
#     4  11  27  44  73 109 134 191 257 301 348 448
#     4  11  25  47  77 102 153 190 250 300 374 440
#     4  11  23  43  67 100 146 182 230 307 371 420
#     4  10  21  34  64 108 130 173 220 287 371 426
#
# _framework density 26.711545999999998
#
# number of rings (size 3 to 8) (size 9 to 14) (size 15 to 20)
#    0.000    1.333    3.333    3.000    7.000    8.000 
#    0.000    5.000    0.000    0.000    0.000    0.000 
#    0.000    0.000    0.000    0.000    0.000    0.000 
#
# Total GULP energy -67139.517906 kJ/mol
# GULP energy per Si atom -5594.959825 kJ/mol
# Density = 2.665075 g / cm^3
# Si number density = 26.711546 Si / 1000 Ang^3
#
#
#
# Elastic Constant Matrix: (Units=GPa)
#
#
# Indices 1 2 3 4 5 6 
#
# 1 105.9694 6.0798 2.2209 0.0000 19.9460 0.0000
# 2 6.0798 100.7740 14.5022 0.0000 -3.9348 0.0000
# 3 2.2209 14.5022 108.4109 0.0000 -5.9831 0.0000
# 4 0.0000 0.0000 0.0000 57.1273 0.0000 -3.1774
# 5 19.9460 -3.9348 -5.9831 0.0000 36.4516 0.0000
# 6 0.0000 0.0000 0.0000 -3.1774 0.0000 5.6600
#
#
#
# Elastic Compliance Matrix: (Units=1/GPa)
#
#
# Indices 1 2 3 4 5 6 
#
# 1 0.010616 -0.000810 -0.000438 0.000000 -0.005968 0.000000
# 2 -0.000810 0.010208 -0.001275 0.000000 0.001336 0.000000
# 3 -0.000438 -0.001275 0.009495 0.000000 0.001661 0.000000
# 4 0.000000 0.000000 0.000000 0.018069 0.000000 0.010143
# 5 -0.005968 0.001336 0.001661 0.000000 0.031116 0.000000
# 6 0.000000 0.000000 0.000000 0.010143 0.000000 0.182373
#
#
# Mechanical properties :
#
#
# Convention : Reuss Voigt Hill
#
# Bulk Modulus (GPa) = 39.57124 40.08444 39.82784
# Shear Modulus (GPa) = 18.15880 39.33787 28.74833
#
# Velocity S-wave (km/s) = 2.61015 3.84173 3.28419
# Velocity P-wave (km/s) = 4.89186 5.89216 5.41515
#
# Compressibility (1/GPa) = 0.02527088
#
# Stress axis : x y z
#
# Youngs Moduli (GPa) = 94.19970 97.96467 105.31433
#
# Poissons Ratio (x) = 0.07939 0.04618
# Poissons Ratio (y) = 0.07634 0.13429
# Poissons Ratio (z) = 0.04130 0.12492
#
# Static dielectric constant tensor:
#      x y z
#    x 2.245170 0.000000 0.035930 
#    y 0.000000 2.091030 0.000000 
#    z 0.035930 0.000000 2.114100 
# 
# From -- ./inp_files/2413.got.cif
#   From: 2010.05.17/outbox.cif.g08.bks.cpg/sg9_2_cif.got.tgz:2413.got - 2010.06.03 20:04:27.
