data_PCOD9134442
_publ_section_title
;
Structure prediction by ZEFSAII (Michael W. Deem and Ramdas Pophale) SiO2 
 PCOD9134442
Probable space group: C C
;
_chemical_formula_sum "Si O2"
_cell_formula_units_Z 32
_cell_length_a 17.257884
_cell_length_b 9.488159
_cell_length_c 9.979009
_cell_angle_alpha 90.000000
_cell_angle_beta 124.311149
_cell_angle_gamma 90.000000
_cell_volume 1349.680520
_symmetry_space_group_name_H-M "C C"
_symmetry_group_IT_number 9
_symmetry_cell_setting 'monoclinic'
loop_
_space_group_symop_operation_xyz
x,y,z
x,-y,1/2+z
1/2+x,1/2+y,z
1/2+x,1/2-y,1/2+z
loop_
_atom_site_type_symbol
_atom_site_label
_atom_site_fract_x
_atom_site_fract_y
_atom_site_fract_z
Si Si1 0.613390 0.689403 0.326520
Si Si2 0.217604 0.913095 0.530130
Si Si3 0.042533 0.035986 0.042835
Si Si4 0.345554 0.469087 0.257132
Si Si5 0.345925 0.124405 0.746465
Si Si6 0.297626 0.658532 0.970646
Si Si7 0.538069 0.778498 0.540521
Si Si8 0.731217 0.194821 0.319217
O O1 0.673855 0.543879 0.400329
O O2 0.529864 0.649765 0.146363
O O3 0.687751 0.805791 0.357845
O O4 0.571349 0.740577 0.423890
O O5 0.138450 0.911809 0.567715
O O6 0.231732 0.768029 0.464539
O O7 0.319019 0.968319 0.675953
O O8 0.957615 0.031766 0.855840
O O9 0.036460 0.879056 0.101179
O O10 0.307910 0.517160 0.075193
O O11 0.325986 0.341981 0.341977
O O12 0.304077 0.589035 0.318580
O O13 0.345929 0.224393 0.614624
O O14 0.438196 0.147403 0.926095
O O15 0.255445 0.171831 0.745748
O O16 0.625192 0.858497 0.692029
#
# Coordination Sequence:
#
# PCOD9134442 Si02
#       8
#     4   4   4   4   4   4   4   4
#     4  10  19  36  60  88 116 161 211 257 311 388
#     4  10  20  34  59  94 121 157 208 269 310 374
#     4  11  20  33  64  92 120 158 221 260 308 379
#     4  11  23  39  63  97 128 171 214 269 324 397
#     4  10  19  37  58  87 123 164 208 257 325 383
#     4  10  21  38  59  88 129 168 206 265 328 379
#     4  11  18  34  61  86 114 156 207 249 313 380
#     4  11  20  37  60  92 123 163 209 262 319 384
#
# _framework density 23.709315
#
# number of rings (size 3 to 8) (size 9 to 14) (size 15 to 20)
#    0.000    1.500    8.750    0.750    1.750    1.000 
#    0.000    1.250    0.000    3.000    0.000    0.000 
#    0.000    0.000    0.000    0.000    0.000    0.000 
#
# Total GULP energy -89102.915359 kJ/mol
# GULP energy per Si atom -5568.932210 kJ/mol
# Density = 2.365535 g / cm^3
# Si number density = 23.709315 Si / 1000 Ang^3
#
#
#
# Elastic Constant Matrix: (Units=GPa)
#
#
# Indices 1 2 3 4 5 6 
#
# 1 66.1868 7.6393 27.7798 0.0000 3.2957 0.0000
# 2 7.6393 38.5827 25.6386 0.0000 6.3710 0.0000
# 3 27.7798 25.6386 92.1602 0.0000 9.1507 0.0000
# 4 0.0000 0.0000 0.0000 22.2657 0.0000 -3.5808
# 5 3.2957 6.3710 9.1507 0.0000 44.8493 0.0000
# 6 0.0000 0.0000 0.0000 -3.5808 0.0000 25.9470
#
#
#
# Elastic Compliance Matrix: (Units=1/GPa)
#
#
# Indices 1 2 3 4 5 6 
#
# 1 0.017299 0.000075 -0.005214 0.000000 -0.000218 0.000000
# 2 0.000075 0.032137 -0.008685 0.000000 -0.002799 0.000000
# 3 -0.005214 -0.008685 0.014981 0.000000 -0.001440 0.000000
# 4 0.000000 0.000000 0.000000 0.045932 0.000000 0.006339
# 5 -0.000218 -0.002799 -0.001440 0.000000 0.023004 0.000000
# 6 0.000000 0.000000 0.000000 0.006339 0.000000 0.039415
#
#
# Mechanical properties :
#
#
# Convention : Reuss Voigt Hill
#
# Bulk Modulus (GPa) = 27.19579 35.44947 31.32263
# Shear Modulus (GPa) = 23.51034 27.67052 25.59043
#
# Velocity S-wave (km/s) = 3.15240 3.41995 3.28890
# Velocity P-wave (km/s) = 4.97449 5.52982 5.25949
#
# Compressibility (1/GPa) = 0.03677039
#
# Stress axis : x y z
#
# Youngs Moduli (GPa) = 57.80600 31.11679 66.74929
#
# Poissons Ratio (x) = -0.00235 0.34802
# Poissons Ratio (y) = -0.00436 0.57973
# Poissons Ratio (z) = 0.30139 0.27026
#
# Static dielectric constant tensor:
#      x y z
#    x 1.901030 0.000000 -0.015130 
#    y 0.000000 2.027360 0.000000 
#    z -0.015130 0.000000 2.005930 
# 
# From -- ./inp_files/19275.got.cif
#   From: 2010.05.17/outbox.cif.g08.bks.cpg/sg9_10_cif.got.tgz:19275.got - 2010.06.03 20:04:27.
