data_PCOD9134312
_publ_section_title
;
Structure prediction by ZEFSAII (Michael W. Deem and Ramdas Pophale) SiO2 
 PCOD9134312
Probable space group: C C
;
_chemical_formula_sum "Si O2"
_cell_formula_units_Z 28
_cell_length_a 14.316007
_cell_length_b 19.549907
_cell_length_c 12.288002
_cell_angle_alpha 90.000000
_cell_angle_beta 30.877422
_cell_angle_gamma 90.000000
_cell_volume 1764.969186
_symmetry_space_group_name_H-M "C C"
_symmetry_group_IT_number 9
_symmetry_cell_setting 'monoclinic'
loop_
_space_group_symop_operation_xyz
x,y,z
x,-y,1/2+z
1/2+x,1/2+y,z
1/2+x,1/2-y,1/2+z
loop_
_atom_site_type_symbol
_atom_site_label
_atom_site_fract_x
_atom_site_fract_y
_atom_site_fract_z
Si Si1 0.798730 0.054264 0.346520
Si Si2 0.016213 0.559959 0.199429
Si Si3 0.799050 0.109597 0.573616
Si Si4 0.298926 0.553706 0.101139
Si Si5 0.010065 0.329111 0.519674
Si Si6 0.088006 0.170970 0.441667
Si Si7 0.081311 0.939960 0.134279
O O1 0.798876 0.109056 0.443473
O O2 0.798834 0.080309 0.223654
O O3 0.622280 0.005585 0.543349
O O4 0.975023 0.005485 0.190633
O O5 0.050132 0.622548 0.082866
O O6 0.798751 0.549933 0.428393
O O7 0.121335 0.572839 0.207725
O O8 0.969993 0.145638 0.458389
O O9 0.799210 0.029364 0.606624
O O10 0.628042 0.145505 0.800453
O O11 0.476289 0.572999 0.852715
O O12 0.799028 0.337204 0.705029
O O13 0.049152 0.250044 0.505022
O O14 0.047665 0.122616 0.585213
#
# Coordination Sequence:
#
# PCOD9134312 Si02
#       7
#     4   4   4   4   4   4   4
#     4  10  20  34  54  72 116 144 172 217 259 337
#     4   9  19  32  50  81 107 135 179 216 273 313
#     4  10  19  34  49  82 104 139 178 207 278 301
#     4  10  19  34  55  72 116 139 172 226 257 330
#     4  11  20  32  55  80 108 136 174 225 263 319
#     4  11  20  32  55  80 108 136 174 225 263 319
#     4   9  19  32  50  81 107 135 179 216 273 313
#
# _framework density 15.8643
#
# number of rings (size 3 to 8) (size 9 to 14) (size 15 to 20)
#    0.000    2.286    4.286    0.857    0.000    5.714 
#    0.000    0.000    0.000    1.714    0.000    0.000 
#    0.000    0.000    0.000    0.000    0.000    0.000 
#
# Total GULP energy -78018.935460 kJ/mol
# GULP energy per Si atom -5572.781104 kJ/mol
# Density = 1.582819 g / cm^3
# Si number density = 15.864300 Si / 1000 Ang^3
#
#
#
# Elastic Constant Matrix: (Units=GPa)
#
#
# Indices 1 2 3 4 5 6 
#
# 1 123.9665 34.9935 93.0742 -0.0028 14.7795 0.0079
# 2 34.9935 57.7938 35.9891 0.0018 -0.9541 0.0005
# 3 93.0742 35.9891 114.2232 0.0028 -2.2081 -0.0078
# 4 -0.0028 0.0018 0.0028 25.1373 -0.0030 -5.5913
# 5 14.7795 -0.9541 -2.2081 -0.0030 30.0689 0.0008
# 6 0.0079 0.0005 -0.0078 -5.5913 0.0008 20.6972
#
#
#
# Elastic Compliance Matrix: (Units=1/GPa)
#
#
# Indices 1 2 3 4 5 6 
#
# 1 0.026147 -0.003271 -0.020555 0.000000 -0.014465 -0.000017
# 2 -0.003271 0.021937 -0.004208 -0.000002 0.001995 -0.000001
# 3 -0.020555 -0.004208 0.027061 0.000000 0.011957 0.000018
# 4 0.000000 -0.000002 0.000000 0.042325 0.000004 0.011434
# 5 -0.014465 0.001995 0.011957 0.000004 0.041308 0.000009
# 6 -0.000017 -0.000001 0.000018 0.011434 0.000009 0.051405
#
#
# Mechanical properties :
#
#
# Convention : Reuss Voigt Hill
#
# Bulk Modulus (GPa) = 52.41853 69.34412 60.88133
# Shear Modulus (GPa) = 18.34124 23.97579 21.15851
#
# Velocity S-wave (km/s) = 3.40388 3.89177 3.65597
# Velocity P-wave (km/s) = 6.96865 8.00001 7.50208
#
# Compressibility (1/GPa) = 0.01907722
#
# Stress axis : x y z
#
# Youngs Moduli (GPa) = 38.24472 45.58582 36.95342
#
# Poissons Ratio (x) = 0.14910 0.75958
# Poissons Ratio (y) = 0.12509 0.15550
# Poissons Ratio (z) = 0.78613 0.19183
#
# Static dielectric constant tensor:
#      x y z
#    x 1.538660 0.000000 -0.000350 
#    y 0.000000 1.514190 0.000000 
#    z -0.000350 0.000000 1.538880 
# 
# From -- ./inp_files/18498.got.cif
#   From: 2010.05.17/outbox.cif.g08.bks.cpg/sg9_10_cif.got.tgz:18498.got - 2010.06.03 20:04:27.
