data_PCOD9134971
_publ_section_title
;
Structure prediction by ZEFSAII (Michael W. Deem and Ramdas Pophale) SiO2 
 PCOD9134971
Probable space group: C C
;
_chemical_formula_sum "Si O2"
_cell_formula_units_Z 32
_cell_length_a 18.030937
_cell_length_b 5.187597
_cell_length_c 18.202414
_cell_angle_alpha 90.000000
_cell_angle_beta 76.281847
_cell_angle_gamma 90.000000
_cell_volume 1654.035061
_symmetry_space_group_name_H-M "C C"
_symmetry_group_IT_number 9
_symmetry_cell_setting 'monoclinic'
loop_
_space_group_symop_operation_xyz
x,y,z
x,-y,1/2+z
1/2+x,1/2+y,z
1/2+x,1/2-y,1/2+z
loop_
_atom_site_type_symbol
_atom_site_label
_atom_site_fract_x
_atom_site_fract_y
_atom_site_fract_z
Si Si1 0.118510 0.528010 0.672020
Si Si2 0.974405 0.728748 0.284823
Si Si3 0.595977 0.591018 0.306079
Si Si4 0.325599 0.728000 0.720494
Si Si5 0.226089 0.758503 0.238581
Si Si6 0.510404 0.946493 0.423314
Si Si7 0.532779 0.230475 0.561711
Si Si8 0.442269 0.260492 0.075487
O O1 0.040026 0.395900 0.718154
O O2 0.130286 0.751343 0.729647
O O3 0.187001 0.328464 0.670356
O O4 0.103291 0.648256 0.596128
O O5 0.972007 0.569481 0.361026
O O6 0.895864 0.751819 0.260619
O O7 0.012704 0.997942 0.299210
O O8 0.652526 0.350768 0.303387
O O9 0.579986 0.770862 0.378839
O O10 0.271022 0.492382 0.755344
O O11 0.363786 0.666465 0.632196
O O12 0.282299 0.999091 0.724527
O O13 0.540602 0.162213 0.473697
O O14 0.451446 0.777619 0.485918
O O15 0.504062 0.519312 0.581250
O O16 0.466073 0.024261 0.598101
#
# Coordination Sequence:
#
# PCOD9134971 Si02
#       8
#     4   4   4   4   4   4   4   4
#     4  10  20  39  64  91 119 156 211 258 296 366
#     4  10  20  35  66  93 115 158 212 256 304 355
#     4  10  20  40  63  94 122 162 208 262 303 365
#     4  12  23  40  63  93 127 162 203 260 309 371
#     4  11  25  39  59  94 128 160 197 256 319 366
#     4   9  21  36  63  92 123 157 209 265 300 363
#     4  10  20  36  62  93 113 155 203 261 302 351
#     4  10  21  37  60  94 121 154 207 258 309 351
#
# _framework density 19.346627999999999
#
# number of rings (size 3 to 8) (size 9 to 14) (size 15 to 20)
#    0.750    1.000    2.500    2.250    5.250    0.000 
#    0.000    0.000    2.750    3.000    0.000    0.000 
#    0.000    0.000    0.000    0.000    0.000    0.000 
#
# Total GULP energy -89092.460464 kJ/mol
# GULP energy per Si atom -5568.278779 kJ/mol
# Density = 1.930259 g / cm^3
# Si number density = 19.346628 Si / 1000 Ang^3
#
#
#
# Elastic Constant Matrix: (Units=GPa)
#
#
# Indices 1 2 3 4 5 6 
#
# 1 115.2110 46.9241 36.4144 0.0000 20.2822 0.0000
# 2 46.9241 107.7853 26.5095 0.0000 6.2165 0.0000
# 3 36.4144 26.5095 87.3649 0.0000 6.9798 0.0000
# 4 0.0000 0.0000 0.0000 19.0950 0.0000 -2.8849
# 5 20.2822 6.2165 6.9798 0.0000 13.8994 0.0000
# 6 0.0000 0.0000 0.0000 -2.8849 0.0000 38.1011
#
#
#
# Elastic Compliance Matrix: (Units=1/GPa)
#
#
# Indices 1 2 3 4 5 6 
#
# 1 0.014719 -0.004564 -0.003331 0.000000 -0.017764 0.000000
# 2 -0.004564 0.011569 -0.001799 0.000000 0.002389 0.000000
# 3 -0.003331 -0.001799 0.013468 0.000000 -0.001098 0.000000
# 4 0.000000 0.000000 0.000000 0.052976 0.000000 0.004011
# 5 -0.017764 0.002389 -0.001098 0.000000 0.097350 0.000000
# 6 0.000000 0.000000 0.000000 0.004011 0.000000 0.026550
#
#
# Mechanical properties :
#
#
# Convention : Reuss Voigt Hill
#
# Bulk Modulus (GPa) = 49.09562 58.89525 53.99543
# Shear Modulus (GPa) = 20.59237 27.58665 24.08951
#
# Velocity S-wave (km/s) = 3.26604 3.78023 3.53250
# Velocity P-wave (km/s) = 6.29719 7.04001 6.67893
#
# Compressibility (1/GPa) = 0.02036842
#
# Stress axis : x y z
#
# Youngs Moduli (GPa) = 67.94163 86.43556 74.24917
#
# Poissons Ratio (x) = 0.39449 0.24731
# Poissons Ratio (y) = 0.31008 0.13358
# Poissons Ratio (z) = 0.22630 0.15550
#
# Static dielectric constant tensor:
#      x y z
#    x 1.681560 0.000000 -0.004290 
#    y 0.000000 1.749660 0.000000 
#    z -0.004290 0.000000 1.701490 
# 
# From -- ./inp_files/30827.got.cif
#   From: 2010.05.17/outbox.cif.g08.bks.cpg/sg9_16_cif.got.tgz:30827.got - 2010.06.03 20:04:27.
