data_PCOD9134226
_publ_section_title
;
Structure prediction by ZEFSAII (Michael W. Deem and Ramdas Pophale) SiO2 
 PCOD9134226
Probable space group: C C
;
_chemical_formula_sum "Si O2"
_cell_formula_units_Z 28
_cell_length_a 10.002180
_cell_length_b 20.946158
_cell_length_c 5.510089
_cell_angle_alpha 90.000000
_cell_angle_beta 68.018725
_cell_angle_gamma 90.000000
_cell_volume 1070.485608
_symmetry_space_group_name_H-M "C C"
_symmetry_group_IT_number 9
_symmetry_cell_setting 'monoclinic'
loop_
_space_group_symop_operation_xyz
x,y,z
x,-y,1/2+z
1/2+x,1/2+y,z
1/2+x,1/2-y,1/2+z
loop_
_atom_site_type_symbol
_atom_site_label
_atom_site_fract_x
_atom_site_fract_y
_atom_site_fract_z
Si Si1 0.620570 0.716852 0.340410
Si Si2 0.750368 0.325422 0.231925
Si Si3 0.363910 0.697490 0.176065
Si Si4 0.588321 0.017700 0.647257
Si Si5 0.191819 0.351662 0.162463
Si Si6 0.213479 0.032368 0.637384
Si Si7 0.381569 0.569472 0.862444
O O1 0.633739 0.685695 0.594460
O O2 0.461341 0.709120 0.346202
O O3 0.658975 0.791526 0.350111
O O4 0.709328 0.688448 0.044053
O O5 0.860935 0.269110 0.073688
O O6 0.775324 0.399574 0.180786
O O7 0.207381 0.680412 0.390245
O O8 0.399276 0.630068 0.030665
O O9 0.580391 0.908288 0.226676
O O10 0.746487 0.979036 0.515314
O O11 0.524094 0.015158 0.424863
O O12 0.328120 0.393955 0.157243
O O13 0.248421 0.015417 0.335320
O O14 0.035823 0.036479 0.751569
#
# Coordination Sequence:
#
# PCOD9134226 Si02
#       7
#     4   4   4   4   4   4   4
#     4  11  23  38  62  89 123 163 206 251 305 374
#     4  11  24  42  60  91 126 162 204 256 311 362
#     4  11  22  38  61  88 124 163 205 252 299 376
#     4  10  19  30  51  78 113 148 181 233 301 355
#     4  10  21  36  55  86 127 156 199 246 312 361
#     4  12  25  39  62  91 124 159 205 253 315 376
#     4  11  20  35  57  89 121 157 192 253 311 362
#
# _framework density 26.156355000000001
#
# number of rings (size 3 to 8) (size 9 to 14) (size 15 to 20)
#    0.000    1.143    4.286    3.429    2.000    0.000 
#    0.000    0.000    0.000    3.429    0.000    0.000 
#    0.000    0.000    0.000    0.000    0.000    0.000 
#
# Total GULP energy -78007.895148 kJ/mol
# GULP energy per Si atom -5571.992511 kJ/mol
# Density = 2.609682 g / cm^3
# Si number density = 26.156355 Si / 1000 Ang^3
#
#
#
# Elastic Constant Matrix: (Units=GPa)
#
#
# Indices 1 2 3 4 5 6 
#
# 1 90.2763 10.7143 12.2384 0.0000 14.6347 0.0000
# 2 10.7143 134.6640 22.0413 0.0000 -18.3670 0.0000
# 3 12.2384 22.0413 85.1010 0.0000 2.9731 0.0000
# 4 0.0000 0.0000 0.0000 46.6048 0.0000 9.8189
# 5 14.6347 -18.3670 2.9731 0.0000 32.1218 0.0000
# 6 0.0000 0.0000 0.0000 9.8189 0.0000 32.0122
#
#
#
# Elastic Compliance Matrix: (Units=1/GPa)
#
#
# Indices 1 2 3 4 5 6 
#
# 1 0.012496 -0.001705 -0.001126 0.000000 -0.006564 0.000000
# 2 -0.001705 0.008742 -0.002228 0.000000 0.005982 0.000000
# 3 -0.001126 -0.002228 0.012557 0.000000 -0.001923 0.000000
# 4 0.000000 0.000000 0.000000 0.022939 0.000000 -0.007036
# 5 -0.006564 0.005982 -0.001923 0.000000 0.037720 0.000000
# 6 0.000000 0.000000 0.000000 -0.007036 0.000000 0.033396
#
#
# Mechanical properties :
#
#
# Convention : Reuss Voigt Hill
#
# Bulk Modulus (GPa) = 42.23566 44.44771 43.34169
# Shear Modulus (GPa) = 34.27894 39.81757 37.04826
#
# Velocity S-wave (km/s) = 3.62407 3.90589 3.76761
# Velocity P-wave (km/s) = 5.80467 6.11320 5.96093
#
# Compressibility (1/GPa) = 0.02367667
#
# Stress axis : x y z
#
# Youngs Moduli (GPa) = 80.02399 114.38911 79.63734
#
# Poissons Ratio (x) = 0.19506 0.08968
# Poissons Ratio (y) = 0.13646 0.17743
# Poissons Ratio (z) = 0.09012 0.25486
#
# Static dielectric constant tensor:
#      x y z
#    x 2.247930 0.000000 -0.050770 
#    y 0.000000 2.139010 0.000000 
#    z -0.050770 0.000000 2.082590 
# 
# From -- ./inp_files/1772.got.cif
#   From: 2010.05.17/outbox.cif.g08.bks.cpg/sg9_1_cif.got.tgz:1772.got - 2010.06.03 20:04:27.
