data_PCOD9134929
_publ_section_title
;
Structure prediction by ZEFSAII (Michael W. Deem and Ramdas Pophale) SiO2 
 PCOD9134929
Probable space group: C C
;
_chemical_formula_sum "Si O2"
_cell_formula_units_Z 28
_cell_length_a 23.365594
_cell_length_b 7.703193
_cell_length_c 19.286033
_cell_angle_alpha 90.000000
_cell_angle_beta 157.405856
_cell_angle_gamma 90.000000
_cell_volume 1333.671773
_symmetry_space_group_name_H-M "C C"
_symmetry_group_IT_number 9
_symmetry_cell_setting 'monoclinic'
loop_
_space_group_symop_operation_xyz
x,y,z
x,-y,1/2+z
1/2+x,1/2+y,z
1/2+x,1/2-y,1/2+z
loop_
_atom_site_type_symbol
_atom_site_label
_atom_site_fract_x
_atom_site_fract_y
_atom_site_fract_z
Si Si1 0.771160 0.917624 0.644500
Si Si2 0.820006 0.295208 0.978496
Si Si3 0.952948 0.254656 0.876742
Si Si4 0.058514 0.286538 0.519323
Si Si5 0.691233 0.476075 0.594438
Si Si6 0.536016 0.084671 0.605778
Si Si7 0.123822 0.830947 0.880795
O O1 0.642166 0.907422 0.557336
O O2 0.699140 0.848274 0.493051
O O3 0.852772 0.099434 0.735271
O O4 0.899347 0.784940 0.815095
O O5 0.695204 0.160291 0.809882
O O6 0.730575 0.396558 0.938785
O O7 0.906624 0.413933 0.019218
O O8 0.959144 0.195946 0.168517
O O9 0.858580 0.428182 0.760769
O O10 0.111840 0.204218 0.024079
O O11 0.978520 0.267933 0.987594
O O12 0.052508 0.400880 0.583008
O O13 0.157556 0.107371 0.620925
O O14 0.620431 0.557105 0.446560
#
# Coordination Sequence:
#
# PCOD9134929 Si02
#       7
#     4   4   4   4   4   4   4
#     4  10  20  35  63  91 118 149 193 260 303 345
#     4  10  22  36  61  84 123 175 200 231 277 369
#     4  11  21  36  61  93 119 148 194 258 313 344
#     4  10  20  35  57  89 116 146 193 249 306 346
#     4  10  22  37  64  91 117 150 195 263 309 350
#     4  11  21  37  58  87 120 161 206 239 295 357
#     4  10  20  40  60  89 121 161 207 232 293 357
#
# _framework density 20.994672000000001
#
# number of rings (size 3 to 8) (size 9 to 14) (size 15 to 20)
#    0.000    1.714    0.000    6.857    0.000    2.286 
#    0.000    0.000    0.000   58.286    0.000    0.000 
#    0.000    0.000    0.000    0.000    0.000    0.000 
#
# Total GULP energy -77959.718671 kJ/mol
# GULP energy per Si atom -5568.551334 kJ/mol
# Density = 2.094689 g / cm^3
# Si number density = 20.994672 Si / 1000 Ang^3
#
#
#
# Elastic Constant Matrix: (Units=GPa)
#
#
# Indices 1 2 3 4 5 6 
#
# 1 133.3437 33.0692 25.4794 0.0000 16.5640 0.0000
# 2 33.0692 101.2319 25.2101 0.0000 3.0208 0.0000
# 3 25.4794 25.2101 113.4418 0.0000 4.4391 0.0000
# 4 0.0000 0.0000 0.0000 26.2594 0.0000 16.9462
# 5 16.5640 3.0208 4.4391 0.0000 41.6926 0.0000
# 6 0.0000 0.0000 0.0000 16.9462 0.0000 16.9114
#
#
#
# Elastic Compliance Matrix: (Units=1/GPa)
#
#
# Indices 1 2 3 4 5 6 
#
# 1 0.008745 -0.002439 -0.001298 0.000000 -0.003159 0.000000
# 2 -0.002439 0.011148 -0.001944 0.000000 0.000368 0.000000
# 3 -0.001298 -0.001944 0.009553 0.000000 -0.000360 0.000000
# 4 0.000000 0.000000 0.000000 0.107778 0.000000 -0.108000
# 5 -0.003159 0.000368 -0.000360 0.000000 0.025252 0.000000
# 6 0.000000 0.000000 0.000000 -0.108000 0.000000 0.167354
#
#
# Mechanical properties :
#
#
# Convention : Reuss Voigt Hill
#
# Bulk Modulus (GPa) = 55.30113 57.28165 56.29139
# Shear Modulus (GPa) = 14.40006 34.58992 24.49499
#
# Velocity S-wave (km/s) = 2.62179 4.06341 3.41944
# Velocity P-wave (km/s) = 5.96346 7.02554 6.51617
#
# Compressibility (1/GPa) = 0.01808281
#
# Stress axis : x y z
#
# Youngs Moduli (GPa) = 114.35299 89.70050 104.68072
#
# Poissons Ratio (x) = 0.21878 0.13592
# Poissons Ratio (y) = 0.27891 0.20351
# Poissons Ratio (z) = 0.14848 0.17438
#
# Static dielectric constant tensor:
#      x y z
#    x 1.786300 0.000000 0.030290 
#    y 0.000000 1.818040 0.000000 
#    z 0.030290 0.000000 1.823200 
# 
# From -- ./inp_files/34593.got.cif
#   From: 2010.05.17/outbox.cif.g08.bks.cpg/sg9_18_cif.got.tgz:34593.got - 2010.06.03 20:04:27.
