data_PCOD9134176
_publ_section_title
;
Structure prediction by ZEFSAII (Michael W. Deem and Ramdas Pophale) SiO2 
 PCOD9134176
Probable space group: C C
;
_chemical_formula_sum "Si O2"
_cell_formula_units_Z 28
_cell_length_a 12.705392
_cell_length_b 8.953335
_cell_length_c 14.522554
_cell_angle_alpha 90.000000
_cell_angle_beta 138.079814
_cell_angle_gamma 90.000000
_cell_volume 1103.707410
_symmetry_space_group_name_H-M "C C"
_symmetry_group_IT_number 9
_symmetry_cell_setting 'monoclinic'
loop_
_space_group_symop_operation_xyz
x,y,z
x,-y,1/2+z
1/2+x,1/2+y,z
1/2+x,1/2-y,1/2+z
loop_
_atom_site_type_symbol
_atom_site_label
_atom_site_fract_x
_atom_site_fract_y
_atom_site_fract_z
Si Si1 0.019210 0.153383 0.210430
Si Si2 0.034127 0.390960 0.589807
Si Si3 0.427124 0.672138 0.950815
Si Si4 0.293549 0.853375 0.691238
Si Si5 0.753347 0.945181 0.093241
Si Si6 0.138083 0.534322 0.826701
Si Si7 0.742801 0.393374 0.271378
O O1 0.102158 0.290125 0.314974
O O2 0.881055 0.076387 0.176881
O O3 0.128348 0.017029 0.245092
O O4 0.946943 0.223709 0.069495
O O5 0.127817 0.516229 0.590694
O O6 0.013402 0.457963 0.678488
O O7 0.140389 0.244879 0.671543
O O8 0.875910 0.355215 0.432045
O O9 0.345151 0.779325 0.823886
O O10 0.307877 0.533296 0.884652
O O11 0.606960 0.639807 0.041929
O O12 0.341567 0.712577 0.660174
O O13 0.323755 0.025893 0.735103
O O14 0.663502 0.950829 0.938050
#
# Coordination Sequence:
#
# PCOD9134176 Si02
#       7
#     4   4   4   4   4   4   4
#     4  10  23  45  72 111 143 195 245 305 381 447
#     4  12  27  49  73 108 150 200 252 313 371 450
#     4  10  18  38  78  93 134 194 233 288 364 449
#     4  11  21  44  72 106 137 192 249 292 379 430
#     4  11  26  43  76 110 146 193 254 309 372 452
#     4  11  23  46  75 103 152 188 249 304 383 446
#     4  11  26  47  78 103 152 206 248 311 380 438
#
# _framework density 25.369040999999999
#
# number of rings (size 3 to 8) (size 9 to 14) (size 15 to 20)
#    0.000    1.143    4.286    1.714   10.000    0.000 
#    5.143    0.000    0.000    0.000    0.000    0.000 
#    0.000    0.000    0.000    0.000    0.000    0.000 
#
# Total GULP energy -78226.872348 kJ/mol
# GULP energy per Si atom -5587.633739 kJ/mol
# Density = 2.531130 g / cm^3
# Si number density = 25.369041 Si / 1000 Ang^3
#
#
#
# Elastic Constant Matrix: (Units=GPa)
#
#
# Indices 1 2 3 4 5 6 
#
# 1 40.8673 26.4045 19.0698 0.0000 5.3555 0.0000
# 2 26.4045 151.6814 66.3344 0.0000 -5.4892 0.0000
# 3 19.0698 66.3344 179.8411 0.0000 4.6955 0.0000
# 4 0.0000 0.0000 0.0000 35.3227 0.0000 6.8941
# 5 5.3555 -5.4892 4.6955 0.0000 36.3184 0.0000
# 6 0.0000 0.0000 0.0000 6.8941 0.0000 45.9459
#
#
#
# Elastic Compliance Matrix: (Units=1/GPa)
#
#
# Indices 1 2 3 4 5 6 
#
# 1 0.028650 -0.004633 -0.001204 0.000000 -0.004769 0.000000
# 2 -0.004633 0.008700 -0.002779 0.000000 0.002357 0.000000
# 3 -0.001204 -0.002779 0.006742 0.000000 -0.001114 0.000000
# 4 0.000000 0.000000 0.000000 0.029164 0.000000 -0.004376
# 5 -0.004769 0.002357 -0.001114 0.000000 0.028738 0.000000
# 6 0.000000 0.000000 0.000000 -0.004376 0.000000 0.022421
#
#
# Mechanical properties :
#
#
# Convention : Reuss Voigt Hill
#
# Bulk Modulus (GPa) = 37.23204 66.22299 51.72752
# Shear Modulus (GPa) = 33.19986 40.88948 37.04467
#
# Velocity S-wave (km/s) = 3.62149 4.01906 3.82544
# Velocity P-wave (km/s) = 5.67406 6.90635 6.32031
#
# Compressibility (1/GPa) = 0.02685859
#
# Stress axis : x y z
#
# Youngs Moduli (GPa) = 34.90400 114.94157 148.31484
#
# Poissons Ratio (x) = 0.53255 0.17864
# Poissons Ratio (y) = 0.16172 0.41221
# Poissons Ratio (z) = 0.04204 0.31946
#
# Static dielectric constant tensor:
#      x y z
#    x 2.180480 0.000000 0.029210 
#    y 0.000000 2.002880 0.000000 
#    z 0.029210 0.000000 1.963930 
# 
# From -- ./inp_files/25738.got.cif
#   From: 2010.05.17/outbox.cif.g08.bks.cpg/sg9_13_cif.got.tgz:25738.got - 2010.06.03 20:04:27.
