data_PCOD9134699
_publ_section_title
;
Structure prediction by ZEFSAII (Michael W. Deem and Ramdas Pophale) SiO2 
 PCOD9134699
Probable space group: C C
;
_chemical_formula_sum "Si O2"
_cell_formula_units_Z 28
_cell_length_a 5.371909
_cell_length_b 17.091832
_cell_length_c 14.550163
_cell_angle_alpha 90.000000
_cell_angle_beta 117.688972
_cell_angle_gamma 90.000000
_cell_volume 1182.947275
_symmetry_space_group_name_H-M "C C"
_symmetry_group_IT_number 9
_symmetry_cell_setting 'monoclinic'
loop_
_space_group_symop_operation_xyz
x,y,z
x,-y,1/2+z
1/2+x,1/2+y,z
1/2+x,1/2-y,1/2+z
loop_
_atom_site_type_symbol
_atom_site_label
_atom_site_fract_x
_atom_site_fract_y
_atom_site_fract_z
Si Si1 0.703480 0.437231 0.947190
Si Si2 0.664044 0.541404 0.656015
Si Si3 0.358801 0.317871 0.206626
Si Si4 0.173812 0.447127 0.537613
Si Si5 0.395224 0.197052 0.071023
Si Si6 0.328883 0.777400 0.008545
Si Si7 0.764735 0.931463 0.341788
O O1 0.498343 0.501030 0.867189
O O2 0.632451 0.442664 0.042676
O O3 0.709211 0.345886 0.922994
O O4 0.015903 0.471207 0.994086
O O5 0.527789 0.615000 0.683220
O O6 0.471094 0.464298 0.636461
O O7 0.980400 0.536560 0.745879
O O8 0.469493 0.235365 0.183901
O O9 0.354793 0.350935 0.308114
O O10 0.034027 0.318576 0.119022
O O11 0.975373 0.392681 0.566574
O O12 0.210733 0.416945 0.440232
O O13 0.579794 0.238458 0.023267
O O14 0.068866 0.221259 0.007523
#
# Coordination Sequence:
#
# PCOD9134699 Si02
#       7
#     4   4   4   4   4   4   4
#     4  11  21  38  68 103 126 189 238 286 348 427
#     4  11  19  40  64 100 137 180 234 292 348 422
#     4  10  19  39  68  94 135 187 230 275 360 413
#     4  11  24  37  68 108 131 182 240 294 351 420
#     4  10  22  39  69 100 133 182 235 281 357 427
#     4  10  20  40  70  94 129 189 230 271 348 428
#     4  11  23  35  67 105 143 177 243 303 350 411
#
# _framework density 23.669692000000001
#
# number of rings (size 3 to 8) (size 9 to 14) (size 15 to 20)
#    0.857    0.571    4.286    0.857    6.000    0.000 
#    0.000    0.000    0.000   25.714    0.000    0.000 
#    0.000    0.000    0.000    0.000    0.000    0.000 
#
# Total GULP energy -78111.000729 kJ/mol
# GULP energy per Si atom -5579.357195 kJ/mol
# Density = 2.361582 g / cm^3
# Si number density = 23.669692 Si / 1000 Ang^3
#
#
#
# Elastic Constant Matrix: (Units=GPa)
#
#
# Indices 1 2 3 4 5 6 
#
# 1 125.8758 24.4238 28.0394 0.0000 3.5161 0.0000
# 2 24.4238 51.5118 20.9213 0.0000 6.1385 0.0000
# 3 28.0394 20.9213 82.3685 0.0000 3.6922 0.0000
# 4 0.0000 0.0000 0.0000 28.7171 0.0000 3.0143
# 5 3.5161 6.1385 3.6922 0.0000 37.8635 0.0000
# 6 0.0000 0.0000 0.0000 3.0143 0.0000 50.3552
#
#
#
# Elastic Compliance Matrix: (Units=1/GPa)
#
#
# Indices 1 2 3 4 5 6 
#
# 1 0.009103 -0.003401 -0.002232 0.000000 -0.000076 0.000000
# 2 -0.003401 0.023258 -0.004615 0.000000 -0.003005 0.000000
# 3 -0.002232 -0.004615 0.014091 0.000000 -0.000419 0.000000
# 4 0.000000 0.000000 0.000000 0.035043 0.000000 -0.002098
# 5 -0.000076 -0.003005 -0.000419 0.000000 0.026946 0.000000
# 6 0.000000 0.000000 0.000000 -0.002098 0.000000 0.019984
#
#
# Mechanical properties :
#
#
# Convention : Reuss Voigt Hill
#
# Bulk Modulus (GPa) = 38.52455 45.16944 41.84699
# Shear Modulus (GPa) = 31.73129 35.81193 33.77161
#
# Velocity S-wave (km/s) = 3.66538 3.89393 3.78138
# Velocity P-wave (km/s) = 5.85017 6.27229 6.06491
#
# Compressibility (1/GPa) = 0.02595748
#
# Stress axis : x y z
#
# Youngs Moduli (GPa) = 109.84836 42.99607 70.96602
#
# Poissons Ratio (x) = 0.14622 0.15838
# Poissons Ratio (y) = 0.37357 0.32751
# Poissons Ratio (z) = 0.24515 0.19843
#
# Static dielectric constant tensor:
#      x y z
#    x 1.919160 0.000000 -0.028620 
#    y 0.000000 1.982890 0.000000 
#    z -0.028620 0.000000 1.902110 
# 
# From -- ./inp_files/28809.got.cif
#   From: 2010.05.17/outbox.cif.g08.bks.cpg/sg9_15_cif.got.tgz:28809.got - 2010.06.03 20:04:27.
