data_PCOD9134920
_publ_section_title
;
Structure prediction by ZEFSAII (Michael W. Deem and Ramdas Pophale) SiO2 
 PCOD9134920
Probable space group: C C
;
_chemical_formula_sum "Si O2"
_cell_formula_units_Z 28
_cell_length_a 19.140373
_cell_length_b 15.466769
_cell_length_c 5.305299
_cell_angle_alpha 90.000000
_cell_angle_beta 131.130706
_cell_angle_gamma 90.000000
_cell_volume 1182.977557
_symmetry_space_group_name_H-M "C C"
_symmetry_group_IT_number 9
_symmetry_cell_setting 'monoclinic'
loop_
_space_group_symop_operation_xyz
x,y,z
x,-y,1/2+z
1/2+x,1/2+y,z
1/2+x,1/2-y,1/2+z
loop_
_atom_site_type_symbol
_atom_site_label
_atom_site_fract_x
_atom_site_fract_y
_atom_site_fract_z
Si Si1 0.925540 0.366112 0.795960
Si Si2 0.356053 0.166401 0.626568
Si Si3 0.029176 0.756235 0.206783
Si Si4 0.063398 0.047407 0.673593
Si Si5 0.211969 0.307057 0.326384
Si Si6 0.841326 0.043397 0.109379
Si Si7 0.117572 0.444370 0.396114
O O1 0.886908 0.394990 0.430323
O O2 0.971487 0.272266 0.822650
O O3 0.009105 0.421404 0.106821
O O4 0.846804 0.365268 0.820534
O O5 0.264918 0.217759 0.495258
O O6 0.448844 0.228040 0.823693
O O7 0.121822 0.698948 0.435878
O O8 0.068145 0.852086 0.263590
O O9 0.951757 0.041355 0.376280
O O10 0.098400 0.986950 0.986142
O O11 0.292908 0.368371 0.414499
O O12 0.171000 0.354241 0.475369
O O13 0.813723 0.024261 0.330597
O O14 0.136160 0.505648 0.197353
#
# Coordination Sequence:
#
# PCOD9134920 Si02
#       7
#     4   4   4   4   4   4   4
#     4   9  21  39  63  82 129 167 207 248 300 382
#     4  10  21  40  58  89 123 157 217 251 302 372
#     4   9  22  40  60  89 118 166 203 255 309 372
#     4  10  21  36  60  82 116 154 191 243 308 367
#     4  11  22  39  63  94 125 162 205 263 310 377
#     4  10  20  35  54  87 123 151 185 242 311 371
#     4  11  23  39  62  97 134 165 204 260 328 389
#
# _framework density 23.669089
#
# number of rings (size 3 to 8) (size 9 to 14) (size 15 to 20)
#    0.857    1.143    1.429    1.714    2.000    3.429 
#    5.143    0.000    0.000    5.143    0.000    0.000 
#    0.000    0.000    0.000    0.000    0.000    0.000 
#
# Total GULP energy -77986.829087 kJ/mol
# GULP energy per Si atom -5570.487792 kJ/mol
# Density = 2.361522 g / cm^3
# Si number density = 23.669089 Si / 1000 Ang^3
#
#
#
# Elastic Constant Matrix: (Units=GPa)
#
#
# Indices 1 2 3 4 5 6 
#
# 1 60.8316 10.8612 35.6013 0.0000 -25.9654 0.0000
# 2 10.8612 37.4535 15.7476 0.0000 -16.5502 0.0000
# 3 35.6013 15.7476 72.2185 0.0000 -14.4581 0.0000
# 4 0.0000 0.0000 0.0000 34.9947 0.0000 12.7887
# 5 -25.9654 -16.5502 -14.4581 0.0000 31.6074 0.0000
# 6 0.0000 0.0000 0.0000 12.7887 0.0000 19.7678
#
#
#
# Elastic Compliance Matrix: (Units=1/GPa)
#
#
# Indices 1 2 3 4 5 6 
#
# 1 0.033607 0.006889 -0.013012 0.000000 0.025263 0.000000
# 2 0.006889 0.037424 -0.007156 0.000000 0.021982 0.000000
# 3 -0.013012 -0.007156 0.020840 0.000000 -0.004903 0.000000
# 4 0.000000 0.000000 0.000000 0.037424 0.000000 -0.024211
# 5 0.025263 0.021982 -0.004903 0.000000 0.061659 0.000000
# 6 0.000000 0.000000 0.000000 -0.024211 0.000000 0.066250
#
#
# Mechanical properties :
#
#
# Convention : Reuss Voigt Hill
#
# Bulk Modulus (GPa) = 15.31063 32.76933 24.03998
# Shear Modulus (GPa) = 16.36480 24.49353 20.42917
#
# Velocity S-wave (km/s) = 2.63230 3.22037 2.94107
# Velocity P-wave (km/s) = 3.96501 5.26332 4.65961
#
# Compressibility (1/GPa) = 0.06531409
#
# Stress axis : x y z
#
# Youngs Moduli (GPa) = 29.75537 26.72062 47.98488
#
# Poissons Ratio (x) = -0.18407 0.62436
# Poissons Ratio (y) = -0.20497 0.34336
# Poissons Ratio (z) = 0.38717 0.19120
#
# Static dielectric constant tensor:
#      x y z
#    x 1.929770 0.000000 -0.004720 
#    y 0.000000 1.959250 0.000000 
#    z -0.004720 0.000000 1.919500 
# 
# From -- ./inp_files/3209.got.cif
#   From: 2010.05.17/outbox.cif.g08.bks.cpg/sg9_2_cif.got.tgz:3209.got - 2010.06.03 20:04:27.
