data_PCOD9134660
_publ_section_title
;
Structure prediction by ZEFSAII (Michael W. Deem and Ramdas Pophale) SiO2 
 PCOD9134660
Probable space group: C C
;
_chemical_formula_sum "Si O2"
_cell_formula_units_Z 32
_cell_length_a 17.003099
_cell_length_b 10.919433
_cell_length_c 8.530439
_cell_angle_alpha 90.000000
_cell_angle_beta 125.587425
_cell_angle_gamma 90.000000
_cell_volume 1287.988973
_symmetry_space_group_name_H-M "C C"
_symmetry_group_IT_number 9
_symmetry_cell_setting 'monoclinic'
loop_
_space_group_symop_operation_xyz
x,y,z
x,-y,1/2+z
1/2+x,1/2+y,z
1/2+x,1/2-y,1/2+z
loop_
_atom_site_type_symbol
_atom_site_label
_atom_site_fract_x
_atom_site_fract_y
_atom_site_fract_z
Si Si1 0.088530 0.770913 0.788620
Si Si2 0.942861 0.539880 0.920106
Si Si3 0.569615 0.448632 0.190686
Si Si4 0.873505 0.332798 0.072194
Si Si5 0.797134 0.895252 0.384260
Si Si6 0.427687 0.450840 0.271592
Si Si7 0.617251 0.887488 0.011347
Si Si8 0.623916 0.200787 0.176202
O O1 0.099877 0.714470 0.626380
O O2 0.973329 0.746303 0.689482
O O3 0.103009 0.917560 0.786375
O O4 0.136260 0.701782 0.996581
O O5 0.861865 0.605546 0.725772
O O6 0.019082 0.465274 0.897494
O O7 0.014073 0.646251 0.064539
O O8 0.894584 0.441947 0.977031
O O9 0.506648 0.387618 0.255980
O O10 0.643111 0.345660 0.225775
O O11 0.492222 0.466216 0.961585
O O12 0.786496 0.240902 0.938601
O O13 0.854591 0.975739 0.575394
O O14 0.702692 0.960568 0.204601
O O15 0.864881 0.870016 0.313042
O O16 0.658068 0.852719 0.887981
#
# Coordination Sequence:
#
# PCOD9134660 Si02
#       8
#     4   4   4   4   4   4   4   4
#     4  10  21  39  65  94 124 161 223 271 310 384
#     4  10  21  38  63  89 119 163 221 259 310 387
#     4  11  18  38  64  97 116 155 220 273 320 372
#     4  10  19  39  61  90 120 162 214 267 305 384
#     4  11  24  39  59  94 132 165 208 267 339 387
#     4  10  20  35  61  90 125 157 198 268 328 380
#     4  11  25  41  61  93 130 173 211 266 328 386
#     4  11  22  37  66  93 122 164 213 265 322 376
#
# _framework density 24.844933999999999
#
# number of rings (size 3 to 8) (size 9 to 14) (size 15 to 20)
#    0.000    1.500    5.000    1.500    3.500    0.000 
#    2.250    1.250    0.000    0.000    0.000    0.000 
#    0.000    0.000    0.000    0.000    0.000    0.000 
#
# Total GULP energy -89081.447670 kJ/mol
# GULP energy per Si atom -5567.590479 kJ/mol
# Density = 2.478839 g / cm^3
# Si number density = 24.844934 Si / 1000 Ang^3
#
#
#
# Elastic Constant Matrix: (Units=GPa)
#
#
# Indices 1 2 3 4 5 6 
#
# 1 50.1712 3.6943 27.0865 0.0000 -27.9442 0.0000
# 2 3.6943 89.2098 33.9268 0.0000 -23.2214 0.0000
# 3 27.0865 33.9268 157.4864 0.0000 -27.8743 0.0000
# 4 0.0000 0.0000 0.0000 44.1956 0.0000 -7.3309
# 5 -27.9442 -23.2214 -27.8743 0.0000 36.6710 0.0000
# 6 0.0000 0.0000 0.0000 -7.3309 0.0000 16.8764
#
#
#
# Elastic Compliance Matrix: (Units=1/GPa)
#
#
# Indices 1 2 3 4 5 6 
#
# 1 0.038988 0.007898 -0.002615 0.000000 0.032723 0.000000
# 2 0.007898 0.015381 -0.002175 0.000000 0.014105 0.000000
# 3 -0.002615 -0.002175 0.007709 0.000000 0.002489 0.000000
# 4 0.000000 0.000000 0.000000 0.024384 0.000000 0.010592
# 5 0.032723 0.014105 0.002489 0.000000 0.063029 0.000000
# 6 0.000000 0.000000 0.000000 0.010592 0.000000 0.063855
#
#
# Mechanical properties :
#
#
# Convention : Reuss Voigt Hill
#
# Bulk Modulus (GPa) = 14.64280 47.36472 31.00376
# Shear Modulus (GPa) = 21.74894 35.02592 28.38743
#
# Velocity S-wave (km/s) = 2.96190 3.75878 3.38388
# Velocity P-wave (km/s) = 4.19567 6.15982 5.27006
#
# Compressibility (1/GPa) = 0.06829295
#
# Stress axis : x y z
#
# Youngs Moduli (GPa) = 25.64868 65.01406 129.72233
#
# Poissons Ratio (x) = -0.51348 0.33926
# Poissons Ratio (y) = -0.20257 0.28221
# Poissons Ratio (z) = 0.06708 0.14144
#
# Static dielectric constant tensor:
#      x y z
#    x 1.993680 0.000000 -0.005420 
#    y 0.000000 2.004830 0.000000 
#    z -0.005420 0.000000 2.028490 
# 
# From -- ./inp_files/10553.got.cif
#   From: 2010.05.17/outbox.cif.g08.bks.cpg/sg9_6_cif.got.tgz:10553.got - 2010.06.03 20:04:27.
