data_PCOD9134642
_publ_section_title
;
Structure prediction by ZEFSAII (Michael W. Deem and Ramdas Pophale) SiO2 
 PCOD9134642
Probable space group: C C
;
_chemical_formula_sum "Si O2"
_cell_formula_units_Z 32
_cell_length_a 12.456527
_cell_length_b 7.271166
_cell_length_c 18.748657
_cell_angle_alpha 90.000000
_cell_angle_beta 134.754046
_cell_angle_gamma 90.000000
_cell_volume 1205.903396
_symmetry_space_group_name_H-M "C C"
_symmetry_group_IT_number 9
_symmetry_cell_setting 'monoclinic'
loop_
_space_group_symop_operation_xyz
x,y,z
x,-y,1/2+z
1/2+x,1/2+y,z
1/2+x,1/2-y,1/2+z
loop_
_atom_site_type_symbol
_atom_site_label
_atom_site_fract_x
_atom_site_fract_y
_atom_site_fract_z
Si Si1 0.770090 0.479658 0.585410
Si Si2 0.540050 0.244449 0.029755
Si Si3 0.670629 0.392797 0.892542
Si Si4 0.283095 0.505778 0.465507
Si Si5 0.100091 0.358614 0.016444
Si Si6 0.626370 0.019899 0.240300
Si Si7 0.291964 0.146008 0.305136
Si Si8 0.370455 0.771995 0.296893
O O1 0.701621 0.663259 0.588417
O O2 0.699977 0.472778 0.471857
O O3 0.699033 0.305641 0.592639
O O4 0.947620 0.470444 0.659690
O O5 0.438613 0.379212 0.031286
O O6 0.212900 0.331892 0.732233
O O7 0.454758 0.249943 0.912907
O O8 0.715188 0.463107 0.835723
O O9 0.497967 0.320463 0.807427
O O10 0.779184 0.216771 0.960588
O O11 0.199421 0.554651 0.499292
O O12 0.186110 0.551224 0.349297
O O13 0.949402 0.277029 0.910035
O O14 0.051696 0.524766 0.045493
O O15 0.685448 0.819152 0.243485
O O16 0.342404 0.988644 0.274318
#
# Coordination Sequence:
#
# PCOD9134642 Si02
#       8
#     4   4   4   4   4   4   4   4
#     4  11  22  38  60  92 133 157 206 268 321 373
#     4   9  20  39  62  86 123 154 219 257 300 374
#     4  10  19  38  69  89 117 168 216 253 312 374
#     4  10  19  41  68  86 119 167 216 257 305 377
#     4  11  21  38  67  91 115 170 219 253 311 381
#     4  10  23  38  57  94 128 160 201 265 319 367
#     4  10  20  38  66  85 116 164 213 246 307 371
#     4   9  18  38  59  87 119 154 216 251 291 377
#
# _framework density 26.536124999999998
#
# number of rings (size 3 to 8) (size 9 to 14) (size 15 to 20)
#    0.000    2.000    3.750    3.000    5.250    1.000 
#    0.000    5.000    0.000    0.000    0.000    0.000 
#    0.000    0.000    0.000    0.000    0.000    0.000 
#
# Total GULP energy -89639.945322 kJ/mol
# GULP energy per Si atom -5602.496583 kJ/mol
# Density = 2.647573 g / cm^3
# Si number density = 26.536125 Si / 1000 Ang^3
#
#
#
# Elastic Constant Matrix: (Units=GPa)
#
#
# Indices 1 2 3 4 5 6 
#
# 1 120.5297 38.7521 40.5176 0.0000 38.3003 0.0000
# 2 38.7521 119.6452 47.9991 0.0000 35.6522 0.0000
# 3 40.5176 47.9991 112.3566 0.0000 45.3072 0.0000
# 4 0.0000 0.0000 0.0000 41.7530 0.0000 6.2565
# 5 38.3003 35.6522 45.3072 0.0000 63.0888 0.0000
# 6 0.0000 0.0000 0.0000 6.2565 0.0000 58.9001
#
#
#
# Elastic Compliance Matrix: (Units=1/GPa)
#
#
# Indices 1 2 3 4 5 6 
#
# 1 0.010728 -0.001549 -0.001314 0.000000 -0.004694 0.000000
# 2 -0.001549 0.010952 -0.002820 0.000000 -0.003223 0.000000
# 3 -0.001314 -0.002820 0.013534 0.000000 -0.007328 0.000000
# 4 0.000000 0.000000 0.000000 0.024338 0.000000 -0.002585
# 5 -0.004694 -0.003223 -0.007328 0.000000 0.025784 0.000000
# 6 0.000000 0.000000 0.000000 -0.002585 0.000000 0.017253
#
#
# Mechanical properties :
#
#
# Convention : Reuss Voigt Hill
#
# Bulk Modulus (GPa) = 41.93463 67.45215 54.69339
# Shear Modulus (GPa) = 41.01607 47.76589 44.39098
#
# Velocity S-wave (km/s) = 3.93577 4.24728 4.09449
# Velocity P-wave (km/s) = 6.04076 7.03752 6.55811
#
# Compressibility (1/GPa) = 0.02384664
#
# Stress axis : x y z
#
# Youngs Moduli (GPa) = 93.21403 91.31097 73.88862
#
# Poissons Ratio (x) = 0.14142 0.09711
# Poissons Ratio (y) = 0.14437 0.20839
# Poissons Ratio (z) = 0.12251 0.25752
#
# Static dielectric constant tensor:
#      x y z
#    x 2.059150 0.000000 -0.074000 
#    y 0.000000 2.066980 0.000000 
#    z -0.074000 0.000000 2.186510 
# 
# From -- ./inp_files/36669.got.cif
#   From: 2010.05.17/outbox.cif.g08.bks.cpg/sg9_19_cif.got.tgz:36669.got - 2010.06.03 20:04:27.
