data_PCOD9134973
_publ_section_title
;
Structure prediction by ZEFSAII (Michael W. Deem and Ramdas Pophale) SiO2 
 PCOD9134973
Probable space group: C C
;
_chemical_formula_sum "Si O2"
_cell_formula_units_Z 24
_cell_length_a 10.714960
_cell_length_b 9.450421
_cell_length_c 9.241832
_cell_angle_alpha 90.000000
_cell_angle_beta 107.773574
_cell_angle_gamma 90.000000
_cell_volume 891.168879
_symmetry_space_group_name_H-M "C C"
_symmetry_group_IT_number 9
_symmetry_cell_setting 'monoclinic'
loop_
_space_group_symop_operation_xyz
x,y,z
x,-y,1/2+z
1/2+x,1/2+y,z
1/2+x,1/2-y,1/2+z
loop_
_atom_site_type_symbol
_atom_site_label
_atom_site_fract_x
_atom_site_fract_y
_atom_site_fract_z
Si Si1 0.556250 0.267444 0.960320
Si Si2 0.290569 0.559168 0.958606
Si Si3 0.174543 0.624701 0.633953
Si Si4 0.074915 0.069860 0.194985
Si Si5 0.455960 0.899201 0.658193
Si Si6 0.832812 0.554231 0.839413
O O1 0.564623 0.404452 0.865015
O O2 0.433663 0.181087 0.839693
O O3 0.692048 0.181037 0.985383
O O4 0.509064 0.245314 0.108982
O O5 0.219083 0.415319 0.988536
O O6 0.433619 0.555682 0.075114
O O7 0.289484 0.583996 0.787421
O O8 0.131257 0.783163 0.648303
O O9 0.062292 0.516446 0.648497
O O10 0.190188 0.954223 0.221892
O O11 0.333770 0.941285 0.512202
O O12 0.410757 0.917010 0.804925
#
# Coordination Sequence:
#
# PCOD9134973 Si02
#       6
#     4   4   4   4   4   4
#     4   8  20  37  62  86 120 164 197 244 303 358
#     4  10  21  37  62  91 119 157 203 248 301 355
#     4  10  20  40  61  85 122 159 197 250 298 356
#     4  11  22  36  64  93 117 162 201 250 305 356
#     4   9  17  39  62  86 119 164 198 247 301 360
#     4  10  20  35  67  87 121 164 202 247 308 359
#
# _framework density 26.930921000000001
#
# number of rings (size 3 to 8) (size 9 to 14) (size 15 to 20)
#    1.000    1.333    3.333    0.000    4.667    1.333 
#    3.000    0.000    3.667    0.000    0.000    0.000 
#    0.000    0.000    0.000    0.000    0.000    0.000 
#
# Total GULP energy -67014.720903 kJ/mol
# GULP energy per Si atom -5584.560075 kJ/mol
# Density = 2.686962 g / cm^3
# Si number density = 26.930921 Si / 1000 Ang^3
#
#
#
# Elastic Constant Matrix: (Units=GPa)
#
#
# Indices 1 2 3 4 5 6 
#
# 1 115.5183 48.3172 41.4704 0.0000 31.5959 0.0000
# 2 48.3172 69.7305 18.8660 0.0000 12.7269 0.0000
# 3 41.4704 18.8660 68.6329 0.0000 16.9094 0.0000
# 4 0.0000 0.0000 0.0000 20.9120 0.0000 9.9627
# 5 31.5959 12.7269 16.9094 0.0000 76.9984 0.0000
# 6 0.0000 0.0000 0.0000 9.9627 0.0000 34.1365
#
#
#
# Elastic Compliance Matrix: (Units=1/GPa)
#
#
# Indices 1 2 3 4 5 6 
#
# 1 0.015282 -0.008295 -0.006076 0.000000 -0.003566 0.000000
# 2 -0.008295 0.020213 -0.000592 0.000000 0.000193 0.000000
# 3 -0.006076 -0.000592 0.018782 0.000000 -0.001534 0.000000
# 4 0.000000 0.000000 0.000000 0.055542 0.000000 -0.016210
# 5 -0.003566 0.000193 -0.001534 0.000000 0.014755 0.000000
# 6 0.000000 0.000000 0.000000 -0.016210 0.000000 0.034025
#
#
# Mechanical properties :
#
#
# Convention : Reuss Voigt Hill
#
# Bulk Modulus (GPa) = 41.06190 52.35432 46.70811
# Shear Modulus (GPa) = 25.42686 36.09127 30.75907
#
# Velocity S-wave (km/s) = 3.07604 3.66477 3.38323
# Velocity P-wave (km/s) = 5.28169 6.11472 5.71341
#
# Compressibility (1/GPa) = 0.02435348
#
# Stress axis : x y z
#
# Youngs Moduli (GPa) = 65.43449 49.47201 53.24280
#
# Poissons Ratio (x) = 0.41036 0.32348
# Poissons Ratio (y) = 0.54277 0.03151
# Poissons Ratio (z) = 0.39755 0.02928
#
# Static dielectric constant tensor:
#      x y z
#    x 2.065620 0.000000 0.010880 
#    y 0.000000 2.185410 0.000000 
#    z 0.010880 0.000000 2.120470 
# 
# From -- ./inp_files/16298.got.cif
#   From: 2010.05.17/outbox.cif.g08.bks.cpg/sg9_9_cif.got.tgz:16298.got - 2010.06.03 20:04:27.
