data_PCOD9134803
_publ_section_title
;
Structure prediction by ZEFSAII (Michael W. Deem and Ramdas Pophale) SiO2 
 PCOD9134803
Probable space group: C C
;
_chemical_formula_sum "Si O2"
_cell_formula_units_Z 32
_cell_length_a 5.310652
_cell_length_b 28.085671
_cell_length_c 9.099928
_cell_angle_alpha 90.000000
_cell_angle_beta 111.843905
_cell_angle_gamma 90.000000
_cell_volume 1259.831974
_symmetry_space_group_name_H-M "C C"
_symmetry_group_IT_number 9
_symmetry_cell_setting 'monoclinic'
loop_
_space_group_symop_operation_xyz
x,y,z
x,-y,1/2+z
1/2+x,1/2+y,z
1/2+x,1/2-y,1/2+z
loop_
_atom_site_type_symbol
_atom_site_label
_atom_site_fract_x
_atom_site_fract_y
_atom_site_fract_z
Si Si1 0.696170 0.054775 0.520910
Si Si2 0.144826 0.887803 0.933911
Si Si3 0.007642 0.879784 0.567395
Si Si4 0.125967 0.542081 0.837818
Si Si5 0.630081 0.801944 0.462138
Si Si6 0.908047 0.180543 0.603872
Si Si7 0.232353 0.114169 0.833754
Si Si8 0.682971 0.769827 0.798479
O O1 0.443866 0.090877 0.483835
O O2 0.751276 0.038543 0.702014
O O3 0.927087 0.077714 0.467005
O O4 0.604172 0.007893 0.412723
O O5 0.054932 0.879778 0.748226
O O6 0.117298 0.839524 0.024168
O O7 0.248527 0.893980 0.511065
O O8 0.796024 0.920872 0.474690
O O9 0.923155 0.825720 0.502976
O O10 0.835886 0.568522 0.770856
O O11 0.434293 0.842064 0.353654
O O12 0.626732 0.799076 0.638869
O O13 0.486675 0.754049 0.372609
O O14 0.938318 0.134732 0.718765
O O15 0.985772 0.224933 0.724548
O O16 0.666496 0.199690 0.445367
#
# Coordination Sequence:
#
# PCOD9134803 Si02
#       8
#     4   4   4   4   4   4   4   4
#     4  12  29  48  75 109 143 196 244 303 362 434
#     4  12  27  46  76 107 150 194 241 300 370 438
#     4  11  24  42  69 101 144 193 237 301 364 439
#     4  11  26  46  71 103 145 187 248 299 360 432
#     4   9  19  37  61  94 131 187 228 296 356 426
#     4  10  19  42  68 102 139 194 240 303 369 432
#     4  10  22  41  68  97 144 188 235 298 364 432
#     4   9  18  36  70  91 140 179 245 298 355 439
#
# _framework density 25.400213000000001
#
# number of rings (size 3 to 8) (size 9 to 14) (size 15 to 20)
#    0.000    1.500    2.500    1.500    7.000    0.000 
#    0.000    5.000    8.250    0.000    0.000    0.000 
#    0.000    0.000    0.000    0.000    0.000    0.000 
#
# Total GULP energy -89219.959225 kJ/mol
# GULP energy per Si atom -5576.247452 kJ/mol
# Density = 2.534240 g / cm^3
# Si number density = 25.400213 Si / 1000 Ang^3
#
#
#
# Elastic Constant Matrix: (Units=GPa)
#
#
# Indices 1 2 3 4 5 6 
#
# 1 82.8344 25.7748 37.3854 0.0000 -10.1302 0.0000
# 2 25.7748 106.3076 38.0074 0.0000 5.1109 0.0000
# 3 37.3854 38.0074 217.7259 0.0000 -15.1632 0.0000
# 4 0.0000 0.0000 0.0000 40.3680 0.0000 -4.8524
# 5 -10.1302 5.1109 -15.1632 0.0000 38.4138 0.0000
# 6 0.0000 0.0000 0.0000 -4.8524 0.0000 20.9427
#
#
#
# Elastic Compliance Matrix: (Units=1/GPa)
#
#
# Indices 1 2 3 4 5 6 
#
# 1 0.014188 -0.003011 -0.001668 0.000000 0.003484 0.000000
# 2 -0.003011 0.010837 -0.001574 0.000000 -0.002857 0.000000
# 3 -0.001668 -0.001574 0.005283 0.000000 0.001855 0.000000
# 4 0.000000 0.000000 0.000000 0.025482 0.000000 0.005904
# 5 0.003484 -0.002857 0.001855 0.000000 0.028063 0.000000
# 6 0.000000 0.000000 0.000000 0.005904 0.000000 0.049117
#
#
# Mechanical properties :
#
#
# Convention : Reuss Voigt Hill
#
# Bulk Modulus (GPa) = 56.17177 67.68922 61.93049
# Shear Modulus (GPa) = 33.02290 40.32492 36.67391
#
# Velocity S-wave (km/s) = 3.60961 3.98877 3.80392
# Velocity P-wave (km/s) = 6.28769 6.92247 6.61270
#
# Compressibility (1/GPa) = 0.01780254
#
# Stress axis : x y z
#
# Youngs Moduli (GPa) = 70.48175 92.27897 189.27835
#
# Poissons Ratio (x) = 0.27786 0.31571
# Poissons Ratio (y) = 0.21223 0.29786
# Poissons Ratio (z) = 0.11756 0.14521
#
# Static dielectric constant tensor:
#      x y z
#    x 2.075200 0.000000 0.058760 
#    y 0.000000 2.020050 0.000000 
#    z 0.058760 0.000000 2.033320 
# 
# From -- ./inp_files/4317.got.cif
#   From: 2010.05.17/outbox.cif.g08.bks.cpg/sg9_3_cif.got.tgz:4317.got - 2010.06.03 20:04:27.
