data_PCOD9134917
_publ_section_title
;
Structure prediction by ZEFSAII (Michael W. Deem and Ramdas Pophale) SiO2 
 PCOD9134917
Probable space group: C C
;
_chemical_formula_sum "Si O2"
_cell_formula_units_Z 28
_cell_length_a 18.879197
_cell_length_b 16.336566
_cell_length_c 5.279180
_cell_angle_alpha 90.000000
_cell_angle_beta 105.086732
_cell_angle_gamma 90.000000
_cell_volume 1572.091611
_symmetry_space_group_name_H-M "C C"
_symmetry_group_IT_number 9
_symmetry_cell_setting 'monoclinic'
loop_
_space_group_symop_operation_xyz
x,y,z
x,-y,1/2+z
1/2+x,1/2+y,z
1/2+x,1/2-y,1/2+z
loop_
_atom_site_type_symbol
_atom_site_label
_atom_site_fract_x
_atom_site_fract_y
_atom_site_fract_z
Si Si1 0.835800 0.955470 0.645360
Si Si2 0.992024 0.760041 0.783077
Si Si3 0.012346 0.952892 0.800663
Si Si4 0.667810 0.945337 0.864234
Si Si5 0.316831 0.734643 0.069697
Si Si6 0.567303 0.199830 0.354318
Si Si7 0.229867 0.267775 0.984786
O O1 0.810717 0.008054 0.385827
O O2 0.812797 0.863642 0.578910
O O3 0.923824 0.961100 0.728646
O O4 0.904221 0.750133 0.663011
O O5 0.019238 0.854834 0.787958
O O6 0.032575 0.711463 0.597336
O O7 0.014362 0.730136 0.082522
O O8 0.039603 0.003428 0.582237
O O9 0.592020 0.893318 0.824032
O O10 0.670144 0.986354 0.587711
O O11 0.722492 0.867597 0.966058
O O12 0.271861 0.763018 0.274472
O O13 0.275625 0.758412 0.773502
O O14 0.643355 0.252587 0.412984
#
# Coordination Sequence:
#
# PCOD9134917 Si02
#       7
#     4   4   4   4   4   4   4
#     4   9  17  26  38  61  95 131 164 194 235 288
#     4  11  20  35  55  75 109 149 184 233 268 313
#     4   9  17  29  45  69 101 132 169 209 254 311
#     4  10  20  35  54  75 109 150 190 223 263 328
#     4  11  20  32  48  75 101 142 177 228 251 320
#     4  10  22  36  53  75 109 145 189 227 275 323
#     4  10  22  33  49  72 110 133 181 220 264 329
#
# _framework density 17.810669000000001
#
# number of rings (size 3 to 8) (size 9 to 14) (size 15 to 20)
#    0.857    1.143    0.000    5.143    0.000    8.000 
#    0.000    0.000    0.000    0.000    0.000    0.000 
#    0.000   80.000    0.000    0.000    0.000    0.000 
#
# Total GULP energy -77976.059320 kJ/mol
# GULP energy per Si atom -5569.718523 kJ/mol
# Density = 1.777013 g / cm^3
# Si number density = 17.810669 Si / 1000 Ang^3
#
#
#
# Elastic Constant Matrix: (Units=GPa)
#
#
# Indices 1 2 3 4 5 6 
#
# 1 53.0177 -5.1092 7.5194 0.0000 1.9943 0.0000
# 2 -5.1092 17.0243 1.1590 0.0000 2.7612 0.0000
# 3 7.5194 1.1590 109.0764 0.0000 -5.5668 0.0000
# 4 0.0000 0.0000 0.0000 17.7844 0.0000 -4.5206
# 5 1.9943 2.7612 -5.5668 0.0000 34.1472 0.0000
# 6 0.0000 0.0000 0.0000 -4.5206 0.0000 21.5815
#
#
#
# Elastic Compliance Matrix: (Units=1/GPa)
#
#
# Indices 1 2 3 4 5 6 
#
# 1 0.019762 0.006346 -0.001528 0.000000 -0.001916 0.000000
# 2 0.006346 0.061643 -0.001377 0.000000 -0.005580 0.000000
# 3 -0.001528 -0.001377 0.009376 0.000000 0.001729 0.000000
# 4 0.000000 0.000000 0.000000 0.059391 0.000000 0.012441
# 5 -0.001916 -0.005580 0.001729 0.000000 0.030130 0.000000
# 6 0.000000 0.000000 0.000000 0.012441 0.000000 0.048942
#
#
# Mechanical properties :
#
#
# Convention : Reuss Voigt Hill
#
# Bulk Modulus (GPa) = 10.23937 20.69518 15.46728
# Shear Modulus (GPa) = 19.61428 26.40589 23.01009
#
# Velocity S-wave (km/s) = 3.32213 3.85462 3.59824
# Velocity P-wave (km/s) = 4.52514 5.60852 5.09571
#
# Compressibility (1/GPa) = 0.09766226
#
# Stress axis : x y z
#
# Youngs Moduli (GPa) = 50.60244 16.22256 106.65445
#
# Poissons Ratio (x) = -0.10294 0.16292
# Poissons Ratio (y) = -0.32110 0.14688
# Poissons Ratio (z) = 0.07730 0.02234
#
# Static dielectric constant tensor:
#      x y z
#    x 1.645440 0.000000 -0.005310 
#    y 0.000000 1.598490 0.000000 
#    z -0.005310 0.000000 1.609290 
# 
# From -- ./inp_files/2902.got.cif
#   From: 2010.05.17/outbox.cif.g08.bks.cpg/sg9_2_cif.got.tgz:2902.got - 2010.06.03 20:04:27.
