data_PCOD9134024
_publ_section_title
;
Structure prediction by ZEFSAII (Michael W. Deem and Ramdas Pophale) SiO2 
 PCOD9134024
Probable space group: C C
;
_chemical_formula_sum "Si O2"
_cell_formula_units_Z 32
_cell_length_a 20.019573
_cell_length_b 12.102038
_cell_length_c 7.986175
_cell_angle_alpha 90.000000
_cell_angle_beta 42.329373
_cell_angle_gamma 90.000000
_cell_volume 1302.926269
_symmetry_space_group_name_H-M "C C"
_symmetry_group_IT_number 9
_symmetry_cell_setting 'monoclinic'
loop_
_space_group_symop_operation_xyz
x,y,z
x,-y,1/2+z
1/2+x,1/2+y,z
1/2+x,1/2-y,1/2+z
loop_
_atom_site_type_symbol
_atom_site_label
_atom_site_fract_x
_atom_site_fract_y
_atom_site_fract_z
Si Si1 0.015070 0.821815 0.274840
Si Si2 0.665907 0.164502 0.527738
Si Si3 0.341778 0.389051 0.109563
Si Si4 0.831533 0.670639 0.582641
Si Si5 0.256867 0.029911 0.405702
Si Si6 0.030774 0.027984 0.418231
Si Si7 0.712889 0.945203 0.647682
Si Si8 0.202778 0.787734 0.767755
O O1 0.936996 0.728451 0.380244
O O2 0.993342 0.899657 0.475221
O O3 0.021804 0.914242 0.114381
O O4 0.123574 0.767070 0.064459
O O5 0.758700 0.231603 0.276652
O O6 0.630033 0.115684 0.414298
O O7 0.638395 0.254591 0.721729
O O8 0.670849 0.051804 0.627393
O O9 0.279874 0.376236 0.396150
O O10 0.296398 0.500278 0.114782
O O11 0.298826 0.290467 0.078856
O O12 0.456012 0.401865 0.940838
O O13 0.797410 0.612489 0.472646
O O14 0.823494 0.575404 0.738354
O O15 0.246156 0.096397 0.249780
O O16 0.145295 0.987471 0.653585
#
# Coordination Sequence:
#
# PCOD9134024 Si02
#       8
#     4   4   4   4   4   4   4   4
#     4  11  24  41  65  96 128 165 214 269 323 386
#     4  10  19  35  60  88 126 169 209 261 323 384
#     4  10  18  34  60  93 128 164 207 268 326 377
#     4  12  24  42  64  89 129 177 218 262 323 389
#     4  11  24  42  65  93 129 174 219 266 317 387
#     4  11  21  39  67  98 125 158 216 273 320 376
#     4   9  18  31  55  92 126 158 203 259 322 373
#     4  10  22  40  64  95 131 169 212 260 324 388
#
# _framework density 24.560102000000001
#
# number of rings (size 3 to 8) (size 9 to 14) (size 15 to 20)
#    0.000    1.500    0.000    7.500    0.000    1.000 
#    0.000    6.250    0.000    1.500    0.000    0.000 
#    0.000    0.000    0.000    0.000    0.000    0.000 
#
# Total GULP energy -89157.234998 kJ/mol
# GULP energy per Si atom -5572.327187 kJ/mol
# Density = 2.450420 g / cm^3
# Si number density = 24.560102 Si / 1000 Ang^3
#
#
#
# Elastic Constant Matrix: (Units=GPa)
#
#
# Indices 1 2 3 4 5 6 
#
# 1 97.6932 43.0717 43.9079 0.0000 3.0139 0.0000
# 2 43.0717 140.3892 57.0774 0.0000 -3.9140 0.0000
# 3 43.9079 57.0774 73.7587 0.0000 12.5997 0.0000
# 4 0.0000 0.0000 0.0000 60.3528 0.0000 13.1817
# 5 3.0139 -3.9140 12.5997 0.0000 46.3838 0.0000
# 6 0.0000 0.0000 0.0000 13.1817 0.0000 49.3463
#
#
#
# Elastic Compliance Matrix: (Units=1/GPa)
#
#
# Indices 1 2 3 4 5 6 
#
# 1 0.014194 -0.001189 -0.007712 0.000000 0.001072 0.000000
# 2 -0.001189 0.010969 -0.008339 0.000000 0.003268 0.000000
# 3 -0.007712 -0.008339 0.025835 0.000000 -0.007220 0.000000
# 4 0.000000 0.000000 0.000000 0.017596 0.000000 -0.004700
# 5 0.001072 0.003268 -0.007220 0.000000 0.023727 0.000000
# 6 0.000000 0.000000 0.000000 -0.004700 0.000000 0.021521
#
#
# Mechanical properties :
#
#
# Convention : Reuss Voigt Hill
#
# Bulk Modulus (GPa) = 60.54207 66.66166 63.60186
# Shear Modulus (GPa) = 32.50398 42.40219 37.45308
#
# Velocity S-wave (km/s) = 3.64187 4.15958 3.90931
# Velocity P-wave (km/s) = 6.51063 7.09018 6.80658
#
# Compressibility (1/GPa) = 0.01651744
#
# Stress axis : x y z
#
# Youngs Moduli (GPa) = 70.45433 91.16363 38.70707
#
# Poissons Ratio (x) = 0.10841 0.29852
# Poissons Ratio (y) = 0.08378 0.32277
# Poissons Ratio (z) = 0.54336 0.76020
#
# Static dielectric constant tensor:
#      x y z
#    x 2.043190 0.000000 0.090480 
#    y 0.000000 2.020810 0.000000 
#    z 0.090480 0.000000 2.006930 
# 
# From -- ./inp_files/12190.got.cif
#   From: 2010.05.17/outbox.cif.g08.bks.cpg/sg9_7_cif.got.tgz:12190.got - 2010.06.03 20:04:27.
