data_PCOD9134852
_publ_section_title
;
Structure prediction by ZEFSAII (Michael W. Deem and Ramdas Pophale) SiO2 
 PCOD9134852
Probable space group: C C
;
_chemical_formula_sum "Si O2"
_cell_formula_units_Z 32
_cell_length_a 22.630470
_cell_length_b 9.448917
_cell_length_c 8.631242
_cell_angle_alpha 90.000000
_cell_angle_beta 52.616437
_cell_angle_gamma 90.000000
_cell_volume 1466.531372
_symmetry_space_group_name_H-M "C C"
_symmetry_group_IT_number 9
_symmetry_cell_setting 'monoclinic'
loop_
_space_group_symop_operation_xyz
x,y,z
x,-y,1/2+z
1/2+x,1/2+y,z
1/2+x,1/2-y,1/2+z
loop_
_atom_site_type_symbol
_atom_site_label
_atom_site_fract_x
_atom_site_fract_y
_atom_site_fract_z
Si Si1 0.857880 0.957340 0.293950
Si Si2 0.958022 0.065322 0.892389
Si Si3 0.665270 0.823925 0.989133
Si Si4 0.294118 0.982981 0.159285
Si Si5 0.559577 0.602132 0.992888
Si Si6 0.189850 0.593847 0.104669
Si Si7 0.819359 0.715234 0.878210
Si Si8 0.686888 0.397863 0.079217
O O1 0.853755 0.128495 0.330982
O O2 0.893329 0.876932 0.383829
O O3 0.773028 0.916609 0.403422
O O4 0.913844 0.945460 0.061359
O O5 0.000122 0.153324 0.958032
O O6 0.017359 0.001064 0.677470
O O7 0.601405 0.719951 0.028568
O O8 0.695829 0.892452 0.780345
O O9 0.731963 0.746110 0.975319
O O10 0.643992 0.956595 0.129027
O O11 0.223168 0.035137 0.372497
O O12 0.342502 0.887820 0.198656
O O13 0.257485 0.888661 0.082905
O O14 0.326723 0.120604 0.020891
O O15 0.621932 0.529848 0.782578
O O16 0.157483 0.740806 0.095180
#
# Coordination Sequence:
#
# PCOD9134852 Si02
#       8
#     4   4   4   4   4   4   4   4
#     4  10  21  37  58  89 119 154 210 250 297 366
#     4  10  22  36  61  79 113 169 200 254 280 337
#     4  10  21  35  57  88 123 156 187 263 308 364
#     4  10  20  32  53  94 117 166 174 248 331 353
#     4  10  20  38  53  87 116 152 212 249 291 359
#     4  10  20  35  59  91 122 152 190 254 329 360
#     4  10  20  35  55  86 131 149 197 253 308 370
#     4  10  20  34  58  88 123 148 202 243 320 371
#
# _framework density 21.820194000000001
#
# number of rings (size 3 to 8) (size 9 to 14) (size 15 to 20)
#    0.000    2.000    2.500    2.250    7.000    0.000 
#    0.000    0.000    0.000   12.000    0.000    0.000 
#    0.000    0.000    0.000    0.000    0.000    0.000 
#
# Total GULP energy -89115.636994 kJ/mol
# GULP energy per Si atom -5569.727312 kJ/mol
# Density = 2.177053 g / cm^3
# Si number density = 21.820194 Si / 1000 Ang^3
#
#
#
# Elastic Constant Matrix: (Units=GPa)
#
#
# Indices 1 2 3 4 5 6 
#
# 1 89.3492 13.8619 12.8067 0.0000 5.3665 0.0000
# 2 13.8619 83.4603 24.5351 0.0000 9.3530 0.0000
# 3 12.8067 24.5351 76.7072 0.0000 -0.5089 0.0000
# 4 0.0000 0.0000 0.0000 26.6359 0.0000 8.5449
# 5 5.3665 9.3530 -0.5089 0.0000 28.0806 0.0000
# 6 0.0000 0.0000 0.0000 8.5449 0.0000 27.5911
#
#
#
# Elastic Compliance Matrix: (Units=1/GPa)
#
#
# Indices 1 2 3 4 5 6 
#
# 1 0.011725 -0.001283 -0.001560 0.000000 -0.001842 0.000000
# 2 -0.001283 0.013955 -0.004279 0.000000 -0.004480 0.000000
# 3 -0.001560 -0.004279 0.014679 0.000000 0.001989 0.000000
# 4 0.000000 0.000000 0.000000 0.041685 0.000000 -0.012910
# 5 -0.001842 -0.004480 0.001989 0.000000 0.037492 0.000000
# 6 0.000000 0.000000 0.000000 -0.012910 0.000000 0.040242
#
#
# Mechanical properties :
#
#
# Convention : Reuss Voigt Hill
#
# Bulk Modulus (GPa) = 38.29014 39.10269 38.69642
# Shear Modulus (GPa) = 27.36346 29.68237 28.52292
#
# Velocity S-wave (km/s) = 3.54509 3.69225 3.61942
# Velocity P-wave (km/s) = 5.86029 6.01134 5.93630
#
# Compressibility (1/GPa) = 0.02611638
#
# Stress axis : x y z
#
# Youngs Moduli (GPa) = 85.28648 71.65985 68.12517
#
# Poissons Ratio (x) = 0.09191 0.10625
# Poissons Ratio (y) = 0.10938 0.29151
# Poissons Ratio (z) = 0.13301 0.30664
#
# Static dielectric constant tensor:
#      x y z
#    x 1.857790 0.000000 0.026250 
#    y 0.000000 1.872460 0.000000 
#    z 0.026250 0.000000 1.844610 
# 
# From -- ./inp_files/12162.got.cif
#   From: 2010.05.17/outbox.cif.g08.bks.cpg/sg9_7_cif.got.tgz:12162.got - 2010.06.03 20:04:27.
