data_PCOD9134230
_publ_section_title
;
Structure prediction by ZEFSAII (Michael W. Deem and Ramdas Pophale) SiO2 
 PCOD9134230
Probable space group: C C
;
_chemical_formula_sum "Si O2"
_cell_formula_units_Z 32
_cell_length_a 18.213028
_cell_length_b 5.181444
_cell_length_c 26.247571
_cell_angle_alpha 90.000000
_cell_angle_beta 149.914009
_cell_angle_gamma 90.000000
_cell_volume 1241.706876
_symmetry_space_group_name_H-M "C C"
_symmetry_group_IT_number 9
_symmetry_cell_setting 'monoclinic'
loop_
_space_group_symop_operation_xyz
x,y,z
x,-y,1/2+z
1/2+x,1/2+y,z
1/2+x,1/2-y,1/2+z
loop_
_atom_site_type_symbol
_atom_site_label
_atom_site_fract_x
_atom_site_fract_y
_atom_site_fract_z
Si Si1 0.686650 0.594884 0.041580
Si Si2 0.535711 0.914846 0.146173
Si Si3 0.805223 0.474608 0.913424
Si Si4 0.290325 0.526462 0.229844
Si Si5 0.559854 0.087340 0.997078
Si Si6 0.408799 0.407410 0.101907
Si Si7 0.190526 0.529849 0.377117
Si Si8 0.904092 0.531004 0.265781
O O1 0.619402 0.309028 0.994766
O O2 0.798472 0.750827 0.072416
O O3 0.776243 0.557531 0.147411
O O4 0.560423 0.803151 0.973988
O O5 0.476282 0.693302 0.148617
O O6 0.692425 0.886189 0.213758
O O7 0.535040 0.199627 0.168936
O O8 0.417015 0.936417 0.028488
O O9 0.678030 0.676559 0.850767
O O10 0.742146 0.187444 0.868280
O O11 0.903165 0.615100 0.929566
O O12 0.178579 0.565071 0.114792
O O13 0.417652 0.324703 0.292599
O O14 0.353351 0.813447 0.275193
O O15 0.317088 0.444544 0.995228
O O16 0.046743 0.443358 0.320843
#
# Coordination Sequence:
#
# PCOD9134230 Si02
#       8
#     4   4   4   4   4   4   4   4
#     4  10  19  31  49  73  99 128 161 202 247 291
#     4   9  17  30  49  72  96 124 163 205 240 281
#     4   9  17  30  49  72  96 124 163 205 241 283
#     4   9  17  30  49  72  96 124 163 205 241 283
#     4   9  17  30  49  72  96 124 163 205 240 281
#     4  10  19  31  49  73  99 128 161 202 247 291
#     4  10  19  31  49  73  99 128 161 202 249 295
#     4  10  19  31  49  73  99 128 161 202 249 295
#
# _framework density 25.770979000000001
#
# number of rings (size 3 to 8) (size 9 to 14) (size 15 to 20)
#    0.000    2.500    0.000    3.000    0.000    6.000 
#    0.000    0.000    0.000    6.000    0.000    0.000 
#    0.000    0.000    0.000    0.000    0.000    0.000 
#
# Total GULP energy -89323.023174 kJ/mol
# GULP energy per Si atom -5582.688948 kJ/mol
# Density = 2.571232 g / cm^3
# Si number density = 25.770979 Si / 1000 Ang^3
#
#
#
# Elastic Constant Matrix: (Units=GPa)
#
#
# Indices 1 2 3 4 5 6 
#
# 1 73.6786 32.0347 20.5475 0.0011 10.0171 0.0007
# 2 32.0347 160.4927 42.9314 0.0032 9.8480 0.0147
# 3 20.5475 42.9314 49.5006 0.0006 -6.6215 0.0047
# 4 0.0011 0.0032 0.0006 17.0685 -0.0009 15.2396
# 5 10.0171 9.8480 -6.6215 -0.0009 42.9657 -0.0007
# 6 0.0007 0.0147 0.0047 15.2396 -0.0007 35.2553
#
#
#
# Elastic Compliance Matrix: (Units=1/GPa)
#
#
# Indices 1 2 3 4 5 6 
#
# 1 0.016526 -0.001334 -0.006307 -0.000003 -0.004519 0.000002
# 2 -0.001334 0.008620 -0.007295 0.000002 -0.002789 -0.000003
# 3 -0.006307 -0.007295 0.030189 0.000003 0.007795 -0.000002
# 4 -0.000003 0.000002 0.000003 0.095411 0.000002 -0.041243
# 5 -0.004519 -0.002789 0.007795 0.000002 0.026168 0.000000
# 6 0.000002 -0.000003 -0.000002 -0.041243 0.000000 0.046192
#
#
# Mechanical properties :
#
#
# Convention : Reuss Voigt Hill
#
# Bulk Modulus (GPa) = 39.27377 52.74433 46.00905
# Shear Modulus (GPa) = 19.12290 31.60179 25.36234
#
# Velocity S-wave (km/s) = 2.72698 3.50559 3.14051
# Velocity P-wave (km/s) = 5.01875 6.07425 5.57155
#
# Compressibility (1/GPa) = 0.02546228
#
# Stress axis : x y z
#
# Youngs Moduli (GPa) = 60.51105 116.01433 33.12411
#
# Poissons Ratio (x) = 0.15478 0.20892
# Poissons Ratio (y) = 0.08073 0.24164
# Poissons Ratio (z) = 0.38166 0.84632
#
# Static dielectric constant tensor:
#      x y z
#    x 2.192970 -0.000010 0.063710 
#    y -0.000010 1.992870 -0.000010 
#    z 0.063710 -0.000010 2.180250 
# 
# From -- ./inp_files/30870.got.cif
#   From: 2010.05.17/outbox.cif.g08.bks.cpg/sg9_16_cif.got.tgz:30870.got - 2010.06.03 20:04:27.
