data_PCOD9134707
_publ_section_title
;
Structure prediction by ZEFSAII (Michael W. Deem and Ramdas Pophale) SiO2 
 PCOD9134707
Probable space group: C C
;
_chemical_formula_sum "Si O2"
_cell_formula_units_Z 28
_cell_length_a 4.873041
_cell_length_b 13.745134
_cell_length_c 17.840906
_cell_angle_alpha 90.000000
_cell_angle_beta 96.879524
_cell_angle_gamma 90.000000
_cell_volume 1186.390908
_symmetry_space_group_name_H-M "C C"
_symmetry_group_IT_number 9
_symmetry_cell_setting 'monoclinic'
loop_
_space_group_symop_operation_xyz
x,y,z
x,-y,1/2+z
1/2+x,1/2+y,z
1/2+x,1/2-y,1/2+z
loop_
_atom_site_type_symbol
_atom_site_label
_atom_site_fract_x
_atom_site_fract_y
_atom_site_fract_z
Si Si1 0.584390 0.017657 0.127030
Si Si2 0.346634 0.207833 0.509637
Si Si3 0.795858 0.576488 0.807391
Si Si4 0.107489 0.880245 0.150032
Si Si5 0.786961 0.059206 0.281783
Si Si6 0.820493 0.117685 0.435323
Si Si7 0.590448 0.092370 0.964227
O O1 0.716827 0.086988 0.194560
O O2 0.295590 0.975710 0.144940
O O3 0.511910 0.067701 0.046704
O O4 0.800466 0.925707 0.128567
O O5 0.238692 0.191656 0.591768
O O6 0.649156 0.179375 0.490375
O O7 0.141568 0.135384 0.458676
O O8 0.281447 0.314385 0.478307
O O9 0.666498 0.646112 0.738991
O O10 0.593109 0.483326 0.801389
O O11 0.856604 0.611717 0.893750
O O12 0.090613 0.534983 0.789372
O O13 0.738835 0.135737 0.346362
O O14 0.750337 0.005059 0.445547
#
# Coordination Sequence:
#
# PCOD9134707 Si02
#       7
#     4   4   4   4   4   4   4
#     4  10  20  37  66  86 123 162 209 251 314 365
#     4  12  24  38  66  93 122 165 211 247 317 372
#     4   9  20  35  63  88 124 160 206 251 317 362
#     4  10  19  40  59  90 123 166 199 258 311 368
#     4   9  19  37  63  90 115 171 201 248 320 368
#     4  11  23  42  63  88 131 158 203 267 303 369
#     4  11  23  41  66  95 122 166 209 258 310 370
#
# _framework density 23.600991
#
# number of rings (size 3 to 8) (size 9 to 14) (size 15 to 20)
#    0.000    1.714    2.857    1.714    0.000    4.571 
#    2.571    0.000    3.143    0.000    0.000    0.000 
#    0.000    0.000    0.000    0.000    0.000    0.000 
#
# Total GULP energy -78090.957021 kJ/mol
# GULP energy per Si atom -5577.925501 kJ/mol
# Density = 2.354727 g / cm^3
# Si number density = 23.600991 Si / 1000 Ang^3
#
#
#
# Elastic Constant Matrix: (Units=GPa)
#
#
# Indices 1 2 3 4 5 6 
#
# 1 77.9597 -8.5108 10.0099 0.0000 -6.4599 0.0000
# 2 -8.5108 52.3479 24.0087 0.0000 0.5437 0.0000
# 3 10.0099 24.0087 207.1338 0.0000 9.5168 0.0000
# 4 0.0000 0.0000 0.0000 19.0181 0.0000 3.6979
# 5 -6.4599 0.5437 9.5168 0.0000 26.5997 0.0000
# 6 0.0000 0.0000 0.0000 3.6979 0.0000 7.6560
#
#
#
# Elastic Compliance Matrix: (Units=1/GPa)
#
#
# Indices 1 2 3 4 5 6 
#
# 1 0.013569 0.002689 -0.001135 0.000000 0.003646 0.000000
# 2 0.002689 0.020713 -0.002584 0.000000 0.001154 0.000000
# 3 -0.001135 -0.002584 0.005279 0.000000 -0.002112 0.000000
# 4 0.000000 0.000000 0.000000 0.058032 0.000000 -0.028030
# 5 0.003646 0.001154 -0.002112 0.000000 0.039212 0.000000
# 6 0.000000 0.000000 0.000000 -0.028030 0.000000 0.144156
#
#
# Mechanical properties :
#
#
# Convention : Reuss Voigt Hill
#
# Bulk Modulus (GPa) = 26.66618 43.16187 34.91402
# Shear Modulus (GPa) = 16.91930 31.45033 24.18482
#
# Velocity S-wave (km/s) = 2.68038 3.65442 3.20462
# Velocity P-wave (km/s) = 4.57193 6.01118 5.34026
#
# Compressibility (1/GPa) = 0.03750069
#
# Stress axis : x y z
#
# Youngs Moduli (GPa) = 73.70003 48.27862 189.42475
#
# Poissons Ratio (x) = -0.12980 0.21497
# Poissons Ratio (y) = -0.19815 0.48943
# Poissons Ratio (z) = 0.08364 0.12474
#
# Static dielectric constant tensor:
#      x y z
#    x 1.837960 0.000000 -0.020120 
#    y 0.000000 1.862770 0.000000 
#    z -0.020120 0.000000 2.105960 
# 
# From -- ./inp_files/28517.got.cif
#   From: 2010.05.17/outbox.cif.g08.bks.cpg/sg9_15_cif.got.tgz:28517.got - 2010.06.03 20:04:27.
