data_PCOD9134538
_publ_section_title
;
Structure prediction by ZEFSAII (Michael W. Deem and Ramdas Pophale) SiO2 
 PCOD9134538
Probable space group: C C
;
_chemical_formula_sum "Si O2"
_cell_formula_units_Z 32
_cell_length_a 11.855300
_cell_length_b 8.154329
_cell_length_c 22.731858
_cell_angle_alpha 90.000000
_cell_angle_beta 40.453715
_cell_angle_gamma 90.000000
_cell_volume 1425.834170
_symmetry_space_group_name_H-M "C C"
_symmetry_group_IT_number 9
_symmetry_cell_setting 'monoclinic'
loop_
_space_group_symop_operation_xyz
x,y,z
x,-y,1/2+z
1/2+x,1/2+y,z
1/2+x,1/2-y,1/2+z
loop_
_atom_site_type_symbol
_atom_site_label
_atom_site_fract_x
_atom_site_fract_y
_atom_site_fract_z
Si Si1 0.250000 0.592401 0.771950
Si Si2 0.885284 0.660301 0.595240
Si Si3 0.515426 0.849710 0.264862
Si Si4 0.635429 0.785298 0.505251
Si Si5 0.903776 0.559104 0.197871
Si Si6 0.551935 0.445290 0.575543
Si Si7 0.280243 0.853744 0.581362
Si Si8 0.756293 0.058829 0.396616
O O1 0.426789 0.518795 0.675191
O O2 0.094648 0.557021 0.788847
O O3 0.275588 0.789682 0.762226
O O4 0.223562 0.510059 0.844700
O O5 0.842914 0.581975 0.676013
O O6 0.770191 0.550541 0.597633
O O7 0.079917 0.618417 0.496810
O O8 0.909213 0.853740 0.591325
O O9 0.448589 0.971109 0.240875
O O10 0.668532 0.745779 0.172832
O O11 0.382154 0.712303 0.340460
O O12 0.655366 0.591852 0.504047
O O13 0.560139 0.859251 0.596733
O O14 0.476813 0.803539 0.520116
O O15 0.795863 0.895563 0.419657
O O16 0.691205 0.329005 0.553600
#
# Coordination Sequence:
#
# PCOD9134538 Si02
#       8
#     4   4   4   4   4   4   4   4
#     4  11  22  39  59  94 122 156 203 258 300 373
#     4  10  21  39  62  90 120 158 208 251 296 373
#     4  12  20  39  65  88 119 167 196 254 314 350
#     4   9  22  43  56  90 124 153 206 256 297 369
#     4   9  19  37  62  84 113 157 205 237 293 369
#     4  11  20  38  68  85 116 164 209 245 300 365
#     4  10  19  37  63  85 117 154 203 245 295 363
#     4  10  23  40  57  90 131 151 198 264 307 356
#
# _framework density 22.443000999999999
#
# number of rings (size 3 to 8) (size 9 to 14) (size 15 to 20)
#    0.000    2.000    6.250    0.000    0.000    5.000 
#    0.000    2.500    0.000    0.000    0.000    0.000 
#    0.000    0.000    0.000    0.000    0.000    0.000 
#
# Total GULP energy -89159.343210 kJ/mol
# GULP energy per Si atom -5572.458951 kJ/mol
# Density = 2.239192 g / cm^3
# Si number density = 22.443001 Si / 1000 Ang^3
#
#
#
# Elastic Constant Matrix: (Units=GPa)
#
#
# Indices 1 2 3 4 5 6 
#
# 1 75.3582 9.7510 22.3511 0.0000 12.4548 0.0000
# 2 9.7510 58.8445 6.7469 0.0000 9.7805 0.0000
# 3 22.3511 6.7469 41.1445 0.0000 10.6977 0.0000
# 4 0.0000 0.0000 0.0000 20.3316 0.0000 5.4535
# 5 12.4548 9.7805 10.6977 0.0000 20.0649 0.0000
# 6 0.0000 0.0000 0.0000 5.4535 0.0000 36.5515
#
#
#
# Elastic Compliance Matrix: (Units=1/GPa)
#
#
# Indices 1 2 3 4 5 6 
#
# 1 0.016530 -0.000918 -0.007288 0.000000 -0.005927 0.000000
# 2 -0.000918 0.018566 -0.000396 0.000000 -0.008269 0.000000
# 3 -0.007288 -0.000396 0.031464 0.000000 -0.012058 0.000000
# 4 0.000000 0.000000 0.000000 0.051235 0.000000 -0.007644
# 5 -0.005927 -0.008269 -0.012058 0.000000 0.063977 0.000000
# 6 0.000000 0.000000 0.000000 -0.007644 0.000000 0.028499
#
#
# Mechanical properties :
#
#
# Convention : Reuss Voigt Hill
#
# Bulk Modulus (GPa) = 20.26112 28.11614 24.18863
# Shear Modulus (GPa) = 20.49800 24.48949 22.49375
#
# Velocity S-wave (km/s) = 3.02542 3.30689 3.16929
# Velocity P-wave (km/s) = 4.60995 5.20920 4.91871
#
# Compressibility (1/GPa) = 0.04935560
#
# Stress axis : x y z
#
# Youngs Moduli (GPa) = 60.49599 53.86240 31.78271
#
# Poissons Ratio (x) = 0.04947 0.23163
# Poissons Ratio (y) = 0.05556 0.01257
# Poissons Ratio (z) = 0.44089 0.02131
#
# Static dielectric constant tensor:
#      x y z
#    x 1.839540 0.000000 -0.010910 
#    y 0.000000 1.983570 0.000000 
#    z -0.010910 0.000000 1.821060 
# 
# From -- ./inp_files/33132.got.cif
#   From: 2010.05.17/outbox.cif.g08.bks.cpg/sg9_17_cif.got.tgz:33132.got - 2010.06.03 20:04:27.
