data_PCOD9134437
_publ_section_title
;
Structure prediction by ZEFSAII (Michael W. Deem and Ramdas Pophale) SiO2 
 PCOD9134437
Probable space group: C C
;
_chemical_formula_sum "Si O2"
_cell_formula_units_Z 28
_cell_length_a 11.511499
_cell_length_b 25.014168
_cell_length_c 5.115122
_cell_angle_alpha 90.000000
_cell_angle_beta 62.965021
_cell_angle_gamma 90.000000
_cell_volume 1311.957079
_symmetry_space_group_name_H-M "C C"
_symmetry_group_IT_number 9
_symmetry_cell_setting 'monoclinic'
loop_
_space_group_symop_operation_xyz
x,y,z
x,-y,1/2+z
1/2+x,1/2+y,z
1/2+x,1/2-y,1/2+z
loop_
_atom_site_type_symbol
_atom_site_label
_atom_site_fract_x
_atom_site_fract_y
_atom_site_fract_z
Si Si1 0.694460 0.806514 0.509100
Si Si2 0.941938 0.140126 0.636279
Si Si3 0.142956 0.968172 0.539144
Si Si4 0.374741 0.580121 0.206590
Si Si5 0.116640 0.625769 0.586465
Si Si6 0.323833 0.134052 0.780121
Si Si7 0.220065 0.814457 0.887776
O O1 0.851155 0.811260 0.316962
O O2 0.637414 0.846266 0.345963
O O3 0.666716 0.744875 0.490294
O O4 0.652949 0.829717 0.830480
O O5 0.916407 0.128885 0.357930
O O6 0.092717 0.148359 0.526950
O O7 0.893325 0.093505 0.882401
O O8 0.217592 0.913415 0.397973
O O9 0.986047 0.961453 0.672962
O O10 0.179421 0.012559 0.289244
O O11 0.221312 0.577803 0.431934
O O12 0.966850 0.611253 0.693962
O O13 0.315917 0.164684 0.514146
O O14 0.286598 0.176834 0.041108
#
# Coordination Sequence:
#
# PCOD9134437 Si02
#       7
#     4   4   4   4   4   4   4
#     4  10  23  37  59  90 124 172 209 246 276 349
#     4  10  19  36  60  83 121 158 205 246 283 343
#     4  12  24  42  66  93 116 149 204 255 313 378
#     4  10  20  42  61  87 114 159 196 248 303 348
#     4  10  23  42  62  87 131 163 205 241 303 359
#     4  12  25  41  62  92 125 164 191 259 318 357
#     4  12  22  38  60  90 129 163 210 241 296 354
#
# _framework density 21.342161000000001
#
# number of rings (size 3 to 8) (size 9 to 14) (size 15 to 20)
#    0.000    1.143    2.857    3.429    4.000    0.000 
#    0.000    1.429    0.000    0.000    0.000    0.000 
#    0.000    0.000    0.000    0.000    0.000    0.000 
#
# Total GULP energy -78162.386569 kJ/mol
# GULP energy per Si atom -5583.027612 kJ/mol
# Density = 2.129358 g / cm^3
# Si number density = 21.342161 Si / 1000 Ang^3
#
#
#
# Elastic Constant Matrix: (Units=GPa)
#
#
# Indices 1 2 3 4 5 6 
#
# 1 103.7752 -10.5689 18.4773 0.0000 -7.9492 0.0000
# 2 -10.5689 36.7475 4.9022 0.0000 3.8606 0.0000
# 3 18.4773 4.9022 55.8036 0.0000 8.6457 0.0000
# 4 0.0000 0.0000 0.0000 21.5256 0.0000 2.9872
# 5 -7.9492 3.8606 8.6457 0.0000 36.2760 0.0000
# 6 0.0000 0.0000 0.0000 2.9872 0.0000 19.1118
#
#
#
# Elastic Compliance Matrix: (Units=1/GPa)
#
#
# Indices 1 2 3 4 5 6 
#
# 1 0.011012 0.003432 -0.004428 0.000000 0.003103 0.000000
# 2 0.003432 0.028815 -0.003436 0.000000 -0.001496 0.000000
# 3 -0.004428 -0.003436 0.020540 0.000000 -0.005500 0.000000
# 4 0.000000 0.000000 0.000000 0.047486 0.000000 -0.007422
# 5 0.003103 -0.001496 -0.005500 0.000000 0.029717 0.000000
# 6 0.000000 0.000000 0.000000 -0.007422 0.000000 0.053484
#
#
# Mechanical properties :
#
#
# Convention : Reuss Voigt Hill
#
# Bulk Modulus (GPa) = 19.41656 24.66082 22.03869
# Shear Modulus (GPa) = 23.03228 27.61707 25.32467
#
# Velocity S-wave (km/s) = 3.28867 3.60114 3.44845
# Velocity P-wave (km/s) = 4.85159 5.37318 5.11903
#
# Compressibility (1/GPa) = 0.05150244
#
# Stress axis : x y z
#
# Youngs Moduli (GPa) = 90.81060 34.70382 48.68482
#
# Poissons Ratio (x) = -0.11910 0.21560
# Poissons Ratio (y) = -0.31165 0.16728
# Poissons Ratio (z) = 0.40215 0.11924
#
# Static dielectric constant tensor:
#      x y z
#    x 1.794650 0.000000 -0.021650 
#    y 0.000000 1.774630 0.000000 
#    z -0.021650 0.000000 1.761810 
# 
# From -- ./inp_files/1813.got.cif
#   From: 2010.05.17/outbox.cif.g08.bks.cpg/sg9_1_cif.got.tgz:1813.got - 2010.06.03 20:04:27.
