data_PCOD9134528
_publ_section_title
;
Structure prediction by ZEFSAII (Michael W. Deem and Ramdas Pophale) SiO2 
 PCOD9134528
Probable space group: C C
;
_chemical_formula_sum "Si O2"
_cell_formula_units_Z 32
_cell_length_a 24.930530
_cell_length_b 14.079541
_cell_length_c 13.513671
_cell_angle_alpha 90.000000
_cell_angle_beta 157.669390
_cell_angle_gamma 90.000000
_cell_volume 1802.271641
_symmetry_space_group_name_H-M "C C"
_symmetry_group_IT_number 9
_symmetry_cell_setting 'monoclinic'
loop_
_space_group_symop_operation_xyz
x,y,z
x,-y,1/2+z
1/2+x,1/2+y,z
1/2+x,1/2-y,1/2+z
loop_
_atom_site_type_symbol
_atom_site_label
_atom_site_fract_x
_atom_site_fract_y
_atom_site_fract_z
Si Si1 0.739530 0.053922 0.216790
Si Si2 0.750050 0.472751 0.694962
Si Si3 0.751131 0.145289 0.438674
Si Si4 0.933513 0.146031 0.387611
Si Si5 0.428686 0.868358 0.398677
Si Si6 0.415198 0.025434 0.669587
Si Si7 0.256923 0.140396 0.005478
Si Si8 0.429586 0.523867 0.198172
O O1 0.739055 0.140507 0.297370
O O2 0.824956 0.085913 0.267580
O O3 0.826366 0.974980 0.427213
O O4 0.580368 0.023270 0.924747
O O5 0.830561 0.569451 0.801549
O O6 0.770353 0.398334 0.640163
O O7 0.586121 0.496336 0.431827
O O8 0.821964 0.439720 0.919079
O O9 0.787551 0.248477 0.541602
O O10 0.866017 0.064024 0.654282
O O11 0.594467 0.116649 0.206771
O O12 0.903924 0.256379 0.356573
O O13 0.924910 0.115753 0.258668
O O14 0.093837 0.125765 0.695532
O O15 0.403086 0.907454 0.244609
O O16 0.355564 0.924105 0.604376
#
# Coordination Sequence:
#
# PCOD9134528 Si02
#       8
#     4   4   4   4   4   4   4   4
#     4   9  21  37  58  86 117 152 197 231 301 352
#     4  11  21  36  62  88 119 155 194 245 298 343
#     4   8  19  39  59  86 114 147 201 237 279 361
#     4  11  20  37  64  84 117 158 198 243 288 358
#     4   9  22  37  60  88 112 157 204 229 296 363
#     4  10  21  37  58  87 122 149 190 250 294 343
#     4  10  19  37  62  87 113 156 201 239 286 356
#     4  10  21  38  59  88 118 150 195 248 290 348
#
# _framework density 17.755369999999999
#
# number of rings (size 3 to 8) (size 9 to 14) (size 15 to 20)
#    0.750    1.500    2.500    0.000    3.500    1.000 
#    0.000    3.750    0.000    0.000    0.000    0.000 
#    0.000    0.000    0.000    0.000    0.000    0.000 
#
# Total GULP energy -89137.236112 kJ/mol
# GULP energy per Si atom -5571.077257 kJ/mol
# Density = 1.771496 g / cm^3
# Si number density = 17.755370 Si / 1000 Ang^3
#
#
#
# Elastic Constant Matrix: (Units=GPa)
#
#
# Indices 1 2 3 4 5 6 
#
# 1 48.1127 20.6618 13.8092 0.0000 11.0253 0.0000
# 2 20.6618 68.4796 15.4396 0.0000 13.0194 0.0000
# 3 13.8092 15.4396 62.4367 0.0000 13.2025 0.0000
# 4 0.0000 0.0000 0.0000 26.4860 0.0000 0.1119
# 5 11.0253 13.0194 13.2025 0.0000 29.2502 0.0000
# 6 0.0000 0.0000 0.0000 0.1119 0.0000 9.1295
#
#
#
# Elastic Compliance Matrix: (Units=1/GPa)
#
#
# Indices 1 2 3 4 5 6 
#
# 1 0.025480 -0.005950 -0.002978 0.000000 -0.005612 0.000000
# 2 -0.005950 0.017765 -0.002078 0.000000 -0.004727 0.000000
# 3 -0.002978 -0.002078 0.018524 0.000000 -0.006314 0.000000
# 4 0.000000 0.000000 0.000000 0.037758 0.000000 -0.000463
# 5 -0.005612 -0.004727 -0.006314 0.000000 0.041257 0.000000
# 6 0.000000 0.000000 0.000000 -0.000463 0.000000 0.109541
#
#
# Mechanical properties :
#
#
# Convention : Reuss Voigt Hill
#
# Bulk Modulus (GPa) = 25.15124 30.98336 28.06730
# Shear Modulus (GPa) = 17.50777 21.58101 19.54439
#
# Velocity S-wave (km/s) = 3.14356 3.49013 3.32137
# Velocity P-wave (km/s) = 5.23184 5.80770 5.52727
#
# Compressibility (1/GPa) = 0.03975947
#
# Stress axis : x y z
#
# Youngs Moduli (GPa) = 39.24611 56.28995 53.98512
#
# Poissons Ratio (x) = 0.33490 0.16074
# Poissons Ratio (y) = 0.23350 0.11216
# Poissons Ratio (z) = 0.11686 0.11695
#
# Static dielectric constant tensor:
#      x y z
#    x 1.618480 0.000000 -0.003270 
#    y 0.000000 1.592830 0.000000 
#    z -0.003270 0.000000 1.594070 
# 
# From -- ./inp_files/24668.got.cif
#   From: 2010.05.17/outbox.cif.g08.bks.cpg/sg9_13_cif.got.tgz:24668.got - 2010.06.03 20:04:27.
