data_PCOD9134649
_publ_section_title
;
Structure prediction by ZEFSAII (Michael W. Deem and Ramdas Pophale) SiO2 
 PCOD9134649
Probable space group: C C
;
_chemical_formula_sum "Si O2"
_cell_formula_units_Z 28
_cell_length_a 10.855781
_cell_length_b 8.816728
_cell_length_c 21.626633
_cell_angle_alpha 90.000000
_cell_angle_beta 37.955026
_cell_angle_gamma 90.000000
_cell_volume 1273.100603
_symmetry_space_group_name_H-M "C C"
_symmetry_group_IT_number 9
_symmetry_cell_setting 'monoclinic'
loop_
_space_group_symop_operation_xyz
x,y,z
x,-y,1/2+z
1/2+x,1/2+y,z
1/2+x,1/2-y,1/2+z
loop_
_atom_site_type_symbol
_atom_site_label
_atom_site_fract_x
_atom_site_fract_y
_atom_site_fract_z
Si Si1 0.921220 0.438308 0.964520
Si Si2 0.749198 0.113856 0.613410
Si Si3 0.531756 0.881758 0.789125
Si Si4 0.325250 0.569308 0.858727
Si Si5 0.212577 0.064844 0.155466
Si Si6 0.350314 0.149298 0.707592
Si Si7 0.489497 0.585003 0.929582
O O1 0.914105 0.455787 0.893304
O O2 0.949775 0.258532 0.965515
O O3 0.110119 0.529999 0.917425
O O4 0.737450 0.500709 0.076681
O O5 0.628260 0.996729 0.703475
O O6 0.578622 0.170487 0.633426
O O7 0.925575 0.030917 0.507529
O O8 0.803135 0.267856 0.626788
O O9 0.404175 0.740146 0.812638
O O10 0.724479 0.800245 0.744389
O O11 0.483072 0.449840 0.767515
O O12 0.353857 0.559109 0.921633
O O13 0.328605 0.953523 0.155810
O O14 0.217366 0.072680 0.815079
#
# Coordination Sequence:
#
# PCOD9134649 Si02
#       7
#     4   4   4   4   4   4   4
#     4  10  19  39  59  81 117 150 185 237 280 328
#     4  12  22  37  59  86 117 148 184 236 283 332
#     4   9  22  38  58  85 112 149 195 227 276 343
#     4   9  19  39  61  81 112 153 187 234 283 325
#     4  10  21  35  59  88 111 147 195 227 280 345
#     4   9  21  42  57  78 116 152 186 235 280 326
#     4   9  20  36  59  85 111 149 194 228 280 341
#
# _framework density 21.993549999999999
#
# number of rings (size 3 to 8) (size 9 to 14) (size 15 to 20)
#    0.000    2.857    0.000    4.286    0.000    4.571 
#    0.000   12.857    0.000    0.000    0.000    0.000 
#    0.000    0.000    0.000    0.000    0.000    0.000 
#
# Total GULP energy -78185.580788 kJ/mol
# GULP energy per Si atom -5584.684342 kJ/mol
# Density = 2.194349 g / cm^3
# Si number density = 21.993550 Si / 1000 Ang^3
#
#
#
# Elastic Constant Matrix: (Units=GPa)
#
#
# Indices 1 2 3 4 5 6 
#
# 1 30.4488 7.2782 9.1341 0.0000 -6.5835 0.0000
# 2 7.2782 89.4923 47.1441 0.0000 29.9394 0.0000
# 3 9.1341 47.1441 82.2218 0.0001 24.1494 0.0000
# 4 0.0000 0.0000 0.0001 21.4498 0.0000 1.8032
# 5 -6.5835 29.9394 24.1494 0.0000 27.4425 0.0000
# 6 0.0000 0.0000 0.0000 1.8032 0.0000 17.9653
#
#
#
# Elastic Compliance Matrix: (Units=1/GPa)
#
#
# Indices 1 2 3 4 5 6 
#
# 1 0.042644 -0.008033 -0.007701 0.000000 0.025771 0.000000
# 2 -0.008033 0.021620 -0.005408 0.000000 -0.020755 0.000000
# 3 -0.007701 -0.005408 0.020131 0.000000 -0.013663 0.000000
# 4 0.000000 0.000000 0.000000 0.047017 0.000000 -0.004719
# 5 0.025771 -0.020755 -0.013663 0.000000 0.077290 0.000000
# 6 0.000000 0.000000 0.000000 -0.004719 0.000000 0.056137
#
#
# Mechanical properties :
#
#
# Convention : Reuss Voigt Hill
#
# Bulk Modulus (GPa) = 23.74599 36.58617 30.16608
# Shear Modulus (GPa) = 15.56855 22.61194 19.09024
#
# Velocity S-wave (km/s) = 2.66347 3.20990 2.94937
# Velocity P-wave (km/s) = 4.50322 5.51444 5.03428
#
# Compressibility (1/GPa) = 0.04211237
#
# Stress axis : x y z
#
# Youngs Moduli (GPa) = 23.44975 46.25364 49.67341
#
# Poissons Ratio (x) = 0.37156 0.38252
# Poissons Ratio (y) = 0.18838 0.26863
# Poissons Ratio (z) = 0.18058 0.25014
#
# Static dielectric constant tensor:
#      x y z
#    x 1.837030 0.000000 0.014310 
#    y 0.000000 1.817600 0.000000 
#    z 0.014310 0.000000 1.815270 
# 
# From -- ./inp_files/36657.got.cif
#   From: 2010.05.17/outbox.cif.g08.bks.cpg/sg9_19_cif.got.tgz:36657.got - 2010.06.03 20:04:27.
