data_PCOD9134544
_publ_section_title
;
Structure prediction by ZEFSAII (Michael W. Deem and Ramdas Pophale) SiO2 
 PCOD9134544
Probable space group: C C
;
_chemical_formula_sum "Si O2"
_cell_formula_units_Z 28
_cell_length_a 11.433639
_cell_length_b 6.994713
_cell_length_c 14.025235
_cell_angle_alpha 90.000000
_cell_angle_beta 122.868495
_cell_angle_gamma 90.000000
_cell_volume 942.110021
_symmetry_space_group_name_H-M "C C"
_symmetry_group_IT_number 9
_symmetry_cell_setting 'monoclinic'
loop_
_space_group_symop_operation_xyz
x,y,z
x,-y,1/2+z
1/2+x,1/2+y,z
1/2+x,1/2-y,1/2+z
loop_
_atom_site_type_symbol
_atom_site_label
_atom_site_fract_x
_atom_site_fract_y
_atom_site_fract_z
Si Si1 0.632990 0.970175 0.535950
Si Si2 0.025675 0.457407 0.770283
Si Si3 0.735330 0.428920 0.689899
Si Si4 0.843555 0.547665 0.417741
Si Si5 0.824472 0.096319 0.367970
Si Si6 0.938618 0.058784 0.633870
Si Si7 0.116606 0.943624 0.971635
O O1 0.585460 0.018258 0.405170
O O2 0.496894 0.052646 0.529790
O O3 0.794629 0.003930 0.623774
O O4 0.617661 0.740323 0.541118
O O5 0.172685 0.488157 0.780228
O O6 0.871683 0.554205 0.708341
O O7 0.979446 0.257321 0.702308
O O8 0.823609 0.330474 0.813238
O O9 0.590295 0.461489 0.685537
O O10 0.669045 0.378057 0.557536
O O11 0.812386 0.328765 0.369726
O O12 0.727385 0.598292 0.440945
O O13 0.878071 0.047276 0.498564
O O14 0.960521 0.046102 0.366312
#
# Coordination Sequence:
#
# PCOD9134544 Si02
#       7
#     4   4   4   4   4   4   4
#     4   9  22  39  63  96 132 172 217 269 333 386
#     4  10  19  38  63  92 125 168 216 268 318 392
#     4  10  21  37  62  92 125 171 221 261 325 389
#     4  10  19  40  63  91 129 170 212 274 325 382
#     4   9  19  37  63  89 123 171 214 262 333 380
#     4  10  19  37  63  91 128 169 217 266 321 394
#     4  10  21  40  65  91 132 175 215 276 323 389
#
# _framework density 29.72052
#
# number of rings (size 3 to 8) (size 9 to 14) (size 15 to 20)
#    0.000    2.286    1.429    0.857    0.000    1.143 
#    7.714    8.571   18.857    0.000    0.000    0.000 
#    0.000    0.000    0.000    0.000    0.000    0.000 
#
# Total GULP energy -78000.395509 kJ/mol
# GULP energy per Si atom -5571.456822 kJ/mol
# Density = 2.965287 g / cm^3
# Si number density = 29.720520 Si / 1000 Ang^3
#
#
#
# Elastic Constant Matrix: (Units=GPa)
#
#
# Indices 1 2 3 4 5 6 
#
# 1 242.0218 38.2985 70.5894 0.0000 90.9562 0.0000
# 2 38.2985 75.4492 33.7227 0.0000 34.9832 0.0000
# 3 70.5894 33.7227 187.1572 0.0000 59.6009 0.0000
# 4 0.0000 0.0000 0.0000 36.4889 0.0000 16.6552
# 5 90.9562 34.9832 59.6009 0.0000 87.6466 0.0000
# 6 0.0000 0.0000 0.0000 16.6552 0.0000 33.1903
#
#
#
# Elastic Compliance Matrix: (Units=1/GPa)
#
#
# Indices 1 2 3 4 5 6 
#
# 1 0.006799 -0.000157 -0.000395 0.000000 -0.006725 0.000000
# 2 -0.000157 0.016447 -0.001105 0.000000 -0.005651 0.000000
# 3 -0.000395 -0.001105 0.006918 0.000000 -0.003854 0.000000
# 4 0.000000 0.000000 0.000000 0.035548 0.000000 -0.017838
# 5 -0.006725 -0.005651 -0.003854 0.000000 0.023265 0.000000
# 6 0.000000 0.000000 0.000000 -0.017838 0.000000 0.039081
#
#
# Mechanical properties :
#
#
# Convention : Reuss Voigt Hill
#
# Bulk Modulus (GPa) = 37.24065 87.76107 62.50086
# Shear Modulus (GPa) = 35.63249 55.59967 45.61608
#
# Velocity S-wave (km/s) = 3.46630 4.32991 3.92195
# Velocity P-wave (km/s) = 5.34582 7.38853 6.44857
#
# Compressibility (1/GPa) = 0.02685238
#
# Stress axis : x y z
#
# Youngs Moduli (GPa) = 147.07794 60.79969 144.54301
#
# Poissons Ratio (x) = 0.00953 0.05703
# Poissons Ratio (y) = 0.02306 0.15971
# Poissons Ratio (z) = 0.05803 0.06718
#
# Static dielectric constant tensor:
#      x y z
#    x 2.479950 0.000000 -0.059350 
#    y 0.000000 2.574640 0.000000 
#    z -0.059350 0.000000 2.244520 
# 
# From -- ./inp_files/29879.got.cif
#   From: 2010.05.17/outbox.cif.g08.bks.cpg/sg9_15_cif.got.tgz:29879.got - 2010.06.03 20:04:27.
