data_PCOD9134475
_publ_section_title
;
Structure prediction by ZEFSAII (Michael W. Deem and Ramdas Pophale) SiO2 
 PCOD9134475
Probable space group: C C
;
_chemical_formula_sum "Si O2"
_cell_formula_units_Z 32
_cell_length_a 7.568393
_cell_length_b 16.111558
_cell_length_c 14.953647
_cell_angle_alpha 90.000000
_cell_angle_beta 43.206539
_cell_angle_gamma 90.000000
_cell_volume 1248.373246
_symmetry_space_group_name_H-M "C C"
_symmetry_group_IT_number 9
_symmetry_cell_setting 'monoclinic'
loop_
_space_group_symop_operation_xyz
x,y,z
x,-y,1/2+z
1/2+x,1/2+y,z
1/2+x,1/2-y,1/2+z
loop_
_atom_site_type_symbol
_atom_site_label
_atom_site_fract_x
_atom_site_fract_y
_atom_site_fract_z
Si Si1 0.247050 0.773736 0.798320
Si Si2 0.068988 0.626035 0.049196
Si Si3 0.353489 0.605311 0.256827
Si Si4 0.333348 0.847641 0.464945
Si Si5 0.687989 0.643555 0.639460
Si Si6 0.710932 0.495614 0.762153
Si Si7 0.316632 0.926964 0.901942
Si Si8 0.068104 0.771579 0.423384
O O1 0.338349 0.812146 0.669801
O O2 0.178788 0.985406 0.880329
O O3 0.315966 0.839816 0.848478
O O4 0.019688 0.603985 0.964354
O O5 0.924352 0.806510 0.237818
O O6 0.991433 0.545866 0.135246
O O7 0.331733 0.675522 0.968383
O O8 0.562789 0.622547 0.103984
O O9 0.490874 0.558663 0.290003
O O10 0.114783 0.550995 0.309029
O O11 0.229667 0.696478 0.320250
O O12 0.273154 0.839110 0.382947
O O13 0.458242 0.755028 0.426097
O O14 0.711906 0.583553 0.714193
O O15 0.907459 0.714851 0.554439
O O16 0.703116 0.589894 0.542057
#
# Coordination Sequence:
#
# PCOD9134475 Si02
#       8
#     4   4   4   4   4   4   4   4
#     4  10  19  36  65 100 126 170 224 291 336 397
#     4   9  20  36  61  91 128 168 222 278 340 405
#     4  10  21  36  61  92 131 174 224 271 344 411
#     4  11  18  32  60  90 127 162 217 276 332 395
#     4  10  22  41  69  99 137 174 239 283 346 421
#     4  10  21  42  65  96 137 185 219 278 364 419
#     4  10  21  43  70  91 139 177 221 290 348 396
#     4  10  20  36  63  95 121 172 222 285 334 402
#
# _framework density 25.633361000000001
#
# number of rings (size 3 to 8) (size 9 to 14) (size 15 to 20)
#    0.000    2.000    0.000    6.750    0.000    0.000 
#    9.000    6.250   27.500    0.000    0.000    0.000 
#    0.000    0.000    0.000    0.000    0.000    0.000 
#
# Total GULP energy -89182.892848 kJ/mol
# GULP energy per Si atom -5573.930803 kJ/mol
# Density = 2.557502 g / cm^3
# Si number density = 25.633361 Si / 1000 Ang^3
#
#
#
# Elastic Constant Matrix: (Units=GPa)
#
#
# Indices 1 2 3 4 5 6 
#
# 1 143.9827 48.6350 16.5933 -0.0001 17.0400 0.0000
# 2 48.6350 111.3960 33.6783 -0.0001 10.5646 0.0001
# 3 16.5933 33.6783 70.2241 -0.0002 12.3520 0.0002
# 4 -0.0001 -0.0001 -0.0002 28.8993 0.0001 12.9012
# 5 17.0400 10.5646 12.3520 0.0001 37.3098 0.0000
# 6 0.0000 0.0001 0.0002 12.9012 0.0000 31.9749
#
#
#
# Elastic Compliance Matrix: (Units=1/GPa)
#
#
# Indices 1 2 3 4 5 6 
#
# 1 0.008441 -0.003462 0.000182 0.000000 -0.002935 0.000000
# 2 -0.003462 0.011987 -0.004897 0.000000 -0.000192 0.000000
# 3 0.000182 -0.004897 0.017325 0.000000 -0.004432 0.000000
# 4 0.000000 0.000000 0.000000 0.042205 0.000000 -0.017029
# 5 -0.002935 -0.000192 -0.004432 0.000000 0.029665 0.000000
# 6 0.000000 0.000000 0.000000 -0.017029 0.000000 0.038145
#
#
# Mechanical properties :
#
#
# Convention : Reuss Voigt Hill
#
# Bulk Modulus (GPa) = 46.73007 58.15734 52.44371
# Shear Modulus (GPa) = 29.19610 34.74989 31.97300
#
# Velocity S-wave (km/s) = 3.37855 3.68591 3.53557
# Velocity P-wave (km/s) = 5.78699 6.39156 6.09677
#
# Compressibility (1/GPa) = 0.02139949
#
# Stress axis : x y z
#
# Youngs Moduli (GPa) = 118.46833 83.42222 57.71909
#
# Poissons Ratio (x) = 0.28881 -0.01051
# Poissons Ratio (y) = 0.41014 0.28266
# Poissons Ratio (z) = -0.02157 0.40853
#
# Static dielectric constant tensor:
#      x y z
#    x 2.134790 0.000000 0.006090 
#    y 0.000000 2.075610 0.000000 
#    z 0.006090 0.000000 2.033330 
# 
# From -- ./inp_files/32817.got.cif
#   From: 2010.05.17/outbox.cif.g08.bks.cpg/sg9_17_cif.got.tgz:32817.got - 2010.06.03 20:04:27.
