data_PCOD9134632
_publ_section_title
;
Structure prediction by ZEFSAII (Michael W. Deem and Ramdas Pophale) SiO2 
 PCOD9134632
Probable space group: C C
;
_chemical_formula_sum "Si O2"
_cell_formula_units_Z 32
_cell_length_a 14.162208
_cell_length_b 14.525015
_cell_length_c 20.062048
_cell_angle_alpha 90.000000
_cell_angle_beta 22.217112
_cell_angle_gamma 90.000000
_cell_volume 1560.448217
_symmetry_space_group_name_H-M "C C"
_symmetry_group_IT_number 9
_symmetry_cell_setting 'monoclinic'
loop_
_space_group_symop_operation_xyz
x,y,z
x,-y,1/2+z
1/2+x,1/2+y,z
1/2+x,1/2-y,1/2+z
loop_
_atom_site_type_symbol
_atom_site_label
_atom_site_fract_x
_atom_site_fract_y
_atom_site_fract_z
Si Si1 0.882470 0.486512 0.379560
Si Si2 0.647834 0.043333 0.563158
Si Si3 0.223394 0.354791 0.226640
Si Si4 0.943429 0.663291 0.579278
Si Si5 0.824934 0.212445 0.513127
Si Si6 0.957158 0.834354 0.666296
Si Si7 0.916874 0.855274 0.348334
Si Si8 0.137601 0.831595 0.059653
O O1 0.625970 0.425870 0.546879
O O2 0.851900 0.592205 0.418619
O O3 0.000360 0.475808 0.228586
O O4 0.056701 0.444285 0.323915
O O5 0.477749 0.090469 0.617473
O O6 0.848161 0.123388 0.450718
O O7 0.779295 0.951349 0.452251
O O8 0.256736 0.321612 0.129840
O O9 0.474965 0.361626 0.102289
O O10 0.065247 0.274555 0.363589
O O11 0.954761 0.766356 0.603873
O O12 0.680607 0.649194 0.714664
O O13 0.179396 0.650126 0.375711
O O14 0.606869 0.274474 0.623930
O O15 0.744471 0.770483 0.483959
O O16 0.976246 0.843182 0.231603
#
# Coordination Sequence:
#
# PCOD9134632 Si02
#       8
#     4   4   4   4   4   4   4   4
#     4  10  23  41  64  93 122 158 208 256 308 376
#     4  10  22  41  64  91 121 158 207 254 306 371
#     4  10  21  38  63  88 120 159 193 250 307 353
#     4  11  22  39  64  91 126 165 202 258 312 357
#     4   9  18  37  64  93 117 150 201 248 301 366
#     4  10  19  38  66  96 124 157 207 255 307 372
#     4  12  27  42  60  89 124 166 211 255 307 371
#     4  12  26  42  59  87 124 163 209 254 308 372
#
# _framework density 20.506929
#
# number of rings (size 3 to 8) (size 9 to 14) (size 15 to 20)
#    0.000    1.500    0.000    6.750    0.000    7.000 
#    0.000    0.000    0.000    0.000    0.000    0.000 
#    0.000    0.000    0.000    0.000    0.000    0.000 
#
# Total GULP energy -89395.384410 kJ/mol
# GULP energy per Si atom -5587.211526 kJ/mol
# Density = 2.046025 g / cm^3
# Si number density = 20.506929 Si / 1000 Ang^3
#
#
#
# Elastic Constant Matrix: (Units=GPa)
#
#
# Indices 1 2 3 4 5 6 
#
# 1 99.0648 64.2169 20.4019 0.3029 14.9215 -0.2055
# 2 64.2169 150.4323 33.0985 0.5411 7.3654 -0.4198
# 3 20.4019 33.0985 65.8185 0.5059 12.8094 -0.3860
# 4 0.3029 0.5411 0.5059 70.8197 0.0369 -18.4029
# 5 14.9215 7.3654 12.8094 0.0369 31.5554 -0.0436
# 6 -0.2055 -0.4198 -0.3860 -18.4029 -0.0436 34.9785
#
#
#
# Elastic Compliance Matrix: (Units=1/GPa)
#
#
# Indices 1 2 3 4 5 6 
#
# 1 0.014897 -0.005970 -0.000560 -0.000012 -0.005423 -0.000004
# 2 -0.005970 0.009869 -0.003489 -0.000016 0.001936 0.000039
# 3 -0.000560 -0.003489 0.018363 -0.000069 -0.006375 0.000113
# 4 -0.000012 -0.000016 -0.000069 0.016357 0.000030 0.008605
# 5 -0.005423 0.001936 -0.006375 0.000030 0.036391 -0.000018
# 6 -0.000004 0.000039 0.000113 0.008605 -0.000018 0.033118
#
#
# Mechanical properties :
#
#
# Convention : Reuss Voigt Hill
#
# Bulk Modulus (GPa) = 43.30612 61.19447 52.25029
# Shear Modulus (GPa) = 31.90214 40.64395 36.27304
#
# Velocity S-wave (km/s) = 3.94848 4.45675 4.21030
# Velocity P-wave (km/s) = 6.47696 7.50927 7.01214
#
# Compressibility (1/GPa) = 0.02309142
#
# Stress axis : x y z
#
# Youngs Moduli (GPa) = 67.12835 101.32559 54.45726
#
# Poissons Ratio (x) = 0.60496 0.03048
# Poissons Ratio (y) = 0.40079 0.18998
# Poissons Ratio (z) = 0.03757 0.35349
#
# Static dielectric constant tensor:
#      x y z
#    x 1.706590 0.000020 -0.010870 
#    y 0.000020 1.746240 0.000020 
#    z -0.010870 0.000020 1.721540 
# 
# From -- ./inp_files/9678.got.cif
#   From: 2010.05.17/outbox.cif.g08.bks.cpg/sg9_5_cif.got.tgz:9678.got - 2010.06.03 20:04:27.
