data_PCOD9134714
_publ_section_title
;
Structure prediction by ZEFSAII (Michael W. Deem and Ramdas Pophale) SiO2 
 PCOD9134714
Probable space group: C C
;
_chemical_formula_sum "Si O2"
_cell_formula_units_Z 28
_cell_length_a 23.169571
_cell_length_b 8.244974
_cell_length_c 9.057549
_cell_angle_alpha 90.000000
_cell_angle_beta 140.099566
_cell_angle_gamma 90.000000
_cell_volume 1109.901580
_symmetry_space_group_name_H-M "C C"
_symmetry_group_IT_number 9
_symmetry_cell_setting 'monoclinic'
loop_
_space_group_symop_operation_xyz
x,y,z
x,-y,1/2+z
1/2+x,1/2+y,z
1/2+x,1/2-y,1/2+z
loop_
_atom_site_type_symbol
_atom_site_label
_atom_site_fract_x
_atom_site_fract_y
_atom_site_fract_z
Si Si1 0.913590 0.515246 0.607220
Si Si2 0.211738 0.661674 0.443257
Si Si3 0.708167 0.167165 0.079684
Si Si4 0.034102 0.003784 0.437710
Si Si5 0.238647 0.987697 0.958051
Si Si6 0.508203 0.280682 0.621083
Si Si7 0.503227 0.173754 0.043575
O O1 0.817716 0.517026 0.494993
O O2 0.931503 0.671459 0.539318
O O3 0.939970 0.365630 0.555937
O O4 0.983474 0.539623 0.879195
O O5 0.248196 0.496159 0.585529
O O6 0.247121 0.838901 0.555256
O O7 0.107523 0.666806 0.288801
O O8 0.216747 0.657466 0.273734
O O9 0.744549 0.331215 0.074779
O O10 0.601534 0.184378 0.830992
O O11 0.140310 0.991806 0.686759
O O12 0.022395 0.054838 0.246124
O O13 0.990385 0.156447 0.436440
O O14 0.993465 0.841777 0.426868
#
# Coordination Sequence:
#
# PCOD9134714 Si02
#       7
#     4   4   4   4   4   4   4
#     4  11  22  38  62  90 130 158 212 276 331 378
#     4  11  21  45  69  94 130 176 225 275 326 405
#     4  11  22  42  66  96 128 176 227 270 327 415
#     4   9  20  38  63  87 121 170 217 259 324 392
#     4  10  24  40  64  95 132 172 213 277 339 390
#     4  10  19  40  62  92 124 168 221 276 317 402
#     4  10  20  39  60  90 119 164 209 263 324 390
#
# _framework density 25.227461999999999
#
# number of rings (size 3 to 8) (size 9 to 14) (size 15 to 20)
#    0.000    1.714    5.714    0.000    2.000    2.286 
#   10.286    0.000    0.000    0.000    0.000    0.000 
#    0.000    0.000    0.000    0.000    0.000    0.000 
#
# Total GULP energy -78378.616793 kJ/mol
# GULP energy per Si atom -5598.472628 kJ/mol
# Density = 2.517004 g / cm^3
# Si number density = 25.227462 Si / 1000 Ang^3
#
#
#
# Elastic Constant Matrix: (Units=GPa)
#
#
# Indices 1 2 3 4 5 6 
#
# 1 172.9707 72.4186 28.4957 0.0000 14.4173 0.0000
# 2 72.4186 163.2597 22.8247 0.0000 -8.3285 0.0000
# 3 28.4957 22.8247 62.6152 0.0000 2.5222 0.0000
# 4 0.0000 0.0000 0.0000 15.4985 0.0000 -23.9221
# 5 14.4173 -8.3285 2.5222 0.0000 26.6710 0.0000
# 6 0.0000 0.0000 0.0000 -23.9221 0.0000 63.5925
#
#
#
# Elastic Compliance Matrix: (Units=1/GPa)
#
#
# Indices 1 2 3 4 5 6 
#
# 1 0.008058 -0.003540 -0.002165 0.000000 -0.005257 0.000000
# 2 -0.003540 0.008146 -0.001544 0.000000 0.004603 0.000000
# 3 -0.002165 -0.001544 0.017558 0.000000 -0.000972 0.000000
# 4 0.000000 0.000000 0.000000 0.153858 0.000000 0.057878
# 5 -0.005257 0.004603 -0.000972 0.000000 0.041865 0.000000
# 6 0.000000 0.000000 0.000000 0.057878 0.000000 0.037498
#
#
# Mechanical properties :
#
#
# Convention : Reuss Voigt Hill
#
# Bulk Modulus (GPa) = 51.90938 71.81374 61.86156
# Shear Modulus (GPa) = 17.36703 39.49284 28.42994
#
# Velocity S-wave (km/s) = 2.62662 3.96089 3.36064
# Velocity P-wave (km/s) = 5.46077 7.03182 6.29550
#
# Compressibility (1/GPa) = 0.01926434
#
# Stress axis : x y z
#
# Youngs Moduli (GPa) = 124.09650 122.75779 56.95464
#
# Poissons Ratio (x) = 0.43455 0.12331
# Poissons Ratio (y) = 0.43929 0.08793
# Poissons Ratio (z) = 0.26868 0.18952
#
# Static dielectric constant tensor:
#      x y z
#    x 1.943100 0.000000 -0.011020 
#    y 0.000000 2.037040 0.000000 
#    z -0.011020 0.000000 1.998650 
# 
# From -- ./inp_files/11386.got.cif
#   From: 2010.05.17/outbox.cif.g08.bks.cpg/sg9_6_cif.got.tgz:11386.got - 2010.06.03 20:04:27.
