data_PCOD9134530
_publ_section_title
;
Structure prediction by ZEFSAII (Michael W. Deem and Ramdas Pophale) SiO2 
 PCOD9134530
Probable space group: C C
;
_chemical_formula_sum "Si O2"
_cell_formula_units_Z 32
_cell_length_a 17.802897
_cell_length_b 6.819314
_cell_length_c 20.387308
_cell_angle_alpha 90.000000
_cell_angle_beta 151.528406
_cell_angle_gamma 90.000000
_cell_volume 1179.933034
_symmetry_space_group_name_H-M "C C"
_symmetry_group_IT_number 9
_symmetry_cell_setting 'monoclinic'
loop_
_space_group_symop_operation_xyz
x,y,z
x,-y,1/2+z
1/2+x,1/2+y,z
1/2+x,1/2-y,1/2+z
loop_
_atom_site_type_symbol
_atom_site_label
_atom_site_fract_x
_atom_site_fract_y
_atom_site_fract_z
Si Si1 0.015120 0.650171 0.310240
Si Si2 0.854252 0.049752 0.887121
Si Si3 0.288414 0.852790 0.302819
Si Si4 0.613379 0.889829 0.508771
Si Si5 0.427313 0.483475 0.696691
Si Si6 0.959624 0.205269 0.595480
Si Si7 0.544682 0.103743 0.709421
Si Si8 0.669982 0.539432 0.076669
O O1 0.062505 0.525723 0.409312
O O2 0.081254 0.538137 0.298334
O O3 0.053737 0.879646 0.331541
O O4 0.822170 0.639071 0.162868
O O5 0.904178 0.915709 0.988840
O O6 0.006344 0.146955 0.970487
O O7 0.790727 0.881068 0.790376
O O8 0.703767 0.172238 0.794401
O O9 0.472165 0.907611 0.453254
O O10 0.145086 0.860025 0.243877
O O11 0.231137 0.963415 0.194341
O O12 0.619990 0.656789 0.500011
O O13 0.797530 0.936980 0.651775
O O14 0.378267 0.623011 0.597946
O O15 0.467020 0.286319 0.686898
O O16 0.954259 0.444421 0.593386
#
# Coordination Sequence:
#
# PCOD9134530 Si02
#       8
#     4   4   4   4   4   4   4   4
#     4  10  21  39  59  90 131 163 213 263 316 386
#     4   9  17  35  64  93 120 168 213 259 327 376
#     4   8  17  34  64  88 123 164 207 262 319 369
#     4  10  19  37  62  89 123 169 210 255 327 373
#     4  11  22  38  59  91 131 168 210 266 318 387
#     4   9  19  37  61  86 126 162 212 264 315 379
#     4  10  20  38  60  90 127 163 209 263 318 387
#     4   9  17  36  65  91 125 169 210 268 312 381
#
# _framework density 27.120184999999999
#
# number of rings (size 3 to 8) (size 9 to 14) (size 15 to 20)
#    0.000    2.500    1.250    0.750    0.000    0.000 
#    4.500    8.750   27.500    0.000    0.000    0.000 
#    0.000    0.000    0.000    0.000    0.000    0.000 
#
# Total GULP energy -89221.917740 kJ/mol
# GULP energy per Si atom -5576.369859 kJ/mol
# Density = 2.705846 g / cm^3
# Si number density = 27.120185 Si / 1000 Ang^3
#
#
#
# Elastic Constant Matrix: (Units=GPa)
#
#
# Indices 1 2 3 4 5 6 
#
# 1 148.4261 29.5593 37.1725 0.0000 22.9959 0.0000
# 2 29.5593 137.4400 29.1775 0.0000 -6.2567 0.0000
# 3 37.1725 29.1775 63.5340 0.0001 26.9998 0.0000
# 4 0.0000 0.0000 0.0001 23.1732 0.0001 -3.5349
# 5 22.9959 -6.2567 26.9998 0.0001 51.5497 0.0000
# 6 0.0000 0.0000 0.0000 -3.5349 0.0000 24.0173
#
#
#
# Elastic Compliance Matrix: (Units=1/GPa)
#
#
# Indices 1 2 3 4 5 6 
#
# 1 0.008116 -0.001114 -0.003397 0.000000 -0.001977 0.000000
# 2 -0.001114 0.008822 -0.005230 0.000000 0.004307 0.000000
# 3 -0.003397 -0.005230 0.025410 0.000000 -0.012428 0.000000
# 4 0.000000 0.000000 0.000000 0.044144 0.000000 0.006497
# 5 -0.001977 0.004307 -0.012428 0.000000 0.027313 0.000000
# 6 0.000000 0.000000 0.000000 0.006497 0.000000 0.042593
#
#
# Mechanical properties :
#
#
# Convention : Reuss Voigt Hill
#
# Bulk Modulus (GPa) = 43.73181 60.13541 51.93361
# Shear Modulus (GPa) = 27.24755 36.64744 31.94750
#
# Velocity S-wave (km/s) = 3.17313 3.67999 3.43592
# Velocity P-wave (km/s) = 5.43923 6.34651 5.91031
#
# Compressibility (1/GPa) = 0.02286665
#
# Stress axis : x y z
#
# Youngs Moduli (GPa) = 123.20917 113.35470 39.35401
#
# Poissons Ratio (x) = 0.12633 0.13368
# Poissons Ratio (y) = 0.13731 0.20581
# Poissons Ratio (z) = 0.41852 0.59281
#
# Static dielectric constant tensor:
#      x y z
#    x 2.058970 0.000000 -0.038040 
#    y 0.000000 2.127010 0.000000 
#    z -0.038040 0.000000 2.317720 
# 
# From -- ./inp_files/36914.got.cif
#   From: 2010.05.17/outbox.cif.g08.bks.cpg/sg9_19_cif.got.tgz:36914.got - 2010.06.03 20:04:27.
