data_PCOD9134993
_publ_section_title
;
Structure prediction by ZEFSAII (Michael W. Deem and Ramdas Pophale) SiO2 
 PCOD9134993
Probable space group: C C
;
_chemical_formula_sum "Si O2"
_cell_formula_units_Z 28
_cell_length_a 8.928285
_cell_length_b 11.276500
_cell_length_c 16.226260
_cell_angle_alpha 90.000000
_cell_angle_beta 57.658007
_cell_angle_gamma 90.000000
_cell_volume 1380.227493
_symmetry_space_group_name_H-M "C C"
_symmetry_group_IT_number 9
_symmetry_cell_setting 'monoclinic'
loop_
_space_group_symop_operation_xyz
x,y,z
x,-y,1/2+z
1/2+x,1/2+y,z
1/2+x,1/2-y,1/2+z
loop_
_atom_site_type_symbol
_atom_site_label
_atom_site_fract_x
_atom_site_fract_y
_atom_site_fract_z
Si Si1 0.478540 0.271076 0.859000
Si Si2 0.825651 0.668473 0.342866
Si Si3 0.646589 0.886536 0.039465
Si Si4 0.000923 0.151038 0.166397
Si Si5 0.436805 0.242734 0.477948
Si Si6 0.716986 0.567890 0.962762
Si Si7 0.174177 0.615265 0.144937
O O1 0.672932 0.266173 0.838752
O O2 0.484653 0.336949 0.768952
O O3 0.392614 0.140526 0.886188
O O4 0.341814 0.342850 0.956916
O O5 0.920341 0.742706 0.385920
O O6 0.734946 0.560445 0.419303
O O7 0.978813 0.626677 0.237391
O O8 0.550440 0.785491 0.123036
O O9 0.667845 0.006639 0.082928
O O10 0.529668 0.873912 0.989753
O O11 0.817958 0.106731 0.177485
O O12 0.158681 0.074701 0.076309
O O13 0.561378 0.352916 0.467371
O O14 0.246954 0.270090 0.574206
#
# Coordination Sequence:
#
# PCOD9134993 Si02
#       7
#     4   4   4   4   4   4   4
#     4  10  20  36  58  86 116 147 189 235 279 333
#     4  12  23  36  60  88 113 148 190 232 284 338
#     4   9  19  38  62  81 112 155 189 229 282 335
#     4   9  19  38  58  82 116 151 188 233 279 333
#     4   9  22  40  57  83 117 148 188 236 276 332
#     4   9  21  41  59  78 115 153 186 232 280 332
#     4  10  20  37  60  84 113 150 190 231 284 337
#
# _framework density 20.286508999999999
#
# number of rings (size 3 to 8) (size 9 to 14) (size 15 to 20)
#    0.000    2.857    0.000    4.286    0.000    5.714 
#    0.000    8.571    0.000    0.000    0.000    0.000 
#    0.000    0.000    0.000    0.000    0.000    0.000 
#
# Total GULP energy -78017.132899 kJ/mol
# GULP energy per Si atom -5572.652350 kJ/mol
# Density = 2.024034 g / cm^3
# Si number density = 20.286509 Si / 1000 Ang^3
#
#
#
# Elastic Constant Matrix: (Units=GPa)
#
#
# Indices 1 2 3 4 5 6 
#
# 1 84.9218 11.2512 14.5633 0.0000 -8.1340 0.0000
# 2 11.2512 27.6510 -1.6278 0.0000 -7.7361 0.0000
# 3 14.5633 -1.6278 49.0352 0.0000 -12.1971 0.0000
# 4 0.0000 0.0000 0.0000 16.9375 0.0000 -2.3979
# 5 -8.1340 -7.7361 -12.1971 0.0000 21.1068 0.0000
# 6 0.0000 0.0000 0.0000 -2.3979 0.0000 16.1973
#
#
#
# Elastic Compliance Matrix: (Units=1/GPa)
#
#
# Indices 1 2 3 4 5 6 
#
# 1 0.013239 -0.005368 -0.003889 0.000000 0.000887 0.000000
# 2 -0.005368 0.043965 0.007647 0.000000 0.018465 0.000000
# 3 -0.003889 0.007647 0.025841 0.000000 0.016237 0.000000
# 4 0.000000 0.000000 0.000000 0.060305 0.000000 0.008928
# 5 0.000887 0.018465 0.016237 0.000000 0.063871 0.000000
# 6 0.000000 0.000000 0.000000 0.008928 0.000000 0.063061
#
#
# Mechanical properties :
#
#
# Convention : Reuss Voigt Hill
#
# Bulk Modulus (GPa) = 12.52752 23.33125 17.92939
# Shear Modulus (GPa) = 16.66056 20.00972 18.33514
#
# Velocity S-wave (km/s) = 2.86888 3.14404 3.00960
# Velocity P-wave (km/s) = 4.14278 4.97049 4.57539
#
# Compressibility (1/GPa) = 0.07982427
#
# Stress axis : x y z
#
# Youngs Moduli (GPa) = 75.53642 22.74520 38.69781
#
# Poissons Ratio (x) = 0.12209 0.15051
# Poissons Ratio (y) = 0.40545 -0.29591
# Poissons Ratio (z) = 0.29379 -0.17392
#
# Static dielectric constant tensor:
#      x y z
#    x 1.751260 0.000000 0.018760 
#    y 0.000000 1.721670 0.000000 
#    z 0.018760 0.000000 1.749650 
# 
# From -- ./inp_files/22587.got.cif
#   From: 2010.05.17/outbox.cif.g08.bks.cpg/sg9_12_cif.got.tgz:22587.got - 2010.06.03 20:04:27.
