data_PCOD9134387
_publ_section_title
;
Structure prediction by ZEFSAII (Michael W. Deem and Ramdas Pophale) SiO2 
 PCOD9134387
Probable space group: C C
;
_chemical_formula_sum "Si O2"
_cell_formula_units_Z 32
_cell_length_a 22.158433
_cell_length_b 13.709264
_cell_length_c 8.016808
_cell_angle_alpha 90.000000
_cell_angle_beta 32.434880
_cell_angle_gamma 90.000000
_cell_volume 1306.157113
_symmetry_space_group_name_H-M "C C"
_symmetry_group_IT_number 9
_symmetry_cell_setting 'monoclinic'
loop_
_space_group_symop_operation_xyz
x,y,z
x,-y,1/2+z
1/2+x,1/2+y,z
1/2+x,1/2-y,1/2+z
loop_
_atom_site_type_symbol
_atom_site_label
_atom_site_fract_x
_atom_site_fract_y
_atom_site_fract_z
Si Si1 0.564280 0.779713 0.021930
Si Si2 0.030547 0.822230 0.242432
Si Si3 0.580372 0.020342 0.305829
Si Si4 0.321804 0.446740 0.832510
Si Si5 0.229072 0.136883 0.799250
Si Si6 0.133592 0.985765 0.820939
Si Si7 0.982012 0.366530 0.725475
Si Si8 0.917375 0.113511 0.432440
O O1 0.457390 0.724518 0.357181
O O2 0.556329 0.732185 0.854685
O O3 0.571194 0.893961 0.968210
O O4 0.670545 0.735720 0.873298
O O5 0.908815 0.875034 0.535254
O O6 0.032504 0.740855 0.095058
O O7 0.120922 0.904329 0.993493
O O8 0.550855 0.075229 0.205301
O O9 0.491566 0.934516 0.544177
O O10 0.699602 0.965243 0.042890
O O11 0.379360 0.554424 0.683357
O O12 0.320313 0.402102 0.021280
O O13 0.353314 0.148335 0.579165
O O14 0.229826 0.062627 0.640272
O O15 0.153817 0.078234 0.109806
O O16 0.021007 0.052405 0.104621
#
# Coordination Sequence:
#
# PCOD9134387 Si02
#       8
#     4   4   4   4   4   4   4   4
#     4   9  20  39  60  86 120 152 198 254 303 358
#     4   9  21  40  61  87 117 151 202 258 301 350
#     4  11  24  42  59  86 126 163 198 247 301 360
#     4  10  19  35  61  84 113 154 195 240 297 351
#     4  11  21  38  62  89 118 159 199 243 300 361
#     4  10  19  35  62  89 116 150 199 252 298 347
#     4  11  25  41  57  85 125 162 200 246 297 360
#     4   9  17  34  58  88 113 143 193 250 293 343
#
# _framework density 24.499351999999998
#
# number of rings (size 3 to 8) (size 9 to 14) (size 15 to 20)
#    0.000    2.000    0.000    5.250    0.000    5.000 
#    0.000   11.250    0.000    0.000    0.000    0.000 
#    0.000    0.000    0.000    0.000    0.000    0.000 
#
# Total GULP energy -89347.121081 kJ/mol
# GULP energy per Si atom -5584.195068 kJ/mol
# Density = 2.444359 g / cm^3
# Si number density = 24.499352 Si / 1000 Ang^3
#
#
#
# Elastic Constant Matrix: (Units=GPa)
#
#
# Indices 1 2 3 4 5 6 
#
# 1 73.1906 10.5448 17.8111 0.0000 -19.0765 0.0000
# 2 10.5448 122.9039 7.7863 0.0000 3.5207 0.0000
# 3 17.8111 7.7863 47.6113 0.0000 -19.1054 0.0000
# 4 0.0000 0.0000 0.0000 14.3065 0.0000 4.3035
# 5 -19.0765 3.5207 -19.1054 0.0000 38.6553 0.0000
# 6 0.0000 0.0000 0.0000 4.3035 0.0000 30.8922
#
#
#
# Elastic Compliance Matrix: (Units=1/GPa)
#
#
# Indices 1 2 3 4 5 6 
#
# 1 0.016374 -0.001388 -0.003250 0.000000 0.006601 0.000000
# 2 -0.001388 0.008437 -0.001801 0.000000 -0.002344 0.000000
# 3 -0.003250 -0.001801 0.027363 0.000000 0.012084 0.000000
# 4 0.000000 0.000000 0.000000 0.072955 0.000000 -0.010163
# 5 0.006601 -0.002344 0.012084 0.000000 0.035313 0.000000
# 6 0.000000 0.000000 0.000000 -0.010163 0.000000 0.033786
#
#
# Mechanical properties :
#
#
# Convention : Reuss Voigt Hill
#
# Bulk Modulus (GPa) = 25.44749 35.11003 30.27876
# Shear Modulus (GPa) = 22.70608 30.60837 26.65722
#
# Velocity S-wave (km/s) = 3.04765 3.53846 3.30218
# Velocity P-wave (km/s) = 4.77428 5.57282 5.18893
#
# Compressibility (1/GPa) = 0.03929660
#
# Stress axis : x y z
#
# Youngs Moduli (GPa) = 61.07155 118.52895 36.54586
#
# Poissons Ratio (x) = 0.16453 0.11876
# Poissons Ratio (y) = 0.08477 0.06581
# Poissons Ratio (z) = 0.19846 0.21346
#
# Static dielectric constant tensor:
#      x y z
#    x 2.068430 0.000000 0.033140 
#    y 0.000000 1.917250 0.000000 
#    z 0.033140 0.000000 1.992720 
# 
# From -- ./inp_files/12247.got.cif
#   From: 2010.05.17/outbox.cif.g08.bks.cpg/sg9_7_cif.got.tgz:12247.got - 2010.06.03 20:04:27.
