data_PCOD9134289
_publ_section_title
;
Structure prediction by ZEFSAII (Michael W. Deem and Ramdas Pophale) SiO2 
 PCOD9134289
Probable space group: C C
;
_chemical_formula_sum "Si O2"
_cell_formula_units_Z 24
_cell_length_a 7.850165
_cell_length_b 12.661038
_cell_length_c 8.934618
_cell_angle_alpha 90.000000
_cell_angle_beta 103.039812
_cell_angle_gamma 90.000000
_cell_volume 865.123760
_symmetry_space_group_name_H-M "C C"
_symmetry_group_IT_number 9
_symmetry_cell_setting 'monoclinic'
loop_
_space_group_symop_operation_xyz
x,y,z
x,-y,1/2+z
1/2+x,1/2+y,z
1/2+x,1/2-y,1/2+z
loop_
_atom_site_type_symbol
_atom_site_label
_atom_site_fract_x
_atom_site_fract_y
_atom_site_fract_z
Si Si1 0.632620 0.212865 0.579000
Si Si2 0.929637 0.377091 0.518739
Si Si3 0.185990 0.303979 0.787164
Si Si4 0.395944 0.342897 0.370091
Si Si5 0.028541 0.078051 0.382585
Si Si6 0.265755 0.960934 0.195052
O O1 0.783419 0.296032 0.553917
O O2 0.632729 0.134253 0.434464
O O3 0.448606 0.272980 0.524834
O O4 0.713509 0.174896 0.749878
O O5 0.876270 0.397452 0.338542
O O6 0.895150 0.481765 0.607594
O O7 0.117153 0.344062 0.614198
O O8 0.392126 0.328917 0.829412
O O9 0.053400 0.203825 0.793260
O O10 0.430366 0.466438 0.394625
O O11 0.141919 0.098110 0.552444
O O12 0.153281 0.047176 0.267824
#
# Coordination Sequence:
#
# PCOD9134289 Si02
#       6
#     4   4   4   4   4   4
#     4   9  17  35  56  80 112 165 199 246 307 369
#     4  10  20  35  56  86 120 160 201 257 317 368
#     4   9  20  33  56  84 115 154 207 250 302 374
#     4   9  18  33  57  83 114 154 207 243 306 366
#     4  11  20  35  60  90 116 160 210 256 306 381
#     4  10  19  33  55  83 123 155 202 254 304 372
#
# _framework density 27.741696999999998
#
# number of rings (size 3 to 8) (size 9 to 14) (size 15 to 20)
#    1.000    1.333    3.333    1.000    0.000    2.667 
#    0.000    0.000    0.000   44.000    0.000    0.000 
#    0.000    0.000    0.000    0.000    0.000    0.000 
#
# Total GULP energy -66929.253193 kJ/mol
# GULP energy per Si atom -5577.437766 kJ/mol
# Density = 2.767856 g / cm^3
# Si number density = 27.741697 Si / 1000 Ang^3
#
#
#
# Elastic Constant Matrix: (Units=GPa)
#
#
# Indices 1 2 3 4 5 6 
#
# 1 121.5190 49.9453 72.0089 0.0000 6.5874 0.0000
# 2 49.9453 107.8080 54.8570 0.0000 10.9941 0.0000
# 3 72.0089 54.8570 230.8077 0.0000 44.7064 0.0000
# 4 0.0000 0.0000 0.0000 37.1810 0.0000 -1.0664
# 5 6.5874 10.9941 44.7064 0.0000 38.2295 0.0000
# 6 0.0000 0.0000 0.0000 -1.0664 0.0000 36.9472
#
#
#
# Elastic Compliance Matrix: (Units=1/GPa)
#
#
# Indices 1 2 3 4 5 6 
#
# 1 0.011657 -0.004050 -0.003246 0.000000 0.002952 0.000000
# 2 -0.004050 0.011959 -0.001355 0.000000 -0.001157 0.000000
# 3 -0.003246 -0.001355 0.007089 0.000000 -0.007342 0.000000
# 4 0.000000 0.000000 0.000000 0.026918 0.000000 0.000777
# 5 0.002952 -0.001157 -0.007342 0.000000 0.034567 0.000000
# 6 0.000000 0.000000 0.000000 0.000777 0.000000 0.027088
#
#
# Mechanical properties :
#
#
# Convention : Reuss Voigt Hill
#
# Bulk Modulus (GPa) = 74.60265 90.41746 82.51005
# Shear Modulus (GPa) = 35.44874 41.35977 38.40426
#
# Velocity S-wave (km/s) = 3.57853 3.86539 3.72472
# Velocity P-wave (km/s) = 6.63512 7.25155 6.95017
#
# Compressibility (1/GPa) = 0.01340435
#
# Stress axis : x y z
#
# Youngs Moduli (GPa) = 85.78353 83.61671 141.05582
#
# Poissons Ratio (x) = 0.33863 0.45789
# Poissons Ratio (y) = 0.34741 0.19110
# Poissons Ratio (z) = 0.27847 0.11328
#
# Static dielectric constant tensor:
#      x y z
#    x 2.155980 0.000000 -0.007390 
#    y 0.000000 2.314360 0.000000 
#    z -0.007390 0.000000 2.229290 
# 
# From -- ./inp_files/7806.got.cif
#   From: 2010.05.17/outbox.cif.g08.bks.cpg/sg9_4_cif.got.tgz:7806.got - 2010.06.03 20:04:27.
