data_PCOD9134735
_publ_section_title
;
Structure prediction by ZEFSAII (Michael W. Deem and Ramdas Pophale) SiO2 
 PCOD9134735
Probable space group: C C
;
_chemical_formula_sum "Si O2"
_cell_formula_units_Z 28
_cell_length_a 5.319048
_cell_length_b 12.606222
_cell_length_c 18.010331
_cell_angle_alpha 90.000000
_cell_angle_beta 95.361048
_cell_angle_gamma 90.000000
_cell_volume 1202.365923
_symmetry_space_group_name_H-M "C C"
_symmetry_group_IT_number 9
_symmetry_cell_setting 'monoclinic'
loop_
_space_group_symop_operation_xyz
x,y,z
x,-y,1/2+z
1/2+x,1/2+y,z
1/2+x,1/2-y,1/2+z
loop_
_atom_site_type_symbol
_atom_site_label
_atom_site_fract_x
_atom_site_fract_y
_atom_site_fract_z
Si Si1 0.164580 0.319670 0.644460
Si Si2 0.031874 0.802068 0.848629
Si Si3 0.528952 0.952062 0.507132
Si Si4 0.994575 0.213789 0.781793
Si Si5 0.047261 0.980770 0.726810
Si Si6 0.829642 0.591538 0.617755
Si Si7 0.518927 0.461964 0.974279
O O1 0.038485 0.352806 0.563111
O O2 0.351055 0.414545 0.671853
O O3 0.331808 0.213177 0.639434
O O4 0.979353 0.288145 0.707182
O O5 0.283564 0.737483 0.837115
O O6 0.776891 0.739765 0.819390
O O7 0.007382 0.853475 0.928543
O O8 0.071794 0.905461 0.797893
O O9 0.532664 0.052858 0.564301
O O10 0.768770 0.968179 0.462504
O O11 0.263506 0.967621 0.458789
O O12 0.954285 0.095180 0.751642
O O13 0.296085 0.014317 0.686899
O O14 0.580931 0.568390 0.561090
#
# Coordination Sequence:
#
# PCOD9134735 Si02
#       7
#     4   4   4   4   4   4   4
#     4  10  19  40  66  93 122 161 205 261 320 357
#     4  11  23  44  62  90 129 171 202 258 312 369
#     4  10  20  40  59  91 125 159 203 261 303 365
#     4  10  24  39  65  90 122 162 211 255 313 369
#     4  10  21  42  65  96 122 162 211 262 308 370
#     4   9  21  39  62  94 123 160 207 263 301 370
#     4  10  22  42  61  88 133 161 211 254 303 376
#
# _framework density 23.287420000000001
#
# number of rings (size 3 to 8) (size 9 to 14) (size 15 to 20)
#    0.857    1.143    1.429    1.714    0.000    5.714 
#   10.286    0.000    0.000    0.000    0.000    0.000 
#    0.000    0.000    0.000    0.000    0.000    0.000 
#
# Total GULP energy -78121.445887 kJ/mol
# GULP energy per Si atom -5580.103278 kJ/mol
# Density = 2.323442 g / cm^3
# Si number density = 23.287420 Si / 1000 Ang^3
#
#
#
# Elastic Constant Matrix: (Units=GPa)
#
#
# Indices 1 2 3 4 5 6 
#
# 1 139.4475 30.1894 8.6394 0.0000 -11.8188 0.0000
# 2 30.1894 122.7973 20.5433 0.0000 2.8523 0.0000
# 3 8.6394 20.5433 39.5140 0.0000 -6.3662 0.0000
# 4 0.0000 0.0000 0.0000 23.5547 0.0000 -11.8238
# 5 -11.8188 2.8523 -6.3662 0.0000 16.1751 0.0000
# 6 0.0000 0.0000 0.0000 -11.8238 0.0000 4.0242
#
#
#
# Elastic Compliance Matrix: (Units=1/GPa)
#
#
# Indices 1 2 3 4 5 6 
#
# 1 0.008183 -0.002235 0.000427 0.000000 0.006541 0.000000
# 2 -0.002235 0.009734 -0.005458 0.000000 -0.005498 0.000000
# 3 0.000427 -0.005458 0.030170 0.000000 0.013149 0.000000
# 4 0.000000 0.000000 0.000000 -0.089400 0.000000 -0.262673
# 5 0.006541 -0.005498 0.013149 0.000000 0.072748 0.000000
# 6 0.000000 0.000000 0.000000 -0.262673 0.000000 -0.523284
#
#
# Mechanical properties :
#
#
# Convention : Reuss Voigt Hill
#
# Bulk Modulus (GPa) = 29.80195 46.72255 38.26225
# Shear Modulus (GPa) = -10.72656 24.90990 7.09167
#
# Velocity S-wave (km/s) = -2.14853 3.27413 1.74697
# Velocity P-wave (km/s) = 2.58270 5.86517 4.53159
#
# Compressibility (1/GPa) = 0.03355485
#
# Stress axis : x y z
#
# Youngs Moduli (GPa) = 122.20456 102.73564 33.14548
#
# Poissons Ratio (x) = 0.22962 -0.01415
# Poissons Ratio (y) = 0.27314 0.18090
# Poissons Ratio (z) = -0.05215 0.56069
#
# Static dielectric constant tensor:
#      x y z
#    x 1.903800 0.000000 0.002800 
#    y 0.000000 1.868160 0.000000 
#    z 0.002800 0.000000 1.900700 
# 
# From -- ./inp_files/31945.got.cif
#   From: 2010.05.17/outbox.cif.g08.bks.cpg/sg9_16_cif.got.tgz:31945.got - 2010.06.03 20:04:27.
