data_PCOD9134311
_publ_section_title
;
Structure prediction by ZEFSAII (Michael W. Deem and Ramdas Pophale) SiO2 
 PCOD9134311
Probable space group: C C
;
_chemical_formula_sum "Si O2"
_cell_formula_units_Z 32
_cell_length_a 19.726922
_cell_length_b 14.999919
_cell_length_c 13.127910
_cell_angle_alpha 90.000000
_cell_angle_beta 25.152135
_cell_angle_gamma 90.000000
_cell_volume 1651.035908
_symmetry_space_group_name_H-M "C C"
_symmetry_group_IT_number 9
_symmetry_cell_setting 'monoclinic'
loop_
_space_group_symop_operation_xyz
x,y,z
x,-y,1/2+z
1/2+x,1/2+y,z
1/2+x,1/2-y,1/2+z
loop_
_atom_site_type_symbol
_atom_site_label
_atom_site_fract_x
_atom_site_fract_y
_atom_site_fract_z
Si Si1 0.380030 0.593120 0.332580
Si Si2 0.349426 0.102358 0.213508
Si Si3 0.795406 0.872600 0.730056
Si Si4 0.958143 0.566669 0.663673
Si Si5 0.181328 0.808483 0.460937
Si Si6 0.059165 0.045397 0.736313
Si Si7 0.255921 0.083587 0.122050
Si Si8 0.116151 0.728277 0.766739
O O1 0.309504 0.572019 0.317251
O O2 0.457355 0.515187 0.295467
O O3 0.248605 0.650059 0.574074
O O4 0.532258 0.656232 0.100924
O O5 0.295312 0.054483 0.182149
O O6 0.189629 0.104822 0.499112
O O7 0.457618 0.035656 0.132309
O O8 0.456869 0.186636 0.032931
O O9 0.782547 0.769685 0.775333
O O10 0.938995 0.894855 0.462295
O O11 0.627277 0.894136 0.906842
O O12 0.806104 0.614275 0.818595
O O13 0.919683 0.585059 0.834628
O O14 0.101753 0.767459 0.671676
O O15 0.144587 0.980158 0.703951
O O16 0.182595 0.183093 0.231735
#
# Coordination Sequence:
#
# PCOD9134311 Si02
#       8
#     4   4   4   4   4   4   4   4
#     4  11  19  37  61  87 112 149 198 248 283 329
#     4  11  21  38  59  84 124 155 185 240 299 345
#     4  11  22  34  60  89 117 152 193 242 291 342
#     4  10  21  39  59  92 113 148 204 243 282 344
#     4  10  19  39  62  87 114 148 200 249 283 333
#     4  11  23  37  55  87 124 152 191 234 296 357
#     4  10  20  37  61  85 113 154 194 246 290 335
#     4  10  19  33  63  89 113 144 203 244 286 335
#
# _framework density 19.381771000000001
#
# number of rings (size 3 to 8) (size 9 to 14) (size 15 to 20)
#    0.000    1.500    3.750    6.000    0.000    0.000 
#    0.000    2.500    0.000    0.000    0.000    0.000 
#    0.000    0.000    0.000    0.000    0.000    0.000 
#
# Total GULP energy -89192.971375 kJ/mol
# GULP energy per Si atom -5574.560711 kJ/mol
# Density = 1.933766 g / cm^3
# Si number density = 19.381771 Si / 1000 Ang^3
#
#
#
# Elastic Constant Matrix: (Units=GPa)
#
#
# Indices 1 2 3 4 5 6 
#
# 1 45.0733 6.3641 22.0573 -0.0001 -3.8283 0.0000
# 2 6.3641 56.1577 41.0623 -0.0001 10.3756 0.0000
# 3 22.0573 41.0623 136.0776 -0.0001 3.6487 0.0000
# 4 -0.0001 -0.0001 -0.0001 32.3057 0.0000 -0.0031
# 5 -3.8283 10.3756 3.6487 0.0000 22.7771 0.0000
# 6 0.0000 0.0000 0.0000 -0.0031 0.0000 9.5590
#
#
#
# Elastic Compliance Matrix: (Units=1/GPa)
#
#
# Indices 1 2 3 4 5 6 
#
# 1 0.024643 -0.000934 -0.003852 0.000000 0.005184 0.000000
# 2 -0.000934 0.025052 -0.007128 0.000000 -0.010427 0.000000
# 3 -0.003852 -0.007128 0.010098 0.000000 0.000982 0.000000
# 4 0.000000 0.000000 0.000000 0.030954 0.000000 0.000010
# 5 0.005184 -0.010427 0.000982 0.000000 0.049367 0.000000
# 6 0.000000 0.000000 0.000000 0.000010 0.000000 0.104613
#
#
# Mechanical properties :
#
#
# Convention : Reuss Voigt Hill
#
# Bulk Modulus (GPa) = 27.80571 41.80846 34.80709
# Shear Modulus (GPa) = 17.82250 24.11670 20.96960
#
# Velocity S-wave (km/s) = 3.03570 3.53129 3.29283
# Velocity P-wave (km/s) = 5.16379 6.18421 5.69690
#
# Compressibility (1/GPa) = 0.03596383
#
# Stress axis : x y z
#
# Youngs Moduli (GPa) = 40.57923 39.91757 99.03161
#
# Poissons Ratio (x) = 0.03730 0.38143
# Poissons Ratio (y) = 0.03791 0.70594
# Poissons Ratio (z) = 0.15629 0.28455
#
# Static dielectric constant tensor:
#      x y z
#    x 1.699050 0.000000 -0.015560 
#    y 0.000000 1.681610 0.000000 
#    z -0.015560 0.000000 1.673120 
# 
# From -- ./inp_files/27815.got.cif
#   From: 2010.05.17/outbox.cif.g08.bks.cpg/sg9_14_cif.got.tgz:27815.got - 2010.06.03 20:04:27.
