data_PCOD9134656
_publ_section_title
;
Structure prediction by ZEFSAII (Michael W. Deem and Ramdas Pophale) SiO2 
 PCOD9134656
Probable space group: C C
;
_chemical_formula_sum "Si O2"
_cell_formula_units_Z 32
_cell_length_a 10.976494
_cell_length_b 8.819996
_cell_length_c 14.144656
_cell_angle_alpha 90.000000
_cell_angle_beta 64.951464
_cell_angle_gamma 90.000000
_cell_volume 1240.590328
_symmetry_space_group_name_H-M "C C"
_symmetry_group_IT_number 9
_symmetry_cell_setting 'monoclinic'
loop_
_space_group_symop_operation_xyz
x,y,z
x,-y,1/2+z
1/2+x,1/2+y,z
1/2+x,1/2-y,1/2+z
loop_
_atom_site_type_symbol
_atom_site_label
_atom_site_fract_x
_atom_site_fract_y
_atom_site_fract_z
Si Si1 0.236990 0.433335 0.362450
Si Si2 0.966287 0.794722 0.349672
Si Si3 0.020187 0.526896 0.631473
Si Si4 0.225686 0.726334 0.489768
Si Si5 0.958024 0.529702 0.928444
Si Si6 0.116725 0.219399 0.566843
Si Si7 0.464788 0.437188 0.547125
Si Si8 0.769343 0.702878 0.695179
O O1 0.384096 0.371513 0.291117
O O2 0.250354 0.604347 0.398240
O O3 0.106327 0.427316 0.339120
O O4 0.189998 0.311094 0.458921
O O5 0.921311 0.623656 0.386602
O O6 0.930743 0.906817 0.449396
O O7 0.127316 0.797765 0.292940
O O8 0.988295 0.517776 0.527832
O O9 0.047720 0.355191 0.649459
O O10 0.883010 0.603684 0.710990
O O11 0.159150 0.620651 0.593935
O O12 0.354081 0.832726 0.461503
O O13 0.099544 0.837477 0.516317
O O14 0.220388 0.144054 0.606708
O O15 0.011247 0.104744 0.556557
O O16 0.346435 0.360282 0.647472
#
# Coordination Sequence:
#
# PCOD9134656 Si02
#       8
#     4   4   4   4   4   4   4   4
#     4  10  21  37  61  92 122 157 216 252 310 386
#     4  12  23  40  64  94 129 172 211 260 319 381
#     4   9  20  39  60  92 120 160 213 259 313 381
#     4   9  18  35  66  88 119 163 204 254 311 370
#     4  10  19  39  60  90 124 161 203 259 310 373
#     4  10  21  39  66  89 120 170 209 263 320 376
#     4  11  21  42  67  91 124 171 207 259 328 375
#     4  11  23  43  60  90 136 160 209 272 311 374
#
# _framework density 25.794172
#
# number of rings (size 3 to 8) (size 9 to 14) (size 15 to 20)
#    0.000    2.000    5.000    1.500    3.500    1.000 
#    4.500    1.250    0.000    0.000    0.000    0.000 
#    0.000    0.000    0.000    0.000    0.000    0.000 
#
# Total GULP energy -89361.799949 kJ/mol
# GULP energy per Si atom -5585.112497 kJ/mol
# Density = 2.573546 g / cm^3
# Si number density = 25.794172 Si / 1000 Ang^3
#
#
#
# Elastic Constant Matrix: (Units=GPa)
#
#
# Indices 1 2 3 4 5 6 
#
# 1 116.9158 83.6584 25.9742 0.0000 -53.8775 0.0000
# 2 83.6584 142.6737 48.2299 0.0000 -43.8192 0.0000
# 3 25.9742 48.2299 88.5902 0.0000 -23.2001 0.0000
# 4 0.0000 0.0000 0.0000 24.5541 0.0000 -18.4185
# 5 -53.8775 -43.8192 -23.2001 0.0000 55.8848 0.0000
# 6 0.0000 0.0000 0.0000 -18.4185 0.0000 73.1317
#
#
#
# Elastic Compliance Matrix: (Units=1/GPa)
#
#
# Indices 1 2 3 4 5 6 
#
# 1 0.020721 -0.008563 0.002311 0.000000 0.014221 0.000000
# 2 -0.008563 0.013860 -0.004882 0.000000 0.000586 0.000000
# 3 0.002311 -0.004882 0.014416 0.000000 0.004385 0.000000
# 4 0.000000 0.000000 0.000000 0.050213 0.000000 0.012646
# 5 0.014221 0.000586 0.004385 0.000000 0.033884 0.000000
# 6 0.000000 0.000000 0.000000 0.012646 0.000000 0.016859
#
#
# Mechanical properties :
#
#
# Convention : Reuss Voigt Hill
#
# Bulk Modulus (GPa) = 37.41173 73.76719 55.58946
# Shear Modulus (GPa) = 27.60442 43.40194 35.50318
#
# Velocity S-wave (km/s) = 3.27491 4.10643 3.71402
# Velocity P-wave (km/s) = 5.36987 7.15152 6.32375
#
# Compressibility (1/GPa) = 0.02672958
#
# Stress axis : x y z
#
# Youngs Moduli (GPa) = 48.26113 72.14900 69.36546
#
# Poissons Ratio (x) = 0.61783 -0.16031
# Poissons Ratio (y) = 0.41327 0.33862
# Poissons Ratio (z) = -0.11154 0.35221
#
# Static dielectric constant tensor:
#      x y z
#    x 2.072680 0.000000 -0.016300 
#    y 0.000000 2.050120 0.000000 
#    z -0.016300 0.000000 2.236500 
# 
# From -- ./inp_files/33204.got.cif
#   From: 2010.05.17/outbox.cif.g08.bks.cpg/sg9_17_cif.got.tgz:33204.got - 2010.06.03 20:04:27.
