data_PCOD9134245
_publ_section_title
;
Structure prediction by ZEFSAII (Michael W. Deem and Ramdas Pophale) SiO2 
 PCOD9134245
Probable space group: C C
;
_chemical_formula_sum "Si O2"
_cell_formula_units_Z 28
_cell_length_a 12.652352
_cell_length_b 22.029753
_cell_length_c 5.282368
_cell_angle_alpha 90.000000
_cell_angle_beta 93.184416
_cell_angle_gamma 90.000000
_cell_volume 1470.071436
_symmetry_space_group_name_H-M "C C"
_symmetry_group_IT_number 9
_symmetry_cell_setting 'monoclinic'
loop_
_space_group_symop_operation_xyz
x,y,z
x,-y,1/2+z
1/2+x,1/2+y,z
1/2+x,1/2-y,1/2+z
loop_
_atom_site_type_symbol
_atom_site_label
_atom_site_fract_x
_atom_site_fract_y
_atom_site_fract_z
Si Si1 0.029770 0.830439 0.678900
Si Si2 0.636989 0.770531 0.487251
Si Si3 0.303746 0.833912 0.161780
Si Si4 0.832567 0.166026 0.838751
Si Si5 0.606250 0.399109 0.188054
Si Si6 0.918552 0.293932 0.679885
Si Si7 0.405423 0.464845 0.176604
O O1 0.076719 0.764914 0.752452
O O2 0.056692 0.869535 0.928382
O O3 0.906070 0.830516 0.599606
O O4 0.874503 0.775355 0.189726
O O5 0.717962 0.721058 0.616875
O O6 0.711299 0.823220 0.391655
O O7 0.544489 0.790469 0.662886
O O8 0.231627 0.894472 0.163622
O O9 0.377352 0.827299 0.925771
O O10 0.367913 0.824305 0.426062
O O11 0.858116 0.102116 0.714272
O O12 0.082743 0.140790 0.936562
O O13 0.533869 0.458058 0.211844
O O14 0.373844 0.507268 0.405710
#
# Coordination Sequence:
#
# PCOD9134245 Si02
#       7
#     4   4   4   4   4   4   4
#     4  10  19  32  52  77 104 139 178 205 253 328
#     4  10  19  32  51  77 109 144 173 202 262 329
#     4  10  21  34  51  77 109 142 171 210 260 320
#     4  10  21  36  54  76 113 147 170 220 268 304
#     4  10  19  36  55  73 103 139 169 219 270 302
#     4  11  22  33  51  82 111 137 176 208 253 334
#     4  11  23  37  54  80 105 136 185 226 258 307
#
# _framework density 19.046693000000001
#
# number of rings (size 3 to 8) (size 9 to 14) (size 15 to 20)
#    0.000    1.714    0.000    9.429    0.000    4.571 
#    0.000    0.000    0.000    0.000    0.000    6.000 
#    0.000    0.000    0.000    0.000    0.000    0.000 
#
# Total GULP energy -78160.736028 kJ/mol
# GULP energy per Si atom -5582.909716 kJ/mol
# Density = 1.900334 g / cm^3
# Si number density = 19.046693 Si / 1000 Ang^3
#
#
#
# Elastic Constant Matrix: (Units=GPa)
#
#
# Indices 1 2 3 4 5 6 
#
# 1 84.1941 11.3915 42.9567 0.0000 -24.8924 0.0000
# 2 11.3915 35.0351 20.8114 0.0000 -7.4477 0.0000
# 3 42.9567 20.8114 141.5108 0.0000 -2.0704 0.0000
# 4 0.0000 0.0000 0.0000 22.8401 0.0000 -5.5769
# 5 -24.8924 -7.4477 -2.0704 0.0000 40.8596 0.0000
# 6 0.0000 0.0000 0.0000 -5.5769 0.0000 29.5550
#
#
#
# Elastic Compliance Matrix: (Units=1/GPa)
#
#
# Indices 1 2 3 4 5 6 
#
# 1 0.017633 -0.000476 -0.005131 0.000000 0.010396 0.000000
# 2 -0.000476 0.032560 -0.004565 0.000000 0.005414 0.000000
# 3 -0.005131 -0.004565 0.009244 0.000000 -0.003489 0.000000
# 4 0.000000 0.000000 0.000000 0.045897 0.000000 0.008661
# 5 0.010396 0.005414 -0.003489 0.000000 0.031617 0.000000
# 6 0.000000 0.000000 0.000000 0.008661 0.000000 0.035469
#
#
# Mechanical properties :
#
#
# Convention : Reuss Voigt Hill
#
# Bulk Modulus (GPa) = 25.57883 45.67325 35.62604
# Shear Modulus (GPa) = 24.29605 31.02296 27.65951
#
# Velocity S-wave (km/s) = 3.57544 4.04020 3.81490
# Velocity P-wave (km/s) = 5.52301 6.76727 6.17655
#
# Compressibility (1/GPa) = 0.03909484
#
# Stress axis : x y z
#
# Youngs Moduli (GPa) = 56.71240 30.71258 108.17499
#
# Poissons Ratio (x) = 0.01461 0.55499
# Poissons Ratio (y) = 0.02698 0.49380
# Poissons Ratio (z) = 0.29096 0.14020
#
# Static dielectric constant tensor:
#      x y z
#    x 1.695110 0.000000 -0.022420 
#    y 0.000000 1.682280 0.000000 
#    z -0.022420 0.000000 1.694670 
# 
# From -- ./inp_files/1937.got.cif
#   From: 2010.05.17/outbox.cif.g08.bks.cpg/sg9_1_cif.got.tgz:1937.got - 2010.06.03 20:04:27.
