data_PCOD9134672
_publ_section_title
;
Structure prediction by ZEFSAII (Michael W. Deem and Ramdas Pophale) SiO2 
 PCOD9134672
Probable space group: C C
;
_chemical_formula_sum "Si O2"
_cell_formula_units_Z 32
_cell_length_a 34.558948
_cell_length_b 7.240899
_cell_length_c 18.849930
_cell_angle_alpha 90.000000
_cell_angle_beta 19.466599
_cell_angle_gamma 90.000000
_cell_volume 1571.963270
_symmetry_space_group_name_H-M "C C"
_symmetry_group_IT_number 9
_symmetry_cell_setting 'monoclinic'
loop_
_space_group_symop_operation_xyz
x,y,z
x,-y,1/2+z
1/2+x,1/2+y,z
1/2+x,1/2-y,1/2+z
loop_
_atom_site_type_symbol
_atom_site_label
_atom_site_fract_x
_atom_site_fract_y
_atom_site_fract_z
Si Si1 0.002940 0.376826 0.494100
Si Si2 0.855512 0.576059 0.865536
Si Si3 0.652254 0.380892 0.937833
Si Si4 0.409570 0.779001 0.895969
Si Si5 0.174038 0.616983 0.279685
Si Si6 0.032950 0.267540 0.147646
Si Si7 0.910348 0.415642 0.500392
Si Si8 0.620590 0.459164 0.830574
O O1 0.122538 0.466740 0.315957
O O2 0.907863 0.491347 0.703771
O O3 0.982420 0.408042 0.447255
O O4 0.007220 0.157872 0.505008
O O5 0.881902 0.425133 0.881539
O O6 0.925534 0.750704 0.776815
O O7 0.718040 0.591990 0.104177
O O8 0.782065 0.334264 0.736991
O O9 0.654881 0.375208 0.847779
O O10 0.543304 0.272528 0.157685
O O11 0.612657 0.590616 0.021304
O O12 0.388010 0.878997 0.007959
O O13 0.312091 0.624153 0.051553
O O14 0.129085 0.819422 0.328222
O O15 0.114980 0.595582 0.459407
O O16 0.978978 0.323510 0.316092
#
# Coordination Sequence:
#
# PCOD9134672 Si02
#       8
#     4   4   4   4   4   4   4   4
#     4  11  23  38  64  90 131 166 198 266 337 351
#     4   9  18  36  62  86 118 154 206 256 297 369
#     4  11  20  37  68  87 118 167 209 256 309 369
#     4  10  19  39  64  86 121 160 213 259 295 383
#     4   9  20  40  67  92 117 167 223 251 305 386
#     4   9  18  37  63  86 115 159 210 252 296 371
#     4  11  23  42  56  95 130 160 203 266 322 371
#     4  10  19  39  64  92 118 159 216 260 297 380
#
# _framework density 20.356708999999999
#
# number of rings (size 3 to 8) (size 9 to 14) (size 15 to 20)
#    0.000    2.000    6.250    0.000    1.750    1.000 
#    6.750    0.000    0.000    0.000    0.000    0.000 
#    0.000    0.000    0.000    0.000    0.000    0.000 
#
# Total GULP energy -89096.395125 kJ/mol
# GULP energy per Si atom -5568.524695 kJ/mol
# Density = 2.031038 g / cm^3
# Si number density = 20.356709 Si / 1000 Ang^3
#
#
#
# Elastic Constant Matrix: (Units=GPa)
#
#
# Indices 1 2 3 4 5 6 
#
# 1 96.8013 28.2552 32.0555 0.0000 6.3483 0.0000
# 2 28.2552 50.7054 33.9991 0.0002 1.0239 0.0001
# 3 32.0555 33.9991 118.6171 0.0001 9.9033 0.0000
# 4 0.0000 0.0002 0.0001 32.7321 0.0000 4.5171
# 5 6.3483 1.0239 9.9033 0.0000 18.9130 0.0000
# 6 0.0000 0.0001 0.0000 4.5171 0.0000 16.5209
#
#
#
# Elastic Compliance Matrix: (Units=1/GPa)
#
#
# Indices 1 2 3 4 5 6 
#
# 1 0.012799 -0.006100 -0.001442 0.000000 -0.003211 0.000000
# 2 -0.006100 0.027430 -0.006547 0.000000 0.003991 0.000000
# 3 -0.001442 -0.006547 0.011113 0.000000 -0.004980 0.000000
# 4 0.000000 0.000000 0.000000 0.031749 0.000000 -0.008681
# 5 -0.003211 0.003991 -0.004980 0.000000 0.056343 0.000000
# 6 0.000000 0.000000 0.000000 -0.008681 0.000000 0.062903
#
#
# Mechanical properties :
#
#
# Convention : Reuss Voigt Hill
#
# Bulk Modulus (GPa) = 43.17224 50.52705 46.84964
# Shear Modulus (GPa) = 20.98746 25.08746 23.03746
#
# Velocity S-wave (km/s) = 3.21438 3.51435 3.36771
# Velocity P-wave (km/s) = 5.91863 6.42980 6.17950
#
# Compressibility (1/GPa) = 0.02316303
#
# Stress axis : x y z
#
# Youngs Moduli (GPa) = 78.12957 36.45589 89.98792
#
# Poissons Ratio (x) = 0.22239 0.12979
# Poissons Ratio (y) = 0.47662 0.58915
# Poissons Ratio (z) = 0.11269 0.23867
#
# Static dielectric constant tensor:
#      x y z
#    x 1.663680 0.000000 -0.001270 
#    y 0.000000 1.845440 0.000000 
#    z -0.001270 0.000000 1.808230 
# 
# From -- ./inp_files/29856.got.cif
#   From: 2010.05.17/outbox.cif.g08.bks.cpg/sg9_15_cif.got.tgz:29856.got - 2010.06.03 20:04:27.
