data_PCOD9134370
_publ_section_title
;
Structure prediction by ZEFSAII (Michael W. Deem and Ramdas Pophale) SiO2 
 PCOD9134370
Probable space group: C C
;
_chemical_formula_sum "Si O2"
_cell_formula_units_Z 28
_cell_length_a 13.664867
_cell_length_b 7.916191
_cell_length_c 22.970660
_cell_angle_alpha 90.000000
_cell_angle_beta 28.996417
_cell_angle_gamma 90.000000
_cell_volume 1204.529323
_symmetry_space_group_name_H-M "C C"
_symmetry_group_IT_number 9
_symmetry_cell_setting 'monoclinic'
loop_
_space_group_symop_operation_xyz
x,y,z
x,-y,1/2+z
1/2+x,1/2+y,z
1/2+x,1/2-y,1/2+z
loop_
_atom_site_type_symbol
_atom_site_label
_atom_site_fract_x
_atom_site_fract_y
_atom_site_fract_z
Si Si1 0.346390 0.444233 0.882580
Si Si2 0.569709 0.921072 0.816454
Si Si3 0.061426 0.521128 0.640631
Si Si4 0.865939 0.053859 0.572768
Si Si5 0.033498 0.678219 0.466560
Si Si6 0.241579 0.054483 0.712157
Si Si7 0.308459 0.811225 0.857937
O O1 0.239712 0.305504 0.897330
O O2 0.570957 0.414504 0.790384
O O3 0.337953 0.611960 0.848234
O O4 0.214350 0.496530 0.007417
O O5 0.552904 0.911865 0.894305
O O6 0.628768 0.731155 0.768232
O O7 0.362984 0.927772 0.886659
O O8 0.748769 0.032118 0.695216
O O9 0.197376 0.624134 0.615822
O O10 0.858668 0.571701 0.712025
O O11 0.972860 0.369125 0.724807
O O12 0.930412 0.863699 0.517076
O O13 0.074807 0.152900 0.465803
O O14 0.897893 0.558930 0.578247
#
# Coordination Sequence:
#
# PCOD9134370 Si02
#       7
#     4   4   4   4   4   4   4
#     4  10  21  35  55  80 107 140 177 219 266 313
#     4   9  19  34  55  78 109 141 173 218 269 309
#     4  10  19  35  58  77 104 144 182 214 257 321
#     4  10  20  35  57  81 106 139 179 219 263 313
#     4  10  20  36  54  78 108 142 175 215 268 317
#     4   9  19  36  56  78 104 144 183 213 258 320
#     4  10  20  35  55  80 106 140 177 218 263 313
#
# _framework density 23.245595000000002
#
# number of rings (size 3 to 8) (size 9 to 14) (size 15 to 20)
#    0.000    2.286    0.000    4.286    0.000    2.286 
#    0.000   14.286    0.000    0.000    0.000    0.000 
#    0.000    0.000    0.000    0.000    0.000    0.000 
#
# Total GULP energy -78013.038100 kJ/mol
# GULP energy per Si atom -5572.359864 kJ/mol
# Density = 2.319269 g / cm^3
# Si number density = 23.245595 Si / 1000 Ang^3
#
#
#
# Elastic Constant Matrix: (Units=GPa)
#
#
# Indices 1 2 3 4 5 6 
#
# 1 143.2785 19.0042 57.8876 0.0000 -12.6700 0.0000
# 2 19.0042 30.3175 9.1832 0.0001 -4.6826 0.0000
# 3 57.8876 9.1832 75.5957 0.0000 -8.2978 -0.0001
# 4 0.0000 0.0001 0.0000 18.9787 -0.0001 -5.6717
# 5 -12.6700 -4.6826 -8.2978 -0.0001 63.8767 0.0000
# 6 0.0000 0.0000 -0.0001 -5.6717 0.0000 18.1558
#
#
#
# Elastic Compliance Matrix: (Units=1/GPa)
#
#
# Indices 1 2 3 4 5 6 
#
# 1 0.010675 -0.004273 -0.007566 0.000000 0.000821 0.000000
# 2 -0.004273 0.036208 -0.000941 0.000000 0.001684 0.000000
# 3 -0.007566 -0.000941 0.019238 0.000000 0.000929 0.000000
# 4 0.000000 0.000000 0.000000 0.058116 0.000000 0.018155
# 5 0.000821 0.001684 0.000929 0.000000 0.016062 0.000000
# 6 0.000000 0.000000 0.000000 0.018155 0.000000 0.060750
#
#
# Mechanical properties :
#
#
# Convention : Reuss Voigt Hill
#
# Bulk Modulus (GPa) = 24.65400 46.81574 35.73487
# Shear Modulus (GPa) = 20.82195 31.07668 25.94932
#
# Velocity S-wave (km/s) = 2.99613 3.66031 3.34475
# Velocity P-wave (km/s) = 4.75374 6.16824 5.50659
#
# Compressibility (1/GPa) = 0.04056137
#
# Stress axis : x y z
#
# Youngs Moduli (GPa) = 93.67253 27.61803 51.98060
#
# Poissons Ratio (x) = 0.11802 0.39326
# Poissons Ratio (y) = 0.40029 0.04893
# Poissons Ratio (z) = 0.70868 0.02600
#
# Static dielectric constant tensor:
#      x y z
#    x 2.034560 0.000000 -0.067780 
#    y 0.000000 1.882780 0.000000 
#    z -0.067780 0.000000 1.920370 
# 
# From -- ./inp_files/16084.got.cif
#   From: 2010.05.17/outbox.cif.g08.bks.cpg/sg9_9_cif.got.tgz:16084.got - 2010.06.03 20:04:27.
