data_PCOD9134249
_publ_section_title
;
Structure prediction by ZEFSAII (Michael W. Deem and Ramdas Pophale) SiO2 
 PCOD9134249
Probable space group: C C
;
_chemical_formula_sum "Si O2"
_cell_formula_units_Z 32
_cell_length_a 9.049826
_cell_length_b 22.005569
_cell_length_c 14.903378
_cell_angle_alpha 90.000000
_cell_angle_beta 149.253289
_cell_angle_gamma 90.000000
_cell_volume 1517.349277
_symmetry_space_group_name_H-M "C C"
_symmetry_group_IT_number 9
_symmetry_cell_setting 'monoclinic'
loop_
_space_group_symop_operation_xyz
x,y,z
x,-y,1/2+z
1/2+x,1/2+y,z
1/2+x,1/2-y,1/2+z
loop_
_atom_site_type_symbol
_atom_site_label
_atom_site_fract_x
_atom_site_fract_y
_atom_site_fract_z
Si Si1 0.443560 0.495810 0.268920
Si Si2 0.094266 0.274900 0.326091
Si Si3 0.606150 0.951379 0.833425
Si Si4 0.278364 0.906238 0.835858
Si Si5 0.938147 0.423581 0.546457
Si Si6 0.960959 0.663908 0.596609
Si Si7 0.727512 0.827119 0.568642
Si Si8 0.212685 0.941007 0.085390
O O1 0.580423 0.537254 0.263151
O O2 0.601597 0.431264 0.347348
O O3 0.574777 0.520255 0.431510
O O4 0.110502 0.515029 0.103102
O O5 0.804612 0.237674 0.152024
O O6 0.312869 0.223488 0.476362
O O7 0.045830 0.319724 0.383808
O O8 0.196154 0.309084 0.288620
O O9 0.453380 0.922694 0.839353
O O10 0.502315 0.919837 0.685965
O O11 0.950711 0.942865 0.018877
O O12 0.493375 0.021493 0.764835
O O13 0.480721 0.881806 0.022959
O O14 0.035333 0.854323 0.697209
O O15 0.086973 0.370121 0.569033
O O16 0.775664 0.623536 0.571594
#
# Coordination Sequence:
#
# PCOD9134249 Si02
#       8
#     4   4   4   4   4   4   4   4
#     4   8  16  30  47  70 106 143 176 215 261 320
#     4   9  17  32  59  81 100 137 193 235 273 322
#     4  10  19  32  52  80 116 151 178 218 275 337
#     4   9  18  31  49  75 108 141 176 221 269 321
#     4   9  17  32  52  78 111 144 179 221 271 327
#     4   9  18  35  56  80 107 143 189 235 273 322
#     4   9  18  33  56  80 104 141 185 230 273 325
#     4   9  19  33  51  78 114 148 180 219 269 328
#
# _framework density 21.089410999999998
#
# number of rings (size 3 to 8) (size 9 to 14) (size 15 to 20)
#    0.000    3.000    0.000    2.250    0.000    4.000 
#    0.000    2.500    0.000   24.000    0.000    0.000 
#    0.000    0.000    0.000    0.000    0.000    0.000 
#
# Total GULP energy -89071.970988 kJ/mol
# GULP energy per Si atom -5566.998187 kJ/mol
# Density = 2.104141 g / cm^3
# Si number density = 21.089411 Si / 1000 Ang^3
#
#
#
# Elastic Constant Matrix: (Units=GPa)
#
#
# Indices 1 2 3 4 5 6 
#
# 1 148.0027 35.1530 34.3020 -0.0010 -17.8815 -0.0002
# 2 35.1530 54.3629 18.1849 -0.0007 -13.9086 0.0001
# 3 34.3020 18.1849 68.5175 -0.0036 -12.7043 -0.0001
# 4 -0.0010 -0.0007 -0.0036 22.9112 -0.0015 -9.5657
# 5 -17.8815 -13.9086 -12.7043 -0.0015 36.4942 -0.0003
# 6 -0.0002 0.0001 -0.0001 -9.5657 -0.0003 22.6915
#
#
#
# Elastic Compliance Matrix: (Units=1/GPa)
#
#
# Indices 1 2 3 4 5 6 
#
# 1 0.008620 -0.004189 -0.002904 0.000000 0.001616 0.000000
# 2 -0.004189 0.023641 -0.003087 0.000000 0.005883 0.000000
# 3 -0.002904 -0.003087 0.017516 0.000003 0.003499 0.000002
# 4 0.000000 0.000000 0.000003 0.052970 0.000004 0.022330
# 5 0.001616 0.005883 0.003499 0.000004 0.031654 0.000002
# 6 0.000000 0.000000 0.000002 0.022330 0.000002 0.053483
#
#
# Mechanical properties :
#
#
# Convention : Reuss Voigt Hill
#
# Bulk Modulus (GPa) = 33.99198 49.57366 41.78282
# Shear Modulus (GPa) = 22.93064 28.63560 25.78312
#
# Velocity S-wave (km/s) = 3.30101 3.68886 3.50031
# Velocity P-wave (km/s) = 5.53912 6.45763 6.01593
#
# Compressibility (1/GPa) = 0.02941871
#
# Stress axis : x y z
#
# Youngs Moduli (GPa) = 116.01076 42.29878 57.08905
#
# Poissons Ratio (x) = 0.17719 0.16578
# Poissons Ratio (y) = 0.48597 0.17621
# Poissons Ratio (z) = 0.33689 0.13056
#
# Static dielectric constant tensor:
#      x y z
#    x 1.769990 0.000000 0.007660 
#    y 0.000000 1.826300 0.000000 
#    z 0.007660 0.000000 1.824450 
# 
# From -- ./inp_files/5762.got.cif
#   From: 2010.05.17/outbox.cif.g08.bks.cpg/sg9_3_cif.got.tgz:5762.got - 2010.06.03 20:04:27.
