data_PCOD9134478
_publ_section_title
;
Structure prediction by ZEFSAII (Michael W. Deem and Ramdas Pophale) SiO2 
 PCOD9134478
Probable space group: C C
;
_chemical_formula_sum "Si O2"
_cell_formula_units_Z 32
_cell_length_a 8.893920
_cell_length_b 29.760197
_cell_length_c 5.357373
_cell_angle_alpha 90.000000
_cell_angle_beta 100.562535
_cell_angle_gamma 90.000000
_cell_volume 1393.987592
_symmetry_space_group_name_H-M "C C"
_symmetry_group_IT_number 9
_symmetry_cell_setting 'monoclinic'
loop_
_space_group_symop_operation_xyz
x,y,z
x,-y,1/2+z
1/2+x,1/2+y,z
1/2+x,1/2-y,1/2+z
loop_
_atom_site_type_symbol
_atom_site_label
_atom_site_fract_x
_atom_site_fract_y
_atom_site_fract_z
Si Si1 0.286030 0.975540 0.269850
Si Si2 0.499932 0.246164 0.991502
Si Si3 0.510097 0.886317 0.802349
Si Si4 0.131397 0.659072 0.838637
Si Si5 0.627806 0.987857 0.855604
Si Si6 0.209609 0.117869 0.515486
Si Si7 0.710131 0.301738 0.387145
Si Si8 0.458275 0.336678 0.681993
O O1 0.236909 0.925150 0.196798
O O2 0.233822 0.994048 0.520170
O O3 0.472155 0.981402 0.320384
O O4 0.582320 0.211338 0.831197
O O5 0.620240 0.261075 0.231992
O O6 0.358360 0.218801 0.060728
O O7 0.440493 0.291549 0.842129
O O8 0.595277 0.860594 0.055662
O O9 0.332185 0.887061 0.828582
O O10 0.541586 0.865571 0.539958
O O11 0.572960 0.936886 0.826144
O O12 0.306577 0.653918 0.980478
O O13 0.714534 0.002175 0.635426
O O14 0.249510 0.163331 0.678664
O O15 0.034361 0.124355 0.373584
O O16 0.594519 0.325294 0.535388
#
# Coordination Sequence:
#
# PCOD9134478 Si02
#       8
#     4   4   4   4   4   4   4   4
#     4  10  21  35  67 102 137 168 223 294 341 401
#     4  11  24  42  65 100 130 187 233 286 344 403
#     4  12  25  42  72 106 136 177 238 285 350 408
#     4  12  28  45  69 100 145 186 225 288 350 417
#     4  10  19  36  66 104 134 169 220 295 338 399
#     4  11  24  42  68 106 132 183 233 292 347 405
#     4  11  25  42  69  95 142 178 241 286 344 412
#     4  11  28  44  66  97 144 188 231 290 344 423
#
# _framework density 22.955727
#
# number of rings (size 3 to 8) (size 9 to 14) (size 15 to 20)
#    0.000    1.000    5.000    1.500   10.500    0.000 
#    0.000    0.000    0.000    4.500    0.000    0.000 
#    0.000    0.000    0.000    0.000    0.000    0.000 
#
# Total GULP energy -89536.656133 kJ/mol
# GULP energy per Si atom -5596.041008 kJ/mol
# Density = 2.290348 g / cm^3
# Si number density = 22.955727 Si / 1000 Ang^3
#
#
#
# Elastic Constant Matrix: (Units=GPa)
#
#
# Indices 1 2 3 4 5 6 
#
# 1 53.9723 10.9929 15.2771 0.0000 12.6882 0.0000
# 2 10.9929 80.1632 32.1499 0.0000 13.4750 0.0000
# 3 15.2771 32.1499 94.0292 0.0000 0.4849 0.0000
# 4 0.0000 0.0000 0.0000 45.2331 0.0000 5.1371
# 5 12.6882 13.4750 0.4849 0.0000 43.9985 0.0000
# 6 0.0000 0.0000 0.0000 5.1371 0.0000 11.7164
#
#
#
# Elastic Compliance Matrix: (Units=1/GPa)
#
#
# Indices 1 2 3 4 5 6 
#
# 1 0.020913 -0.000628 -0.003153 0.000000 -0.005804 0.000000
# 2 -0.000628 0.015369 -0.005130 0.000000 -0.004469 0.000000
# 3 -0.003153 -0.005130 0.012889 0.000000 0.002338 0.000000
# 4 0.000000 0.000000 0.000000 0.023266 0.000000 -0.010201
# 5 -0.005804 -0.004469 0.002338 0.000000 0.025745 0.000000
# 6 0.000000 0.000000 0.000000 -0.010201 0.000000 0.089824
#
#
# Mechanical properties :
#
#
# Convention : Reuss Voigt Hill
#
# Bulk Modulus (GPa) = 31.89816 38.33385 35.11601
# Shear Modulus (GPa) = 23.11844 31.50591 27.31218
#
# Velocity S-wave (km/s) = 3.17691 3.70870 3.45306
# Velocity P-wave (km/s) = 5.23285 5.92238 5.58826
#
# Compressibility (1/GPa) = 0.03134977
#
# Stress axis : x y z
#
# Youngs Moduli (GPa) = 47.81757 65.06466 77.58397
#
# Poissons Ratio (x) = 0.04083 0.24464
# Poissons Ratio (y) = 0.03001 0.39800
# Poissons Ratio (z) = 0.15078 0.33378
#
# Static dielectric constant tensor:
#      x y z
#    x 1.850170 0.000000 -0.013590 
#    y 0.000000 1.862030 0.000000 
#    z -0.013590 0.000000 1.920090 
# 
# From -- ./inp_files/1225.got.cif
#   From: 2010.05.17/outbox.cif.g08.bks.cpg/sg9_1_cif.got.tgz:1225.got - 2010.06.03 20:04:27.
