data_PCOD9134670
_publ_section_title
;
Structure prediction by ZEFSAII (Michael W. Deem and Ramdas Pophale) SiO2 
 PCOD9134670
Probable space group: C C
;
_chemical_formula_sum "Si O2"
_cell_formula_units_Z 32
_cell_length_a 7.289868
_cell_length_b 12.543480
_cell_length_c 25.575587
_cell_angle_alpha 90.000000
_cell_angle_beta 138.977478
_cell_angle_gamma 90.000000
_cell_volume 1534.979356
_symmetry_space_group_name_H-M "C C"
_symmetry_group_IT_number 9
_symmetry_cell_setting 'monoclinic'
loop_
_space_group_symop_operation_xyz
x,y,z
x,-y,1/2+z
1/2+x,1/2+y,z
1/2+x,1/2-y,1/2+z
loop_
_atom_site_type_symbol
_atom_site_label
_atom_site_fract_x
_atom_site_fract_y
_atom_site_fract_z
Si Si1 0.153310 0.059471 0.862870
Si Si2 0.242989 0.373526 0.472941
Si Si3 0.221081 0.348541 0.187983
Si Si4 0.288510 0.245193 0.973577
Si Si5 0.624866 0.441574 0.055960
Si Si6 0.811200 0.348836 0.937862
Si Si7 0.351316 0.421988 0.112214
Si Si8 0.329691 0.655507 0.116138
O O1 0.465337 0.056913 0.905555
O O2 0.192105 0.150484 0.915291
O O3 0.928486 0.100636 0.773929
O O4 0.104173 0.940767 0.874170
O O5 0.503479 0.445587 0.511217
O O6 0.194577 0.258512 0.437996
O O7 0.298295 0.355420 0.546323
O O8 0.372930 0.337429 0.164065
O O9 0.952592 0.425101 0.122303
O O10 0.074365 0.240397 0.177189
O O11 0.014706 0.299536 0.937753
O O12 0.469104 0.346157 0.991446
O O13 0.518169 0.195906 0.063757
O O14 0.534014 0.423075 0.098008
O O15 0.033841 0.408140 0.023463
O O16 0.395352 0.537047 0.148352
#
# Coordination Sequence:
#
# PCOD9134670 Si02
#       8
#     4   4   4   4   4   4   4   4
#     4  11  23  42  56  95 132 157 208 270 318 373
#     4  10  19  39  64  85 123 156 215 259 301 380
#     4  11  23  38  64  90 130 170 199 267 337 351
#     4   9  18  37  63  83 121 158 204 260 297 372
#     4   9  20  40  66  93 116 166 223 252 304 400
#     4  11  20  37  65  91 116 165 214 259 307 377
#     4  10  19  39  64  89 122 157 217 261 299 380
#     4   9  18  36  60  90 112 159 210 252 301 377
#
# _framework density 20.847185
#
# number of rings (size 3 to 8) (size 9 to 14) (size 15 to 20)
#    0.000    2.000    6.250    0.000    1.750    1.000 
#    6.750    0.000    0.000    0.000    0.000    0.000 
#    0.000    0.000    0.000    0.000    0.000    0.000 
#
# Total GULP energy -89116.927716 kJ/mol
# GULP energy per Si atom -5569.807982 kJ/mol
# Density = 2.079974 g / cm^3
# Si number density = 20.847185 Si / 1000 Ang^3
#
#
#
# Elastic Constant Matrix: (Units=GPa)
#
#
# Indices 1 2 3 4 5 6 
#
# 1 47.6574 27.6245 14.6289 0.0000 -2.3546 0.0000
# 2 27.6245 110.5897 5.0285 0.0000 1.0997 0.0000
# 3 14.6289 5.0285 30.0888 -0.0001 0.0878 0.0000
# 4 0.0000 0.0000 -0.0001 18.7454 0.0000 2.5443
# 5 -2.3546 1.0997 0.0878 0.0000 11.8038 0.0000
# 6 0.0000 0.0000 0.0000 2.5443 0.0000 33.8359
#
#
#
# Elastic Compliance Matrix: (Units=1/GPa)
#
#
# Indices 1 2 3 4 5 6 
#
# 1 0.029262 -0.006778 -0.013113 0.000000 0.006566 0.000000
# 2 -0.006778 0.010690 0.001516 0.000000 -0.002359 0.000000
# 3 -0.013113 0.001516 0.039366 0.000000 -0.003050 0.000000
# 4 0.000000 0.000000 0.000000 0.053896 0.000000 -0.004053
# 5 0.006566 -0.002359 -0.003050 0.000000 0.086271 0.000000
# 6 0.000000 0.000000 0.000000 -0.004053 0.000000 0.029859
#
#
# Mechanical properties :
#
#
# Convention : Reuss Voigt Hill
#
# Bulk Modulus (GPa) = 23.49254 31.43330 27.46292
# Shear Modulus (GPa) = 16.65086 22.28062 19.46574
#
# Velocity S-wave (km/s) = 2.82921 3.27273 3.05902
# Velocity P-wave (km/s) = 4.68679 5.42142 5.06743
#
# Compressibility (1/GPa) = 0.04256670
#
# Stress axis : x y z
#
# Youngs Moduli (GPa) = 34.17422 93.54385 25.40260
#
# Poissons Ratio (x) = 0.63408 0.33311
# Poissons Ratio (y) = 0.23165 -0.03851
# Poissons Ratio (z) = 0.44813 -0.14181
#
# Static dielectric constant tensor:
#      x y z
#    x 1.859920 0.000000 -0.009320 
#    y 0.000000 1.815230 0.000000 
#    z -0.009320 0.000000 1.697500 
# 
# From -- ./inp_files/37186.got.cif
#   From: 2010.05.17/outbox.cif.g08.bks.cpg/sg9_19_cif.got.tgz:37186.got - 2010.06.03 20:04:27.
