data_PCOD9134611
_publ_section_title
;
Structure prediction by ZEFSAII (Michael W. Deem and Ramdas Pophale) SiO2 
 PCOD9134611
Probable space group: C C
;
_chemical_formula_sum "Si O2"
_cell_formula_units_Z 32
_cell_length_a 8.271497
_cell_length_b 13.546635
_cell_length_c 13.875633
_cell_angle_alpha 90.000000
_cell_angle_beta 115.142499
_cell_angle_gamma 90.000000
_cell_volume 1407.468732
_symmetry_space_group_name_H-M "C C"
_symmetry_group_IT_number 9
_symmetry_cell_setting 'monoclinic'
loop_
_space_group_symop_operation_xyz
x,y,z
x,-y,1/2+z
1/2+x,1/2+y,z
1/2+x,1/2-y,1/2+z
loop_
_atom_site_type_symbol
_atom_site_label
_atom_site_fract_x
_atom_site_fract_y
_atom_site_fract_z
Si Si1 0.000000 0.634589 0.310160
Si Si2 0.788340 0.196695 0.498008
Si Si3 0.815523 0.168868 0.721535
Si Si4 0.165417 0.972156 0.658194
Si Si5 0.019004 0.201689 0.249670
Si Si6 0.276879 0.108075 0.443979
Si Si7 0.691827 0.682036 0.623669
Si Si8 0.104692 0.088623 0.929229
O O1 0.949007 0.736798 0.246056
O O2 0.875726 0.557237 0.221999
O O3 0.916041 0.639230 0.397519
O O4 0.206658 0.630028 0.390839
O O5 0.762729 0.146721 0.597805
O O6 0.687337 0.302381 0.465371
O O7 0.997862 0.216947 0.543152
O O8 0.645439 0.212960 0.735887
O O9 0.927042 0.095860 0.818833
O O10 0.056900 0.895366 0.695329
O O11 0.083693 0.955344 0.531487
O O12 0.155533 0.086762 0.681023
O O13 0.100765 0.169453 0.370918
O O14 0.817308 0.236170 0.200602
O O15 0.303556 0.138106 0.560715
O O16 0.241225 0.991987 0.421197
#
# Coordination Sequence:
#
# PCOD9134611 Si02
#       8
#     4   4   4   4   4   4   4   4
#     4   9  19  39  64  81 122 162 211 242 315 394
#     4  11  21  37  60  96 122 161 200 266 319 370
#     4   9  19  34  66  87 114 165 204 249 316 391
#     4   9  20  42  62  86 120 171 206 260 309 388
#     4  10  21  41  63  87 121 170 209 254 322 389
#     4   9  21  40  60  89 117 166 203 254 309 388
#     4  11  24  39  61  93 134 154 212 272 318 377
#     4  10  19  38  64  87 120 157 211 257 312 377
#
# _framework density 22.735851
#
# number of rings (size 3 to 8) (size 9 to 14) (size 15 to 20)
#    0.000    2.500    2.500    0.750    7.000    2.000 
#    6.750    1.250    0.000    0.000    0.000    0.000 
#    0.000    0.000    0.000    0.000    0.000    0.000 
#
# Total GULP energy -89201.143171 kJ/mol
# GULP energy per Si atom -5575.071448 kJ/mol
# Density = 2.268410 g / cm^3
# Si number density = 22.735851 Si / 1000 Ang^3
#
#
#
# Elastic Constant Matrix: (Units=GPa)
#
#
# Indices 1 2 3 4 5 6 
#
# 1 59.3963 14.4351 26.7344 0.0000 16.1604 0.0000
# 2 14.4351 69.5660 28.0847 0.0000 15.5462 0.0000
# 3 26.7344 28.0847 130.5232 0.0000 21.1568 0.0000
# 4 0.0000 0.0000 0.0000 26.1719 0.0000 3.2407
# 5 16.1604 15.5462 21.1568 0.0000 48.7558 0.0000
# 6 0.0000 0.0000 0.0000 3.2407 0.0000 7.3835
#
#
#
# Elastic Compliance Matrix: (Units=1/GPa)
#
#
# Indices 1 2 3 4 5 6 
#
# 1 0.019889 -0.001900 -0.002898 0.000000 -0.004729 0.000000
# 2 -0.001900 0.016614 -0.002613 0.000000 -0.003534 0.000000
# 3 -0.002898 -0.002613 0.009172 0.000000 -0.002186 0.000000
# 4 0.000000 0.000000 0.000000 0.040405 0.000000 -0.017734
# 5 -0.004729 -0.003534 -0.002186 0.000000 0.024153 0.000000
# 6 0.000000 0.000000 0.000000 -0.017734 0.000000 0.143220
#
#
# Mechanical properties :
#
#
# Convention : Reuss Voigt Hill
#
# Bulk Modulus (GPa) = 32.41313 44.22155 38.31734
# Shear Modulus (GPa) = 17.94955 29.14435 23.54695
#
# Velocity S-wave (km/s) = 2.81282 3.58420 3.22168
# Velocity P-wave (km/s) = 4.98364 6.05153 5.54336
#
# Compressibility (1/GPa) = 0.03085169
#
# Stress axis : x y z
#
# Youngs Moduli (GPa) = 50.27895 60.19150 109.03127
#
# Poissons Ratio (x) = 0.11437 0.31602
# Poissons Ratio (y) = 0.09554 0.28487
# Poissons Ratio (z) = 0.14573 0.15727
#
# Static dielectric constant tensor:
#      x y z
#    x 1.910910 0.000000 -0.000970 
#    y 0.000000 1.841800 0.000000 
#    z -0.000970 0.000000 1.901400 
# 
# From -- ./inp_files/23185.got.cif
#   From: 2010.05.17/outbox.cif.g08.bks.cpg/sg9_12_cif.got.tgz:23185.got - 2010.06.03 20:04:27.
