data_PCOD9134593
_publ_section_title
;
Structure prediction by ZEFSAII (Michael W. Deem and Ramdas Pophale) SiO2 
 PCOD9134593
Probable space group: C C
;
_chemical_formula_sum "Si O2"
_cell_formula_units_Z 32
_cell_length_a 8.256931
_cell_length_b 10.992823
_cell_length_c 15.028025
_cell_angle_alpha 90.000000
_cell_angle_beta 105.422366
_cell_angle_gamma 90.000000
_cell_volume 1314.931350
_symmetry_space_group_name_H-M "C C"
_symmetry_group_IT_number 9
_symmetry_cell_setting 'monoclinic'
loop_
_space_group_symop_operation_xyz
x,y,z
x,-y,1/2+z
1/2+x,1/2+y,z
1/2+x,1/2-y,1/2+z
loop_
_atom_site_type_symbol
_atom_site_label
_atom_site_fract_x
_atom_site_fract_y
_atom_site_fract_z
Si Si1 0.940300 0.181037 0.697510
Si Si2 0.211642 0.458073 0.636290
Si Si3 0.546712 0.053003 0.778965
Si Si4 0.791682 0.715708 0.328346
Si Si5 0.048533 0.881705 0.406510
Si Si6 0.572902 0.631511 0.437283
Si Si7 0.270588 0.799808 0.131222
Si Si8 0.934391 0.397657 0.449798
O O1 0.848476 0.294743 0.733857
O O2 0.026141 0.119096 0.796348
O O3 0.088003 0.207489 0.651711
O O4 0.808210 0.085326 0.638947
O O5 0.329597 0.340346 0.639185
O O6 0.139519 0.459377 0.726901
O O7 0.062421 0.441681 0.543758
O O8 0.686438 0.157475 0.813569
O O9 0.397466 0.115517 0.701774
O O10 0.472519 0.024356 0.865566
O O11 0.664459 0.624876 0.355173
O O12 0.951617 0.756360 0.412306
O O13 0.244265 0.890974 0.455759
O O14 0.973902 0.006214 0.436177
O O15 0.723780 0.647952 0.528989
O O16 0.471198 0.756382 0.428871
#
# Coordination Sequence:
#
# PCOD9134593 Si02
#       8
#     4   4   4   4   4   4   4   4
#     4   9  21  40  59  85 124 153 200 246 297 359
#     4  10  23  40  59  89 120 160 195 251 307 346
#     4  10  19  38  61  84 119 156 195 250 295 358
#     4   8  20  37  58  87 114 150 205 241 286 367
#     4  10  20  40  61  83 119 158 197 248 300 354
#     4  10  22  37  63  87 115 161 196 245 308 345
#     4  11  22  39  59  90 121 154 202 248 296 360
#     4  10  21  39  62  89 120 152 210 247 289 371
#
# _framework density 24.335871000000001
#
# number of rings (size 3 to 8) (size 9 to 14) (size 15 to 20)
#    0.750    1.500    1.250    0.750    3.500    4.000 
#    0.000    8.750    0.000    0.000    0.000    0.000 
#    0.000    0.000    0.000    0.000    0.000    0.000 
#
# Total GULP energy -89294.878594 kJ/mol
# GULP energy per Si atom -5580.929912 kJ/mol
# Density = 2.428048 g / cm^3
# Si number density = 24.335871 Si / 1000 Ang^3
#
#
#
# Elastic Constant Matrix: (Units=GPa)
#
#
# Indices 1 2 3 4 5 6 
#
# 1 53.6509 -3.9430 -17.5897 0.0000 -0.5159 0.0000
# 2 -3.9430 61.9685 6.2747 0.0000 4.7420 0.0000
# 3 -17.5897 6.2747 46.5673 0.0000 0.6483 0.0000
# 4 0.0000 0.0000 0.0000 27.8193 0.0000 -3.4312
# 5 -0.5159 4.7420 0.6483 0.0000 26.7979 0.0000
# 6 0.0000 0.0000 0.0000 -3.4312 0.0000 30.8967
#
#
#
# Elastic Compliance Matrix: (Units=1/GPa)
#
#
# Indices 1 2 3 4 5 6 
#
# 1 0.021292 0.000539 0.007968 0.000000 0.000122 0.000000
# 2 0.000539 0.016593 -0.001992 0.000000 -0.002878 0.000000
# 3 0.007968 -0.001992 0.024754 0.000000 -0.000093 0.000000
# 4 0.000000 0.000000 0.000000 0.036445 0.000000 0.004047
# 5 0.000122 -0.002878 -0.000093 0.000000 0.037830 0.000000
# 6 0.000000 0.000000 0.000000 0.004047 0.000000 0.032815
#
#
# Mechanical properties :
#
#
# Convention : Reuss Voigt Hill
#
# Bulk Modulus (GPa) = 13.21546 14.63007 13.92277
# Shear Modulus (GPa) = 27.48395 28.93242 28.20818
#
# Velocity S-wave (km/s) = 3.36424 3.45175 3.40828
# Velocity P-wave (km/s) = 4.53134 4.68091 4.60673
#
# Compressibility (1/GPa) = 0.07566894
#
# Stress axis : x y z
#
# Youngs Moduli (GPa) = 46.96546 60.26475 40.39764
#
# Poissons Ratio (x) = -0.03246 -0.32190
# Poissons Ratio (y) = -0.02530 0.08049
# Poissons Ratio (z) = -0.37424 0.12007
#
# Static dielectric constant tensor:
#      x y z
#    x 1.966660 0.000000 -0.031580 
#    y 0.000000 2.002610 0.000000 
#    z -0.031580 0.000000 1.919130 
# 
# From -- ./inp_files/22818.got.cif
#   From: 2010.05.17/outbox.cif.g08.bks.cpg/sg9_12_cif.got.tgz:22818.got - 2010.06.03 20:04:27.
