data_PCOD9134259
_publ_section_title
;
Structure prediction by ZEFSAII (Michael W. Deem and Ramdas Pophale) SiO2 
 PCOD9134259
Probable space group: C C
;
_chemical_formula_sum "Si O2"
_cell_formula_units_Z 28
_cell_length_a 12.848227
_cell_length_b 5.109420
_cell_length_c 20.029527
_cell_angle_alpha 90.000000
_cell_angle_beta 116.691765
_cell_angle_gamma 90.000000
_cell_volume 1174.759393
_symmetry_space_group_name_H-M "C C"
_symmetry_group_IT_number 9
_symmetry_cell_setting 'monoclinic'
loop_
_space_group_symop_operation_xyz
x,y,z
x,-y,1/2+z
1/2+x,1/2+y,z
1/2+x,1/2-y,1/2+z
loop_
_atom_site_type_symbol
_atom_site_label
_atom_site_fract_x
_atom_site_fract_y
_atom_site_fract_z
Si Si1 0.527870 0.852573 0.954180
Si Si2 0.493902 0.078869 0.803169
Si Si3 0.079532 0.850713 0.024942
Si Si4 0.429312 0.960295 0.648275
Si Si5 0.142552 0.917539 0.323797
Si Si6 0.848012 0.454368 0.487443
Si Si7 0.085357 0.039810 0.169768
O O1 0.472630 0.975685 0.871716
O O2 0.582382 0.568340 0.968670
O O3 0.619488 0.069207 0.007827
O O4 0.427599 0.814706 0.980470
O O5 0.402364 0.031637 0.717096
O O6 0.597803 0.880348 0.811470
O O7 0.540471 0.374815 0.813585
O O8 0.944467 0.771797 0.002679
O O9 0.127471 0.958924 0.108503
O O10 0.333804 0.984792 0.562505
O O11 0.482997 0.669274 0.659117
O O12 0.530282 0.170191 0.656208
O O13 0.173585 0.000713 0.256968
O O14 0.243231 0.930763 0.406782
#
# Coordination Sequence:
#
# PCOD9134259 Si02
#       7
#     4   4   4   4   4   4   4
#     4  10  19  32  56  72 101 135 174 200 247 313
#     4  10  21  35  51  76 106 135 168 205 264 302
#     4   9  17  30  55  74  96 133 173 204 238 309
#     4   9  17  31  53  70  98 134 171 198 242 315
#     4  10  21  31  55  78 105 127 169 223 254 291
#     4   9  20  32  57  77  98 130 177 211 251 289
#     4   9  15  31  47  79  92 130 168 209 236 299
#
# _framework density 23.834665999999999
#
# number of rings (size 3 to 8) (size 9 to 14) (size 15 to 20)
#    0.857    1.714    1.429    0.857    2.000    0.000 
#    0.000    0.000    6.286    0.000    0.000    0.000 
#    0.000    0.000    0.000    0.000    0.000    0.000 
#
# Total GULP energy -77969.168298 kJ/mol
# GULP energy per Si atom -5569.226307 kJ/mol
# Density = 2.378042 g / cm^3
# Si number density = 23.834666 Si / 1000 Ang^3
#
#
#
# Elastic Constant Matrix: (Units=GPa)
#
#
# Indices 1 2 3 4 5 6 
#
# 1 34.2300 -1.3053 32.8202 0.0000 -1.1604 0.0000
# 2 -1.3053 92.6870 8.7807 0.0000 -1.0905 0.0000
# 3 32.8202 8.7807 215.9708 0.0000 -4.6248 0.0000
# 4 0.0000 0.0000 0.0000 28.6964 0.0000 -8.6592
# 5 -1.1604 -1.0905 -4.6248 0.0000 42.1402 0.0000
# 6 0.0000 0.0000 0.0000 -8.6592 0.0000 4.0625
#
#
#
# Elastic Compliance Matrix: (Units=1/GPa)
#
#
# Indices 1 2 3 4 5 6 
#
# 1 0.034292 0.000984 -0.005243 0.000000 0.000394 0.000000
# 2 0.000984 0.010861 -0.000586 0.000000 0.000244 0.000000
# 3 -0.005243 -0.000586 0.005460 0.000000 0.000440 0.000000
# 4 0.000000 0.000000 0.000000 0.097663 0.000000 0.208169
# 5 0.000394 0.000244 0.000440 0.000000 0.023796 0.000000
# 6 0.000000 0.000000 0.000000 0.208169 0.000000 0.689864
#
#
# Mechanical properties :
#
#
# Convention : Reuss Voigt Hill
#
# Bulk Modulus (GPa) = 24.43528 47.05321 35.74425
# Shear Modulus (GPa) = 5.64802 35.15264 20.40033
#
# Velocity S-wave (km/s) = 1.54104 3.84455 2.92877
# Velocity P-wave (km/s) = 3.66615 6.28425 5.14453
#
# Compressibility (1/GPa) = 0.04092443
#
# Stress axis : x y z
#
# Youngs Moduli (GPa) = 29.16142 92.07059 183.14304
#
# Poissons Ratio (x) = -0.09062 0.96018
# Poissons Ratio (y) = -0.02870 0.10731
# Poissons Ratio (z) = 0.15289 0.05395
#
# Static dielectric constant tensor:
#      x y z
#    x 1.998720 0.000000 -0.023690 
#    y 0.000000 1.920310 0.000000 
#    z -0.023690 0.000000 2.013660 
# 
# From -- ./inp_files/25283.got.cif
#   From: 2010.05.17/outbox.cif.g08.bks.cpg/sg9_13_cif.got.tgz:25283.got - 2010.06.03 20:04:27.
