data_PCOD9134117
_publ_section_title
;
Structure prediction by ZEFSAII (Michael W. Deem and Ramdas Pophale) SiO2 
 PCOD9134117
Probable space group: C C
;
_chemical_formula_sum "Si O2"
_cell_formula_units_Z 28
_cell_length_a 12.178951
_cell_length_b 10.222146
_cell_length_c 8.958008
_cell_angle_alpha 90.000000
_cell_angle_beta 108.042023
_cell_angle_gamma 90.000000
_cell_volume 1060.391185
_symmetry_space_group_name_H-M "C C"
_symmetry_group_IT_number 9
_symmetry_cell_setting 'monoclinic'
loop_
_space_group_symop_operation_xyz
x,y,z
x,-y,1/2+z
1/2+x,1/2+y,z
1/2+x,1/2-y,1/2+z
loop_
_atom_site_type_symbol
_atom_site_label
_atom_site_fract_x
_atom_site_fract_y
_atom_site_fract_z
Si Si1 0.706290 0.612131 0.244830
Si Si2 0.105635 0.718986 0.465497
Si Si3 0.709161 0.834684 0.614730
Si Si4 0.355177 0.261849 0.915455
Si Si5 0.536698 0.621530 0.683841
Si Si6 0.105121 0.461166 0.295699
Si Si7 0.867805 0.485468 0.055910
O O1 0.645456 0.738608 0.146361
O O2 0.601299 0.513587 0.232478
O O3 0.784474 0.542043 0.150122
O O4 0.791126 0.610185 0.421817
O O5 0.227270 0.739007 0.430476
O O6 0.020130 0.817444 0.342108
O O7 0.066623 0.577683 0.395421
O O8 0.620454 0.719438 0.624722
O O9 0.679201 0.963968 0.700611
O O10 0.681870 0.870151 0.433866
O O11 0.833248 0.791393 0.732527
O O12 0.423470 0.371569 0.035731
O O13 0.401529 0.117567 0.976043
O O14 0.983404 0.424007 0.170442
#
# Coordination Sequence:
#
# PCOD9134117 Si02
#       7
#     4   4   4   4   4   4   4
#     4  11  20  36  57  92 113 152 196 249 284 353
#     4   9  20  36  58  82 120 150 199 235 291 356
#     4  10  20  36  58  82 113 148 201 236 282 356
#     4   9  17  36  58  80 109 162 188 221 294 361
#     4  10  18  37  58  83 115 160 187 237 296 360
#     4  10  20  37  57  85 108 155 194 242 285 344
#     4  11  19  34  64  84 112 151 203 236 288 346
#
# _framework density 26.405348
#
# number of rings (size 3 to 8) (size 9 to 14) (size 15 to 20)
#    0.000    2.286    7.143    0.857    0.000    0.000 
#    7.714    0.000    0.000    0.000    0.000    0.000 
#    0.000    0.000    0.000    0.000    0.000    0.000 
#
# Total GULP energy -78290.856014 kJ/mol
# GULP energy per Si atom -5592.204001 kJ/mol
# Density = 2.634525 g / cm^3
# Si number density = 26.405348 Si / 1000 Ang^3
#
#
#
# Elastic Constant Matrix: (Units=GPa)
#
#
# Indices 1 2 3 4 5 6 
#
# 1 42.9941 26.7710 36.0517 0.0000 16.7051 0.0000
# 2 26.7710 63.0127 45.8794 0.0000 16.9668 0.0000
# 3 36.0517 45.8794 254.1828 0.0000 25.7151 0.0000
# 4 0.0000 0.0000 0.0000 51.4230 0.0000 1.7389
# 5 16.7051 16.9668 25.7151 0.0000 40.4616 0.0000
# 6 0.0000 0.0000 0.0000 1.7389 0.0000 33.0470
#
#
#
# Elastic Compliance Matrix: (Units=1/GPa)
#
#
# Indices 1 2 3 4 5 6 
#
# 1 0.035309 -0.011147 -0.002131 0.000000 -0.008549 0.000000
# 2 -0.011147 0.023236 -0.002237 0.000000 -0.003720 0.000000
# 3 -0.002131 -0.002237 0.004762 0.000000 -0.001209 0.000000
# 4 0.000000 0.000000 0.000000 0.019481 0.000000 -0.001025
# 5 -0.008549 -0.003720 -0.001209 0.000000 0.030572 0.000000
# 6 0.000000 0.000000 0.000000 -0.001025 0.000000 0.030314
#
#
# Mechanical properties :
#
#
# Convention : Reuss Voigt Hill
#
# Bulk Modulus (GPa) = 30.98201 64.17709 47.57955
# Shear Modulus (GPa) = 26.95945 41.75215 34.35580
#
# Velocity S-wave (km/s) = 3.19875 3.98074 3.61098
# Velocity P-wave (km/s) = 5.03998 6.74431 5.95345
#
# Compressibility (1/GPa) = 0.03227679
#
# Stress axis : x y z
#
# Youngs Moduli (GPa) = 28.32165 43.03688 209.97609
#
# Poissons Ratio (x) = 0.47975 0.44746
# Poissons Ratio (y) = 0.31571 0.46964
# Poissons Ratio (z) = 0.06035 0.09626
#
# Static dielectric constant tensor:
#      x y z
#    x 2.071610 0.000000 -0.068530 
#    y 0.000000 2.143960 0.000000 
#    z -0.068530 0.000000 2.182730 
# 
# From -- ./inp_files/9303.got.cif
#   From: 2010.05.17/outbox.cif.g08.bks.cpg/sg9_5_cif.got.tgz:9303.got - 2010.06.03 20:04:27.
