data_PCOD9134136
_publ_section_title
;
Structure prediction by ZEFSAII (Michael W. Deem and Ramdas Pophale) SiO2 
 PCOD9134136
Probable space group: C C
;
_chemical_formula_sum "Si O2"
_cell_formula_units_Z 24
_cell_length_a 9.521959
_cell_length_b 19.776225
_cell_length_c 9.299407
_cell_angle_alpha 90.000000
_cell_angle_beta 45.375256
_cell_angle_gamma 90.000000
_cell_volume 1246.337901
_symmetry_space_group_name_H-M "C C"
_symmetry_group_IT_number 9
_symmetry_cell_setting 'monoclinic'
loop_
_space_group_symop_operation_xyz
x,y,z
x,-y,1/2+z
1/2+x,1/2+y,z
1/2+x,1/2-y,1/2+z
loop_
_atom_site_type_symbol
_atom_site_label
_atom_site_fract_x
_atom_site_fract_y
_atom_site_fract_z
Si Si1 0.521200 0.437911 0.587720
Si Si2 0.013545 0.127354 0.795646
Si Si3 0.934394 0.343945 0.063663
Si Si4 0.199415 0.545495 0.882504
Si Si5 0.862364 0.802926 0.663083
Si Si6 0.954592 0.531689 0.771245
O O1 0.508904 0.431729 0.422308
O O2 0.338231 0.479401 0.776494
O O3 0.499266 0.358597 0.645108
O O4 0.725309 0.473453 0.480039
O O5 0.243259 0.141199 0.601557
O O6 0.855617 0.105739 0.792139
O O7 0.929521 0.190097 0.948698
O O8 0.884751 0.274919 0.186653
O O9 0.955100 0.406673 0.156758
O O10 0.141223 0.330248 0.838559
O O11 0.080921 0.548826 0.820122
O O12 0.048465 0.532732 0.122548
#
# Coordination Sequence:
#
# PCOD9134136 Si02
#       6
#     4   4   4   4   4   4
#     4   9  21  35  58  87 109 158 187 233 284 342
#     4   9  21  34  56  89 107 149 191 232 280 344
#     4  11  19  37  63  83 109 155 197 233 283 341
#     4  12  22  38  56  88 123 147 194 232 294 340
#     4  10  18  37  64  82 109 147 206 226 280 344
#     4  11  23  35  59  85 119 154 185 242 283 341
#
# _framework density 19.256415000000001
#
# number of rings (size 3 to 8) (size 9 to 14) (size 15 to 20)
#    1.000    0.667    5.000    0.000    4.667    0.000 
#    0.000    0.000    7.333    0.000    0.000    0.000 
#    0.000    0.000    0.000    0.000    0.000    0.000 
#
# Total GULP energy -66810.834474 kJ/mol
# GULP energy per Si atom -5567.569540 kJ/mol
# Density = 1.921259 g / cm^3
# Si number density = 19.256415 Si / 1000 Ang^3
#
#
#
# Elastic Constant Matrix: (Units=GPa)
#
#
# Indices 1 2 3 4 5 6 
#
# 1 107.0776 2.0816 33.7455 0.0000 -21.7210 0.0000
# 2 2.0816 49.5086 1.7274 0.0000 -13.4942 0.0000
# 3 33.7455 1.7274 64.9964 0.0000 -33.3761 0.0000
# 4 0.0000 0.0000 0.0000 23.5309 0.0000 -7.2312
# 5 -21.7210 -13.4942 -33.3761 0.0000 32.3101 0.0000
# 6 0.0000 0.0000 0.0000 -7.2312 0.0000 24.1148
#
#
#
# Elastic Compliance Matrix: (Units=1/GPa)
#
#
# Indices 1 2 3 4 5 6 
#
# 1 0.011347 0.000718 -0.003917 0.000000 0.003881 0.000000
# 2 0.000718 0.025695 0.010016 0.000000 0.021560 0.000000
# 3 -0.003917 0.010016 0.038225 0.000000 0.041036 0.000000
# 4 0.000000 0.000000 0.000000 0.046811 0.000000 0.014037
# 5 0.003881 0.021560 0.041036 0.000000 0.084954 0.000000
# 6 0.000000 0.000000 0.000000 0.014037 0.000000 0.045678
#
#
# Mechanical properties :
#
#
# Convention : Reuss Voigt Hill
#
# Bulk Modulus (GPa) = 11.24854 32.96572 22.10713
# Shear Modulus (GPa) = 18.60733 28.25971 23.43352
#
# Velocity S-wave (km/s) = 3.11190 3.83501 3.49222
# Velocity P-wave (km/s) = 4.33197 6.06352 5.26936
#
# Compressibility (1/GPa) = 0.08890042
#
# Stress axis : x y z
#
# Youngs Moduli (GPa) = 88.12965 38.91752 26.16057
#
# Poissons Ratio (x) = -0.02792 0.10247
# Poissons Ratio (y) = -0.06324 -0.26202
# Poissons Ratio (z) = 0.34521 -0.38979
#
# Static dielectric constant tensor:
#      x y z
#    x 1.667750 0.000000 -0.035820 
#    y 0.000000 1.725540 0.000000 
#    z -0.035820 0.000000 1.712280 
# 
# From -- ./inp_files/5987.got.cif
#   From: 2010.05.17/outbox.cif.g08.bks.cpg/sg9_3_cif.got.tgz:5987.got - 2010.06.03 20:04:27.
