data_PCOD9134875
_publ_section_title
;
Structure prediction by ZEFSAII (Michael W. Deem and Ramdas Pophale) SiO2 
 PCOD9134875
Probable space group: C C
;
_chemical_formula_sum "Si O2"
_cell_formula_units_Z 28
_cell_length_a 9.275223
_cell_length_b 17.688617
_cell_length_c 7.081021
_cell_angle_alpha 90.000000
_cell_angle_beta 102.215676
_cell_angle_gamma 90.000000
_cell_volume 1135.449467
_symmetry_space_group_name_H-M "C C"
_symmetry_group_IT_number 9
_symmetry_cell_setting 'monoclinic'
loop_
_space_group_symop_operation_xyz
x,y,z
x,-y,1/2+z
1/2+x,1/2+y,z
1/2+x,1/2-y,1/2+z
loop_
_atom_site_type_symbol
_atom_site_label
_atom_site_fract_x
_atom_site_fract_y
_atom_site_fract_z
Si Si1 0.090640 0.576701 0.477270
Si Si2 0.644122 0.249549 0.146463
Si Si3 0.168144 0.950556 0.447309
Si Si4 0.312522 0.106272 0.634124
Si Si5 0.974529 0.931630 0.719643
Si Si6 0.858191 0.828059 0.012824
Si Si7 0.636369 0.908298 0.553674
O O1 0.247572 0.612656 0.581345
O O2 0.072468 0.486182 0.460991
O O3 0.077500 0.597360 0.253802
O O4 0.972667 0.608514 0.589083
O O5 0.732024 0.315923 0.066378
O O6 0.750712 0.223401 0.349801
O O7 0.620454 0.179071 0.996899
O O8 0.482311 0.281300 0.158762
O O9 0.278375 0.903935 0.347629
O O10 0.098934 0.907123 0.604834
O O11 0.245603 0.028190 0.533597
O O12 0.028054 0.984472 0.293392
O O13 0.953986 0.879457 0.895542
O O14 0.810615 0.927992 0.592097
#
# Coordination Sequence:
#
# PCOD9134875 Si02
#       7
#     4   4   4   4   4   4   4
#     4  10  22  41  67  95 134 177 230 281 336 420
#     4  10  23  44  68  99 144 173 226 288 350 401
#     4  10  20  33  67  97 136 175 235 275 336 410
#     4  11  22  40  64 102 137 181 228 285 345 402
#     4   9  17  36  60 100 125 173 228 283 325 402
#     4  10  22  45  70  99 139 180 228 286 345 415
#     4  10  22  41  68  96 135 173 235 276 349 404
#
# _framework density 24.659838000000001
#
# number of rings (size 3 to 8) (size 9 to 14) (size 15 to 20)
#    0.000    2.286    1.429    2.571    2.000    2.286 
#   10.286    4.286    0.000    0.000    0.000    0.000 
#    0.000    0.000    0.000    0.000    0.000    0.000 
#
# Total GULP energy -78124.696797 kJ/mol
# GULP energy per Si atom -5580.335485 kJ/mol
# Density = 2.460371 g / cm^3
# Si number density = 24.659838 Si / 1000 Ang^3
#
#
#
# Elastic Constant Matrix: (Units=GPa)
#
#
# Indices 1 2 3 4 5 6 
#
# 1 163.6217 68.7850 53.4017 0.0000 -37.1142 0.0000
# 2 68.7850 139.5183 21.6829 0.0000 -19.8059 0.0000
# 3 53.4017 21.6829 72.5419 0.0000 -33.3766 0.0000
# 4 0.0000 0.0000 0.0000 18.5786 0.0000 8.9727
# 5 -37.1142 -19.8059 -33.3766 0.0000 43.3618 0.0000
# 6 0.0000 0.0000 0.0000 8.9727 0.0000 19.7893
#
#
#
# Elastic Compliance Matrix: (Units=1/GPa)
#
#
# Indices 1 2 3 4 5 6 
#
# 1 0.009940 -0.003714 -0.004759 0.000000 0.003149 0.000000
# 2 -0.003714 0.009105 0.000718 0.000000 0.001532 0.000000
# 3 -0.004759 0.000718 0.023768 0.000000 0.014550 0.000000
# 4 0.000000 0.000000 0.000000 0.068917 0.000000 -0.031248
# 5 0.003149 0.001532 0.014550 0.000000 0.037656 0.000000
# 6 0.000000 0.000000 0.000000 -0.031248 0.000000 0.064701
#
#
# Mechanical properties :
#
#
# Convention : Reuss Voigt Hill
#
# Bulk Modulus (GPa) = 36.62652 73.71348 55.17000
# Shear Modulus (GPa) = 20.94701 31.80008 26.37354
#
# Velocity S-wave (km/s) = 2.91767 3.59493 3.27386
# Velocity P-wave (km/s) = 5.12205 6.86938 6.05903
#
# Compressibility (1/GPa) = 0.02730262
#
# Stress axis : x y z
#
# Youngs Moduli (GPa) = 100.59913 109.83399 42.07340
#
# Poissons Ratio (x) = 0.40795 0.20021
# Poissons Ratio (y) = 0.37365 -0.03020
# Poissons Ratio (z) = 0.47872 -0.07883
#
# Static dielectric constant tensor:
#      x y z
#    x 1.998320 0.000000 0.113890 
#    y 0.000000 2.025930 0.000000 
#    z 0.113890 0.000000 2.051350 
# 
# From -- ./inp_files/5326.got.cif
#   From: 2010.05.17/outbox.cif.g08.bks.cpg/sg9_3_cif.got.tgz:5326.got - 2010.06.03 20:04:27.
