data_PCOD9134997
_publ_section_title
;
Structure prediction by ZEFSAII (Michael W. Deem and Ramdas Pophale) SiO2 
 PCOD9134997
Probable space group: C C
;
_chemical_formula_sum "Si O2"
_cell_formula_units_Z 32
_cell_length_a 6.932993
_cell_length_b 21.148973
_cell_length_c 10.453999
_cell_angle_alpha 90.000000
_cell_angle_beta 107.751591
_cell_angle_gamma 90.000000
_cell_volume 1459.842858
_symmetry_space_group_name_H-M "C C"
_symmetry_group_IT_number 9
_symmetry_cell_setting 'monoclinic'
loop_
_space_group_symop_operation_xyz
x,y,z
x,-y,1/2+z
1/2+x,1/2+y,z
1/2+x,1/2-y,1/2+z
loop_
_atom_site_type_symbol
_atom_site_label
_atom_site_fract_x
_atom_site_fract_y
_atom_site_fract_z
Si Si1 0.792330 0.604210 0.159370
Si Si2 0.580464 0.898853 0.203870
Si Si3 0.681089 0.473819 0.863856
Si Si4 0.681653 0.346830 0.026721
Si Si5 0.401102 0.220808 0.350946
Si Si6 0.279832 0.698807 0.579213
Si Si7 0.582069 0.975647 0.569332
Si Si8 0.912099 0.923492 0.454941
O O1 0.703900 0.543809 0.220000
O O2 0.882399 0.653119 0.276709
O O3 0.974301 0.586149 0.103272
O O4 0.587949 0.622392 0.043231
O O5 0.669029 0.866353 0.094814
O O6 0.732681 0.885479 0.349371
O O7 0.596539 0.973662 0.185828
O O8 0.353830 0.871819 0.160694
O O9 0.630422 0.409094 0.930881
O O10 0.529504 0.528281 0.882405
O O11 0.908178 0.494677 0.945633
O O12 0.768702 0.291942 0.951490
O O13 0.490293 0.318920 0.058799
O O14 0.318311 0.265776 0.221782
O O15 0.627535 0.232681 0.449141
O O16 0.788957 0.961539 0.539115
#
# Coordination Sequence:
#
# PCOD9134997 Si02
#       8
#     4   4   4   4   4   4   4   4
#     4  10  22  38  58  90 129 166 210 256 311 378
#     4  10  22  37  59  93 127 161 213 255 308 382
#     4   9  19  36  59  86 128 166 209 250 306 380
#     4   9  21  43  66  89 122 168 209 259 315 373
#     4  10  25  45  66  94 121 163 219 264 310 381
#     4  11  24  44  69  90 122 168 209 268 320 367
#     4  10  20  36  58  91 127 167 208 255 313 377
#     4  11  21  33  59  95 128 167 199 257 311 374
#
# _framework density 21.920165999999998
#
# number of rings (size 3 to 8) (size 9 to 14) (size 15 to 20)
#    0.000    2.000    0.000    3.000    1.750    9.000 
#    2.250    0.000    0.000    0.000    0.000    0.000 
#    0.000    0.000    0.000    0.000    0.000    0.000 
#
# Total GULP energy -89256.828538 kJ/mol
# GULP energy per Si atom -5578.551784 kJ/mol
# Density = 2.187028 g / cm^3
# Si number density = 21.920166 Si / 1000 Ang^3
#
#
#
# Elastic Constant Matrix: (Units=GPa)
#
#
# Indices 1 2 3 4 5 6 
#
# 1 112.6160 33.1997 19.7744 0.0000 14.0482 0.0000
# 2 33.1997 42.1277 18.7204 0.0000 0.1200 0.0000
# 3 19.7744 18.7204 82.3814 0.0000 33.2103 0.0000
# 4 0.0000 0.0000 0.0000 19.2080 0.0000 -3.4782
# 5 14.0482 0.1200 33.2103 0.0000 34.9446 0.0000
# 6 0.0000 0.0000 0.0000 -3.4782 0.0000 9.5339
#
#
#
# Elastic Compliance Matrix: (Units=1/GPa)
#
#
# Indices 1 2 3 4 5 6 
#
# 1 0.012611 -0.010999 0.002433 0.000000 -0.007344 0.000000
# 2 -0.010999 0.037909 -0.012489 0.000000 0.016161 0.000000
# 3 0.002433 -0.012489 0.023943 0.000000 -0.023690 0.000000
# 4 0.000000 0.000000 0.000000 0.055744 0.000000 0.020337
# 5 -0.007344 0.016161 -0.023690 0.000000 0.054028 0.000000
# 6 0.000000 0.000000 0.000000 0.020337 0.000000 0.112308
#
#
# Mechanical properties :
#
#
# Convention : Reuss Voigt Hill
#
# Bulk Modulus (GPa) = 30.90936 42.27935 36.59436
# Shear Modulus (GPa) = 14.30869 23.76600 19.03734
#
# Velocity S-wave (km/s) = 2.55770 3.29630 2.95020
# Velocity P-wave (km/s) = 4.78058 5.81526 5.32312
#
# Compressibility (1/GPa) = 0.03235266
#
# Stress axis : x y z
#
# Youngs Moduli (GPa) = 79.29488 26.37891 41.76621
#
# Poissons Ratio (x) = 0.29013 -0.10161
# Poissons Ratio (y) = 0.87214 0.52164
# Poissons Ratio (z) = -0.19292 0.32946
#
# Static dielectric constant tensor:
#      x y z
#    x 1.758510 0.000000 0.038840 
#    y 0.000000 1.856660 0.000000 
#    z 0.038840 0.000000 1.892800 
# 
# From -- ./inp_files/13655.got.cif
#   From: 2010.05.17/outbox.cif.g08.bks.cpg/sg9_7_cif.got.tgz:13655.got - 2010.06.03 20:04:27.
