data_PCOD9134531
_publ_section_title
;
Structure prediction by ZEFSAII (Michael W. Deem and Ramdas Pophale) SiO2 
 PCOD9134531
Probable space group: C C
;
_chemical_formula_sum "Si O2"
_cell_formula_units_Z 32
_cell_length_a 9.685743
_cell_length_b 24.907482
_cell_length_c 14.850354
_cell_angle_alpha 90.000000
_cell_angle_beta 26.110055
_cell_angle_gamma 90.000000
_cell_volume 1576.695197
_symmetry_space_group_name_H-M "C C"
_symmetry_group_IT_number 9
_symmetry_cell_setting 'monoclinic'
loop_
_space_group_symop_operation_xyz
x,y,z
x,-y,1/2+z
1/2+x,1/2+y,z
1/2+x,1/2-y,1/2+z
loop_
_atom_site_type_symbol
_atom_site_label
_atom_site_fract_x
_atom_site_fract_y
_atom_site_fract_z
Si Si1 0.873300 0.936456 0.473610
Si Si2 0.658511 0.552013 0.324177
Si Si3 0.094306 0.172805 0.919732
Si Si4 0.648006 0.325450 0.034225
Si Si5 0.638714 0.131246 0.711501
Si Si6 0.917849 0.451444 0.474505
Si Si7 0.626249 0.562976 0.626351
Si Si8 0.632055 0.744685 0.721919
O O1 0.506063 0.942689 0.663276
O O2 0.936315 0.885347 0.499258
O O3 0.069118 0.926094 0.265802
O O4 0.012741 0.992960 0.426768
O O5 0.413327 0.595203 0.506013
O O6 0.709497 0.558703 0.186130
O O7 0.441066 0.162444 0.753083
O O8 0.070461 0.204003 0.839095
O O9 0.912233 0.215651 0.088314
O O10 0.313805 0.331565 0.181977
O O11 0.748261 0.385507 0.001780
O O12 0.664220 0.293345 0.117678
O O13 0.874495 0.288918 0.842512
O O14 0.401570 0.092546 0.905733
O O15 0.834831 0.510800 0.490886
O O16 0.279255 0.449598 0.293012
#
# Coordination Sequence:
#
# PCOD9134531 Si02
#       8
#     4   4   4   4   4   4   4   4
#     4  10  19  37  62  89 127 166 197 248 304 364
#     4  10  21  38  62  94 128 165 200 240 306 375
#     4  11  23  41  61  91 121 159 204 261 307 359
#     4  10  21  41  63  87 114 162 205 254 303 365
#     4  11  24  40  62  96 125 155 206 251 307 372
#     4   9  21  37  57  91 127 157 196 236 297 370
#     4   9  18  36  60  86 123 159 196 241 297 360
#     4  10  23  42  63  84 117 159 214 255 309 357
#
# _framework density 20.295615000000002
#
# number of rings (size 3 to 8) (size 9 to 14) (size 15 to 20)
#    0.000    2.000    1.250    1.500    0.000    8.000 
#    4.500    0.000    0.000    0.000    0.000    0.000 
#    0.000    0.000    0.000    0.000    0.000    0.000 
#
# Total GULP energy -89257.848753 kJ/mol
# GULP energy per Si atom -5578.615547 kJ/mol
# Density = 2.024942 g / cm^3
# Si number density = 20.295615 Si / 1000 Ang^3
#
#
#
# Elastic Constant Matrix: (Units=GPa)
#
#
# Indices 1 2 3 4 5 6 
#
# 1 59.2222 30.8772 14.0717 0.0002 -11.4852 -0.0004
# 2 30.8772 92.6938 42.4651 0.0004 -10.6060 -0.0001
# 3 14.0717 42.4651 63.7513 -0.0003 -2.7185 -0.0007
# 4 0.0002 0.0004 -0.0003 12.0160 0.0001 -27.9501
# 5 -11.4852 -10.6060 -2.7185 0.0001 22.6488 0.0004
# 6 -0.0004 -0.0001 -0.0007 -27.9501 0.0004 -1.9251
#
#
#
# Elastic Compliance Matrix: (Units=1/GPa)
#
#
# Indices 1 2 3 4 5 6 
#
# 1 0.021751 -0.006155 -0.000355 0.000000 0.008105 0.000000
# 2 -0.006155 0.018142 -0.010551 0.000000 0.004108 0.000000
# 3 -0.000355 -0.010551 0.022690 -0.000001 -0.002397 -0.000001
# 4 0.000000 0.000000 -0.000001 0.002393 0.000001 -0.034749
# 5 0.008105 0.004108 -0.002397 0.000001 0.049898 0.000001
# 6 0.000000 0.000000 -0.000001 -0.034749 0.000001 -0.014939
#
#
# Mechanical properties :
#
#
# Convention : Reuss Voigt Hill
#
# Bulk Modulus (GPa) = 35.13654 43.38836 39.26245
# Shear Modulus (GPa) = 34.83210 15.09817 24.96513
#
# Velocity S-wave (km/s) = 4.14724 2.73044 3.51105
# Velocity P-wave (km/s) = 6.34687 5.60044 5.98531
#
# Compressibility (1/GPa) = 0.02846040
#
# Stress axis : x y z
#
# Youngs Moduli (GPa) = 45.97471 55.12019 44.07211
#
# Poissons Ratio (x) = 0.33928 0.01566
# Poissons Ratio (y) = 0.28299 0.46499
# Poissons Ratio (z) = 0.01634 0.58156
#
# Static dielectric constant tensor:
#      x y z
#    x 1.736690 0.000000 0.037430 
#    y 0.000000 1.686650 0.000000 
#    z 0.037430 0.000000 1.804880 
# 
# From -- ./inp_files/10138.got.cif
#   From: 2010.05.17/outbox.cif.g08.bks.cpg/sg9_6_cif.got.tgz:10138.got - 2010.06.03 20:04:27.
