data_PCOD9134613
_publ_section_title
;
Structure prediction by ZEFSAII (Michael W. Deem and Ramdas Pophale) SiO2 
 PCOD9134613
Probable space group: C C
;
_chemical_formula_sum "Si O2"
_cell_formula_units_Z 24
_cell_length_a 7.919713
_cell_length_b 14.523896
_cell_length_c 11.992659
_cell_angle_alpha 90.000000
_cell_angle_beta 134.838617
_cell_angle_gamma 90.000000
_cell_volume 978.166723
_symmetry_space_group_name_H-M "C C"
_symmetry_group_IT_number 9
_symmetry_cell_setting 'monoclinic'
loop_
_space_group_symop_operation_xyz
x,y,z
x,-y,1/2+z
1/2+x,1/2+y,z
1/2+x,1/2-y,1/2+z
loop_
_atom_site_type_symbol
_atom_site_label
_atom_site_fract_x
_atom_site_fract_y
_atom_site_fract_z
Si Si1 0.663680 0.420571 0.527130
Si Si2 0.279766 0.627209 0.662926
Si Si3 0.303287 0.759727 0.009971
Si Si4 0.930962 0.468172 0.449338
Si Si5 0.635920 0.382793 0.131248
Si Si6 0.115069 0.132114 0.232439
O O1 0.449151 0.381762 0.350535
O O2 0.884088 0.422123 0.545596
O O3 0.588559 0.520282 0.543790
O O4 0.754381 0.368540 0.680396
O O5 0.052161 0.690235 0.586940
O O6 0.439103 0.650793 0.628805
O O7 0.161993 0.530240 0.569670
O O8 0.186937 0.809514 0.060335
O O9 0.354835 0.653659 0.063140
O O10 0.146049 0.783765 0.830550
O O11 0.867898 0.405364 0.315039
O O12 0.705343 0.541773 0.336185
#
# Coordination Sequence:
#
# PCOD9134613 Si02
#       6
#     4   4   4   4   4   4
#     4  10  19  38  64  90 121 160 217 263 305 386
#     4  10  21  35  64  88 124 166 205 266 324 359
#     4  11  22  42  59  90 129 173 206 264 321 386
#     4   9  20  40  62  96 122 164 213 270 309 375
#     4  10  21  37  60  91 127 155 221 256 311 390
#     4  10  21  38  65  87 125 168 208 257 324 368
#
# _framework density 24.535693999999999
#
# number of rings (size 3 to 8) (size 9 to 14) (size 15 to 20)
#    0.000    2.000    3.333    1.000    2.333    1.333 
#    3.000    6.667    0.000    0.000    0.000    0.000 
#    0.000    0.000    0.000    0.000    0.000    0.000 
#
# Total GULP energy -66923.069542 kJ/mol
# GULP energy per Si atom -5576.922462 kJ/mol
# Density = 2.447985 g / cm^3
# Si number density = 24.535694 Si / 1000 Ang^3
#
#
#
# Elastic Constant Matrix: (Units=GPa)
#
#
# Indices 1 2 3 4 5 6 
#
# 1 107.4748 9.6446 56.3072 0.0000 -18.3260 0.0000
# 2 9.6446 21.2891 0.3819 0.0000 -15.7319 0.0000
# 3 56.3072 0.3819 90.6815 0.0000 -29.5199 0.0000
# 4 0.0000 0.0000 0.0000 41.1843 0.0000 0.7806
# 5 -18.3260 -15.7319 -29.5199 0.0000 54.7510 0.0000
# 6 0.0000 0.0000 0.0000 0.7806 0.0000 25.3337
#
#
#
# Elastic Compliance Matrix: (Units=1/GPa)
#
#
# Indices 1 2 3 4 5 6 
#
# 1 0.014939 -0.008845 -0.010235 0.000000 -0.003059 0.000000
# 2 -0.008845 0.068165 0.012877 0.000000 0.023569 0.000000
# 3 -0.010235 0.012877 0.021126 0.000000 0.011665 0.000000
# 4 0.000000 0.000000 0.000000 0.024295 0.000000 -0.000749
# 5 -0.003059 0.023569 0.011665 0.000000 0.030302 0.000000
# 6 0.000000 0.000000 0.000000 -0.000749 0.000000 0.039496
#
#
# Mechanical properties :
#
#
# Convention : Reuss Voigt Hill
#
# Bulk Modulus (GPa) = 10.89028 39.12366 25.00697
# Shear Modulus (GPa) = 20.71814 34.46124 27.58969
#
# Velocity S-wave (km/s) = 2.90902 3.75178 3.35695
# Velocity P-wave (km/s) = 3.96628 5.89474 5.02391
#
# Compressibility (1/GPa) = 0.09182502
#
# Stress axis : x y z
#
# Youngs Moduli (GPa) = 66.94103 14.67032 47.33605
#
# Poissons Ratio (x) = 0.12976 0.48446
# Poissons Ratio (y) = 0.59208 -0.60956
# Poissons Ratio (z) = 0.68511 -0.18891
#
# Static dielectric constant tensor:
#      x y z
#    x 1.972810 0.000000 0.028750 
#    y 0.000000 2.062190 0.000000 
#    z 0.028750 0.000000 1.964350 
# 
# From -- ./inp_files/5132.got.cif
#   From: 2010.05.17/outbox.cif.g08.bks.cpg/sg9_3_cif.got.tgz:5132.got - 2010.06.03 20:04:27.
