data_PCOD9134095
_publ_section_title
;
Structure prediction by ZEFSAII (Michael W. Deem and Ramdas Pophale) SiO2 
 PCOD9134095
Probable space group: C C
;
_chemical_formula_sum "Si O2"
_cell_formula_units_Z 28
_cell_length_a 11.335447
_cell_length_b 13.676310
_cell_length_c 9.746876
_cell_angle_alpha 90.000000
_cell_angle_beta 64.258910
_cell_angle_gamma 90.000000
_cell_volume 1361.083945
_symmetry_space_group_name_H-M "C C"
_symmetry_group_IT_number 9
_symmetry_cell_setting 'monoclinic'
loop_
_space_group_symop_operation_xyz
x,y,z
x,-y,1/2+z
1/2+x,1/2+y,z
1/2+x,1/2-y,1/2+z
loop_
_atom_site_type_symbol
_atom_site_label
_atom_site_fract_x
_atom_site_fract_y
_atom_site_fract_z
Si Si1 0.073380 0.431027 0.272220
Si Si2 0.454171 0.340750 0.472269
Si Si3 0.710405 0.924312 0.493934
Si Si4 0.273398 0.947393 0.497134
Si Si5 0.894079 0.099726 0.305126
Si Si6 0.130043 0.013871 0.322116
Si Si7 0.661866 0.231496 0.510137
O O1 0.122710 0.411916 0.402955
O O2 0.918404 0.443683 0.365107
O O3 0.135899 0.526126 0.161828
O O4 0.115632 0.338929 0.156411
O O5 0.308739 0.335279 0.482398
O O6 0.430826 0.398498 0.627639
O O7 0.553756 0.410870 0.339636
O O8 0.537273 0.245411 0.471722
O O9 0.812640 0.993772 0.891969
O O10 0.182669 0.015838 0.448665
O O11 0.209314 0.839593 0.525258
O O12 0.255509 0.982270 0.660722
O O13 0.791963 0.186264 0.378859
O O14 0.024195 0.095687 0.332466
#
# Coordination Sequence:
#
# PCOD9134095 Si02
#       7
#     4   4   4   4   4   4   4
#     4  11  22  40  64  94 127 168 212 268 317 383
#     4  10  19  38  62  91 123 160 211 259 315 379
#     4  10  21  37  66  94 117 167 216 257 315 381
#     4  11  22  38  61  93 125 163 211 267 312 379
#     4  10  18  36  61  89 121 159 207 257 311 380
#     4  10  20  35  62  90 116 162 212 253 308 377
#     4  10  22  36  64  89 127 167 205 263 328 371
#
# _framework density 20.571839000000001
#
# number of rings (size 3 to 8) (size 9 to 14) (size 15 to 20)
#    0.000    1.714    4.286    1.714    0.000    0.000 
#    0.000    1.429   12.571    0.000    0.000    0.000 
#    0.000    0.000    0.000    0.000    0.000    0.000 
#
# Total GULP energy -77994.198114 kJ/mol
# GULP energy per Si atom -5571.014151 kJ/mol
# Density = 2.052502 g / cm^3
# Si number density = 20.571839 Si / 1000 Ang^3
#
#
#
# Elastic Constant Matrix: (Units=GPa)
#
#
# Indices 1 2 3 4 5 6 
#
# 1 133.8847 29.7200 34.7201 0.0000 -3.3002 0.0000
# 2 29.7200 31.2063 19.8232 0.0000 -1.7748 0.0000
# 3 34.7201 19.8232 92.6947 0.0000 -16.8242 0.0000
# 4 0.0000 0.0000 0.0000 18.1430 0.0000 -4.2459
# 5 -3.3002 -1.7748 -16.8242 0.0000 40.0098 0.0000
# 6 0.0000 0.0000 0.0000 -4.2459 0.0000 37.3895
#
#
#
# Elastic Compliance Matrix: (Units=1/GPa)
#
#
# Indices 1 2 3 4 5 6 
#
# 1 0.009767 -0.008048 -0.002009 0.000000 -0.000396 0.000000
# 2 -0.008048 0.043838 -0.006634 0.000000 -0.001509 0.000000
# 3 -0.002009 -0.006634 0.013940 0.000000 0.005402 0.000000
# 4 0.000000 0.000000 0.000000 0.056622 0.000000 0.006430
# 5 -0.000396 -0.001509 0.005402 0.000000 0.027166 0.000000
# 6 0.000000 0.000000 0.000000 0.006430 0.000000 0.027476
#
#
# Mechanical properties :
#
#
# Convention : Reuss Voigt Hill
#
# Bulk Modulus (GPa) = 29.27247 47.36803 38.32025
# Shear Modulus (GPa) = 22.36350 30.67663 26.52006
#
# Velocity S-wave (km/s) = 3.30069 3.86579 3.59436
# Velocity P-wave (km/s) = 5.36529 6.55755 5.99115
#
# Compressibility (1/GPa) = 0.03416179
#
# Stress axis : x y z
#
# Youngs Moduli (GPa) = 102.38691 22.81127 71.73673
#
# Poissons Ratio (x) = 0.18358 0.14413
# Poissons Ratio (y) = 0.82400 0.47593
# Poissons Ratio (z) = 0.20571 0.15134
#
# Static dielectric constant tensor:
#      x y z
#    x 1.790990 0.000000 0.003730 
#    y 0.000000 1.770780 0.000000 
#    z 0.003730 0.000000 1.722440 
# 
# From -- ./inp_files/7182.got.cif
#   From: 2010.05.17/outbox.cif.g08.bks.cpg/sg9_4_cif.got.tgz:7182.got - 2010.06.03 20:04:27.
