data_PCOD9134000
_publ_section_title
;
Structure prediction by ZEFSAII (Michael W. Deem and Ramdas Pophale) SiO2 
 PCOD9134000
Probable space group: C C
;
_chemical_formula_sum "Si O2"
_cell_formula_units_Z 32
_cell_length_a 12.265613
_cell_length_b 18.852766
_cell_length_c 11.873112
_cell_angle_alpha 90.000000
_cell_angle_beta 138.369670
_cell_angle_gamma 90.000000
_cell_volume 1823.927270
_symmetry_space_group_name_H-M "C C"
_symmetry_group_IT_number 9
_symmetry_cell_setting 'monoclinic'
loop_
_space_group_symop_operation_xyz
x,y,z
x,-y,1/2+z
1/2+x,1/2+y,z
1/2+x,1/2-y,1/2+z
loop_
_atom_site_type_symbol
_atom_site_label
_atom_site_fract_x
_atom_site_fract_y
_atom_site_fract_z
Si Si1 0.336380 0.350165 0.358650
Si Si2 0.220507 0.034320 0.688893
Si Si3 0.445411 0.091222 0.292736
Si Si4 0.257109 0.477443 0.153961
Si Si5 0.981382 0.704431 0.514874
Si Si6 0.481593 0.037395 0.085693
Si Si7 0.975039 0.952430 0.638549
Si Si8 0.286973 0.102339 0.508037
O O1 0.352176 0.408894 0.273974
O O2 0.462646 0.286282 0.469894
O O3 0.355158 0.398621 0.482874
O O4 0.161730 0.314757 0.198130
O O5 0.229780 0.089208 0.592295
O O6 0.288786 0.959053 0.693834
O O7 0.352005 0.055418 0.886890
O O8 0.047075 0.014528 0.612637
O O9 0.604571 0.049257 0.461075
O O10 0.439462 0.159236 0.369350
O O11 0.468658 0.093777 0.176566
O O12 0.163072 0.523192 0.176938
O O13 0.381453 0.518952 0.173641
O O14 0.863597 0.675946 0.524273
O O15 0.420505 0.960147 0.085065
O O16 0.135710 0.913345 0.809144
#
# Coordination Sequence:
#
# PCOD9134000 Si02
#       8
#     4   4   4   4   4   4   4   4
#     4  11  23  36  55  85 113 149 191 230 287 337
#     4   9  18  31  53  82 112 144 186 234 280 328
#     4   9  17  32  53  77 113 144 187 228 282 334
#     4  10  19  32  54  85 113 145 186 242 283 328
#     4  11  21  37  55  81 115 151 187 231 282 349
#     4   9  16  31  54  82 108 146 187 231 283 326
#     4  11  20  33  54  87 113 147 186 243 283 327
#     4  10  18  34  52  79 113 144 188 231 282 331
#
# _framework density 17.544559
#
# number of rings (size 3 to 8) (size 9 to 14) (size 15 to 20)
#    0.000    2.000    5.000    2.250    3.500    0.000 
#    0.000    0.000    0.000    1.500    3.250    0.000 
#    0.000    0.000    0.000    0.000    0.000    0.000 
#
# Total GULP energy -89138.826883 kJ/mol
# GULP energy per Si atom -5571.176680 kJ/mol
# Density = 1.750463 g / cm^3
# Si number density = 17.544559 Si / 1000 Ang^3
#
#
#
# Elastic Constant Matrix: (Units=GPa)
#
#
# Indices 1 2 3 4 5 6 
#
# 1 102.1264 27.5591 32.6530 0.0000 -9.5313 0.0000
# 2 27.5591 53.6972 36.5526 0.0000 -2.8770 0.0000
# 3 32.6530 36.5526 65.1275 0.0000 -16.4762 0.0000
# 4 0.0000 0.0000 0.0000 19.1065 0.0000 3.6706
# 5 -9.5313 -2.8770 -16.4762 0.0000 28.1213 0.0000
# 6 0.0000 0.0000 0.0000 3.6706 0.0000 11.2746
#
#
#
# Elastic Compliance Matrix: (Units=1/GPa)
#
#
# Indices 1 2 3 4 5 6 
#
# 1 0.012080 -0.003672 -0.003587 0.000000 0.001617 0.000000
# 2 -0.003672 0.032874 -0.018871 0.000000 -0.008938 0.000000
# 3 -0.003587 -0.018871 0.031637 0.000000 0.015390 0.000000
# 4 0.000000 0.000000 0.000000 0.055830 0.000000 -0.018176
# 5 0.001617 -0.008938 0.015390 0.000000 0.044211 0.000000
# 6 0.000000 0.000000 0.000000 -0.018176 0.000000 0.094612
#
#
# Mechanical properties :
#
#
# Convention : Reuss Voigt Hill
#
# Bulk Modulus (GPa) = 41.09584 46.05340 43.57462
# Shear Modulus (GPa) = 15.07774 19.97958 17.52866
#
# Velocity S-wave (km/s) = 2.93473 3.37826 3.16427
# Velocity P-wave (km/s) = 5.91253 6.44385 6.18390
#
# Compressibility (1/GPa) = 0.02433336
#
# Stress axis : x y z
#
# Youngs Moduli (GPa) = 82.77880 30.41904 31.60825
#
# Poissons Ratio (x) = 0.11169 0.11337
# Poissons Ratio (y) = 0.30394 0.59647
# Poissons Ratio (z) = 0.29691 0.57403
#
# Static dielectric constant tensor:
#      x y z
#    x 1.631560 0.000000 -0.003650 
#    y 0.000000 1.583600 0.000000 
#    z -0.003650 0.000000 1.640140 
# 
# From -- ./inp_files/7882.got.cif
#   From: 2010.05.17/outbox.cif.g08.bks.cpg/sg9_4_cif.got.tgz:7882.got - 2010.06.03 20:04:27.
