data_PCOD9134182
_publ_section_title
;
Structure prediction by ZEFSAII (Michael W. Deem and Ramdas Pophale) SiO2 
 PCOD9134182
Probable space group: C C
;
_chemical_formula_sum "Si O2"
_cell_formula_units_Z 32
_cell_length_a 16.376545
_cell_length_b 8.980894
_cell_length_c 25.770503
_cell_angle_alpha 90.000000
_cell_angle_beta 24.091625
_cell_angle_gamma 90.000000
_cell_volume 1547.157706
_symmetry_space_group_name_H-M "C C"
_symmetry_group_IT_number 9
_symmetry_cell_setting 'monoclinic'
loop_
_space_group_symop_operation_xyz
x,y,z
x,-y,1/2+z
1/2+x,1/2+y,z
1/2+x,1/2-y,1/2+z
loop_
_atom_site_type_symbol
_atom_site_label
_atom_site_fract_x
_atom_site_fract_y
_atom_site_fract_z
Si Si1 0.590000 0.108057 0.126400
Si Si2 0.644682 0.200305 0.556621
Si Si3 0.310799 0.085666 0.048074
Si Si4 0.245112 0.291271 0.287536
Si Si5 0.716920 0.982992 0.666174
Si Si6 0.861549 0.645886 0.427541
Si Si7 0.023261 0.976201 0.567342
Si Si8 0.100677 0.180667 0.265207
O O1 0.394695 0.212597 0.240506
O O2 0.683845 0.068871 0.127276
O O3 0.534152 0.951080 0.133461
O O4 0.756851 0.196241 0.996203
O O5 0.687605 0.298953 0.583235
O O6 0.539425 0.308299 0.577264
O O7 0.865696 0.159600 0.408107
O O8 0.197741 0.069771 0.167708
O O9 0.529343 0.155592 0.931929
O O10 0.335733 0.942108 0.997070
O O11 0.363694 0.432302 0.194788
O O12 0.202061 0.184495 0.263026
O O13 0.587682 0.872571 0.777763
O O14 0.943474 0.984720 0.555333
O O15 0.635540 0.150432 0.723404
O O16 0.732346 0.555341 0.459456
#
# Coordination Sequence:
#
# PCOD9134182 Si02
#       8
#     4   4   4   4   4   4   4   4
#     4  11  24  38  61  97 123 157 204 268 309 357
#     4  10  20  39  58  93 124 154 204 259 302 364
#     4  10  18  39  65  86 116 170 210 242 306 377
#     4   9  20  38  59  92 120 161 207 255 308 363
#     4  11  20  40  64  90 119 168 208 245 319 369
#     4  10  21  41  62  87 128 157 206 262 302 373
#     4   9  18  39  66  82 120 167 200 247 310 368
#     4  10  19  38  65  87 120 168 205 248 304 377
#
# _framework density 20.683088999999999
#
# number of rings (size 3 to 8) (size 9 to 14) (size 15 to 20)
#    0.000    2.000    6.250    0.000    0.000    4.000 
#    6.750    5.000    0.000    0.000    0.000    0.000 
#    0.000    0.000    0.000    0.000    0.000    0.000 
#
# Total GULP energy -89319.960051 kJ/mol
# GULP energy per Si atom -5582.497503 kJ/mol
# Density = 2.063601 g / cm^3
# Si number density = 20.683089 Si / 1000 Ang^3
#
#
#
# Elastic Constant Matrix: (Units=GPa)
#
#
# Indices 1 2 3 4 5 6 
#
# 1 98.5620 12.6168 14.1825 -0.0009 -12.7926 -0.0003
# 2 12.6168 64.4798 -20.0772 -0.0014 -5.6391 -0.0016
# 3 14.1825 -20.0772 21.6075 -0.0118 -2.4103 -0.0001
# 4 -0.0009 -0.0014 -0.0118 16.7422 0.0016 2.1656
# 5 -12.7926 -5.6391 -2.4103 0.0016 27.9888 -0.0027
# 6 -0.0003 -0.0016 -0.0001 2.1656 -0.0027 16.4318
#
#
#
# Elastic Compliance Matrix: (Units=1/GPa)
#
#
# Indices 1 2 3 4 5 6 
#
# 1 0.013700 -0.007107 -0.015203 -0.000011 0.003521 0.000001
# 2 -0.007107 0.026630 0.029932 0.000023 0.004695 0.000000
# 3 -0.015203 0.029932 0.084783 0.000062 0.006383 -0.000004
# 4 -0.000011 0.000023 0.000062 0.060765 0.000000 -0.008008
# 5 0.003521 0.004695 0.006383 0.000000 0.038834 0.000007
# 6 0.000001 0.000000 -0.000004 -0.008008 0.000007 0.061913
#
#
# Mechanical properties :
#
#
# Convention : Reuss Voigt Hill
#
# Bulk Modulus (GPa) = 7.12461 22.01039 14.56750
# Shear Modulus (GPa) = 15.71509 24.09437 19.90473
#
# Velocity S-wave (km/s) = 2.75944 3.41681 3.10557
# Velocity P-wave (km/s) = 3.68847 5.12162 4.46295
#
# Compressibility (1/GPa) = 0.14035851
#
# Stress axis : x y z
#
# Youngs Moduli (GPa) = 72.99184 37.55182 11.79481
#
# Poissons Ratio (x) = 0.26686 0.17931
# Poissons Ratio (y) = 0.51872 -0.35304
# Poissons Ratio (z) = 1.10968 -1.12400
#
# Static dielectric constant tensor:
#      x y z
#    x 1.754020 0.000000 0.002680 
#    y 0.000000 1.729920 0.000000 
#    z 0.002680 0.000000 1.730930 
# 
# From -- ./inp_files/19169.got.cif
#   From: 2010.05.17/outbox.cif.g08.bks.cpg/sg9_10_cif.got.tgz:19169.got - 2010.06.03 20:04:27.
