data_PCOD9134816
_publ_section_title
;
Structure prediction by ZEFSAII (Michael W. Deem and Ramdas Pophale) SiO2 
 PCOD9134816
Probable space group: C C
;
_chemical_formula_sum "Si O2"
_cell_formula_units_Z 28
_cell_length_a 9.163656
_cell_length_b 17.068336
_cell_length_c 6.787992
_cell_angle_alpha 90.000000
_cell_angle_beta 79.089406
_cell_angle_gamma 90.000000
_cell_volume 1042.507144
_symmetry_space_group_name_H-M "C C"
_symmetry_group_IT_number 9
_symmetry_cell_setting 'monoclinic'
loop_
_space_group_symop_operation_xyz
x,y,z
x,-y,1/2+z
1/2+x,1/2+y,z
1/2+x,1/2-y,1/2+z
loop_
_atom_site_type_symbol
_atom_site_label
_atom_site_fract_x
_atom_site_fract_y
_atom_site_fract_z
Si Si1 0.405080 0.485619 0.496500
Si Si2 0.735223 0.717682 0.787351
Si Si3 0.208737 0.636709 0.568803
Si Si4 0.876975 0.397940 0.562397
Si Si5 0.421768 0.923029 0.980244
Si Si6 0.132914 0.994243 0.184206
Si Si7 0.878532 0.811115 0.414052
O O1 0.286782 0.554386 0.509033
O O2 0.596025 0.488651 0.443226
O O3 0.447446 0.512517 0.729662
O O4 0.360623 0.395203 0.526682
O O5 0.754331 0.575552 0.618082
O O6 0.556989 0.695808 0.823617
O O7 0.735489 0.801909 0.892357
O O8 0.835594 0.668758 0.919792
O O9 0.276310 0.676339 0.747381
O O10 0.037254 0.613904 0.600377
O O11 0.939209 0.481165 0.461327
O O12 0.714919 0.422759 0.685118
O O13 0.953863 0.386409 0.755498
O O14 0.315361 0.760874 0.058990
#
# Coordination Sequence:
#
# PCOD9134816 Si02
#       7
#     4   4   4   4   4   4   4
#     4  12  22  48  85 124 166 223 300 358 425 524
#     4  12  31  57  83 127 177 242 288 367 454 524
#     4  12  31  51  85 132 175 225 294 377 438 523
#     4  10  23  48  86 126 170 224 299 359 433 539
#     4  10  24  46  82 132 167 224 293 368 433 525
#     4  10  19  42  81 124 159 218 287 352 432 518
#     4  12  30  58  86 123 180 234 295 363 451 531
#
# _framework density 26.858328
#
# number of rings (size 3 to 8) (size 9 to 14) (size 15 to 20)
#    0.857    0.000    4.286    0.857    4.000    3.429 
#    0.000    0.000    0.000    0.000    0.000    0.000 
#    0.000    0.000    0.000    0.000    0.000    0.000 
#
# Total GULP energy -78156.098090 kJ/mol
# GULP energy per Si atom -5582.578435 kJ/mol
# Density = 2.679720 g / cm^3
# Si number density = 26.858328 Si / 1000 Ang^3
#
#
#
# Elastic Constant Matrix: (Units=GPa)
#
#
# Indices 1 2 3 4 5 6 
#
# 1 139.2232 71.4670 99.0466 0.0000 11.3264 0.0000
# 2 71.4670 126.5204 55.8060 0.0000 -8.6222 0.0000
# 3 99.0466 55.8060 202.1711 0.0000 2.1514 0.0000
# 4 0.0000 0.0000 0.0000 65.0079 0.0000 -0.7916
# 5 11.3264 -8.6222 2.1514 0.0000 49.2197 0.0000
# 6 0.0000 0.0000 0.0000 -0.7916 0.0000 52.6796
#
#
#
# Elastic Compliance Matrix: (Units=1/GPa)
#
#
# Indices 1 2 3 4 5 6 
#
# 1 0.014458 -0.006086 -0.005359 0.000000 -0.004159 0.000000
# 2 -0.006086 0.011704 -0.000286 0.000000 0.003463 0.000000
# 3 -0.005359 -0.000286 0.007641 0.000000 0.000849 0.000000
# 4 0.000000 0.000000 0.000000 0.015386 0.000000 0.000231
# 5 -0.004159 0.003463 0.000849 0.000000 0.021844 0.000000
# 6 0.000000 0.000000 0.000000 0.000231 0.000000 0.018986
#
#
# Mechanical properties :
#
#
# Convention : Reuss Voigt Hill
#
# Bulk Modulus (GPa) = 96.69908 102.28377 99.49142
# Shear Modulus (GPa) = 42.76159 49.48779 46.12469
#
# Velocity S-wave (km/s) = 3.99446 4.29715 4.14857
# Velocity P-wave (km/s) = 7.57336 7.92376 7.75054
#
# Compressibility (1/GPa) = 0.01034136
#
# Stress axis : x y z
#
# Youngs Moduli (GPa) = 69.16721 85.44145 130.86521
#
# Poissons Ratio (x) = 0.52003 0.70127
# Poissons Ratio (y) = 0.42098 0.03739
# Poissons Ratio (z) = 0.37065 0.02441
#
# Static dielectric constant tensor:
#      x y z
#    x 2.143140 0.000000 0.006940 
#    y 0.000000 2.084480 0.000000 
#    z 0.006940 0.000000 2.357110 
# 
# From -- ./inp_files/7187.got.cif
#   From: 2010.05.17/outbox.cif.g08.bks.cpg/sg9_4_cif.got.tgz:7187.got - 2010.06.03 20:04:27.
