data_PCOD9134076
_publ_section_title
;
Structure prediction by ZEFSAII (Michael W. Deem and Ramdas Pophale) SiO2 
 PCOD9134076
Probable space group: C C
;
_chemical_formula_sum "Si O2"
_cell_formula_units_Z 32
_cell_length_a 9.816962
_cell_length_b 10.858159
_cell_length_c 19.366541
_cell_angle_alpha 90.000000
_cell_angle_beta 41.028616
_cell_angle_gamma 90.000000
_cell_volume 1355.119762
_symmetry_space_group_name_H-M "C C"
_symmetry_group_IT_number 9
_symmetry_cell_setting 'monoclinic'
loop_
_space_group_symop_operation_xyz
x,y,z
x,-y,1/2+z
1/2+x,1/2+y,z
1/2+x,1/2-y,1/2+z
loop_
_atom_site_type_symbol
_atom_site_label
_atom_site_fract_x
_atom_site_fract_y
_atom_site_fract_z
Si Si1 0.790110 0.639967 0.977460
Si Si2 0.724009 0.917537 0.133041
Si Si3 0.601098 0.704803 0.420079
Si Si4 0.887052 0.703092 0.437480
Si Si5 0.162867 0.063709 0.635283
Si Si6 0.059183 0.056891 0.932469
Si Si7 0.746202 0.040692 0.269040
Si Si8 0.424400 0.196511 0.650464
O O1 0.714392 0.570092 0.937971
O O2 0.021572 0.690863 0.899326
O O3 0.733653 0.558929 0.066398
O O4 0.639808 0.761006 0.031384
O O5 0.711795 0.956853 0.215689
O O6 0.506223 0.874652 0.186318
O O7 0.828082 0.031117 0.051996
O O8 0.902956 0.816689 0.047891
O O9 0.793651 0.722275 0.397028
O O10 0.619285 0.572811 0.374974
O O11 0.705750 0.671531 0.561970
O O12 0.026776 0.820268 0.402856
O O13 0.036340 0.583750 0.385264
O O14 0.926306 0.027098 0.742834
O O15 0.290574 0.110194 0.652138
O O16 0.823725 0.173079 0.208657
#
# Coordination Sequence:
#
# PCOD9134076 Si02
#       8
#     4   4   4   4   4   4   4   4
#     4  10  18  35  64  86 120 152 201 255 301 366
#     4   9  18  39  62  81 118 160 198 251 304 361
#     4   9  20  36  59  91 112 164 203 246 304 367
#     4  12  22  37  67  91 123 172 205 258 313 371
#     4  11  20  42  64  88 125 164 206 252 320 364
#     4  10  19  37  59  88 118 155 206 247 305 363
#     4  11  23  42  57  92 132 159 211 260 310 365
#     4  10  20  38  60  87 118 164 204 255 305 371
#
# _framework density 23.614149000000001
#
# number of rings (size 3 to 8) (size 9 to 14) (size 15 to 20)
#    0.750    1.000    6.250    0.000    1.750    1.000 
#    2.250    1.250    0.000    0.000    0.000    0.000 
#    0.000    0.000    0.000    0.000    0.000    0.000 
#
# Total GULP energy -89272.898358 kJ/mol
# GULP energy per Si atom -5579.556147 kJ/mol
# Density = 2.356040 g / cm^3
# Si number density = 23.614149 Si / 1000 Ang^3
#
#
#
# Elastic Constant Matrix: (Units=GPa)
#
#
# Indices 1 2 3 4 5 6 
#
# 1 158.1748 74.4155 20.7075 0.0000 -26.0512 0.0000
# 2 74.4155 108.4666 15.1189 0.0000 -3.1286 0.0000
# 3 20.7075 15.1189 50.8562 0.0000 -15.7945 0.0000
# 4 0.0000 0.0000 0.0000 37.0023 0.0000 -2.3437
# 5 -26.0512 -3.1286 -15.7945 0.0000 24.4788 0.0000
# 6 0.0000 0.0000 0.0000 -2.3437 0.0000 51.8214
#
#
#
# Elastic Compliance Matrix: (Units=1/GPa)
#
#
# Indices 1 2 3 4 5 6 
#
# 1 0.012031 -0.008090 0.001453 0.000000 0.012707 0.000000
# 2 -0.008090 0.015070 -0.004079 0.000000 -0.009315 0.000000
# 3 0.001453 -0.004079 0.025766 0.000000 0.017650 0.000000
# 4 0.000000 0.000000 0.000000 0.027103 0.000000 0.001226
# 5 0.012707 -0.009315 0.017650 0.000000 0.064572 0.000000
# 6 0.000000 0.000000 0.000000 0.001226 0.000000 0.019352
#
#
# Mechanical properties :
#
#
# Convention : Reuss Voigt Hill
#
# Bulk Modulus (GPa) = 31.81284 59.77569 45.79427
# Shear Modulus (GPa) = 25.53571 36.47755 31.00663
#
# Velocity S-wave (km/s) = 3.29199 3.93457 3.62754
# Velocity P-wave (km/s) = 5.28685 6.78304 6.08114
#
# Compressibility (1/GPa) = 0.03143385
#
# Stress axis : x y z
#
# Youngs Moduli (GPa) = 83.12042 66.35915 38.81098
#
# Poissons Ratio (x) = 0.53684 -0.05638
# Poissons Ratio (y) = 0.67243 0.15831
# Poissons Ratio (z) = -0.12076 0.27068
#
# Static dielectric constant tensor:
#      x y z
#    x 1.869290 0.000000 -0.066200 
#    y 0.000000 1.940100 0.000000 
#    z -0.066200 0.000000 1.994730 
# 
# From -- ./inp_files/32557.got.cif
#   From: 2010.05.17/outbox.cif.g08.bks.cpg/sg9_17_cif.got.tgz:32557.got - 2010.06.03 20:04:27.
