data_PCOD9134536
_publ_section_title
;
Structure prediction by ZEFSAII (Michael W. Deem and Ramdas Pophale) SiO2 
 PCOD9134536
Probable space group: C C
;
_chemical_formula_sum "Si O2"
_cell_formula_units_Z 28
_cell_length_a 11.819789
_cell_length_b 9.181575
_cell_length_c 16.639370
_cell_angle_alpha 90.000000
_cell_angle_beta 146.308888
_cell_angle_gamma 90.000000
_cell_volume 1001.691489
_symmetry_space_group_name_H-M "C C"
_symmetry_group_IT_number 9
_symmetry_cell_setting 'monoclinic'
loop_
_space_group_symop_operation_xyz
x,y,z
x,-y,1/2+z
1/2+x,1/2+y,z
1/2+x,1/2-y,1/2+z
loop_
_atom_site_type_symbol
_atom_site_label
_atom_site_fract_x
_atom_site_fract_y
_atom_site_fract_z
Si Si1 0.754940 0.937471 0.074100
Si Si2 0.937390 0.801342 0.759838
Si Si3 0.636077 0.497564 0.688259
Si Si4 0.071804 0.275798 0.839529
Si Si5 0.816937 0.515328 0.957019
Si Si6 0.634350 0.162983 0.731093
Si Si7 0.893613 0.091492 0.410277
O O1 0.871089 0.814765 0.196275
O O2 0.760629 0.094609 0.119179
O O3 0.917972 0.963560 0.099142
O O4 0.560852 0.880849 0.909866
O O5 0.998299 0.673721 0.732991
O O6 0.911720 0.815652 0.840061
O O7 0.147144 0.893943 0.872669
O O8 0.792947 0.549996 0.849014
O O9 0.639824 0.322444 0.695106
O O10 0.605926 0.585406 0.587281
O O11 0.186960 0.355215 0.833813
O O12 0.242491 0.153785 0.962307
O O13 0.024448 0.444458 0.104354
O O14 0.847993 0.081918 0.871532
#
# Coordination Sequence:
#
# PCOD9134536 Si02
#       7
#     4   4   4   4   4   4   4
#     4   8  16  33  54  75 114 151 186 239 306 350
#     4   9  21  38  56  91 122 155 206 253 307 373
#     4   8  17  33  58  79 117 163 191 240 316 365
#     4   9  17  32  58  78 110 157 191 238 306 361
#     4   9  18  37  58  82 119 158 193 247 321 359
#     4  10  19  37  63  84 123 165 203 253 313 368
#     4  11  20  36  63  89 119 161 206 254 307 376
#
# _framework density 27.952717
#
# number of rings (size 3 to 8) (size 9 to 14) (size 15 to 20)
#    0.000    3.429    0.000    2.571    0.000    0.000 
#   15.429    0.000    0.000    0.000    0.000    0.000 
#    0.000    0.000    0.000    0.000    0.000    0.000 
#
# Total GULP energy -78220.537031 kJ/mol
# GULP energy per Si atom -5587.181217 kJ/mol
# Density = 2.788910 g / cm^3
# Si number density = 27.952717 Si / 1000 Ang^3
#
#
#
# Elastic Constant Matrix: (Units=GPa)
#
#
# Indices 1 2 3 4 5 6 
#
# 1 128.9750 37.6047 40.1776 0.0003 -7.9487 0.0000
# 2 37.6047 74.5611 22.2127 0.0007 -22.0489 0.0004
# 3 40.1776 22.2127 121.5605 0.0009 -35.5239 0.0006
# 4 0.0003 0.0007 0.0009 41.6946 0.0006 -8.7356
# 5 -7.9487 -22.0489 -35.5239 0.0006 33.5098 0.0003
# 6 0.0000 0.0004 0.0006 -8.7356 0.0003 35.5581
#
#
#
# Elastic Compliance Matrix: (Units=1/GPa)
#
#
# Indices 1 2 3 4 5 6 
#
# 1 0.010295 -0.005627 -0.003974 0.000000 -0.005473 0.000000
# 2 -0.005627 0.019732 0.002402 -0.000001 0.014195 -0.000001
# 3 -0.003974 0.002402 0.013456 -0.000001 0.014903 -0.000001
# 4 0.000000 -0.000001 -0.000001 0.025285 -0.000002 0.006212
# 5 -0.005473 0.014195 0.014903 -0.000002 0.053683 -0.000001
# 6 0.000000 -0.000001 -0.000001 0.006212 -0.000001 0.029649
#
#
# Mechanical properties :
#
#
# Convention : Reuss Voigt Hill
#
# Bulk Modulus (GPa) = 34.38050 58.34294 46.36172
# Shear Modulus (GPa) = 28.37844 37.15929 32.76887
#
# Velocity S-wave (km/s) = 3.18972 3.65000 3.42760
# Velocity P-wave (km/s) = 5.08842 6.21938 5.68211
#
# Compressibility (1/GPa) = 0.02908625
#
# Stress axis : x y z
#
# Youngs Moduli (GPa) = 97.13894 50.68006 74.31754
#
# Poissons Ratio (x) = 0.28516 0.29531
# Poissons Ratio (y) = 0.54656 -0.17854
# Poissons Ratio (z) = 0.38600 -0.12176
#
# Static dielectric constant tensor:
#      x y z
#    x 2.287470 0.000000 -0.037070 
#    y 0.000000 2.202030 0.000000 
#    z -0.037070 0.000000 2.242100 
# 
# From -- ./inp_files/30628.got.cif
#   From: 2010.05.17/outbox.cif.g08.bks.cpg/sg9_16_cif.got.tgz:30628.got - 2010.06.03 20:04:27.
