data_PCOD9134547
_publ_section_title
;
Structure prediction by ZEFSAII (Michael W. Deem and Ramdas Pophale) SiO2 
 PCOD9134547
Probable space group: C C
;
_chemical_formula_sum "Si O2"
_cell_formula_units_Z 24
_cell_length_a 12.649142
_cell_length_b 19.138902
_cell_length_c 10.161312
_cell_angle_alpha 90.000000
_cell_angle_beta 154.062867
_cell_angle_gamma 90.000000
_cell_volume 1075.948425
_symmetry_space_group_name_H-M "C C"
_symmetry_group_IT_number 9
_symmetry_cell_setting 'monoclinic'
loop_
_space_group_symop_operation_xyz
x,y,z
x,-y,1/2+z
1/2+x,1/2+y,z
1/2+x,1/2-y,1/2+z
loop_
_atom_site_type_symbol
_atom_site_label
_atom_site_fract_x
_atom_site_fract_y
_atom_site_fract_z
Si Si1 0.911860 0.790038 0.347800
Si Si2 0.392504 0.472522 0.696199
Si Si3 0.550250 0.103238 0.981904
Si Si4 0.195561 0.876713 0.863545
Si Si5 0.335711 0.947889 0.770954
Si Si6 0.112814 0.606032 0.344472
O O1 0.161459 0.752868 0.582948
O O2 0.000051 0.823963 0.584462
O O3 0.825753 0.848653 0.147811
O O4 0.296870 0.408210 0.676427
O O5 0.548391 0.443043 0.751769
O O6 0.194823 0.525541 0.420456
O O7 0.565168 0.522593 0.973476
O O8 0.362817 0.141804 0.675280
O O9 0.477062 0.021027 0.917118
O O10 0.555968 0.133058 0.135020
O O11 0.368128 0.901108 0.936552
O O12 0.401117 0.901547 0.716298
#
# Coordination Sequence:
#
# PCOD9134547 Si02
#       6
#     4   4   4   4   4   4
#     4  12  29  51  75  96 138 205 259 287 333 430
#     4  10  20  35  69 107 143 177 216 296 377 426
#     4  10  22  36  64 109 144 172 217 295 381 422
#     4  11  23  42  68 101 140 183 236 293 355 425
#     4  10  19  37  64 104 145 183 220 278 367 444
#     4  11  23  41  68 101 144 180 236 293 357 429
#
# _framework density 22.305903000000001
#
# number of rings (size 3 to 8) (size 9 to 14) (size 15 to 20)
#    0.000    1.333    1.667    5.000    7.000    1.333 
#    0.000    1.667    0.000    0.000    0.000    0.000 
#    0.000    0.000    0.000    0.000    0.000    0.000 
#
# Total GULP energy -66898.321008 kJ/mol
# GULP energy per Si atom -5574.860084 kJ/mol
# Density = 2.225513 g / cm^3
# Si number density = 22.305903 Si / 1000 Ang^3
#
#
#
# Elastic Constant Matrix: (Units=GPa)
#
#
# Indices 1 2 3 4 5 6 
#
# 1 118.9309 16.1293 69.9964 0.0002 -26.3814 0.0001
# 2 16.1293 42.2110 31.9611 0.0000 0.4999 0.0000
# 3 69.9964 31.9611 126.2326 0.0008 -16.9129 0.0008
# 4 0.0002 0.0000 0.0008 35.6164 0.0002 0.3999
# 5 -26.3814 0.4999 -16.9129 0.0002 36.9192 0.0001
# 6 0.0001 0.0000 0.0008 0.3999 0.0001 11.8661
#
#
#
# Elastic Compliance Matrix: (Units=1/GPa)
#
#
# Indices 1 2 3 4 5 6 
#
# 1 0.013936 -0.000314 -0.006726 0.000000 0.006881 0.000000
# 2 -0.000314 0.029895 -0.007969 0.000000 -0.004279 0.000001
# 3 -0.006726 -0.007969 0.013892 0.000000 0.001666 -0.000001
# 4 0.000000 0.000000 0.000000 0.028088 0.000000 -0.000947
# 5 0.006881 -0.004279 0.001666 0.000000 0.032824 0.000000
# 6 0.000000 0.000001 -0.000001 -0.000947 0.000000 0.084306
#
#
# Mechanical properties :
#
#
# Convention : Reuss Voigt Hill
#
# Bulk Modulus (GPa) = 36.09311 58.17200 47.13256
# Shear Modulus (GPa) = 20.64476 28.16618 24.40547
#
# Velocity S-wave (km/s) = 3.04555 3.55734 3.31135
# Velocity P-wave (km/s) = 5.34633 6.55810 5.98297
#
# Compressibility (1/GPa) = 0.02770612
#
# Stress axis : x y z
#
# Youngs Moduli (GPa) = 71.75787 33.45084 71.98258
#
# Poissons Ratio (x) = 0.01049 0.48416
# Poissons Ratio (y) = 0.02251 0.57359
# Poissons Ratio (z) = 0.48265 0.26655
#
# Static dielectric constant tensor:
#      x y z
#    x 1.899000 0.000000 0.005870 
#    y 0.000000 1.844600 0.000000 
#    z 0.005870 0.000000 1.913920 
# 
# From -- ./inp_files/1913.got.cif
#   From: 2010.05.17/outbox.cif.g08.bks.cpg/sg9_1_cif.got.tgz:1913.got - 2010.06.03 20:04:27.
