data_PCOD9134557
_publ_section_title
;
Structure prediction by ZEFSAII (Michael W. Deem and Ramdas Pophale) SiO2 
 PCOD9134557
Probable space group: C C
;
_chemical_formula_sum "Si O2"
_cell_formula_units_Z 20
_cell_length_a 6.837079
_cell_length_b 14.357555
_cell_length_c 11.680597
_cell_angle_alpha 90.000000
_cell_angle_beta 134.889244
_cell_angle_gamma 90.000000
_cell_volume 812.342218
_symmetry_space_group_name_H-M "C C"
_symmetry_group_IT_number 9
_symmetry_cell_setting 'monoclinic'
loop_
_space_group_symop_operation_xyz
x,y,z
x,-y,1/2+z
1/2+x,1/2+y,z
1/2+x,1/2-y,1/2+z
loop_
_atom_site_type_symbol
_atom_site_label
_atom_site_fract_x
_atom_site_fract_y
_atom_site_fract_z
Si Si1 0.773390 0.148022 0.210530
Si Si2 0.952874 0.237243 0.742032
Si Si3 0.836763 0.283152 0.064552
Si Si4 0.149603 0.433585 0.878739
Si Si5 0.722463 0.587341 0.731741
O O1 0.528414 0.217744 0.150343
O O2 0.790375 0.174825 0.084836
O O3 0.699896 0.059675 0.260449
O O4 0.073124 0.180725 0.384625
O O5 0.638023 0.214736 0.634723
O O6 0.137719 0.144639 0.810030
O O7 0.052375 0.326273 0.856195
O O8 0.848404 0.348279 0.182572
O O9 0.922248 0.501830 0.832476
O O10 0.434484 0.448088 0.060538
#
# Coordination Sequence:
#
# PCOD9134557 Si02
#       5
#     4   4   4   4   4
#     4   8  20  36  58  93 123 167 217 264 330 401
#     4   9  21  38  64  88 125 176 210 270 334 395
#     4  10  19  37  65  87 129 167 215 269 331 394
#     4   9  21  41  64  91 136 167 218 286 331 400
#     4  10  21  44  59  99 133 165 230 275 336 408
#
# _framework density 24.620165
#
# number of rings (size 3 to 8) (size 9 to 14) (size 15 to 20)
#    1.200    1.600    0.000    0.000    2.800    3.200 
#    7.200    0.000    0.000    0.000    0.000    0.000 
#    0.000    0.000    0.000    0.000    0.000    0.000 
#
# Total GULP energy -55702.449077 kJ/mol
# GULP energy per Si atom -5570.244908 kJ/mol
# Density = 2.456413 g / cm^3
# Si number density = 24.620165 Si / 1000 Ang^3
#
#
#
# Elastic Constant Matrix: (Units=GPa)
#
#
# Indices 1 2 3 4 5 6 
#
# 1 116.1202 48.1143 60.7432 0.0000 50.4782 0.0000
# 2 48.1143 111.2243 50.6592 0.0000 26.7149 0.0000
# 3 60.7432 50.6592 103.8068 0.0004 37.3789 0.0000
# 4 0.0000 0.0000 0.0004 25.2645 0.0001 19.0971
# 5 50.4782 26.7149 37.3789 0.0001 47.7288 0.0000
# 6 0.0000 0.0000 0.0000 19.0971 0.0000 39.4672
#
#
#
# Elastic Compliance Matrix: (Units=1/GPa)
#
#
# Indices 1 2 3 4 5 6 
#
# 1 0.018129 -0.002448 -0.004183 0.000000 -0.014528 0.000000
# 2 -0.002448 0.012178 -0.004162 0.000000 -0.000968 0.000000
# 3 -0.004183 -0.004162 0.016268 0.000000 -0.005987 0.000000
# 4 0.000000 0.000000 0.000000 0.062406 0.000000 -0.030197
# 5 -0.014528 -0.000968 -0.005987 0.000000 0.041547 0.000000
# 6 0.000000 0.000000 0.000000 -0.030197 0.000000 0.039949
#
#
# Mechanical properties :
#
#
# Convention : Reuss Voigt Hill
#
# Bulk Modulus (GPa) = 40.01676 72.24274 56.12975
# Shear Modulus (GPa) = 22.68682 33.93443 28.31062
#
# Velocity S-wave (km/s) = 3.03887 3.71660 3.39469
# Velocity P-wave (km/s) = 5.34808 6.91550 6.18167
#
# Compressibility (1/GPa) = 0.02498953
#
# Stress axis : x y z
#
# Youngs Moduli (GPa) = 55.15884 82.11551 61.47147
#
# Poissons Ratio (x) = 0.20102 0.25711
# Poissons Ratio (y) = 0.13503 0.25585
# Poissons Ratio (z) = 0.23071 0.34177
#
# Static dielectric constant tensor:
#      x y z
#    x 2.043800 0.000000 -0.076810 
#    y 0.000000 2.055660 0.000000 
#    z -0.076810 0.000000 1.955290 
# 
# From -- ./inp_files/29457.got.cif
#   From: 2010.05.17/outbox.cif.g08.bks.cpg/sg9_15_cif.got.tgz:29457.got - 2010.06.03 20:04:27.
