data_PCOD9134257
_publ_section_title
;
Structure prediction by ZEFSAII (Michael W. Deem and Ramdas Pophale) SiO2 
 PCOD9134257
Probable space group: C C
;
_chemical_formula_sum "Si O2"
_cell_formula_units_Z 28
_cell_length_a 30.016277
_cell_length_b 9.048792
_cell_length_c 7.686168
_cell_angle_alpha 90.000000
_cell_angle_beta 33.170568
_cell_angle_gamma 90.000000
_cell_volume 1142.221853
_symmetry_space_group_name_H-M "C C"
_symmetry_group_IT_number 9
_symmetry_cell_setting 'monoclinic'
loop_
_space_group_symop_operation_xyz
x,y,z
x,-y,1/2+z
1/2+x,1/2+y,z
1/2+x,1/2-y,1/2+z
loop_
_atom_site_type_symbol
_atom_site_label
_atom_site_fract_x
_atom_site_fract_y
_atom_site_fract_z
Si Si1 0.877260 0.305003 0.279390
Si Si2 0.247253 0.678812 0.109091
Si Si3 0.560073 0.135523 0.059783
Si Si4 0.483115 0.711828 0.519304
Si Si5 0.331168 0.905273 0.063878
Si Si6 0.411279 0.500390 0.543957
Si Si7 0.654057 0.099741 0.084142
O O1 0.825029 0.343153 0.278052
O O2 0.840654 0.418254 0.537447
O O3 0.883960 0.129523 0.268276
O O4 0.970675 0.349017 0.932282
O O5 0.263430 0.826564 0.166883
O O6 0.201418 0.691800 0.074365
O O7 0.204158 0.547823 0.363419
O O8 0.335190 0.608011 0.782907
O O9 0.557971 0.233257 0.890219
O O10 0.623940 0.172066 0.003390
O O11 0.577361 0.969553 0.938881
O O12 0.488240 0.607036 0.336232
O O13 0.419409 0.845508 0.705631
O O14 0.434541 0.599343 0.804944
#
# Coordination Sequence:
#
# PCOD9134257 Si02
#       7
#     4   4   4   4   4   4   4
#     4  10  19  33  55  80 105 130 166 223 270 302
#     4  10  19  34  53  80 102 137 179 206 256 306
#     4   9  18  33  51  79 103 136 178 208 258 305
#     4   9  18  33  53  77 104 129 169 219 257 303
#     4   9  19  32  51  79 106 129 168 218 258 301
#     4   9  18  33  54  79 104 130 168 221 266 303
#     4  10  19  32  55  74 108 145 172 209 243 320
#
# _framework density 24.513625999999999
#
# number of rings (size 3 to 8) (size 9 to 14) (size 15 to 20)
#    0.000    2.857    0.000    4.286    0.000    3.429 
#    0.000    5.714    0.000   24.000    0.000    0.000 
#    0.000    0.000    0.000    0.000    0.000    0.000 
#
# Total GULP energy -78117.405682 kJ/mol
# GULP energy per Si atom -5579.814692 kJ/mol
# Density = 2.445783 g / cm^3
# Si number density = 24.513626 Si / 1000 Ang^3
#
#
#
# Elastic Constant Matrix: (Units=GPa)
#
#
# Indices 1 2 3 4 5 6 
#
# 1 156.9891 46.0010 8.1116 0.0000 -21.6212 0.0000
# 2 46.0010 101.8752 -7.7546 0.0000 -15.8912 0.0000
# 3 8.1116 -7.7546 28.8918 0.0000 -5.4354 0.0000
# 4 0.0000 0.0000 0.0000 23.0606 0.0000 -6.4322
# 5 -21.6212 -15.8912 -5.4354 0.0000 21.5269 0.0000
# 6 0.0000 0.0000 0.0000 -6.4322 0.0000 51.1778
#
#
#
# Elastic Compliance Matrix: (Units=1/GPa)
#
#
# Indices 1 2 3 4 5 6 
#
# 1 0.008091 -0.002963 -0.002047 0.000000 0.005422 0.000000
# 2 -0.002963 0.012835 0.005774 0.000000 0.007956 0.000000
# 3 -0.002047 0.005774 0.039004 0.000000 0.012054 0.000000
# 4 0.000000 0.000000 0.000000 0.044940 0.000000 0.005648
# 5 0.005422 0.007956 0.012054 0.000000 0.060816 0.000000
# 6 0.000000 0.000000 0.000000 0.005648 0.000000 0.020250
#
#
# Mechanical properties :
#
#
# Convention : Reuss Voigt Hill
#
# Bulk Modulus (GPa) = 16.27187 42.27467 29.27327
# Shear Modulus (GPa) = 24.40299 35.24624 29.82462
#
# Velocity S-wave (km/s) = 3.15856 3.79598 3.49184
# Velocity P-wave (km/s) = 4.46702 6.04114 5.31270
#
# Compressibility (1/GPa) = 0.06145575
#
# Stress axis : x y z
#
# Youngs Moduli (GPa) = 123.59918 77.91482 25.63838
#
# Poissons Ratio (x) = 0.23089 0.05248
# Poissons Ratio (y) = 0.36627 -0.14802
# Poissons Ratio (z) = 0.25300 -0.44985
#
# Static dielectric constant tensor:
#      x y z
#    x 2.062720 0.000000 0.070440 
#    y 0.000000 1.924570 0.000000 
#    z 0.070440 0.000000 2.044830 
# 
# From -- ./inp_files/11164.got.cif
#   From: 2010.05.17/outbox.cif.g08.bks.cpg/sg9_6_cif.got.tgz:11164.got - 2010.06.03 20:04:27.
