data_PCOD9134132
_publ_section_title
;
Structure prediction by ZEFSAII (Michael W. Deem and Ramdas Pophale) SiO2 
 PCOD9134132
Probable space group: C C
;
_chemical_formula_sum "Si O2"
_cell_formula_units_Z 32
_cell_length_a 10.351895
_cell_length_b 9.123400
_cell_length_c 19.278165
_cell_angle_alpha 90.000000
_cell_angle_beta 52.409261
_cell_angle_gamma 90.000000
_cell_volume 1442.714167
_symmetry_space_group_name_H-M "C C"
_symmetry_group_IT_number 9
_symmetry_cell_setting 'monoclinic'
loop_
_space_group_symop_operation_xyz
x,y,z
x,-y,1/2+z
1/2+x,1/2+y,z
1/2+x,1/2-y,1/2+z
loop_
_atom_site_type_symbol
_atom_site_label
_atom_site_fract_x
_atom_site_fract_y
_atom_site_fract_z
Si Si1 0.655790 0.590210 0.248100
Si Si2 0.463416 0.432203 0.944737
Si Si3 0.119569 0.151363 0.005758
Si Si4 0.680588 0.037704 0.439104
Si Si5 0.299756 0.778168 0.167195
Si Si6 0.349343 0.465994 0.751838
Si Si7 0.432568 0.184216 0.056531
Si Si8 0.133614 0.124821 0.582930
O O1 0.600848 0.619728 0.344675
O O2 0.732447 0.426002 0.223725
O O3 0.492472 0.601345 0.254469
O O4 0.791439 0.675945 0.159853
O O5 0.321353 0.507127 0.946616
O O6 0.529015 0.546039 0.979986
O O7 0.388397 0.290621 0.007784
O O8 0.728001 0.293269 0.113207
O O9 0.202737 0.028337 0.028611
O O10 0.194499 0.284568 0.936913
O O11 0.723708 0.975308 0.349507
O O12 0.504136 0.975715 0.516622
O O13 0.253708 0.642617 0.231852
O O14 0.490909 0.740582 0.095798
O O15 0.457754 0.576892 0.671896
O O16 0.591233 0.265361 0.035927
#
# Coordination Sequence:
#
# PCOD9134132 Si02
#       8
#     4   4   4   4   4   4   4   4
#     4  10  21  38  60  88 122 162 199 253 310 356
#     4  10  24  40  59  90 131 157 201 263 303 356
#     4  10  20  37  59  88 119 158 202 250 306 361
#     4  11  22  38  63  90 117 161 210 246 302 370
#     4  10  18  37  63  84 116 160 201 243 307 366
#     4   9  21  37  60  88 120 160 198 250 306 359
#     4  11  23  38  64  92 118 163 208 249 304 372
#     4   9  21  37  60  86 121 157 195 254 306 354
#
# _framework density 22.180415
#
# number of rings (size 3 to 8) (size 9 to 14) (size 15 to 20)
#    0.000    2.000    1.250    1.500    7.000    0.000 
#    0.000    0.000    2.750    0.000    0.000    0.000 
#    0.000    0.000    0.000    0.000    0.000    0.000 
#
# Total GULP energy -89131.225154 kJ/mol
# GULP energy per Si atom -5570.701572 kJ/mol
# Density = 2.212993 g / cm^3
# Si number density = 22.180415 Si / 1000 Ang^3
#
#
#
# Elastic Constant Matrix: (Units=GPa)
#
#
# Indices 1 2 3 4 5 6 
#
# 1 63.9370 34.8082 5.1673 0.0000 7.7073 0.0000
# 2 34.8082 73.1416 23.0779 0.0000 3.4424 0.0000
# 3 5.1673 23.0779 86.8804 0.0000 -5.6676 0.0000
# 4 0.0000 0.0000 0.0000 14.8720 0.0000 5.7859
# 5 7.7073 3.4424 -5.6676 0.0000 27.0545 0.0000
# 6 0.0000 0.0000 0.0000 5.7859 0.0000 28.0273
#
#
#
# Elastic Compliance Matrix: (Units=1/GPa)
#
#
# Indices 1 2 3 4 5 6 
#
# 1 0.021850 -0.010561 0.001204 0.000000 -0.004629 0.000000
# 2 -0.010561 0.020234 -0.004784 0.000000 -0.000568 0.000000
# 3 0.001204 -0.004784 0.012903 0.000000 0.002969 0.000000
# 4 0.000000 0.000000 0.000000 0.073112 0.000000 -0.015093
# 5 -0.004629 -0.000568 0.002969 0.000000 0.038975 0.000000
# 6 0.000000 0.000000 0.000000 -0.015093 0.000000 0.038795
#
#
# Mechanical properties :
#
#
# Convention : Reuss Voigt Hill
#
# Bulk Modulus (GPa) = 37.44471 38.89621 38.17046
# Shear Modulus (GPa) = 20.57162 24.71781 22.64471
#
# Velocity S-wave (km/s) = 3.04874 3.34188 3.19867
# Velocity P-wave (km/s) = 5.41402 5.69783 5.55774
#
# Compressibility (1/GPa) = 0.02670604
#
# Stress axis : x y z
#
# Youngs Moduli (GPa) = 45.76574 49.42177 77.50233
#
# Poissons Ratio (x) = 0.52192 -0.09329
# Poissons Ratio (y) = 0.48331 0.37075
# Poissons Ratio (z) = -0.05509 0.23642
#
# Static dielectric constant tensor:
#      x y z
#    x 1.829950 0.000000 0.009860 
#    y 0.000000 1.858220 0.000000 
#    z 0.009860 0.000000 1.882270 
# 
# From -- ./inp_files/33125.got.cif
#   From: 2010.05.17/outbox.cif.g08.bks.cpg/sg9_17_cif.got.tgz:33125.got - 2010.06.03 20:04:27.
