data_PCOD9134856
_publ_section_title
;
Structure prediction by ZEFSAII (Michael W. Deem and Ramdas Pophale) SiO2 
 PCOD9134856
Probable space group: C C
;
_chemical_formula_sum "Si O2"
_cell_formula_units_Z 28
_cell_length_a 16.951364
_cell_length_b 5.343324
_cell_length_c 17.743221
_cell_angle_alpha 90.000000
_cell_angle_beta 133.542688
_cell_angle_gamma 90.000000
_cell_volume 1164.939959
_symmetry_space_group_name_H-M "C C"
_symmetry_group_IT_number 9
_symmetry_cell_setting 'monoclinic'
loop_
_space_group_symop_operation_xyz
x,y,z
x,-y,1/2+z
1/2+x,1/2+y,z
1/2+x,1/2-y,1/2+z
loop_
_atom_site_type_symbol
_atom_site_label
_atom_site_fract_x
_atom_site_fract_y
_atom_site_fract_z
Si Si1 0.665540 0.386086 0.300320
Si Si2 0.822196 0.923854 0.994144
Si Si3 0.247010 0.076780 0.691966
Si Si4 0.994677 0.926957 0.975428
Si Si5 0.103024 0.389920 0.306378
Si Si6 0.029797 0.428365 0.915987
Si Si7 0.284159 0.420286 0.134865
O O1 0.747813 0.317518 0.422780
O O2 0.736904 0.442752 0.274656
O O3 0.605562 0.117272 0.248269
O O4 0.584695 0.613406 0.264151
O O5 0.729404 0.131265 0.916924
O O6 0.918037 0.953733 0.997649
O O7 0.849146 0.922819 0.099405
O O8 0.120507 0.073732 0.583136
O O9 0.297473 0.332525 0.693637
O O10 0.301279 0.833587 0.691765
O O11 0.976076 0.659443 0.924344
O O12 0.983350 0.160740 0.910899
O O13 0.035639 0.492678 0.332384
O O14 0.157032 0.420216 0.025163
#
# Coordination Sequence:
#
# PCOD9134856 Si02
#       7
#     4   4   4   4   4   4   4
#     4  10  20  33  59  80 106 141 182 223 262 324
#     4   9  22  33  59  79 108 138 186 219 269 309
#     4  10  20  36  55  78 107 140 181 216 269 314
#     4  10  20  32  56  79 109 134 180 224 266 309
#     4   9  19  33  57  74 106 137 183 211 266 319
#     4   9  18  32  52  82 100 137 177 222 254 315
#     4   9  19  33  56  76 104 145 179 213 256 334
#
# _framework density 24.035574
#
# number of rings (size 3 to 8) (size 9 to 14) (size 15 to 20)
#    0.857    1.714    0.000    1.714    8.000    0.000 
#    0.000    0.000    9.429    0.000    0.000    0.000 
#    0.000    0.000    0.000    0.000    0.000    0.000 
#
# Total GULP energy -78219.539793 kJ/mol
# GULP energy per Si atom -5587.109985 kJ/mol
# Density = 2.398087 g / cm^3
# Si number density = 24.035574 Si / 1000 Ang^3
#
#
#
# Elastic Constant Matrix: (Units=GPa)
#
#
# Indices 1 2 3 4 5 6 
#
# 1 143.1509 68.4633 40.2594 0.0000 -23.3310 0.0000
# 2 68.4633 196.0344 33.8372 0.0000 -14.3068 0.0001
# 3 40.2594 33.8372 45.9315 0.0000 -10.0078 0.0000
# 4 0.0000 0.0000 0.0000 23.7334 0.0000 -10.4663
# 5 -23.3310 -14.3068 -10.0078 0.0000 45.5145 0.0000
# 6 0.0000 0.0001 0.0000 -10.4663 0.0000 6.7834
#
#
#
# Elastic Compliance Matrix: (Units=1/GPa)
#
#
# Indices 1 2 3 4 5 6 
#
# 1 0.010510 -0.002255 -0.006860 0.000000 0.003170 0.000000
# 2 -0.002255 0.006366 -0.002656 0.000000 0.000261 0.000000
# 3 -0.006860 -0.002656 0.030242 0.000000 0.002298 0.000000
# 4 0.000000 0.000000 0.000000 0.131847 0.000000 0.203431
# 5 0.003170 0.000261 0.002298 0.000000 0.024184 0.000000
# 6 0.000000 0.000000 0.000000 0.203431 0.000000 0.461298
#
#
# Mechanical properties :
#
#
# Convention : Reuss Voigt Hill
#
# Bulk Modulus (GPa) = 42.41738 74.47071 58.44405
# Shear Modulus (GPa) = 7.18546 31.37671 19.28109
#
# Velocity S-wave (km/s) = 1.73090 3.61699 2.83537
# Velocity P-wave (km/s) = 4.65626 6.96378 5.92347
#
# Compressibility (1/GPa) = 0.02357524
#
# Stress axis : x y z
#
# Youngs Moduli (GPa) = 95.14551 157.07704 33.06619
#
# Poissons Ratio (x) = 0.35422 0.22684
# Poissons Ratio (y) = 0.21456 0.08784
# Poissons Ratio (z) = 0.65272 0.41727
#
# Static dielectric constant tensor:
#      x y z
#    x 1.897460 0.000000 0.054810 
#    y 0.000000 1.925310 0.000000 
#    z 0.054810 0.000000 1.963480 
# 
# From -- ./inp_files/30269.got.cif
#   From: 2010.05.17/outbox.cif.g08.bks.cpg/sg9_16_cif.got.tgz:30269.got - 2010.06.03 20:04:27.
