data_PCOD9134687
_publ_section_title
;
Structure prediction by ZEFSAII (Michael W. Deem and Ramdas Pophale) SiO2 
 PCOD9134687
Probable space group: C C
;
_chemical_formula_sum "Si O2"
_cell_formula_units_Z 32
_cell_length_a 8.797822
_cell_length_b 23.405268
_cell_length_c 12.775241
_cell_angle_alpha 90.000000
_cell_angle_beta 144.173524
_cell_angle_gamma 90.000000
_cell_volume 1539.786314
_symmetry_space_group_name_H-M "C C"
_symmetry_group_IT_number 9
_symmetry_cell_setting 'monoclinic'
loop_
_space_group_symop_operation_xyz
x,y,z
x,-y,1/2+z
1/2+x,1/2+y,z
1/2+x,1/2-y,1/2+z
loop_
_atom_site_type_symbol
_atom_site_label
_atom_site_fract_x
_atom_site_fract_y
_atom_site_fract_z
Si Si1 0.693510 0.818895 0.141080
Si Si2 0.182202 0.802544 0.978032
Si Si3 0.012797 0.611023 0.349146
Si Si4 0.704317 0.496875 0.737887
Si Si5 0.306035 0.321404 0.572657
Si Si6 0.978449 0.083890 0.460742
Si Si7 0.124707 0.193052 0.037275
Si Si8 0.723283 0.947708 0.596953
O O1 0.675348 0.760474 0.065204
O O2 0.972991 0.826062 0.349434
O O3 0.484548 0.810512 0.117572
O O4 0.604941 0.868038 0.014078
O O5 0.029277 0.813106 0.784519
O O6 0.096515 0.853148 0.006773
O O7 0.137041 0.736823 0.986681
O O8 0.795318 0.563822 0.244826
O O9 0.888287 0.661070 0.210402
O O10 0.252288 0.588087 0.418801
O O11 0.674502 0.539643 0.623326
O O12 0.436213 0.483914 0.649521
O O13 0.944126 0.521228 0.940851
O O14 0.440053 0.319255 0.534182
O O15 0.188321 0.383725 0.528827
O O16 0.853756 0.061622 0.283137
#
# Coordination Sequence:
#
# PCOD9134687 Si02
#       8
#     4   4   4   4   4   4   4   4
#     4  11  21  39  71  98 134 183 228 282 342 421
#     4  10  20  40  66 101 138 175 231 282 345 418
#     4  12  24  46  62 106 137 175 236 285 352 415
#     4  12  26  47  73  98 142 185 237 293 339 426
#     4  10  19  39  67 103 134 177 232 282 334 424
#     4  11  28  46  69 101 140 179 230 297 354 410
#     4  11  20  38  71  98 137 181 227 281 342 411
#     4  11  26  47  71 103 136 187 241 284 346 417
#
# _framework density 20.782102999999999
#
# number of rings (size 3 to 8) (size 9 to 14) (size 15 to 20)
#    0.000    1.000    5.000    3.000    5.250    2.000 
#    4.500    0.000    0.000    0.000    0.000    0.000 
#    0.000    0.000    0.000    0.000    0.000    0.000 
#
# Total GULP energy -89394.853461 kJ/mol
# GULP energy per Si atom -5587.178341 kJ/mol
# Density = 2.073480 g / cm^3
# Si number density = 20.782103 Si / 1000 Ang^3
#
#
#
# Elastic Constant Matrix: (Units=GPa)
#
#
# Indices 1 2 3 4 5 6 
#
# 1 31.5656 21.6911 24.9056 0.0000 -65.8350 0.0000
# 2 21.6911 83.8803 58.9608 0.0000 -119.1251 0.0000
# 3 24.9056 58.9608 74.4630 0.0000 100.8631 0.0000
# 4 0.0000 0.0000 0.0000 41.0795 0.0000 0.4772
# 5 -65.8350 -119.1251 100.8631 0.0000 -553.2750 0.0000
# 6 0.0000 0.0000 0.0000 0.4772 0.0000 23.0228
#
#
#
# Elastic Compliance Matrix: (Units=1/GPa)
#
#
# Indices 1 2 3 4 5 6 
#
# 1 0.036168 -0.011735 -0.000319 0.000000 -0.001835 0.000000
# 2 -0.011735 0.014379 -0.004137 0.000000 -0.002454 0.000000
# 3 -0.000319 -0.004137 0.012474 0.000000 0.003203 0.000000
# 4 0.000000 0.000000 0.000000 0.024349 0.000000 -0.000505
# 5 -0.001835 -0.002454 0.003203 0.000000 -0.000477 0.000000
# 6 0.000000 0.000000 0.000000 -0.000505 0.000000 0.043446
#
#
# Mechanical properties :
#
#
# Convention : Reuss Voigt Hill
#
# Bulk Modulus (GPa) = 32.63823 44.55821 38.59822
# Shear Modulus (GPa) = 28.91265 -92.21112 -31.64923
#
# Velocity S-wave (km/s) = 3.73396 -6.66834 -3.90668
# Velocity P-wave (km/s) = 5.85910 6.14832 1.31772
#
# Compressibility (1/GPa) = 0.03063891
#
# Stress axis : x y z
#
# Youngs Moduli (GPa) = 27.64858 69.54373 80.16803
#
# Poissons Ratio (x) = 0.81609 0.02560
# Poissons Ratio (y) = 0.32445 0.33166
# Poissons Ratio (z) = 0.00883 0.28770
#
# Static dielectric constant tensor:
#      x y z
#    x 1.710560 0.000000 0.013960 
#    y 0.000000 1.773740 0.000000 
#    z 0.013960 0.000000 1.849400 
# 
# From -- ./inp_files/15625.got.cif
#   From: 2010.05.17/outbox.cif.g08.bks.cpg/sg9_8_cif.got.tgz:15625.got - 2010.06.03 20:04:27.
