data_PCOD9134534
_publ_section_title
;
Structure prediction by ZEFSAII (Michael W. Deem and Ramdas Pophale) SiO2 
 PCOD9134534
Probable space group: C C
;
_chemical_formula_sum "Si O2"
_cell_formula_units_Z 28
_cell_length_a 14.734392
_cell_length_b 8.201114
_cell_length_c 14.785590
_cell_angle_alpha 90.000000
_cell_angle_beta 37.741164
_cell_angle_gamma 90.000000
_cell_volume 1093.610817
_symmetry_space_group_name_H-M "C C"
_symmetry_group_IT_number 9
_symmetry_cell_setting 'monoclinic'
loop_
_space_group_symop_operation_xyz
x,y,z
x,-y,1/2+z
1/2+x,1/2+y,z
1/2+x,1/2-y,1/2+z
loop_
_atom_site_type_symbol
_atom_site_label
_atom_site_fract_x
_atom_site_fract_y
_atom_site_fract_z
Si Si1 0.028520 0.698092 0.408880
Si Si2 0.260531 0.055830 0.925019
Si Si3 0.191194 0.102131 0.649093
Si Si4 0.738124 0.909436 0.221561
Si Si5 0.041983 0.363259 0.641247
Si Si6 0.227185 0.600667 0.404562
Si Si7 0.551556 0.649927 0.459729
O O1 0.097908 0.864249 0.313503
O O2 0.118067 0.547339 0.289965
O O3 0.078096 0.669431 0.472822
O O4 0.854842 0.673795 0.537702
O O5 0.213003 0.054778 0.068050
O O6 0.136320 0.982137 0.955100
O O7 0.313463 0.236569 0.858015
O O8 0.395651 0.933526 0.800971
O O9 0.100688 0.213952 0.651386
O O10 0.658682 0.737778 0.303084
O O11 0.890607 0.896507 0.048405
O O12 0.793754 0.981809 0.276163
O O13 0.016542 0.299110 0.558931
O O14 0.172283 0.496038 0.531115
#
# Coordination Sequence:
#
# PCOD9134534 Si02
#       7
#     4   4   4   4   4   4   4
#     4  10  24  42  66  98 127 180 218 279 327 397
#     4  11  22  37  68  96 130 177 221 273 330 399
#     4  11  23  45  67  88 141 178 219 268 349 399
#     4   9  21  38  64  92 135 162 225 267 330 382
#     4  10  21  41  64  96 129 176 227 266 329 410
#     4   9  24  38  69  95 135 162 234 275 318 393
#     4  10  19  37  62  97 123 171 214 276 311 388
#
# _framework density 25.603259000000001
#
# number of rings (size 3 to 8) (size 9 to 14) (size 15 to 20)
#    0.857    1.143    2.857    0.000    6.000    0.000 
#    0.000    1.429    0.000    0.000    0.000    0.000 
#    0.000    0.000    0.000    0.000    0.000    0.000 
#
# Total GULP energy -78217.208769 kJ/mol
# GULP energy per Si atom -5586.943484 kJ/mol
# Density = 2.554499 g / cm^3
# Si number density = 25.603259 Si / 1000 Ang^3
#
#
#
# Elastic Constant Matrix: (Units=GPa)
#
#
# Indices 1 2 3 4 5 6 
#
# 1 43.0345 -17.6493 18.1634 0.0000 -0.3841 0.0000
# 2 -17.6493 65.2833 9.1842 0.0000 -2.0890 0.0000
# 3 18.1634 9.1842 99.3818 0.0000 -19.3646 0.0000
# 4 0.0000 0.0000 0.0000 25.2058 0.0000 -0.3138
# 5 -0.3841 -2.0890 -19.3646 0.0000 48.2588 0.0000
# 6 0.0000 0.0000 0.0000 -0.3138 0.0000 28.4864
#
#
#
# Elastic Compliance Matrix: (Units=1/GPa)
#
#
# Indices 1 2 3 4 5 6 
#
# 1 0.029668 0.008890 -0.006642 0.000000 -0.002044 0.000000
# 2 0.008890 0.018184 -0.003404 0.000000 -0.000508 0.000000
# 3 -0.006642 -0.003404 0.012532 0.000000 0.004828 0.000000
# 4 0.000000 0.000000 0.000000 0.039679 0.000000 0.000437
# 5 -0.002044 -0.000508 0.004828 0.000000 0.022621 0.000000
# 6 0.000000 0.000000 0.000000 0.000437 0.000000 0.035109
#
#
# Mechanical properties :
#
#
# Convention : Reuss Voigt Hill
#
# Bulk Modulus (GPa) = 17.22042 25.23291 21.22667
# Shear Modulus (GPa) = 27.86096 33.59025 30.72560
#
# Velocity S-wave (km/s) = 3.30234 3.62602 3.46796
# Velocity P-wave (km/s) = 4.61314 5.23521 4.93399
#
# Compressibility (1/GPa) = 0.05807060
#
# Stress axis : x y z
#
# Youngs Moduli (GPa) = 33.70605 54.99381 79.79869
#
# Poissons Ratio (x) = -0.48888 0.53004
# Poissons Ratio (y) = -0.29964 0.27165
# Poissons Ratio (z) = 0.22388 0.18721
#
# Static dielectric constant tensor:
#      x y z
#    x 2.041510 0.000000 0.088130 
#    y 0.000000 2.070370 0.000000 
#    z 0.088130 0.000000 2.088810 
# 
# From -- ./inp_files/10435.got.cif
#   From: 2010.05.17/outbox.cif.g08.bks.cpg/sg9_6_cif.got.tgz:10435.got - 2010.06.03 20:04:27.
