data_PCOD9134834
_publ_section_title
;
Structure prediction by ZEFSAII (Michael W. Deem and Ramdas Pophale) SiO2 
 PCOD9134834
Probable space group: C C
;
_chemical_formula_sum "Si O2"
_cell_formula_units_Z 24
_cell_length_a 6.057490
_cell_length_b 13.486600
_cell_length_c 13.619262
_cell_angle_alpha 90.000000
_cell_angle_beta 126.588566
_cell_angle_gamma 90.000000
_cell_volume 893.367043
_symmetry_space_group_name_H-M "C C"
_symmetry_group_IT_number 9
_symmetry_cell_setting 'monoclinic'
loop_
_space_group_symop_operation_xyz
x,y,z
x,-y,1/2+z
1/2+x,1/2+y,z
1/2+x,1/2-y,1/2+z
loop_
_atom_site_type_symbol
_atom_site_label
_atom_site_fract_x
_atom_site_fract_y
_atom_site_fract_z
Si Si1 0.037630 0.530780 0.828030
Si Si2 0.338244 0.753151 0.641476
Si Si3 0.460021 0.092962 0.021242
Si Si4 0.417752 0.886595 0.090645
Si Si5 0.390837 0.331057 0.882773
Si Si6 0.064426 0.885736 0.730866
O O1 0.232137 0.433429 0.870197
O O2 0.046588 0.594369 0.732215
O O3 0.736198 0.482933 0.755770
O O4 0.049207 0.592145 0.931715
O O5 0.312298 0.814532 0.533010
O O6 0.640119 0.761071 0.774451
O O7 0.145043 0.811057 0.667595
O O8 0.174751 0.650660 0.593077
O O9 0.748379 0.088309 0.152636
O O10 0.318433 0.991743 0.018261
O O11 0.138276 0.821679 0.028842
O O12 0.603381 0.337653 0.846983
#
# Coordination Sequence:
#
# PCOD9134834 Si02
#       6
#     4   4   4   4   4   4
#     4  11  22  42  78 111 145 209 266 311 404 470
#     4  10  25  48  71 115 163 195 267 333 379 480
#     4  11  23  45  76 107 157 200 266 327 386 473
#     4  12  23  48  81 110 153 219 250 317 422 448
#     4  10  22  46  74 111 159 201 263 332 372 488
#     4  10  19  45  68 102 157 192 252 336 369 457
#
# _framework density 26.864654999999999
#
# number of rings (size 3 to 8) (size 9 to 14) (size 15 to 20)
#    0.000    1.333    6.667    1.000    0.000    0.000 
#   15.000    1.667    0.000    2.000    0.000    0.000 
#    0.000    0.000    0.000    0.000    0.000    0.000 
#
# Total GULP energy -67047.752054 kJ/mol
# GULP energy per Si atom -5587.312671 kJ/mol
# Density = 2.680351 g / cm^3
# Si number density = 26.864655 Si / 1000 Ang^3
#
#
#
# Elastic Constant Matrix: (Units=GPa)
#
#
# Indices 1 2 3 4 5 6 
#
# 1 102.9671 34.1905 16.9145 0.0000 -10.2740 0.0000
# 2 34.1905 85.8768 22.7298 0.0000 -6.3032 0.0000
# 3 16.9145 22.7298 89.3629 0.0000 -6.7633 0.0000
# 4 0.0000 0.0000 0.0000 26.1857 0.0000 -6.1971
# 5 -10.2740 -6.3032 -6.7633 0.0000 62.8993 0.0000
# 6 0.0000 0.0000 0.0000 -6.1971 0.0000 66.5722
#
#
#
# Elastic Compliance Matrix: (Units=1/GPa)
#
#
# Indices 1 2 3 4 5 6 
#
# 1 0.011395 -0.004176 -0.000994 0.000000 0.001336 0.000000
# 2 -0.004176 0.014068 -0.002755 0.000000 0.000431 0.000000
# 3 -0.000994 -0.002755 0.012145 0.000000 0.000867 0.000000
# 4 0.000000 0.000000 0.000000 0.039049 0.000000 0.003635
# 5 0.001336 0.000431 0.000867 0.000000 0.016253 0.000000
# 6 0.000000 0.000000 0.000000 0.003635 0.000000 0.015360
#
#
# Mechanical properties :
#
#
# Convention : Reuss Voigt Hill
#
# Bulk Modulus (GPa) = 45.95853 47.31960 46.63906
# Shear Modulus (GPa) = 38.05998 44.75622 41.40810
#
# Velocity S-wave (km/s) = 3.76803 4.08608 3.93027
# Velocity P-wave (km/s) = 6.00627 6.31773 6.16397
#
# Compressibility (1/GPa) = 0.02175875
#
# Stress axis : x y z
#
# Youngs Moduli (GPa) = 87.75849 71.08337 82.33938
#
# Poissons Ratio (x) = 0.29682 0.08181
# Poissons Ratio (y) = 0.36645 0.22686
# Poissons Ratio (z) = 0.08720 0.19585
#
# Static dielectric constant tensor:
#      x y z
#    x 2.004030 0.000000 -0.060440 
#    y 0.000000 2.327510 0.000000 
#    z -0.060440 0.000000 2.254160 
# 
# From -- ./inp_files/12945.got.cif
#   From: 2010.05.17/outbox.cif.g08.bks.cpg/sg9_7_cif.got.tgz:12945.got - 2010.06.03 20:04:27.
