data_PCOD9134348
_publ_section_title
;
Structure prediction by ZEFSAII (Michael W. Deem and Ramdas Pophale) SiO2 
 PCOD9134348
Probable space group: C C
;
_chemical_formula_sum "Si O2"
_cell_formula_units_Z 32
_cell_length_a 10.875152
_cell_length_b 14.369241
_cell_length_c 9.230690
_cell_angle_alpha 90.000000
_cell_angle_beta 72.532839
_cell_angle_gamma 90.000000
_cell_volume 1375.945513
_symmetry_space_group_name_H-M "C C"
_symmetry_group_IT_number 9
_symmetry_cell_setting 'monoclinic'
loop_
_space_group_symop_operation_xyz
x,y,z
x,-y,1/2+z
1/2+x,1/2+y,z
1/2+x,1/2-y,1/2+z
loop_
_atom_site_type_symbol
_atom_site_label
_atom_site_fract_x
_atom_site_fract_y
_atom_site_fract_z
Si Si1 0.221610 0.507153 0.531500
Si Si2 0.081541 0.848295 0.666954
Si Si3 0.264853 0.171589 0.670310
Si Si4 0.248893 0.962164 0.419139
Si Si5 0.584474 0.649503 0.493561
Si Si6 0.387876 0.523304 0.724685
Si Si7 0.486255 0.948916 0.943596
Si Si8 0.171421 0.695447 0.414557
O O1 0.256861 0.498761 0.685049
O O2 0.336734 0.457031 0.403509
O O3 0.234778 0.617562 0.492263
O O4 0.080053 0.491142 0.515468
O O5 0.213525 0.903688 0.575795
O O6 0.089660 0.765668 0.545715
O O7 0.070740 0.812754 0.835944
O O8 0.977428 0.931527 0.688410
O O9 0.171787 0.206242 0.575723
O O10 0.384388 0.113774 0.569497
O O11 0.198822 0.094798 0.798458
O O12 0.278719 0.254165 0.780089
O O13 0.171347 0.057085 0.443827
O O14 0.399805 0.987022 0.371582
O O15 0.460287 0.608663 0.621288
O O16 0.574251 0.865395 0.850264
#
# Coordination Sequence:
#
# PCOD9134348 Si02
#       8
#     4   4   4   4   4   4   4   4
#     4  10  24  38  60  91 125 162 199 249 317 361
#     4  10  20  38  66  90 118 159 208 253 304 356
#     4  10  20  37  64  88 119 161 206 249 308 357
#     4   9  18  35  61  91 113 157 206 252 290 364
#     4  10  19  34  61  95 115 155 208 260 287 355
#     4  11  21  38  63  92 123 159 209 257 296 374
#     4   9  21  35  60  85 126 150 200 249 305 360
#     4   9  23  39  59  90 121 167 196 251 315 363
#
# _framework density 23.256734000000002
#
# number of rings (size 3 to 8) (size 9 to 14) (size 15 to 20)
#    0.750    1.500    1.250    2.250    7.000    0.000 
#    0.000    3.750    0.000    4.500    0.000    0.000 
#    0.000    0.000    0.000    0.000    0.000    0.000 
#
# Total GULP energy -89083.779523 kJ/mol
# GULP energy per Si atom -5567.736220 kJ/mol
# Density = 2.320380 g / cm^3
# Si number density = 23.256734 Si / 1000 Ang^3
#
#
#
# Elastic Constant Matrix: (Units=GPa)
#
#
# Indices 1 2 3 4 5 6 
#
# 1 69.3682 -1.0581 6.5262 0.0000 5.8301 0.0000
# 2 -1.0581 23.9210 10.6713 0.0000 -0.6862 0.0000
# 3 6.5262 10.6713 89.1660 0.0000 -1.6781 0.0000
# 4 0.0000 0.0000 0.0000 9.7643 0.0000 -5.6126
# 5 5.8301 -0.6862 -1.6781 0.0000 33.8124 0.0000
# 6 0.0000 0.0000 0.0000 -5.6126 0.0000 24.3346
#
#
#
# Elastic Compliance Matrix: (Units=1/GPa)
#
#
# Indices 1 2 3 4 5 6 
#
# 1 0.014770 0.001144 -0.001267 0.000000 -0.002586 0.000000
# 2 0.001144 0.044264 -0.005373 0.000000 0.000434 0.000000
# 3 -0.001267 -0.005373 0.011964 0.000000 0.000703 0.000000
# 4 0.000000 0.000000 0.000000 0.118067 0.000000 0.027231
# 5 -0.002586 0.000434 0.000703 0.000000 0.030065 0.000000
# 6 0.000000 0.000000 0.000000 0.027231 0.000000 0.047374
#
#
# Mechanical properties :
#
#
# Convention : Reuss Voigt Hill
#
# Bulk Modulus (GPa) = 16.66469 23.85933 20.26201
# Shear Modulus (GPa) = 16.80684 24.66997 20.73841
#
# Velocity S-wave (km/s) = 2.69116 3.26047 2.98940
# Velocity P-wave (km/s) = 4.10336 4.94526 4.54385
#
# Compressibility (1/GPa) = 0.06000711
#
# Stress axis : x y z
#
# Youngs Moduli (GPa) = 67.70563 22.59157 83.58397
#
# Poissons Ratio (x) = -0.02585 0.10587
# Poissons Ratio (y) = -0.07747 0.44910
# Poissons Ratio (z) = 0.08576 0.12139
#
# Static dielectric constant tensor:
#      x y z
#    x 1.944080 0.000000 -0.015540 
#    y 0.000000 1.866790 0.000000 
#    z -0.015540 0.000000 1.889850 
# 
# From -- ./inp_files/7911.got.cif
#   From: 2010.05.17/outbox.cif.g08.bks.cpg/sg9_4_cif.got.tgz:7911.got - 2010.06.03 20:04:27.
