data_PCOD9134006
_publ_section_title
;
Structure prediction by ZEFSAII (Michael W. Deem and Ramdas Pophale) SiO2 
 PCOD9134006
Probable space group: C C
;
_chemical_formula_sum "Si O2"
_cell_formula_units_Z 28
_cell_length_a 17.889726
_cell_length_b 5.447725
_cell_length_c 15.559476
_cell_angle_alpha 90.000000
_cell_angle_beta 44.222947
_cell_angle_gamma 90.000000
_cell_volume 1057.616609
_symmetry_space_group_name_H-M "C C"
_symmetry_group_IT_number 9
_symmetry_cell_setting 'monoclinic'
loop_
_space_group_symop_operation_xyz
x,y,z
x,-y,1/2+z
1/2+x,1/2+y,z
1/2+x,1/2-y,1/2+z
loop_
_atom_site_type_symbol
_atom_site_label
_atom_site_fract_x
_atom_site_fract_y
_atom_site_fract_z
Si Si1 0.891070 0.111417 0.180640
Si Si2 0.336559 0.443656 0.544232
Si Si3 0.441882 0.105375 0.182388
Si Si4 0.563451 0.644895 0.345106
Si Si5 0.683221 0.392711 0.923150
Si Si6 0.515972 0.851228 0.812679
Si Si7 0.722605 0.108608 0.469809
O O1 0.957358 0.360862 0.114388
O O2 0.830301 0.121698 0.321907
O O3 0.965270 0.872629 0.125223
O O4 0.810857 0.094593 0.165605
O O5 0.435514 0.634448 0.466403
O O6 0.401071 0.207829 0.453178
O O7 0.256069 0.540928 0.538780
O O8 0.311783 0.117579 0.299027
O O9 0.488600 0.079173 0.238537
O O10 0.631637 0.582377 0.372226
O O11 0.577308 0.410788 0.269809
O O12 0.578321 0.922193 0.302611
O O13 0.669907 0.627605 0.996582
O O14 0.660029 0.126171 0.983425
#
# Coordination Sequence:
#
# PCOD9134006 Si02
#       7
#     4   4   4   4   4   4   4
#     4  10  20  32  57  84 106 135 183 235 255 319
#     4  10  22  34  59  82 110 141 188 220 276 319
#     4  10  19  36  55  80 106 140 185 221 274 307
#     4  10  20  31  56  83 108 142 184 215 279 326
#     4  10  18  34  55  79 109 142 178 225 267 329
#     4  10  19  35  53  84 102 144 182 219 267 329
#     4  10  20  36  57  78 107 144 184 221 274 311
#
# _framework density 26.474622
#
# number of rings (size 3 to 8) (size 9 to 14) (size 15 to 20)
#    0.857    1.143    2.857    3.429    2.000    0.000 
#    0.000    0.000    0.000   27.429    0.000    0.000 
#    0.000    0.000    0.000    0.000    0.000    0.000 
#
# Total GULP energy -78306.245909 kJ/mol
# GULP energy per Si atom -5593.303279 kJ/mol
# Density = 2.641436 g / cm^3
# Si number density = 26.474622 Si / 1000 Ang^3
#
#
#
# Elastic Constant Matrix: (Units=GPa)
#
#
# Indices 1 2 3 4 5 6 
#
# 1 154.8108 73.3966 32.9603 -0.0050 52.6976 0.0051
# 2 73.3966 250.2752 11.2365 -0.0082 28.4898 0.0187
# 3 32.9603 11.2365 76.8558 -0.0019 16.7438 0.0049
# 4 -0.0050 -0.0082 -0.0019 11.9860 0.0010 0.9582
# 5 52.6976 28.4898 16.7438 0.0010 48.2429 -0.0013
# 6 0.0051 0.0187 0.0049 0.9582 -0.0013 46.0505
#
#
#
# Elastic Compliance Matrix: (Units=1/GPa)
#
#
# Indices 1 2 3 4 5 6 
#
# 1 0.011539 -0.002076 -0.002343 0.000004 -0.010565 -0.000001
# 2 -0.002076 0.004658 0.000340 0.000003 -0.000601 -0.000002
# 3 -0.002343 0.000340 0.014553 0.000002 -0.002692 -0.000002
# 4 0.000004 0.000003 0.000002 0.083570 -0.000008 -0.001739
# 5 -0.010565 -0.000601 -0.002692 -0.000008 0.033559 0.000003
# 6 -0.000001 -0.000002 -0.000002 -0.001739 0.000003 0.021751
#
#
# Mechanical properties :
#
#
# Convention : Reuss Voigt Hill
#
# Bulk Modulus (GPa) = 44.26448 79.68095 61.97271
# Shear Modulus (GPa) = 26.98056 45.54576 36.26316
#
# Velocity S-wave (km/s) = 3.19581 4.15222 3.70501
# Velocity P-wave (km/s) = 5.51122 7.29043 6.46235
#
# Compressibility (1/GPa) = 0.02259148
#
# Stress axis : x y z
#
# Youngs Moduli (GPa) = 86.66165 214.70449 68.71374
#
# Poissons Ratio (x) = 0.44575 0.16102
# Poissons Ratio (y) = 0.17992 -0.02338
# Poissons Ratio (z) = 0.20308 -0.07307
#
# Static dielectric constant tensor:
#      x y z
#    x 2.098190 -0.000020 -0.126740 
#    y -0.000020 2.158310 0.000000 
#    z -0.126740 0.000000 2.109250 
# 
# From -- ./inp_files/26253.got.cif
#   From: 2010.05.17/outbox.cif.g08.bks.cpg/sg9_14_cif.got.tgz:26253.got - 2010.06.03 20:04:27.
