data_PCOD9134590
_publ_section_title
;
Structure prediction by ZEFSAII (Michael W. Deem and Ramdas Pophale) SiO2 
 PCOD9134590
Probable space group: C C
;
_chemical_formula_sum "Si O2"
_cell_formula_units_Z 28
_cell_length_a 10.168451
_cell_length_b 9.135423
_cell_length_c 14.881727
_cell_angle_alpha 90.000000
_cell_angle_beta 62.538351
_cell_angle_gamma 90.000000
_cell_volume 1226.639433
_symmetry_space_group_name_H-M "C C"
_symmetry_group_IT_number 9
_symmetry_cell_setting 'monoclinic'
loop_
_space_group_symop_operation_xyz
x,y,z
x,-y,1/2+z
1/2+x,1/2+y,z
1/2+x,1/2-y,1/2+z
loop_
_atom_site_type_symbol
_atom_site_label
_atom_site_fract_x
_atom_site_fract_y
_atom_site_fract_z
Si Si1 0.946540 0.935399 0.342100
Si Si2 0.031544 0.922118 0.990923
Si Si3 0.674700 0.423885 0.124113
Si Si4 0.830356 0.648113 0.306724
Si Si5 0.986013 0.576116 0.989335
Si Si6 0.214171 0.435399 0.271347
Si Si7 0.629168 0.077883 0.122524
O O1 0.908457 0.763220 0.350383
O O2 0.830355 0.002775 0.306724
O O3 0.105497 0.954882 0.243641
O O4 0.941015 0.990466 0.444844
O O5 0.200828 0.931099 0.899838
O O6 0.053775 0.969997 0.086427
O O7 0.481122 0.252588 0.002213
O O8 0.830356 0.500001 0.056724
O O9 0.679591 0.247413 0.111234
O O10 0.752254 0.763220 0.263064
O O11 0.959884 0.568902 0.213609
O O12 0.106938 0.530004 0.027020
O O13 0.055214 0.545118 0.869807
O O14 0.219697 0.490466 0.168604
#
# Coordination Sequence:
#
# PCOD9134590 Si02
#       7
#     4   4   4   4   4   4   4
#     4   9  20  38  55  84 115 143 189 227 275 336
#     4  10  19  38  60  77 120 150 176 238 277 318
#     4  10  21  37  59  87 108 148 195 222 281 335
#     4   8  18  36  56  80 114 150 182 220 278 328
#     4  10  21  37  59  87 108 148 195 222 281 335
#     4   9  20  38  55  84 115 143 189 227 275 336
#     4  10  19  38  60  77 120 150 176 238 277 318
#
# _framework density 22.826592999999999
#
# number of rings (size 3 to 8) (size 9 to 14) (size 15 to 20)
#    0.857    1.714    0.000    1.714    0.000    1.143 
#   10.286    1.429    0.000    0.000    0.000    0.000 
#    0.000    0.000    0.000    0.000    0.000    0.000 
#
# Total GULP energy -78129.949798 kJ/mol
# GULP energy per Si atom -5580.710700 kJ/mol
# Density = 2.277464 g / cm^3
# Si number density = 22.826593 Si / 1000 Ang^3
#
#
#
# Elastic Constant Matrix: (Units=GPa)
#
#
# Indices 1 2 3 4 5 6 
#
# 1 81.8713 16.0885 21.1217 0.0000 2.4039 0.0000
# 2 16.0885 16.6566 17.9145 0.0000 12.7665 0.0000
# 3 21.1217 17.9145 132.4962 0.0000 22.6864 0.0000
# 4 0.0000 0.0000 0.0000 37.9396 0.0000 1.7510
# 5 2.4039 12.7665 22.6864 0.0000 57.3740 0.0000
# 6 0.0000 0.0000 0.0000 1.7510 0.0000 22.0328
#
#
#
# Elastic Compliance Matrix: (Units=1/GPa)
#
#
# Indices 1 2 3 4 5 6 
#
# 1 0.015632 -0.016856 -0.000797 0.000000 0.003411 0.000000
# 2 -0.016856 0.098331 -0.007490 0.000000 -0.018212 0.000000
# 3 -0.000797 -0.007490 0.009006 0.000000 -0.001861 0.000000
# 4 0.000000 0.000000 0.000000 0.026455 0.000000 -0.002102
# 5 0.003411 -0.018212 -0.001861 0.000000 0.022075 0.000000
# 6 0.000000 0.000000 0.000000 -0.002102 0.000000 0.045554
#
#
# Mechanical properties :
#
#
# Convention : Reuss Voigt Hill
#
# Bulk Modulus (GPa) = 13.75823 37.91928 25.83875
# Shear Modulus (GPa) = 17.14879 35.19592 26.17235
#
# Velocity S-wave (km/s) = 2.74389 3.93094 3.38978
# Velocity P-wave (km/s) = 4.00986 6.10336 5.16381
#
# Compressibility (1/GPa) = 0.07268379
#
# Stress axis : x y z
#
# Youngs Moduli (GPa) = 63.97090 10.16971 111.04025
#
# Poissons Ratio (x) = 0.17142 0.08849
# Poissons Ratio (y) = 1.07829 0.83166
# Poissons Ratio (z) = 0.05098 0.07617
#
# Static dielectric constant tensor:
#      x y z
#    x 1.948250 0.000000 -0.020560 
#    y 0.000000 1.821180 0.000000 
#    z -0.020560 0.000000 1.888180 
# 
# From -- ./inp_files/22590.got.cif
#   From: 2010.05.17/outbox.cif.g08.bks.cpg/sg9_12_cif.got.tgz:22590.got - 2010.06.03 20:04:27.
