data_PCOD9134426
_publ_section_title
;
Structure prediction by ZEFSAII (Michael W. Deem and Ramdas Pophale) SiO2 
 PCOD9134426
Probable space group: C C
;
_chemical_formula_sum "Si O2"
_cell_formula_units_Z 32
_cell_length_a 15.856272
_cell_length_b 12.832823
_cell_length_c 9.284985
_cell_angle_alpha 90.000000
_cell_angle_beta 56.354984
_cell_angle_gamma 90.000000
_cell_volume 1572.829112
_symmetry_space_group_name_H-M "C C"
_symmetry_group_IT_number 9
_symmetry_cell_setting 'monoclinic'
loop_
_space_group_symop_operation_xyz
x,y,z
x,-y,1/2+z
1/2+x,1/2+y,z
1/2+x,1/2-y,1/2+z
loop_
_atom_site_type_symbol
_atom_site_label
_atom_site_fract_x
_atom_site_fract_y
_atom_site_fract_z
Si Si1 0.936430 0.325692 0.118970
Si Si2 0.419161 0.404594 0.599796
Si Si3 0.983682 0.911898 0.230063
Si Si4 0.423890 0.827743 0.794334
Si Si5 0.616842 0.091680 0.604919
Si Si6 0.119540 0.387869 0.441972
Si Si7 0.233885 0.734431 0.281988
Si Si8 0.192055 0.180777 0.514464
O O1 0.965843 0.203683 0.115436
O O2 0.815271 0.321877 0.253159
O O3 0.000318 0.396203 0.164011
O O4 0.955627 0.349943 0.931315
O O5 0.478375 0.438245 0.402721
O O6 0.424232 0.499286 0.702893
O O7 0.307460 0.361947 0.664527
O O8 0.933328 0.797515 0.265933
O O9 0.100438 0.898369 0.072241
O O10 0.503754 0.873178 0.606662
O O11 0.306704 0.858664 0.889791
O O12 0.670550 0.187869 0.472215
O O13 0.658903 0.985704 0.496117
O O14 0.626178 0.092657 0.766399
O O15 0.175723 0.281631 0.430499
O O16 0.179190 0.776693 0.191615
#
# Coordination Sequence:
#
# PCOD9134426 Si02
#       8
#     4   4   4   4   4   4   4   4
#     4   8  19  38  59  79 114 153 192 251 293 351
#     4   9  20  34  54  89 114 150 190 244 292 352
#     4  10  19  36  58  87 118 149 190 246 293 354
#     4   9  19  41  59  83 113 154 199 241 305 354
#     4  12  22  39  58  86 122 152 204 249 293 356
#     4  11  25  35  59  89 116 158 198 253 292 352
#     4   9  20  37  61  85 114 156 199 237 299 353
#     4  10  20  40  64  82 119 160 196 241 307 362
#
# _framework density 20.345503000000001
#
# number of rings (size 3 to 8) (size 9 to 14) (size 15 to 20)
#    0.750    1.500    1.250    3.750    1.750    4.000 
#    0.000    5.000    0.000    0.000    0.000    0.000 
#    0.000    0.000    0.000    0.000    0.000    0.000 
#
# Total GULP energy -89190.553056 kJ/mol
# GULP energy per Si atom -5574.409566 kJ/mol
# Density = 2.029920 g / cm^3
# Si number density = 20.345503 Si / 1000 Ang^3
#
#
#
# Elastic Constant Matrix: (Units=GPa)
#
#
# Indices 1 2 3 4 5 6 
#
# 1 52.6613 -4.5444 15.1479 0.0000 -4.2016 0.0000
# 2 -4.5444 30.7526 11.3917 0.0000 18.6119 0.0000
# 3 15.1479 11.3917 88.0801 0.0000 5.6739 0.0000
# 4 0.0000 0.0000 0.0000 14.8381 0.0000 8.1547
# 5 -4.2016 18.6119 5.6739 0.0000 31.3509 0.0000
# 6 0.0000 0.0000 0.0000 8.1547 0.0000 24.4783
#
#
#
# Elastic Compliance Matrix: (Units=1/GPa)
#
#
# Indices 1 2 3 4 5 6 
#
# 1 0.020602 0.003820 -0.004117 0.000000 0.001238 0.000000
# 2 0.003820 0.053440 -0.005623 0.000000 -0.030196 0.000000
# 3 -0.004117 -0.005623 0.012758 0.000000 0.000478 0.000000
# 4 0.000000 0.000000 0.000000 0.082498 0.000000 -0.027483
# 5 0.001238 -0.030196 0.000478 0.000000 0.049902 0.000000
# 6 0.000000 0.000000 0.000000 -0.027483 0.000000 0.050008
#
#
# Mechanical properties :
#
#
# Convention : Reuss Voigt Hill
#
# Bulk Modulus (GPa) = 13.34062 23.94269 18.64165
# Shear Modulus (GPa) = 16.33798 24.10006 20.21902
#
# Velocity S-wave (km/s) = 2.83685 3.44545 3.15585
# Velocity P-wave (km/s) = 4.15951 5.25564 4.73937
#
# Compressibility (1/GPa) = 0.07495903
#
# Stress axis : x y z
#
# Youngs Moduli (GPa) = 48.53914 18.71262 78.38319
#
# Poissons Ratio (x) = -0.07148 0.32270
# Poissons Ratio (y) = -0.18542 0.44078
# Poissons Ratio (z) = 0.19983 0.10523
#
# Static dielectric constant tensor:
#      x y z
#    x 1.764210 0.000000 -0.059110 
#    y 0.000000 1.754010 0.000000 
#    z -0.059110 0.000000 1.717940 
# 
# From -- ./inp_files/9536.got.cif
#   From: 2010.05.17/outbox.cif.g08.bks.cpg/sg9_5_cif.got.tgz:9536.got - 2010.06.03 20:04:27.
