data_PCOD9134339
_publ_section_title
;
Structure prediction by ZEFSAII (Michael W. Deem and Ramdas Pophale) SiO2 
 PCOD9134339
Probable space group: C C
;
_chemical_formula_sum "Si O2"
_cell_formula_units_Z 32
_cell_length_a 14.036993
_cell_length_b 22.533229
_cell_length_c 9.140158
_cell_angle_alpha 90.000000
_cell_angle_beta 148.845715
_cell_angle_gamma 90.000000
_cell_volume 1495.653333
_symmetry_space_group_name_H-M "C C"
_symmetry_group_IT_number 9
_symmetry_cell_setting 'monoclinic'
loop_
_space_group_symop_operation_xyz
x,y,z
x,-y,1/2+z
1/2+x,1/2+y,z
1/2+x,1/2-y,1/2+z
loop_
_atom_site_type_symbol
_atom_site_label
_atom_site_fract_x
_atom_site_fract_y
_atom_site_fract_z
Si Si1 0.745840 0.558484 0.341080
Si Si2 0.799665 0.214575 0.791387
Si Si3 0.162507 0.634258 0.170271
Si Si4 0.158932 0.844612 0.276587
Si Si5 0.531345 0.168663 0.683336
Si Si6 0.479715 0.381597 0.309208
Si Si7 0.795573 0.440426 0.241188
Si Si8 0.008903 0.264683 0.666097
O O1 0.876793 0.616159 0.483667
O O2 0.825462 0.499900 0.371543
O O3 0.720379 0.549480 0.480163
O O4 0.547016 0.567943 0.005794
O O5 0.681042 0.175445 0.749970
O O6 0.914897 0.171553 0.832885
O O7 0.643309 0.242580 0.480870
O O8 0.920435 0.267281 0.026205
O O9 0.325923 0.606240 0.483549
O O10 0.110551 0.694106 0.185688
O O11 0.149747 0.652230 0.983406
O O12 0.990240 0.590918 0.971326
O O13 0.169076 0.894711 0.167825
O O14 0.331438 0.801329 0.479437
O O15 0.155740 0.871415 0.434044
O O16 0.987166 0.798924 0.060423
#
# Coordination Sequence:
#
# PCOD9134339 Si02
#       8
#     4   4   4   4   4   4   4   4
#     4  11  23  44  68  92 125 170 217 270 327 386
#     4  11  22  37  61  96 130 166 215 265 320 381
#     4   9  23  42  62  91 126 167 211 262 325 386
#     4  11  21  37  62  93 131 171 215 263 319 385
#     4  11  23  40  63  93 131 171 215 268 324 386
#     4  11  23  40  65  96 130 170 217 267 322 384
#     4  10  24  44  66  93 126 169 218 266 326 389
#     4  10  19  34  59  90 125 168 208 255 319 379
#
# _framework density 21.395332
#
# number of rings (size 3 to 8) (size 9 to 14) (size 15 to 20)
#    0.000    1.500    0.000    6.000    0.000    8.000 
#    0.000    7.500    0.000    0.000    0.000    0.000 
#    0.000    0.000    0.000    0.000    0.000    0.000 
#
# Total GULP energy -89164.842803 kJ/mol
# GULP energy per Si atom -5572.802675 kJ/mol
# Density = 2.134664 g / cm^3
# Si number density = 21.395332 Si / 1000 Ang^3
#
#
#
# Elastic Constant Matrix: (Units=GPa)
#
#
# Indices 1 2 3 4 5 6 
#
# 1 156.8562 36.5285 38.3237 0.0000 -26.3613 0.0000
# 2 36.5285 63.9010 25.7170 0.0000 -23.5403 0.0000
# 3 38.3237 25.7170 113.3883 0.0000 -34.8362 0.0000
# 4 0.0000 0.0000 0.0000 16.2868 0.0000 -1.2734
# 5 -26.3613 -23.5403 -34.8362 0.0000 34.5972 0.0000
# 6 0.0000 0.0000 0.0000 -1.2734 0.0000 41.1839
#
#
#
# Elastic Compliance Matrix: (Units=1/GPa)
#
#
# Indices 1 2 3 4 5 6 
#
# 1 0.007812 -0.002987 -0.001098 0.000000 0.002814 0.000000
# 2 -0.002987 0.022049 -0.000118 0.000000 0.012607 0.000000
# 3 -0.001098 -0.000118 0.012938 0.000000 0.012110 0.000000
# 4 0.000000 0.000000 0.000000 0.061548 0.000000 0.001903
# 5 0.002814 0.012607 0.012110 0.000000 0.051820 0.000000
# 6 0.000000 0.000000 0.000000 0.001903 0.000000 0.024340
#
#
# Mechanical properties :
#
#
# Convention : Reuss Voigt Hill
#
# Bulk Modulus (GPa) = 29.07636 59.47597 44.27617
# Shear Modulus (GPa) = 24.95290 33.98534 29.46912
#
# Velocity S-wave (km/s) = 3.41879 3.98986 3.71531
# Velocity P-wave (km/s) = 5.40404 7.00601 6.25651
#
# Compressibility (1/GPa) = 0.03439220
#
# Stress axis : x y z
#
# Youngs Moduli (GPa) = 128.00511 45.35447 77.29316
#
# Poissons Ratio (x) = 0.13548 0.08489
# Poissons Ratio (y) = 0.38236 0.00910
# Poissons Ratio (z) = 0.14059 0.00534
#
# Static dielectric constant tensor:
#      x y z
#    x 1.822680 0.000000 0.055330 
#    y 0.000000 1.809970 0.000000 
#    z 0.055330 0.000000 1.876110 
# 
# From -- ./inp_files/10098.got.cif
#   From: 2010.05.17/outbox.cif.g08.bks.cpg/sg9_6_cif.got.tgz:10098.got - 2010.06.03 20:04:27.
