data_PCOD9134377
_publ_section_title
;
Structure prediction by ZEFSAII (Michael W. Deem and Ramdas Pophale) SiO2 
 PCOD9134377
Probable space group: C C
;
_chemical_formula_sum "Si O2"
_cell_formula_units_Z 32
_cell_length_a 5.464676
_cell_length_b 19.149932
_cell_length_c 12.430484
_cell_angle_alpha 90.000000
_cell_angle_beta 101.644800
_cell_angle_gamma 90.000000
_cell_volume 1274.053463
_symmetry_space_group_name_H-M "C C"
_symmetry_group_IT_number 9
_symmetry_cell_setting 'monoclinic'
loop_
_space_group_symop_operation_xyz
x,y,z
x,-y,1/2+z
1/2+x,1/2+y,z
1/2+x,1/2-y,1/2+z
loop_
_atom_site_type_symbol
_atom_site_label
_atom_site_fract_x
_atom_site_fract_y
_atom_site_fract_z
Si Si1 0.440420 0.487760 0.192850
Si Si2 0.805585 0.419485 0.395162
Si Si3 0.399750 0.992684 0.618493
Si Si4 0.811204 0.204636 0.157473
Si Si5 0.303211 0.149718 0.547149
Si Si6 0.803073 0.159894 0.913120
Si Si7 0.839420 0.726698 0.232667
Si Si8 0.303498 0.346535 0.046799
O O1 0.631271 0.466858 0.303783
O O2 0.628875 0.532661 0.136174
O O3 0.360589 0.415931 0.122766
O O4 0.169500 0.519625 0.197772
O O5 0.925919 0.464132 0.500955
O O6 0.584477 0.370744 0.424299
O O7 0.049399 0.383786 0.361162
O O8 0.350104 0.075692 0.606832
O O9 0.825412 0.289208 0.138166
O O10 0.751459 0.177656 0.032805
O O11 0.598668 0.189922 0.225684
O O12 0.089107 0.181834 0.211158
O O13 0.523138 0.154076 0.481151
O O14 0.023300 0.155706 0.480916
O O15 0.822082 0.225571 0.835956
O O16 0.819333 0.780426 0.127932
#
# Coordination Sequence:
#
# PCOD9134377 Si02
#       8
#     4   4   4   4   4   4   4   4
#     4  10  19  35  58  88 122 161 206 263 310 370
#     4  12  24  38  64  99 128 164 220 273 325 388
#     4  10  21  37  60  91 125 162 208 268 318 372
#     4  10  21  37  60  91 125 162 208 268 318 372
#     4   8  16  30  54  78 109 150 199 244 298 356
#     4  12  24  38  64  99 128 164 220 273 325 388
#     4  10  19  35  58  88 122 161 206 263 310 370
#     4   8  14  26  50  80 103 136 193 252 286 330
#
# _framework density 25.116686000000001
#
# number of rings (size 3 to 8) (size 9 to 14) (size 15 to 20)
#    0.000    2.000    1.250    3.000    7.000    0.000 
#    0.000    0.000    8.250    0.000    0.000    0.000 
#    0.000    0.000    0.000    0.000    0.000    0.000 
#
# Total GULP energy -89215.161127 kJ/mol
# GULP energy per Si atom -5575.947570 kJ/mol
# Density = 2.505952 g / cm^3
# Si number density = 25.116686 Si / 1000 Ang^3
#
#
#
# Elastic Constant Matrix: (Units=GPa)
#
#
# Indices 1 2 3 4 5 6 
#
# 1 277.1062 -0.1132 10.8000 0.0000 15.5048 0.0000
# 2 -0.1132 56.1091 8.0757 0.0000 5.2306 0.0000
# 3 10.8000 8.0757 63.1996 0.0000 2.3207 0.0000
# 4 0.0000 0.0000 0.0000 12.5835 0.0000 -0.5997
# 5 15.5048 5.2306 2.3207 0.0000 31.5982 0.0000
# 6 0.0000 0.0000 0.0000 -0.5997 0.0000 10.0460
#
#
#
# Elastic Compliance Matrix: (Units=1/GPa)
#
#
# Indices 1 2 3 4 5 6 
#
# 1 0.003735 0.000265 -0.000605 0.000000 -0.001832 0.000000
# 2 0.000265 0.018433 -0.002290 0.000000 -0.003013 0.000000
# 3 -0.000605 -0.002290 0.016238 0.000000 -0.000517 0.000000
# 4 0.000000 0.000000 0.000000 0.079696 0.000000 0.004758
# 5 -0.001832 -0.003013 -0.000517 0.000000 0.033083 0.000000
# 6 0.000000 0.000000 0.000000 0.004758 0.000000 0.099827
#
#
# Mechanical properties :
#
#
# Convention : Reuss Voigt Hill
#
# Bulk Modulus (GPa) = 30.16862 48.21552 39.19207
# Shear Modulus (GPa) = 18.70419 36.02237 27.36328
#
# Velocity S-wave (km/s) = 2.73186 3.79119 3.30426
# Velocity P-wave (km/s) = 4.68916 6.19697 5.49503
#
# Compressibility (1/GPa) = 0.03314703
#
# Stress axis : x y z
#
# Youngs Moduli (GPa) = 267.74319 54.24909 61.58443
#
# Poissons Ratio (x) = -0.01440 0.03725
# Poissons Ratio (y) = -0.07106 0.14104
# Poissons Ratio (z) = 0.16195 0.12424
#
# Static dielectric constant tensor:
#      x y z
#    x 2.164650 0.000000 -0.033270 
#    y 0.000000 2.035610 0.000000 
#    z -0.033270 0.000000 1.966230 
# 
# From -- ./inp_files/13821.got.cif
#   From: 2010.05.17/outbox.cif.g08.bks.cpg/sg9_7_cif.got.tgz:13821.got - 2010.06.03 20:04:27.
