data_PCOD9134619
_publ_section_title
;
Structure prediction by ZEFSAII (Michael W. Deem and Ramdas Pophale) SiO2 
 PCOD9134619
Probable space group: C C
;
_chemical_formula_sum "Si O2"
_cell_formula_units_Z 32
_cell_length_a 9.031507
_cell_length_b 17.269600
_cell_length_c 15.397120
_cell_angle_alpha 90.000000
_cell_angle_beta 35.683380
_cell_angle_gamma 90.000000
_cell_volume 1400.806534
_symmetry_space_group_name_H-M "C C"
_symmetry_group_IT_number 9
_symmetry_cell_setting 'monoclinic'
loop_
_space_group_symop_operation_xyz
x,y,z
x,-y,1/2+z
1/2+x,1/2+y,z
1/2+x,1/2-y,1/2+z
loop_
_atom_site_type_symbol
_atom_site_label
_atom_site_fract_x
_atom_site_fract_y
_atom_site_fract_z
Si Si1 0.112820 0.765697 0.119230
Si Si2 0.828410 0.912874 0.822590
Si Si3 0.071918 0.788511 0.808458
Si Si4 0.246810 0.405113 0.044872
Si Si5 0.127455 0.978790 0.962920
Si Si6 0.522371 0.147930 0.304862
Si Si7 0.903324 0.376614 0.373142
Si Si8 0.872412 0.083209 0.755082
O O1 0.165550 0.697468 0.162903
O O2 0.855882 0.738983 0.191129
O O3 0.019080 0.841645 0.217678
O O4 0.328152 0.794046 0.949409
O O5 0.691017 0.888449 0.800829
O O6 0.046685 0.851277 0.743561
O O7 0.647438 0.905485 0.994081
O O8 0.907693 0.001939 0.784336
O O9 0.946422 0.833244 0.949717
O O10 0.889888 0.715421 0.878845
O O11 0.433425 0.476773 0.975847
O O12 0.042168 0.396408 0.215838
O O13 0.488306 0.431330 0.104628
O O14 0.378938 0.926487 0.830090
O O15 0.175594 0.063564 0.977533
O O16 0.079849 0.398820 0.371566
#
# Coordination Sequence:
#
# PCOD9134619 Si02
#       8
#     4   4   4   4   4   4   4   4
#     4  10  22  42  64  90 118 169 206 245 302 378
#     4  10  21  42  57  88 128 152 191 264 303 347
#     4   9  21  38  61  87 121 157 200 250 298 363
#     4   9  21  40  59  86 123 154 200 253 299 362
#     4  10  19  39  63  85 119 165 200 246 301 370
#     4  11  21  42  64  89 127 158 205 255 306 357
#     4  10  19  38  65  85 114 162 203 241 304 368
#     4   9  20  39  61  88 120 155 205 244 303 363
#
# _framework density 22.843983000000001
#
# number of rings (size 3 to 8) (size 9 to 14) (size 15 to 20)
#    0.750    1.500    2.500    0.750    0.000    2.000 
#   13.500    0.000    0.000    0.000    0.000    0.000 
#    0.000    0.000    0.000    0.000    0.000    0.000 
#
# Total GULP energy -89185.552025 kJ/mol
# GULP energy per Si atom -5574.097002 kJ/mol
# Density = 2.279199 g / cm^3
# Si number density = 22.843983 Si / 1000 Ang^3
#
#
#
# Elastic Constant Matrix: (Units=GPa)
#
#
# Indices 1 2 3 4 5 6 
#
# 1 50.3010 16.2118 -0.4490 0.0036 8.6660 -0.0135
# 2 16.2118 109.7787 -9.0003 0.0042 -0.8990 -0.0173
# 3 -0.4490 -9.0003 37.8951 -0.0099 -4.4681 -0.0023
# 4 0.0036 0.0042 -0.0099 29.5261 0.0042 14.1237
# 5 8.6660 -0.8990 -4.4681 0.0042 16.7286 0.0016
# 6 -0.0135 -0.0173 -0.0023 14.1237 0.0016 24.2683
#
#
#
# Elastic Compliance Matrix: (Units=1/GPa)
#
#
# Indices 1 2 3 4 5 6 
#
# 1 0.023267 -0.003715 -0.002118 -0.000009 -0.012819 0.000016
# 2 -0.003715 0.009904 0.002682 -0.000004 0.003173 0.000007
# 3 -0.002118 0.002682 0.028030 0.000009 0.008728 -0.000003
# 4 -0.000009 -0.000004 0.000009 0.046934 -0.000002 -0.027315
# 5 -0.012819 0.003173 0.008728 -0.000002 0.068920 -0.000007
# 6 0.000016 0.000007 -0.000003 -0.027315 -0.000007 0.057103
#
#
# Mechanical properties :
#
#
# Convention : Reuss Voigt Hill
#
# Bulk Modulus (GPa) = 18.21501 23.49999 20.85750
# Shear Modulus (GPa) = 19.32307 26.85208 23.08758
#
# Velocity S-wave (km/s) = 2.91154 3.43221 3.18254
# Velocity P-wave (km/s) = 4.39246 5.10061 4.75973
#
# Compressibility (1/GPa) = 0.05489976
#
# Stress axis : x y z
#
# Youngs Moduli (GPa) = 42.97925 100.97236 35.67649
#
# Poissons Ratio (x) = 0.37507 0.07556
# Poissons Ratio (y) = 0.15965 -0.09569
# Poissons Ratio (z) = 0.09103 -0.27084
#
# Static dielectric constant tensor:
#      x y z
#    x 1.906670 0.000000 -0.038070 
#    y 0.000000 1.931660 0.000000 
#    z -0.038070 0.000000 1.887170 
# 
# From -- ./inp_files/23614.got.cif
#   From: 2010.05.17/outbox.cif.g08.bks.cpg/sg9_12_cif.got.tgz:23614.got - 2010.06.03 20:04:27.
