data_PCOD9134646
_publ_section_title
;
Structure prediction by ZEFSAII (Michael W. Deem and Ramdas Pophale) SiO2 
 PCOD9134646
Probable space group: C C
;
_chemical_formula_sum "Si O2"
_cell_formula_units_Z 24
_cell_length_a 8.296303
_cell_length_b 14.478065
_cell_length_c 13.955254
_cell_angle_alpha 90.000000
_cell_angle_beta 146.448986
_cell_angle_gamma 90.000000
_cell_volume 926.415930
_symmetry_space_group_name_H-M "C C"
_symmetry_group_IT_number 9
_symmetry_cell_setting 'monoclinic'
loop_
_space_group_symop_operation_xyz
x,y,z
x,-y,1/2+z
1/2+x,1/2+y,z
1/2+x,1/2-y,1/2+z
loop_
_atom_site_type_symbol
_atom_site_label
_atom_site_fract_x
_atom_site_fract_y
_atom_site_fract_z
Si Si1 0.438750 0.207180 0.797160
Si Si2 0.360029 0.611476 0.465047
Si Si3 0.144644 0.081894 0.422635
Si Si4 0.726813 0.332211 0.610572
Si Si5 0.850179 0.939997 0.581062
Si Si6 0.217684 0.653950 0.728067
O O1 0.546079 0.309420 0.874125
O O2 0.573931 0.188432 0.758123
O O3 0.095678 0.185038 0.620399
O O4 0.584315 0.132633 0.941057
O O5 0.526771 0.551596 0.466669
O O6 0.265983 0.538732 0.498081
O O7 0.069022 0.651777 0.275876
O O8 0.493319 0.072480 0.591981
O O9 0.992225 0.044707 0.253788
O O10 0.588558 0.392535 0.628632
O O11 0.552129 0.353008 0.426292
O O12 0.685245 0.227442 0.627062
#
# Coordination Sequence:
#
# PCOD9134646 Si02
#       6
#     4   4   4   4   4   4
#     4  10  20  42  69  99 132 185 231 267 342 422
#     4  11  26  38  66 108 142 171 230 301 331 400
#     4  11  21  45  72  97 129 195 231 272 349 416
#     4  11  21  40  64 100 134 167 234 282 333 388
#     4  11  21  45  70  92 143 188 223 275 356 413
#     4  10  19  38  71  96 124 182 227 275 327 419
#
# _framework density 25.906291
#
# number of rings (size 3 to 8) (size 9 to 14) (size 15 to 20)
#    0.000    1.333    5.000    2.000    2.333    0.000 
#    0.000   16.667    0.000    0.000    0.000    0.000 
#    0.000    0.000    0.000    0.000    0.000    0.000 
#
# Total GULP energy -67219.079069 kJ/mol
# GULP energy per Si atom -5601.589922 kJ/mol
# Density = 2.584733 g / cm^3
# Si number density = 25.906291 Si / 1000 Ang^3
#
#
#
# Elastic Constant Matrix: (Units=GPa)
#
#
# Indices 1 2 3 4 5 6 
#
# 1 45.7080 5.9605 40.7098 0.0010 1.1392 0.0003
# 2 5.9605 51.1549 20.7561 -0.0004 -0.8692 -0.0005
# 3 40.7098 20.7561 225.6549 0.0037 14.4900 -0.0007
# 4 0.0010 -0.0004 0.0037 36.6061 0.0025 -2.7029
# 5 1.1392 -0.8692 14.4900 0.0025 57.7201 -0.0004
# 6 0.0003 -0.0005 -0.0007 -2.7029 -0.0004 15.5600
#
#
#
# Elastic Compliance Matrix: (Units=1/GPa)
#
#
# Indices 1 2 3 4 5 6 
#
# 1 0.026157 -0.001149 -0.004654 0.000000 0.000635 -0.000001
# 2 -0.001149 0.020392 -0.001717 0.000000 0.000761 0.000001
# 3 -0.004654 -0.001717 0.005514 0.000000 -0.001318 0.000000
# 4 0.000000 0.000000 0.000000 0.027673 -0.000001 0.004807
# 5 0.000635 0.000761 -0.001318 -0.000001 0.017655 0.000000
# 6 -0.000001 0.000001 0.000000 0.004807 0.000000 0.065102
#
#
# Mechanical properties :
#
#
# Convention : Reuss Voigt Hill
#
# Bulk Modulus (GPa) = 27.01028 50.81895 38.91462
# Shear Modulus (GPa) = 26.33328 38.98333 32.65830
#
# Velocity S-wave (km/s) = 3.19169 3.88336 3.55439
# Velocity P-wave (km/s) = 4.90217 6.30606 5.64790
#
# Compressibility (1/GPa) = 0.03702295
#
# Stress axis : x y z
#
# Youngs Moduli (GPa) = 38.23053 49.03877 181.36386
#
# Poissons Ratio (x) = 0.05633 0.84408
# Poissons Ratio (y) = 0.04391 0.31146
# Poissons Ratio (z) = 0.17793 0.08422
#
# Static dielectric constant tensor:
#      x y z
#    x 2.048740 0.000000 0.002360 
#    y 0.000000 2.058780 0.000000 
#    z 0.002360 0.000000 2.049510 
# 
# From -- ./inp_files/9881.got.cif
#   From: 2010.05.17/outbox.cif.g08.bks.cpg/sg9_5_cif.got.tgz:9881.got - 2010.06.03 20:04:27.
