data_PCOD9134775
_publ_section_title
;
Structure prediction by ZEFSAII (Michael W. Deem and Ramdas Pophale) SiO2 
 PCOD9134775
Probable space group: C C
;
_chemical_formula_sum "Si O2"
_cell_formula_units_Z 28
_cell_length_a 6.428044
_cell_length_b 14.502831
_cell_length_c 12.736380
_cell_angle_alpha 90.000000
_cell_angle_beta 68.669505
_cell_angle_gamma 90.000000
_cell_volume 1106.011009
_symmetry_space_group_name_H-M "C C"
_symmetry_group_IT_number 9
_symmetry_cell_setting 'monoclinic'
loop_
_space_group_symop_operation_xyz
x,y,z
x,-y,1/2+z
1/2+x,1/2+y,z
1/2+x,1/2-y,1/2+z
loop_
_atom_site_type_symbol
_atom_site_label
_atom_site_fract_x
_atom_site_fract_y
_atom_site_fract_z
Si Si1 0.207540 0.641899 0.557180
Si Si2 0.457672 0.436529 0.296523
Si Si3 0.194897 0.089593 0.387615
Si Si4 0.086581 0.757626 0.773203
Si Si5 0.998246 0.518369 0.995017
Si Si6 0.622486 0.303934 0.419484
Si Si7 0.542885 0.585732 0.128582
O O1 0.459561 0.622084 0.478580
O O2 0.201357 0.692710 0.668349
O O3 0.092080 0.708722 0.489782
O O4 0.078721 0.546188 0.574931
O O5 0.630281 0.506761 0.321695
O O6 0.546238 0.336774 0.317536
O O7 0.461937 0.485147 0.180955
O O8 0.212947 0.447101 0.392023
O O9 0.253037 0.182591 0.314207
O O10 0.361474 0.046684 0.439708
O O11 0.962478 0.838102 0.726938
O O12 0.893323 0.698300 0.864102
O O13 0.814477 0.587242 0.075312
O O14 0.500352 0.378432 0.518766
#
# Coordination Sequence:
#
# PCOD9134775 Si02
#       7
#     4   4   4   4   4   4   4
#     4   9  20  38  63  91 133 173 220 286 342 393
#     4  10  21  40  64  92 135 173 223 282 338 399
#     4   9  19  39  60  89 130 170 221 277 329 413
#     4   9  19  39  66  89 131 178 220 284 353 389
#     4  11  21  41  64  95 132 176 231 276 336 418
#     4  10  19  41  65  91 133 175 222 284 337 404
#     4  10  21  40  66  95 128 177 223 277 345 410
#
# _framework density 25.316203000000002
#
# number of rings (size 3 to 8) (size 9 to 14) (size 15 to 20)
#    0.000    2.286    1.429    1.714    0.000    0.000 
#   15.429    5.714    0.000    0.000    0.000    0.000 
#    0.000    0.000    0.000    0.000    0.000    0.000 
#
# Total GULP energy -78132.457687 kJ/mol
# GULP energy per Si atom -5580.889835 kJ/mol
# Density = 2.525858 g / cm^3
# Si number density = 25.316203 Si / 1000 Ang^3
#
#
#
# Elastic Constant Matrix: (Units=GPa)
#
#
# Indices 1 2 3 4 5 6 
#
# 1 80.1329 40.9949 8.1609 0.0000 2.3307 0.0000
# 2 40.9949 80.3564 29.3937 0.0000 -1.3622 0.0000
# 3 8.1609 29.3937 90.2585 0.0000 -0.1138 0.0000
# 4 0.0000 0.0000 0.0000 44.5258 0.0000 5.7168
# 5 2.3307 -1.3622 -0.1138 0.0000 25.9856 0.0000
# 6 0.0000 0.0000 0.0000 5.7168 0.0000 50.2531
#
#
#
# Elastic Compliance Matrix: (Units=1/GPa)
#
#
# Indices 1 2 3 4 5 6 
#
# 1 0.017161 -0.009333 0.001485 0.000000 -0.002022 0.000000
# 2 -0.009333 0.019216 -0.005412 0.000000 0.001821 0.000000
# 3 0.001485 -0.005412 0.012707 0.000000 -0.000361 0.000000
# 4 0.000000 0.000000 0.000000 0.022792 0.000000 -0.002593
# 5 -0.002022 0.001821 -0.000361 0.000000 0.038758 0.000000
# 6 0.000000 0.000000 0.000000 -0.002593 0.000000 0.020194
#
#
# Mechanical properties :
#
#
# Convention : Reuss Voigt Hill
#
# Bulk Modulus (GPa) = 44.31506 45.31631 44.81568
# Shear Modulus (GPa) = 30.32709 35.63279 32.97994
#
# Velocity S-wave (km/s) = 3.46487 3.75575 3.61324
# Velocity P-wave (km/s) = 5.79221 6.06189 5.92858
#
# Compressibility (1/GPa) = 0.02256569
#
# Stress axis : x y z
#
# Youngs Moduli (GPa) = 58.27085 52.03955 78.69687
#
# Poissons Ratio (x) = 0.48566 -0.11687
# Poissons Ratio (y) = 0.54381 0.42589
# Poissons Ratio (z) = -0.08653 0.28163
#
# Static dielectric constant tensor:
#      x y z
#    x 1.987250 0.000000 0.079400 
#    y 0.000000 2.030860 0.000000 
#    z 0.079400 0.000000 2.036440 
# 
# From -- ./inp_files/21891.got.cif
#   From: 2010.05.17/outbox.cif.g08.bks.cpg/sg9_11_cif.got.tgz:21891.got - 2010.06.03 20:04:27.
