data_PCOD9134042
_publ_section_title
;
Structure prediction by ZEFSAII (Michael W. Deem and Ramdas Pophale) SiO2 
 PCOD9134042
Probable space group: C C
;
_chemical_formula_sum "Si O2"
_cell_formula_units_Z 28
_cell_length_a 17.272601
_cell_length_b 9.235230
_cell_length_c 18.246693
_cell_angle_alpha 90.000000
_cell_angle_beta 23.873521
_cell_angle_gamma 90.000000
_cell_volume 1177.994444
_symmetry_space_group_name_H-M "C C"
_symmetry_group_IT_number 9
_symmetry_cell_setting 'monoclinic'
loop_
_space_group_symop_operation_xyz
x,y,z
x,-y,1/2+z
1/2+x,1/2+y,z
1/2+x,1/2-y,1/2+z
loop_
_atom_site_type_symbol
_atom_site_label
_atom_site_fract_x
_atom_site_fract_y
_atom_site_fract_z
Si Si1 0.712120 0.680208 0.400320
Si Si2 0.137213 0.428352 0.280495
Si Si3 0.078771 0.539107 0.004953
Si Si4 0.325088 0.786253 0.273256
Si Si5 0.033614 0.027271 0.938430
Si Si6 0.591235 0.565508 0.095128
Si Si7 0.213657 0.118251 0.143641
O O1 0.738336 0.849151 0.394348
O O2 0.559751 0.607681 0.473638
O O3 0.658815 0.595588 0.519919
O O4 0.656849 0.339641 0.364490
O O5 0.092514 0.435551 0.406142
O O6 0.219970 0.278969 0.173930
O O7 0.922009 0.435403 0.436369
O O8 0.307067 0.544288 0.122547
O O9 0.011788 0.379251 0.085126
O O10 0.900458 0.627042 0.195414
O O11 0.261351 0.846309 0.407086
O O12 0.400096 0.622920 0.217991
O O13 0.132179 0.981728 0.778050
O O14 0.579518 0.610084 0.188949
#
# Coordination Sequence:
#
# PCOD9134042 Si02
#       7
#     4   4   4   4   4   4   4
#     4  10  19  37  60  96 124 171 226 271 334 393
#     4  12  19  32  63 101 127 159 221 292 324 375
#     4  10  18  34  63  95 122 163 226 284 311 388
#     4  10  23  42  59  97 134 176 224 275 351 396
#     4  10  21  35  61  92 124 166 223 270 326 391
#     4  10  24  40  59  92 142 178 208 283 357 412
#     4  12  20  36  61  97 137 169 220 287 337 393
#
# _framework density 23.769210999999999
#
# number of rings (size 3 to 8) (size 9 to 14) (size 15 to 20)
#    0.000    1.714    5.714    1.714    0.000    3.429 
#    0.000    0.000    0.000    6.857    3.714    0.000 
#    0.000    0.000    0.000    0.000    0.000    0.000 
#
# Total GULP energy -78030.413217 kJ/mol
# GULP energy per Si atom -5573.600944 kJ/mol
# Density = 2.371511 g / cm^3
# Si number density = 23.769211 Si / 1000 Ang^3
#
#
#
# Elastic Constant Matrix: (Units=GPa)
#
#
# Indices 1 2 3 4 5 6 
#
# 1 91.5707 23.4205 28.4287 0.0001 13.2322 -0.0002
# 2 23.4205 139.3852 18.5572 0.0007 10.6454 -0.0001
# 3 28.4287 18.5572 119.4397 0.0008 -11.3208 -0.0001
# 4 0.0001 0.0007 0.0008 31.7469 -0.0002 -3.8452
# 5 13.2322 10.6454 -11.3208 -0.0002 40.5103 0.0004
# 6 -0.0002 -0.0001 -0.0001 -3.8452 0.0004 14.0117
#
#
#
# Elastic Compliance Matrix: (Units=1/GPa)
#
#
# Indices 1 2 3 4 5 6 
#
# 1 0.013005 -0.001372 -0.003339 0.000000 -0.004820 0.000000
# 2 -0.001372 0.007686 -0.001044 0.000000 -0.001863 0.000000
# 3 -0.003339 -0.001044 0.009716 0.000000 0.004080 0.000000
# 4 0.000000 0.000000 0.000000 0.032582 0.000000 0.008941
# 5 -0.004820 -0.001863 0.004080 0.000000 0.027889 -0.000001
# 6 0.000000 0.000000 0.000000 0.008941 -0.000001 0.073823
#
#
# Mechanical properties :
#
#
# Convention : Reuss Voigt Hill
#
# Bulk Modulus (GPa) = 52.92144 54.57869 53.75007
# Shear Modulus (GPa) = 27.39560 35.91972 31.65766
#
# Velocity S-wave (km/s) = 3.39863 3.89162 3.65345
# Velocity P-wave (km/s) = 6.14117 6.57303 6.36076
#
# Compressibility (1/GPa) = 0.01889593
#
# Stress axis : x y z
#
# Youngs Moduli (GPa) = 76.89537 130.10167 102.92173
#
# Poissons Ratio (x) = 0.17856 0.34365
# Poissons Ratio (y) = 0.10554 0.10747
# Poissons Ratio (z) = 0.25675 0.13585
#
# Static dielectric constant tensor:
#      x y z
#    x 1.922920 0.000000 -0.132480 
#    y 0.000000 2.097290 0.000000 
#    z -0.132480 0.000000 2.028680 
# 
# From -- ./inp_files/19883.got.cif
#   From: 2010.05.17/outbox.cif.g08.bks.cpg/sg9_10_cif.got.tgz:19883.got - 2010.06.03 20:04:27.
