data_PCOD9134503
_publ_section_title
;
Structure prediction by ZEFSAII (Michael W. Deem and Ramdas Pophale) SiO2 
 PCOD9134503
Probable space group: C C
;
_chemical_formula_sum "Si O2"
_cell_formula_units_Z 32
_cell_length_a 19.173198
_cell_length_b 8.726909
_cell_length_c 8.504562
_cell_angle_alpha 90.000000
_cell_angle_beta 75.074456
_cell_angle_gamma 90.000000
_cell_volume 1374.996406
_symmetry_space_group_name_H-M "C C"
_symmetry_group_IT_number 9
_symmetry_cell_setting 'monoclinic'
loop_
_space_group_symop_operation_xyz
x,y,z
x,-y,1/2+z
1/2+x,1/2+y,z
1/2+x,1/2-y,1/2+z
loop_
_atom_site_type_symbol
_atom_site_label
_atom_site_fract_x
_atom_site_fract_y
_atom_site_fract_z
Si Si1 0.130640 0.666886 0.593590
Si Si2 0.626334 0.725708 0.596105
Si Si3 0.924079 0.658516 0.834144
Si Si4 0.939817 0.998677 0.288653
Si Si5 0.207594 0.546141 0.847882
Si Si6 0.851945 0.132974 0.586603
Si Si7 0.600183 0.532282 0.299954
Si Si8 0.504438 0.950576 0.587946
O O1 0.148241 0.578336 0.747428
O O2 0.194745 0.617403 0.437246
O O3 0.120852 0.838741 0.658692
O O4 0.058613 0.596905 0.557345
O O5 0.689557 0.835060 0.498324
O O6 0.611974 0.608470 0.460517
O O7 0.642382 0.623181 0.737345
O O8 0.553879 0.827340 0.649546
O O9 0.938932 0.820715 0.738071
O O10 0.932047 0.516010 0.713019
O O11 0.856198 0.710631 0.982795
O O12 0.984681 0.618031 0.930134
O O13 0.874301 0.000392 0.451152
O O14 0.016964 0.984056 0.323919
O O15 0.919131 0.877673 0.168787
O O16 0.281278 0.589258 0.720643
#
# Coordination Sequence:
#
# PCOD9134503 Si02
#       8
#     4   4   4   4   4   4   4   4
#     4  10  20  34  63  84 121 155 199 261 295 367
#     4  10  22  34  60  83 126 158 192 261 296 373
#     4  10  22  36  60  89 125 161 197 258 306 370
#     4  10  19  37  60  88 119 156 200 259 302 358
#     4  10  21  39  59  87 115 167 208 243 299 365
#     4  10  21  40  60  86 123 165 211 245 297 370
#     4  11  19  38  55  94 120 152 203 249 323 350
#     4  11  18  42  57  95 123 154 206 252 324 355
#
# _framework density 23.272787999999998
#
# number of rings (size 3 to 8) (size 9 to 14) (size 15 to 20)
#    0.750    1.000    2.500    3.750    0.000    3.000 
#    4.500    2.500    0.000    0.000    0.000    0.000 
#    0.000    0.000    0.000    0.000    0.000    0.000 
#
# Total GULP energy -89187.904823 kJ/mol
# GULP energy per Si atom -5574.244051 kJ/mol
# Density = 2.321982 g / cm^3
# Si number density = 23.272788 Si / 1000 Ang^3
#
#
#
# Elastic Constant Matrix: (Units=GPa)
#
#
# Indices 1 2 3 4 5 6 
#
# 1 49.4267 13.4726 24.9514 0.0000 -16.8963 0.0000
# 2 13.4726 95.8867 51.7318 0.0000 -10.6660 0.0000
# 3 24.9514 51.7318 76.5303 0.0000 -34.5864 0.0000
# 4 0.0000 0.0000 0.0000 48.2520 0.0000 1.5590
# 5 -16.8963 -10.6660 -34.5864 0.0000 37.9199 0.0000
# 6 0.0000 0.0000 0.0000 1.5590 0.0000 16.2125
#
#
#
# Elastic Compliance Matrix: (Units=1/GPa)
#
#
# Indices 1 2 3 4 5 6 
#
# 1 0.025079 0.000088 -0.005401 0.000000 0.006273 0.000000
# 2 0.000088 0.018634 -0.017418 0.000000 -0.010606 0.000000
# 3 -0.005401 -0.017418 0.039639 0.000000 0.028849 0.000000
# 4 0.000000 0.000000 0.000000 0.020789 0.000000 -0.001999
# 5 0.006273 -0.010606 0.028849 0.000000 0.052496 0.000000
# 6 0.000000 0.000000 0.000000 -0.001999 0.000000 0.061873
#
#
# Mechanical properties :
#
#
# Convention : Reuss Voigt Hill
#
# Bulk Modulus (GPa) = 26.39199 44.68393 35.53796
# Shear Modulus (GPa) = 18.07652 29.25606 23.66629
#
# Velocity S-wave (km/s) = 2.79000 3.54940 3.19236
# Velocity P-wave (km/s) = 4.66301 6.00328 5.37509
#
# Compressibility (1/GPa) = 0.03789028
#
# Stress axis : x y z
#
# Youngs Moduli (GPa) = 39.87411 53.66561 25.22763
#
# Poissons Ratio (x) = -0.00472 0.13625
# Poissons Ratio (y) = -0.00351 0.43941
# Poissons Ratio (z) = 0.21536 0.93474
#
# Static dielectric constant tensor:
#      x y z
#    x 1.921520 0.000000 -0.017270 
#    y 0.000000 1.884410 0.000000 
#    z -0.017270 0.000000 1.956740 
# 
# From -- ./inp_files/11997.got.cif
#   From: 2010.05.17/outbox.cif.g08.bks.cpg/sg9_6_cif.got.tgz:11997.got - 2010.06.03 20:04:27.
