data_PCOD9134399
_publ_section_title
;
Structure prediction by ZEFSAII (Michael W. Deem and Ramdas Pophale) SiO2 
 PCOD9134399
Probable space group: C C
;
_chemical_formula_sum "Si O2"
_cell_formula_units_Z 20
_cell_length_a 9.158462
_cell_length_b 10.025026
_cell_length_c 9.819517
_cell_angle_alpha 90.000000
_cell_angle_beta 82.813184
_cell_angle_gamma 90.000000
_cell_volume 894.484212
_symmetry_space_group_name_H-M "C C"
_symmetry_group_IT_number 9
_symmetry_cell_setting 'monoclinic'
loop_
_space_group_symop_operation_xyz
x,y,z
x,-y,1/2+z
1/2+x,1/2+y,z
1/2+x,1/2-y,1/2+z
loop_
_atom_site_type_symbol
_atom_site_label
_atom_site_fract_x
_atom_site_fract_y
_atom_site_fract_z
Si Si1 0.286680 0.738643 0.494180
Si Si2 0.442672 0.920796 0.255071
Si Si3 0.224703 0.572380 0.255706
Si Si4 0.953033 0.803315 0.546075
Si Si5 0.936720 0.278320 0.750795
O O1 0.383159 0.832651 0.384664
O O2 0.257088 0.605858 0.408895
O O3 0.373474 0.717177 0.622422
O O4 0.129523 0.809795 0.535477
O O5 0.417439 0.840873 0.118941
O O6 0.618031 0.946793 0.250672
O O7 0.376136 0.069189 0.265885
O O8 0.367447 0.590351 0.147473
O O9 0.112173 0.692825 0.223978
O O10 0.908493 0.799768 0.393375
#
# Coordination Sequence:
#
# PCOD9134399 Si02
#       5
#     4   4   4   4   4
#     4  10  19  35  63  90 117 162 205 247 307 364
#     4   9  19  38  61  82 126 162 193 246 317 354
#     4   8  20  35  59  85 122 162 194 252 301 365
#     4  10  19  36  60  91 119 155 212 245 299 369
#     4   9  19  34  59  88 116 161 194 250 308 354
#
# _framework density 22.359254
#
# number of rings (size 3 to 8) (size 9 to 14) (size 15 to 20)
#    1.200    1.600    0.000    1.200    0.000    3.200 
#    0.000    0.000   35.200    0.000    0.000    0.000 
#    0.000    0.000    0.000    0.000    0.000    0.000 
#
# Total GULP energy -55808.439388 kJ/mol
# GULP energy per Si atom -5580.843939 kJ/mol
# Density = 2.230836 g / cm^3
# Si number density = 22.359254 Si / 1000 Ang^3
#
#
#
# Elastic Constant Matrix: (Units=GPa)
#
#
# Indices 1 2 3 4 5 6 
#
# 1 80.7409 16.7749 65.2880 0.0000 -8.8590 0.0000
# 2 16.7749 56.0947 8.5021 0.0000 1.1920 0.0000
# 3 65.2880 8.5021 156.3218 0.0000 23.8412 0.0000
# 4 0.0000 0.0000 0.0000 4.5246 0.0000 -5.1868
# 5 -8.8590 1.1920 23.8412 0.0000 52.0256 0.0000
# 6 0.0000 0.0000 0.0000 -5.1868 0.0000 23.2902
#
#
#
# Elastic Compliance Matrix: (Units=1/GPa)
#
#
# Indices 1 2 3 4 5 6 
#
# 1 0.023238 -0.005507 -0.010782 0.000000 0.009024 0.000000
# 2 -0.005507 0.019280 0.001572 0.000000 -0.002100 0.000000
# 3 -0.010782 0.001572 0.011934 0.000000 -0.007341 0.000000
# 4 0.000000 0.000000 0.000000 0.296779 0.000000 0.066094
# 5 0.009024 -0.002100 -0.007341 0.000000 0.024170 0.000000
# 6 0.000000 0.000000 0.000000 0.066094 0.000000 0.057656
#
#
# Mechanical properties :
#
#
# Convention : Reuss Voigt Hill
#
# Bulk Modulus (GPa) = 39.97168 52.69860 46.33514
# Shear Modulus (GPa) = 10.61950 29.47425 20.04687
#
# Velocity S-wave (km/s) = 2.18170 3.63466 2.99754
# Velocity P-wave (km/s) = 4.92567 6.42141 5.72262
#
# Compressibility (1/GPa) = 0.02501771
#
# Stress axis : x y z
#
# Youngs Moduli (GPa) = 43.03248 51.86658 83.79107
#
# Poissons Ratio (x) = 0.28562 0.90346
# Poissons Ratio (y) = 0.23697 -0.13168
# Poissons Ratio (z) = 0.46399 -0.08151
#
# Static dielectric constant tensor:
#      x y z
#    x 1.821370 0.000000 -0.006610 
#    y 0.000000 1.876300 0.000000 
#    z -0.006610 0.000000 1.800920 
# 
# From -- ./inp_files/4707.got.cif
#   From: 2010.05.17/outbox.cif.g08.bks.cpg/sg9_3_cif.got.tgz:4707.got - 2010.06.03 20:04:27.
