data_PCOD9134204
_publ_section_title
;
Structure prediction by ZEFSAII (Michael W. Deem and Ramdas Pophale) SiO2 
 PCOD9134204
Probable space group: C C
;
_chemical_formula_sum "Si O2"
_cell_formula_units_Z 24
_cell_length_a 27.070313
_cell_length_b 6.102659
_cell_length_c 12.180864
_cell_angle_alpha 90.000000
_cell_angle_beta 149.588422
_cell_angle_gamma 90.000000
_cell_volume 1018.637168
_symmetry_space_group_name_H-M "C C"
_symmetry_group_IT_number 9
_symmetry_cell_setting 'monoclinic'
loop_
_space_group_symop_operation_xyz
x,y,z
x,-y,1/2+z
1/2+x,1/2+y,z
1/2+x,1/2-y,1/2+z
loop_
_atom_site_type_symbol
_atom_site_label
_atom_site_fract_x
_atom_site_fract_y
_atom_site_fract_z
Si Si1 0.404210 0.195776 0.170260
Si Si2 0.205714 0.914778 0.337559
Si Si3 0.490140 0.513480 0.653625
Si Si4 0.816856 0.124937 0.711718
Si Si5 0.652284 0.785826 0.379443
Si Si6 0.523895 0.845762 0.526551
O O1 0.473940 0.322257 0.222212
O O2 0.381160 0.368211 0.223423
O O3 0.450493 0.976274 0.308979
O O4 0.294491 0.126716 0.925001
O O5 0.245208 0.820896 0.533280
O O6 0.110428 0.776182 0.127611
O O7 0.179362 0.160618 0.317809
O O8 0.395297 0.355308 0.459138
O O9 0.590869 0.381793 0.836879
O O10 0.482715 0.671980 0.533360
O O11 0.748678 0.914927 0.601886
O O12 0.574786 0.969684 0.198106
#
# Coordination Sequence:
#
# PCOD9134204 Si02
#       6
#     4   4   4   4   4   4
#     4  10  21  42  61  94 118 160 212 245 304 366
#     4   8  19  37  62  83 121 163 197 252 310 349
#     4  11  22  40  64  90 120 163 207 247 307 363
#     4   9  20  38  60  87 125 155 197 258 298 360
#     4  10  18  41  61  86 125 163 193 256 312 352
#     4  10  20  40  60  86 129 158 196 260 299 360
#
# _framework density 23.560893
#
# number of rings (size 3 to 8) (size 9 to 14) (size 15 to 20)
#    1.000    1.333    1.667    1.000    0.000    0.000 
#   18.000    0.000    0.000    0.000    0.000    0.000 
#    0.000    0.000    0.000    0.000    0.000    0.000 
#
# Total GULP energy -66869.464347 kJ/mol
# GULP energy per Si atom -5572.455362 kJ/mol
# Density = 2.350727 g / cm^3
# Si number density = 23.560893 Si / 1000 Ang^3
#
#
#
# Elastic Constant Matrix: (Units=GPa)
#
#
# Indices 1 2 3 4 5 6 
#
# 1 30.7672 10.8640 34.8327 0.0000 7.6909 0.0000
# 2 10.8640 51.3450 30.7846 0.0000 13.6777 0.0000
# 3 34.8327 30.7846 74.1803 0.0000 21.3700 0.0000
# 4 0.0000 0.0000 0.0000 39.2168 0.0000 -3.6200
# 5 7.6909 13.6777 21.3700 0.0000 22.2645 0.0000
# 6 0.0000 0.0000 0.0000 -3.6200 0.0000 20.2084
#
#
#
# Elastic Compliance Matrix: (Units=1/GPa)
#
#
# Indices 1 2 3 4 5 6 
#
# 1 0.072230 0.005625 -0.038795 0.000000 0.008830 0.000000
# 2 0.005625 0.027368 -0.011881 0.000000 -0.007352 0.000000
# 3 -0.038795 -0.011881 0.042384 0.000000 -0.019982 0.000000
# 4 0.000000 0.000000 0.000000 0.025928 0.000000 0.004645
# 5 0.008830 -0.007352 -0.019982 0.000000 0.065560 0.000000
# 6 0.000000 0.000000 0.000000 0.004645 0.000000 0.050316
#
#
# Mechanical properties :
#
#
# Convention : Reuss Voigt Hill
#
# Bulk Modulus (GPa) = 19.27512 34.36169 26.81840
# Shear Modulus (GPa) = 12.78177 21.65867 17.22022
#
# Velocity S-wave (km/s) = 2.33169 3.03523 2.70642
# Velocity P-wave (km/s) = 3.93037 5.18646 4.60147
#
# Compressibility (1/GPa) = 0.05188036
#
# Stress axis : x y z
#
# Youngs Moduli (GPa) = 13.84465 36.53940 23.59360
#
# Poissons Ratio (x) = -0.20552 0.91531
# Poissons Ratio (y) = -0.07787 0.28031
# Poissons Ratio (z) = 0.53710 0.43411
#
# Static dielectric constant tensor:
#      x y z
#    x 1.888220 0.000000 -0.001300 
#    y 0.000000 1.895400 0.000000 
#    z -0.001300 0.000000 1.955430 
# 
# From -- ./inp_files/20538.got.cif
#   From: 2010.05.17/outbox.cif.g08.bks.cpg/sg9_11_cif.got.tgz:20538.got - 2010.06.03 20:04:27.
