data_PCOD9134047
_publ_section_title
;
Structure prediction by ZEFSAII (Michael W. Deem and Ramdas Pophale) SiO2 
 PCOD9134047
Probable space group: C C
;
_chemical_formula_sum "Si O2"
_cell_formula_units_Z 28
_cell_length_a 26.495453
_cell_length_b 8.525162
_cell_length_c 5.395829
_cell_angle_alpha 90.000000
_cell_angle_beta 84.431222
_cell_angle_gamma 90.000000
_cell_volume 1213.047009
_symmetry_space_group_name_H-M "C C"
_symmetry_group_IT_number 9
_symmetry_cell_setting 'monoclinic'
loop_
_space_group_symop_operation_xyz
x,y,z
x,-y,1/2+z
1/2+x,1/2+y,z
1/2+x,1/2-y,1/2+z
loop_
_atom_site_type_symbol
_atom_site_label
_atom_site_fract_x
_atom_site_fract_y
_atom_site_fract_z
Si Si1 0.974980 0.589501 0.862180
Si Si2 0.229952 0.341004 0.595846
Si Si3 0.579117 0.578406 0.789223
Si Si4 0.611891 0.916813 0.598471
Si Si5 0.270253 0.312202 0.076136
Si Si6 0.852634 0.413492 0.414414
Si Si7 0.467387 0.452257 0.857154
O O1 0.991299 0.496639 0.607402
O O2 0.913434 0.592291 0.890818
O O3 0.986606 0.773691 0.849744
O O4 0.172861 0.396586 0.575834
O O5 0.249905 0.249136 0.347886
O O6 0.263301 0.500453 0.600734
O O7 0.235942 0.260425 0.858564
O O8 0.598287 0.469130 0.552899
O O9 0.590433 0.753017 0.701823
O O10 0.518343 0.556994 0.831543
O O11 0.598075 0.959775 0.322680
O O12 0.325915 0.250177 0.990098
O O13 0.837575 0.527850 0.648538
O O14 0.438914 0.498734 0.620174
#
# Coordination Sequence:
#
# PCOD9134047 Si02
#       7
#     4   4   4   4   4   4   4
#     4  10  21  40  65  92 121 168 208 249 301 377
#     4  10  19  35  58  78 115 150 204 242 282 350
#     4  10  23  43  61  89 129 156 193 266 317 368
#     4  12  21  40  67  88 120 165 212 258 301 368
#     4  10  18  35  54  82 114 153 192 250 283 339
#     4  10  21  37  56  84 126 155 199 245 297 358
#     4  10  21  42  63  89 131 153 198 258 315 370
#
# _framework density 23.082370000000001
#
# number of rings (size 3 to 8) (size 9 to 14) (size 15 to 20)
#    0.000    1.714    2.857    2.571    0.000    0.000 
#    5.143   21.429    0.000    0.000    0.000    0.000 
#    0.000    0.000    0.000    0.000    0.000    0.000 
#
# Total GULP energy -78218.606547 kJ/mol
# GULP energy per Si atom -5587.043325 kJ/mol
# Density = 2.302983 g / cm^3
# Si number density = 23.082370 Si / 1000 Ang^3
#
#
#
# Elastic Constant Matrix: (Units=GPa)
#
#
# Indices 1 2 3 4 5 6 
#
# 1 36.2235 6.0306 16.3470 0.0000 -4.5526 0.0000
# 2 6.0306 57.7186 14.5751 0.0000 -2.3735 0.0000
# 3 16.3470 14.5751 190.8234 0.0000 16.9500 0.0000
# 4 0.0000 0.0000 0.0000 40.6415 0.0000 -11.4792
# 5 -4.5526 -2.3735 16.9500 0.0000 27.6733 0.0000
# 6 0.0000 0.0000 0.0000 -11.4792 0.0000 44.8820
#
#
#
# Elastic Compliance Matrix: (Units=1/GPa)
#
#
# Indices 1 2 3 4 5 6 
#
# 1 0.030149 -0.002118 -0.003009 0.000000 0.006621 0.000000
# 2 -0.002118 0.017977 -0.001372 0.000000 0.002034 0.000000
# 3 -0.003009 -0.001372 0.005983 0.000000 -0.004277 0.000000
# 4 0.000000 0.000000 0.000000 0.026521 0.000000 0.006783
# 5 0.006621 0.002034 -0.004277 0.000000 0.040020 0.000000
# 6 0.000000 0.000000 0.000000 0.006783 0.000000 0.024016
#
#
# Mechanical properties :
#
#
# Convention : Reuss Voigt Hill
#
# Bulk Modulus (GPa) = 24.32480 39.85233 32.08857
# Shear Modulus (GPa) = 29.17704 39.16022 34.16863
#
# Velocity S-wave (km/s) = 3.55919 4.12338 3.85163
# Velocity P-wave (km/s) = 5.23943 6.32238 5.80620
#
# Compressibility (1/GPa) = 0.04111031
#
# Stress axis : x y z
#
# Youngs Moduli (GPa) = 33.16839 55.62693 167.14072
#
# Poissons Ratio (x) = 0.11781 0.50295
# Poissons Ratio (y) = 0.07025 0.22937
# Poissons Ratio (z) = 0.09981 0.07634
#
# Static dielectric constant tensor:
#      x y z
#    x 1.855800 0.000000 0.029460 
#    y 0.000000 1.795140 0.000000 
#    z 0.029460 0.000000 1.983100 
# 
# From -- ./inp_files/3380.got.cif
#   From: 2010.05.17/outbox.cif.g08.bks.cpg/sg9_2_cif.got.tgz:3380.got - 2010.06.03 20:04:27.
