data_PCOD9134286
_publ_section_title
;
Structure prediction by ZEFSAII (Michael W. Deem and Ramdas Pophale) SiO2 
 PCOD9134286
Probable space group: C C
;
_chemical_formula_sum "Si O2"
_cell_formula_units_Z 32
_cell_length_a 9.479456
_cell_length_b 15.808450
_cell_length_c 7.651126
_cell_angle_alpha 90.000000
_cell_angle_beta 100.867798
_cell_angle_gamma 90.000000
_cell_volume 1125.999557
_symmetry_space_group_name_H-M "C C"
_symmetry_group_IT_number 9
_symmetry_cell_setting 'monoclinic'
loop_
_space_group_symop_operation_xyz
x,y,z
x,-y,1/2+z
1/2+x,1/2+y,z
1/2+x,1/2-y,1/2+z
loop_
_atom_site_type_symbol
_atom_site_label
_atom_site_fract_x
_atom_site_fract_y
_atom_site_fract_z
Si Si1 0.616850 0.413504 0.247390
Si Si2 0.800360 0.063328 0.934220
Si Si3 0.566905 0.610682 0.182829
Si Si4 0.519233 0.924984 0.177296
Si Si5 0.873755 0.864713 0.963710
Si Si6 0.163455 0.682770 0.167586
Si Si7 0.391982 0.105572 0.027548
Si Si8 0.284922 0.835606 0.972076
O O1 0.579949 0.512209 0.239924
O O2 0.722736 0.394320 0.435360
O O3 0.710737 0.401683 0.090403
O O4 0.475814 0.360981 0.155735
O O5 0.690314 0.080769 0.749632
O O6 0.826950 0.963333 0.945202
O O7 0.717939 0.095675 0.088532
O O8 0.956794 0.106919 0.994251
O O9 0.475511 0.653854 0.319001
O O10 0.722759 0.650094 0.264409
O O11 0.457010 0.895415 0.346778
O O12 0.451310 0.860606 0.022219
O O13 0.450563 0.017671 0.125740
O O14 0.735596 0.810111 0.875457
O O15 0.233428 0.749733 0.050216
O O16 0.991853 0.678785 0.131685
#
# Coordination Sequence:
#
# PCOD9134286 Si02
#       8
#     4   4   4   4   4   4   4   4
#     4   9  18  30  49  76 102 144 183 229 279 345
#     4   9  18  30  49  76 102 144 183 229 279 345
#     4   9  17  31  50  74 105 140 186 228 280 340
#     4  10  19  33  54  81 110 146 193 238 285 351
#     4   9  17  31  50  74 105 140 186 228 280 340
#     4  10  20  33  53  81 112 141 185 246 293 331
#     4  10  19  33  54  81 110 146 193 238 285 351
#     4  10  20  33  53  81 112 141 185 246 293 331
#
# _framework density 28.419193
#
# number of rings (size 3 to 8) (size 9 to 14) (size 15 to 20)
#    0.000    2.500    2.500    0.000    0.000    9.000 
#    0.000    0.000    0.000    1.500    0.000   14.000 
#    0.000    0.000    0.000    0.000    0.000    0.000 
#
# Total GULP energy -89358.056369 kJ/mol
# GULP energy per Si atom -5584.878523 kJ/mol
# Density = 2.835451 g / cm^3
# Si number density = 28.419193 Si / 1000 Ang^3
#
#
#
# Elastic Constant Matrix: (Units=GPa)
#
#
# Indices 1 2 3 4 5 6 
#
# 1 27.8801 32.4935 48.3249 0.0000 86.2667 0.0000
# 2 32.4935 100.9429 52.0730 0.0000 22.5192 0.0000
# 3 48.3249 52.0730 322.1517 0.0000 82.1443 0.0000
# 4 0.0000 0.0000 0.0000 21.5789 0.0000 -7.2972
# 5 86.2667 22.5192 82.1443 0.0000 74.8799 0.0000
# 6 0.0000 0.0000 0.0000 -7.2972 0.0000 44.6839
#
#
#
# Elastic Compliance Matrix: (Units=1/GPa)
#
#
# Indices 1 2 3 4 5 6 
#
# 1 -0.012146 0.001604 -0.002613 0.000000 0.016377 0.000000
# 2 0.001604 0.010784 -0.000952 0.000000 -0.004047 0.000000
# 3 -0.002613 -0.000952 0.003900 0.000000 -0.000982 0.000000
# 4 0.000000 0.000000 0.000000 0.049050 0.000000 0.008010
# 5 0.016377 -0.004047 -0.000982 0.000000 -0.003218 0.000000
# 6 0.000000 0.000000 0.000000 0.008010 0.000000 0.023688
#
#
# Mechanical properties :
#
#
# Convention : Reuss Voigt Hill
#
# Bulk Modulus (GPa) = -723.16634 79.63971 -321.76332
# Shear Modulus (GPa) = 66.20830 49.43409 57.82120
#
# Velocity S-wave (km/s) = 4.83194 4.17521 4.51553
# Velocity P-wave (km/s) = 14.96283 7.16430 9.28868
#
# Compressibility (1/GPa) = -0.00138281
#
# Stress axis : x y z
#
# Youngs Moduli (GPa) = -82.33452 92.72930 256.38823
#
# Poissons Ratio (x) = -0.14876 0.67001
# Poissons Ratio (y) = 0.13209 0.24403
# Poissons Ratio (z) = -0.21516 0.08826
#
# Static dielectric constant tensor:
#      x y z
#    x 2.440950 0.000000 0.100370 
#    y 0.000000 2.099370 0.000000 
#    z 0.100370 0.000000 2.408280 
# 
# From -- ./inp_files/16971.got.cif
#   From: 2010.05.17/outbox.cif.g08.bks.cpg/sg9_9_cif.got.tgz:16971.got - 2010.06.03 20:04:27.
