data_PCOD9134496
_publ_section_title
;
Structure prediction by ZEFSAII (Michael W. Deem and Ramdas Pophale) SiO2 
 PCOD9134496
Probable space group: C C
;
_chemical_formula_sum "Si O2"
_cell_formula_units_Z 24
_cell_length_a 5.263907
_cell_length_b 14.629249
_cell_length_c 14.607145
_cell_angle_alpha 90.000000
_cell_angle_beta 112.659341
_cell_angle_gamma 90.000000
_cell_volume 1038.027063
_symmetry_space_group_name_H-M "C C"
_symmetry_group_IT_number 9
_symmetry_cell_setting 'monoclinic'
loop_
_space_group_symop_operation_xyz
x,y,z
x,-y,1/2+z
1/2+x,1/2+y,z
1/2+x,1/2-y,1/2+z
loop_
_atom_site_type_symbol
_atom_site_label
_atom_site_fract_x
_atom_site_fract_y
_atom_site_fract_z
Si Si1 0.732210 0.608677 0.312060
Si Si2 0.607932 0.862866 0.701277
Si Si3 0.350842 0.424978 0.465815
Si Si4 0.356729 0.815370 0.475089
Si Si5 0.734416 0.486777 0.161422
Si Si6 0.050884 0.118045 0.474396
O O1 0.427883 0.650602 0.259374
O O2 0.715214 0.505643 0.266352
O O3 0.783023 0.613002 0.427389
O O4 0.933058 0.657914 0.268505
O O5 0.482105 0.815732 0.595285
O O6 0.529899 0.970737 0.675543
O O7 0.061142 0.379638 0.445105
O O8 0.511566 0.443125 0.584514
O O9 0.361262 0.528321 0.428179
O O10 0.553187 0.358147 0.438248
O O11 0.393221 0.712214 0.448794
O O12 0.675817 0.398046 0.093355
#
# Coordination Sequence:
#
# PCOD9134496 Si02
#       6
#     4   4   4   4   4   4
#     4  10  19  37  58  89 120 157 194 254 300 341
#     4   9  17  37  60  75 128 155 181 257 305 326
#     4   9  21  38  61  85 125 149 198 255 290 347
#     4  11  19  40  62  85 115 163 201 242 304 357
#     4   7  18  38  57  81 117 163 180 248 302 337
#     4  10  22  38  68  91 113 171 206 236 307 374
#
# _framework density 23.120785000000001
#
# number of rings (size 3 to 8) (size 9 to 14) (size 15 to 20)
#    2.000    0.667    1.667    0.000    0.000    4.000 
#    6.000    3.333    0.000    0.000    0.000    0.000 
#    0.000    0.000    0.000    0.000    0.000    0.000 
#
# Total GULP energy -66803.177495 kJ/mol
# GULP energy per Si atom -5566.931458 kJ/mol
# Density = 2.306816 g / cm^3
# Si number density = 23.120785 Si / 1000 Ang^3
#
#
#
# Elastic Constant Matrix: (Units=GPa)
#
#
# Indices 1 2 3 4 5 6 
#
# 1 136.9227 33.8376 44.4858 0.0000 -29.8263 0.0000
# 2 33.8376 113.2632 38.7701 0.0000 -25.7592 0.0000
# 3 44.4858 38.7701 74.0106 0.0000 -15.6985 0.0000
# 4 0.0000 0.0000 0.0000 18.8564 0.0000 -7.8514
# 5 -29.8263 -25.7592 -15.6985 0.0000 39.3219 0.0000
# 6 0.0000 0.0000 0.0000 -7.8514 0.0000 15.0049
#
#
#
# Elastic Compliance Matrix: (Units=1/GPa)
#
#
# Indices 1 2 3 4 5 6 
#
# 1 0.010139 -0.000072 -0.004846 0.000000 0.005709 0.000000
# 2 -0.000072 0.011847 -0.004947 0.000000 0.005731 0.000000
# 3 -0.004846 -0.004947 0.019172 0.000000 0.000738 0.000000
# 4 0.000000 0.000000 0.000000 0.067805 0.000000 0.035480
# 5 0.005709 0.005731 0.000738 0.000000 0.033811 0.000000
# 6 0.000000 0.000000 0.000000 0.035480 0.000000 0.085210
#
#
# Mechanical properties :
#
#
# Convention : Reuss Voigt Hill
#
# Bulk Modulus (GPa) = 46.66596 62.04262 54.35429
# Shear Modulus (GPa) = 19.61879 28.44350 24.03115
#
# Velocity S-wave (km/s) = 2.91612 3.51124 3.22743
# Velocity P-wave (km/s) = 5.61834 6.58262 6.11950
#
# Compressibility (1/GPa) = 0.02142890
#
# Stress axis : x y z
#
# Youngs Moduli (GPa) = 98.62757 84.40654 52.15859
#
# Poissons Ratio (x) = 0.00608 0.25275
# Poissons Ratio (y) = 0.00710 0.25804
# Poissons Ratio (z) = 0.47792 0.41758
#
# Static dielectric constant tensor:
#      x y z
#    x 1.909780 0.000000 0.015680 
#    y 0.000000 1.878080 0.000000 
#    z 0.015680 0.000000 1.935630 
# 
# From -- ./inp_files/28495.got.cif
#   From: 2010.05.17/outbox.cif.g08.bks.cpg/sg9_15_cif.got.tgz:28495.got - 2010.06.03 20:04:27.
