data_PCOD9134008
_publ_section_title
;
Structure prediction by ZEFSAII (Michael W. Deem and Ramdas Pophale) SiO2 
 PCOD9134008
Probable space group: C C
;
_chemical_formula_sum "Si O2"
_cell_formula_units_Z 28
_cell_length_a 13.320906
_cell_length_b 5.368351
_cell_length_c 20.023177
_cell_angle_alpha 90.000000
_cell_angle_beta 120.572884
_cell_angle_gamma 90.000000
_cell_volume 1232.827037
_symmetry_space_group_name_H-M "C C"
_symmetry_group_IT_number 9
_symmetry_cell_setting 'monoclinic'
loop_
_space_group_symop_operation_xyz
x,y,z
x,-y,1/2+z
1/2+x,1/2+y,z
1/2+x,1/2-y,1/2+z
loop_
_atom_site_type_symbol
_atom_site_label
_atom_site_fract_x
_atom_site_fract_y
_atom_site_fract_z
Si Si1 0.649190 0.955820 0.817090
Si Si2 0.355085 0.979277 0.460407
Si Si3 0.412538 0.448964 0.848401
Si Si4 0.091039 0.049209 0.222685
Si Si5 0.850218 0.460695 0.797393
Si Si6 0.652471 0.240966 0.950045
Si Si7 0.887511 0.961600 0.548885
O O1 0.789334 0.974988 0.847177
O O2 0.606875 0.694314 0.774143
O O3 0.590039 0.185433 0.758721
O O4 0.633205 0.023829 0.888985
O O5 0.385826 0.720578 0.506931
O O6 0.222088 0.041706 0.435110
O O7 0.419884 0.221319 0.513452
O O8 0.419161 0.707802 0.811443
O O9 0.530015 0.367451 0.927762
O O10 0.360571 0.000009 0.882291
O O11 0.394695 0.227035 0.789369
O O12 0.217623 0.062861 0.229072
O O13 0.981375 0.016923 0.138314
O O14 0.756102 0.118600 0.029574
#
# Coordination Sequence:
#
# PCOD9134008 Si02
#       7
#     4   4   4   4   4   4   4
#     4  10  20  36  57  82 109 150 191 234 282 331
#     4  10  19  35  55  84 108 141 195 222 282 332
#     4  10  20  32  57  84 110 135 193 241 272 324
#     4  10  18  34  55  80 113 145 187 230 282 340
#     4  10  19  36  55  83 106 147 184 237 275 328
#     4  10  22  34  60  84 111 146 193 233 283 333
#     4  10  20  31  55  87 109 148 187 227 280 350
#
# _framework density 22.712026999999999
#
# number of rings (size 3 to 8) (size 9 to 14) (size 15 to 20)
#    0.857    1.143    2.857    3.429    2.000    0.000 
#    0.000    0.000    0.000   17.143    0.000    0.000 
#    0.000    0.000    0.000    0.000    0.000    0.000 
#
# Total GULP energy -77955.785024 kJ/mol
# GULP energy per Si atom -5568.270359 kJ/mol
# Density = 2.266033 g / cm^3
# Si number density = 22.712027 Si / 1000 Ang^3
#
#
#
# Elastic Constant Matrix: (Units=GPa)
#
#
# Indices 1 2 3 4 5 6 
#
# 1 100.9197 18.1372 31.4942 0.0000 30.8393 0.0000
# 2 18.1372 214.6326 67.9286 0.0000 14.6547 0.0000
# 3 31.4942 67.9286 161.7839 0.0000 36.9743 0.0000
# 4 0.0000 0.0000 0.0000 34.3766 0.0000 4.5980
# 5 30.8393 14.6547 36.9743 0.0000 26.1810 0.0000
# 6 0.0000 0.0000 0.0000 4.5980 0.0000 14.3121
#
#
#
# Elastic Compliance Matrix: (Units=1/GPa)
#
#
# Indices 1 2 3 4 5 6 
#
# 1 0.015856 -0.000518 0.001968 0.000000 -0.021167 0.000000
# 2 -0.000518 0.005391 -0.002381 0.000000 0.000955 0.000000
# 3 0.001968 -0.002381 0.010370 0.000000 -0.015631 0.000000
# 4 0.000000 0.000000 0.000000 0.030396 0.000000 -0.009765
# 5 -0.021167 0.000955 -0.015631 0.000000 0.084669 0.000000
# 6 0.000000 0.000000 0.000000 -0.009765 0.000000 0.073008
#
#
# Mechanical properties :
#
#
# Convention : Reuss Voigt Hill
#
# Bulk Modulus (GPa) = 33.60632 79.16181 56.38407
# Shear Modulus (GPa) = 21.60115 38.95902 30.28009
#
# Velocity S-wave (km/s) = 3.08732 4.14617 3.65529
# Velocity P-wave (km/s) = 5.24762 7.60600 6.53409
#
# Compressibility (1/GPa) = 0.02975631
#
# Stress axis : x y z
#
# Youngs Moduli (GPa) = 63.06783 185.48559 96.43296
#
# Poissons Ratio (x) = 0.09600 -0.18980
# Poissons Ratio (y) = 0.03264 0.22961
# Poissons Ratio (z) = -0.12413 0.44165
#
# Static dielectric constant tensor:
#      x y z
#    x 1.941930 0.000000 0.034120 
#    y 0.000000 1.983940 0.000000 
#    z 0.034120 0.000000 1.826570 
# 
# From -- ./inp_files/36784.got.cif
#   From: 2010.05.17/outbox.cif.g08.bks.cpg/sg9_19_cif.got.tgz:36784.got - 2010.06.03 20:04:27.
