data_PCOD9134535
_publ_section_title
;
Structure prediction by ZEFSAII (Michael W. Deem and Ramdas Pophale) SiO2 
 PCOD9134535
Probable space group: C C
;
_chemical_formula_sum "Si O2"
_cell_formula_units_Z 32
_cell_length_a 16.949822
_cell_length_b 10.666142
_cell_length_c 8.660616
_cell_angle_alpha 90.000000
_cell_angle_beta 55.779905
_cell_angle_gamma 90.000000
_cell_volume 1294.689282
_symmetry_space_group_name_H-M "C C"
_symmetry_group_IT_number 9
_symmetry_cell_setting 'monoclinic'
loop_
_space_group_symop_operation_xyz
x,y,z
x,-y,1/2+z
1/2+x,1/2+y,z
1/2+x,1/2-y,1/2+z
loop_
_atom_site_type_symbol
_atom_site_label
_atom_site_fract_x
_atom_site_fract_y
_atom_site_fract_z
Si Si1 0.557770 0.171041 0.170600
Si Si2 0.975486 0.002651 0.985552
Si Si3 0.330945 0.969789 0.170687
Si Si4 0.553201 0.925650 0.006190
Si Si5 0.813944 0.686865 0.946868
Si Si6 0.018315 0.815951 0.697758
Si Si7 0.214377 0.797022 0.861233
Si Si8 0.879344 0.168733 0.845336
O O1 0.588010 0.129417 0.306845
O O2 0.446025 0.207857 0.293600
O O3 0.588094 0.059080 0.024232
O O4 0.608854 0.291089 0.042107
O O5 0.041416 0.915514 0.805151
O O6 0.899625 0.080508 0.967630
O O7 0.920090 0.910674 0.158871
O O8 0.028489 0.107256 0.027935
O O9 0.440605 0.952000 0.099651
O O10 0.290100 0.839765 0.292552
O O11 0.339148 0.050585 0.000923
O O12 0.259145 0.067013 0.329791
O O13 0.565412 0.819141 0.122772
O O14 0.737207 0.736763 0.156840
O O15 0.906536 0.777059 0.847611
O O16 0.275390 0.710381 0.910023
#
# Coordination Sequence:
#
# PCOD9134535 Si02
#       8
#     4   4   4   4   4   4   4   4
#     4  12  25  43  67 101 135 175 228 291 340 408
#     4  10  21  37  67  91 129 176 221 269 336 416
#     4   9  18  36  66  94 129 171 223 271 331 396
#     4  11  22  39  72  98 133 174 231 284 347 402
#     4   9  18  35  60  94 126 170 223 277 322 400
#     4  10  19  37  63 101 127 175 232 270 348 408
#     4  10  23  40  64  96 140 172 228 273 346 395
#     4  11  22  43  65  91 131 181 218 275 336 405
#
# _framework density 24.716356000000001
#
# number of rings (size 3 to 8) (size 9 to 14) (size 15 to 20)
#    0.750    1.000    3.750    1.500    1.750    1.000 
#    2.250    0.000    2.750    0.000    0.000    0.000 
#    0.000    0.000    0.000    0.000    0.000    0.000 
#
# Total GULP energy -89186.520949 kJ/mol
# GULP energy per Si atom -5574.157559 kJ/mol
# Density = 2.466010 g / cm^3
# Si number density = 24.716356 Si / 1000 Ang^3
#
#
#
# Elastic Constant Matrix: (Units=GPa)
#
#
# Indices 1 2 3 4 5 6 
#
# 1 51.0692 15.0529 23.1327 0.0000 3.0720 0.0000
# 2 15.0529 92.6614 24.8514 0.0000 14.0181 0.0000
# 3 23.1327 24.8514 92.2849 0.0000 11.0880 0.0000
# 4 0.0000 0.0000 0.0000 45.7003 0.0000 9.2712
# 5 3.0720 14.0181 11.0880 0.0000 30.3718 0.0000
# 6 0.0000 0.0000 0.0000 9.2712 0.0000 26.2096
#
#
#
# Elastic Compliance Matrix: (Units=1/GPa)
#
#
# Indices 1 2 3 4 5 6 
#
# 1 0.022553 -0.002403 -0.005089 0.000000 0.000686 0.000000
# 2 -0.002403 0.012484 -0.002193 0.000000 -0.004719 0.000000
# 3 -0.005089 -0.002193 0.013093 0.000000 -0.003253 0.000000
# 4 0.000000 0.000000 0.000000 0.023573 0.000000 -0.008339
# 5 0.000686 -0.004719 -0.003253 0.000000 0.036221 0.000000
# 6 0.000000 0.000000 0.000000 -0.008339 0.000000 0.041104
#
#
# Mechanical properties :
#
#
# Convention : Reuss Voigt Hill
#
# Bulk Modulus (GPa) = 34.76785 40.23217 37.50001
# Shear Modulus (GPa) = 28.09236 31.98825 30.04031
#
# Velocity S-wave (km/s) = 3.37499 3.60142 3.49004
# Velocity P-wave (km/s) = 5.41153 5.79711 5.60764
#
# Compressibility (1/GPa) = 0.02876220
#
# Stress axis : x y z
#
# Youngs Moduli (GPa) = 44.33953 80.10123 76.37733
#
# Poissons Ratio (x) = 0.19246 0.38866
# Poissons Ratio (y) = 0.10654 0.16747
# Poissons Ratio (z) = 0.22563 0.17563
#
# Static dielectric constant tensor:
#      x y z
#    x 1.983010 0.000000 0.033390 
#    y 0.000000 1.960980 0.000000 
#    z 0.033390 0.000000 2.006450 
# 
# From -- ./inp_files/11568.got.cif
#   From: 2010.05.17/outbox.cif.g08.bks.cpg/sg9_6_cif.got.tgz:11568.got - 2010.06.03 20:04:27.
