data_PCOD9134034
_publ_section_title
;
Structure prediction by ZEFSAII (Michael W. Deem and Ramdas Pophale) SiO2 
 PCOD9134034
Probable space group: C C
;
_chemical_formula_sum "Si O2"
_cell_formula_units_Z 28
_cell_length_a 30.102667
_cell_length_b 7.554879
_cell_length_c 18.754665
_cell_angle_alpha 90.000000
_cell_angle_beta 16.615587
_cell_angle_gamma 90.000000
_cell_volume 1219.636679
_symmetry_space_group_name_H-M "C C"
_symmetry_group_IT_number 9
_symmetry_cell_setting 'monoclinic'
loop_
_space_group_symop_operation_xyz
x,y,z
x,-y,1/2+z
1/2+x,1/2+y,z
1/2+x,1/2-y,1/2+z
loop_
_atom_site_type_symbol
_atom_site_label
_atom_site_fract_x
_atom_site_fract_y
_atom_site_fract_z
Si Si1 0.899110 0.141411 0.385200
Si Si2 0.161413 0.987087 0.084628
Si Si3 0.387675 0.073666 0.124443
Si Si4 0.892952 0.230753 0.039951
Si Si5 0.013122 0.462824 0.730633
Si Si6 0.708139 0.890192 0.055109
Si Si7 0.211360 0.628494 0.806978
O O1 0.862201 0.071141 0.363246
O O2 0.744013 0.144988 0.673376
O O3 0.030094 0.029611 0.225598
O O4 0.948422 0.345865 0.310150
O O5 0.203622 0.178523 0.050019
O O6 0.064202 0.857833 0.285925
O O7 0.312233 0.897884 0.817533
O O8 0.316560 0.221000 0.181681
O O9 0.565419 0.070226 0.827793
O O10 0.339713 0.872740 0.179542
O O11 0.904791 0.343254 0.948105
O O12 0.775965 0.068614 0.221537
O O13 0.162359 0.507400 0.552957
O O14 0.055232 0.365050 0.592742
#
# Coordination Sequence:
#
# PCOD9134034 Si02
#       7
#     4   4   4   4   4   4   4
#     4  10  21  40  62  93 128 163 210 261 306 370
#     4  10  20  38  63  85 126 165 200 258 312 367
#     4  11  20  37  65  87 117 165 201 252 310 367
#     4  10  18  34  62  86 114 158 204 240 308 362
#     4  10  20  38  63  85 126 165 200 258 312 367
#     4  10  21  40  62  93 128 163 210 261 306 370
#     4  11  20  37  65  87 117 165 201 252 310 367
#
# _framework density 22.957656
#
# number of rings (size 3 to 8) (size 9 to 14) (size 15 to 20)
#    0.000    1.714    7.143    1.714    0.000    1.143 
#    0.000    7.143    0.000    0.000    0.000    0.000 
#    0.000    0.000    0.000    0.000    0.000    0.000 
#
# Total GULP energy -78049.128792 kJ/mol
# GULP energy per Si atom -5574.937771 kJ/mol
# Density = 2.290540 g / cm^3
# Si number density = 22.957656 Si / 1000 Ang^3
#
#
#
# Elastic Constant Matrix: (Units=GPa)
#
#
# Indices 1 2 3 4 5 6 
#
# 1 118.9778 20.3310 10.8297 0.0000 33.1454 0.0000
# 2 20.3310 110.0266 -10.3118 0.0000 8.9963 0.0000
# 3 10.8297 -10.3118 57.0847 0.0000 34.8931 0.0000
# 4 0.0000 0.0000 0.0000 28.9910 0.0000 15.3601
# 5 33.1454 8.9963 34.8931 0.0000 56.6162 0.0000
# 6 0.0000 0.0000 0.0000 15.3601 0.0000 4.6045
#
#
#
# Elastic Compliance Matrix: (Units=1/GPa)
#
#
# Indices 1 2 3 4 5 6 
#
# 1 0.010434 -0.001109 0.002321 0.000000 -0.007363 0.000000
# 2 -0.001109 0.009967 0.004143 0.000000 -0.003488 0.000000
# 3 0.002321 0.004143 0.030578 0.000000 -0.020863 0.000000
# 4 0.000000 0.000000 0.000000 -0.044946 0.000000 0.149936
# 5 -0.007363 -0.003488 -0.020863 0.000000 0.035385 0.000000
# 6 0.000000 0.000000 0.000000 0.149936 0.000000 -0.282993
#
#
# Mechanical properties :
#
#
# Convention : Reuss Voigt Hill
#
# Bulk Modulus (GPa) = 16.21018 36.42077 26.31548
# Shear Modulus (GPa) = -21.57764 35.72503 7.07370
#
# Velocity S-wave (km/s) = -3.06909 3.94906 1.75724
# Velocity P-wave (km/s) = 2.34154 6.05741 3.95028
#
# Compressibility (1/GPa) = 0.06168962
#
# Stress axis : x y z
#
# Youngs Moduli (GPa) = 95.83787 100.33091 32.70297
#
# Poissons Ratio (x) = 0.11122 -0.07590
# Poissons Ratio (y) = 0.10624 -0.13548
# Poissons Ratio (z) = -0.22242 -0.41565
#
# Static dielectric constant tensor:
#      x y z
#    x 1.898660 0.000000 -0.027120 
#    y 0.000000 1.860220 0.000000 
#    z -0.027120 0.000000 1.883800 
# 
# From -- ./inp_files/25327.got.cif
#   From: 2010.05.17/outbox.cif.g08.bks.cpg/sg9_13_cif.got.tgz:25327.got - 2010.06.03 20:04:27.
