data_PCOD9134126
_publ_section_title
;
Structure prediction by ZEFSAII (Michael W. Deem and Ramdas Pophale) SiO2 
 PCOD9134126
Probable space group: C C
;
_chemical_formula_sum "Si O2"
_cell_formula_units_Z 32
_cell_length_a 7.766141
_cell_length_b 16.639121
_cell_length_c 11.112651
_cell_angle_alpha 90.000000
_cell_angle_beta 57.612887
_cell_angle_gamma 90.000000
_cell_volume 1212.624826
_symmetry_space_group_name_H-M "C C"
_symmetry_group_IT_number 9
_symmetry_cell_setting 'monoclinic'
loop_
_space_group_symop_operation_xyz
x,y,z
x,-y,1/2+z
1/2+x,1/2+y,z
1/2+x,1/2-y,1/2+z
loop_
_atom_site_type_symbol
_atom_site_label
_atom_site_fract_x
_atom_site_fract_y
_atom_site_fract_z
Si Si1 0.403840 0.560966 0.842320
Si Si2 0.507602 0.990184 0.106057
Si Si3 0.490688 0.675997 0.999810
Si Si4 0.597925 0.866915 0.257894
Si Si5 0.024707 0.356721 0.917685
Si Si6 0.907529 0.776979 0.976353
Si Si7 0.500372 0.395934 0.743273
Si Si8 0.499916 0.165253 0.162229
O O1 0.543113 0.622387 0.864466
O O2 0.260974 0.606098 0.798850
O O3 0.535183 0.490247 0.736520
O O4 0.247905 0.512148 0.989172
O O5 0.497064 0.947386 0.240059
O O6 0.424313 0.080934 0.134175
O O7 0.432854 0.926373 0.035011
O O8 0.540350 0.768555 0.967645
O O9 0.578304 0.644055 0.092126
O O10 0.244783 0.668913 0.086351
O O11 0.450448 0.799137 0.369284
O O12 0.715781 0.828802 0.099498
O O13 0.255029 0.387203 0.814596
O O14 0.923168 0.337779 0.827690
O O15 0.031987 0.844034 0.852125
O O16 0.963313 0.737156 0.084231
#
# Coordination Sequence:
#
# PCOD9134126 Si02
#       8
#     4   4   4   4   4   4   4   4
#     4  10  18  37  61  92 112 160 215 254 283 363
#     4  10  18  37  61  92 112 160 215 254 283 363
#     4  10  19  36  57  88 115 153 198 252 302 353
#     4  12  22  38  64  96 124 162 204 262 306 366
#     4  10  19  36  57  88 115 153 198 252 302 353
#     4  12  24  38  62  98 126 160 204 258 312 364
#     4  10  22  35  61  90 115 157 208 257 293 360
#     4  10  22  35  61  90 115 157 208 257 293 360
#
# _framework density 26.389036000000001
#
# number of rings (size 3 to 8) (size 9 to 14) (size 15 to 20)
#    0.000    1.500    5.000    4.500    0.000    0.000 
#    0.000    0.000    0.000    9.000    0.000    0.000 
#    0.000    0.000    0.000    0.000    0.000    0.000 
#
# Total GULP energy -89402.301555 kJ/mol
# GULP energy per Si atom -5587.643847 kJ/mol
# Density = 2.632897 g / cm^3
# Si number density = 26.389036 Si / 1000 Ang^3
#
#
#
# Elastic Constant Matrix: (Units=GPa)
#
#
# Indices 1 2 3 4 5 6 
#
# 1 61.8666 1.3789 25.6436 0.0000 16.4851 0.0000
# 2 1.3789 120.3752 45.5255 0.0000 20.2411 0.0000
# 3 25.6436 45.5255 111.2672 0.0000 30.7478 0.0000
# 4 0.0000 0.0000 0.0000 44.7744 0.0000 20.7152
# 5 16.4851 20.2411 30.7478 0.0000 52.7558 0.0000
# 6 0.0000 0.0000 0.0000 20.7152 0.0000 37.3742
#
#
#
# Elastic Compliance Matrix: (Units=1/GPa)
#
#
# Indices 1 2 3 4 5 6 
#
# 1 0.018935 0.002025 -0.003984 0.000000 -0.004372 0.000000
# 2 0.002025 0.010175 -0.004024 0.000000 -0.002191 0.000000
# 3 -0.003984 -0.004024 0.012851 0.000000 -0.004701 0.000000
# 4 0.000000 0.000000 0.000000 0.030037 0.000000 -0.016648
# 5 -0.004372 -0.002191 -0.004701 0.000000 0.023902 0.000000
# 6 0.000000 0.000000 0.000000 -0.016648 0.000000 0.035984
#
#
# Mechanical properties :
#
#
# Convention : Reuss Voigt Hill
#
# Bulk Modulus (GPa) = 33.34032 48.73390 41.03711
# Shear Modulus (GPa) = 32.49952 41.71162 37.10557
#
# Velocity S-wave (km/s) = 3.51316 3.98004 3.75387
# Velocity P-wave (km/s) = 5.39610 6.29512 5.86287
#
# Compressibility (1/GPa) = 0.02999372
#
# Stress axis : x y z
#
# Youngs Moduli (GPa) = 52.81207 98.28467 77.81313
#
# Poissons Ratio (x) = -0.19904 0.31005
# Poissons Ratio (y) = -0.10695 0.31313
# Poissons Ratio (z) = 0.21043 0.39552
#
# Static dielectric constant tensor:
#      x y z
#    x 2.351140 0.000000 0.032790 
#    y 0.000000 2.128750 0.000000 
#    z 0.032790 0.000000 2.154450 
# 
# From -- ./inp_files/16796.got.cif
#   From: 2010.05.17/outbox.cif.g08.bks.cpg/sg9_9_cif.got.tgz:16796.got - 2010.06.03 20:04:27.
