data_PCOD9134715
_publ_section_title
;
Structure prediction by ZEFSAII (Michael W. Deem and Ramdas Pophale) SiO2 
 PCOD9134715
Probable space group: C C
;
_chemical_formula_sum "Si O2"
_cell_formula_units_Z 32
_cell_length_a 9.300070
_cell_length_b 17.305591
_cell_length_c 10.266747
_cell_angle_alpha 90.000000
_cell_angle_beta 80.998528
_cell_angle_gamma 90.000000
_cell_volume 1632.013220
_symmetry_space_group_name_H-M "C C"
_symmetry_group_IT_number 9
_symmetry_cell_setting 'monoclinic'
loop_
_space_group_symop_operation_xyz
x,y,z
x,-y,1/2+z
1/2+x,1/2+y,z
1/2+x,1/2-y,1/2+z
loop_
_atom_site_type_symbol
_atom_site_label
_atom_site_fract_x
_atom_site_fract_y
_atom_site_fract_z
Si Si1 0.651750 0.177945 0.973450
Si Si2 0.273867 0.830690 0.921765
Si Si3 0.710909 0.945912 0.811499
Si Si4 0.091266 0.288864 0.781959
Si Si5 0.662367 0.518279 0.520800
Si Si6 0.721101 0.370008 0.216376
Si Si7 0.860730 0.951115 0.507947
Si Si8 0.936771 0.447390 0.388093
O O1 0.670496 0.259518 0.900781
O O2 0.536846 0.120961 0.926536
O O3 0.603962 0.196559 0.126240
O O4 0.803772 0.131006 0.962060
O O5 0.428420 0.811352 0.841605
O O6 0.198610 0.913665 0.910297
O O7 0.294871 0.832832 0.076491
O O8 0.693650 0.853956 0.832286
O O9 0.786433 0.960524 0.660927
O O10 0.549618 0.984913 0.833736
O O11 0.798136 0.985547 0.916460
O O12 0.139376 0.200452 0.798292
O O13 0.622426 0.564965 0.658429
O O14 0.532634 0.463106 0.497793
O O15 0.818226 0.476638 0.510084
O O16 0.837990 0.413658 0.286856
#
# Coordination Sequence:
#
# PCOD9134715 Si02
#       8
#     4   4   4   4   4   4   4   4
#     4   9  22  40  60  90 119 165 202 244 314 370
#     4   9  20  39  62  83 124 160 201 245 309 358
#     4  10  22  39  64  91 126 167 203 256 316 376
#     4  10  19  40  63  84 127 164 195 256 308 369
#     4  10  23  38  61  92 122 159 207 258 301 369
#     4   9  23  37  60  90 121 154 210 250 303 369
#     4  10  23  38  62  93 126 156 209 259 310 363
#     4  11  22  39  66  89 121 159 211 252 305 378
#
# _framework density 19.607685
#
# number of rings (size 3 to 8) (size 9 to 14) (size 15 to 20)
#    0.750    1.500    1.250    0.000   10.500    2.000 
#    0.000    1.250    0.000    0.000    0.000    0.000 
#    0.000    0.000    0.000    0.000    0.000    0.000 
#
# Total GULP energy -89130.054054 kJ/mol
# GULP energy per Si atom -5570.628378 kJ/mol
# Density = 1.956306 g / cm^3
# Si number density = 19.607685 Si / 1000 Ang^3
#
#
#
# Elastic Constant Matrix: (Units=GPa)
#
#
# Indices 1 2 3 4 5 6 
#
# 1 79.4363 25.4794 6.5666 0.0000 -9.0173 0.0000
# 2 25.4794 78.4200 9.8479 0.0000 4.6016 0.0000
# 3 6.5666 9.8479 25.0849 0.0000 -4.7538 0.0000
# 4 0.0000 0.0000 0.0000 24.2345 0.0000 -1.7873
# 5 -9.0173 4.6016 -4.7538 0.0000 24.2691 0.0000
# 6 0.0000 0.0000 0.0000 -1.7873 0.0000 21.5735
#
#
#
# Elastic Compliance Matrix: (Units=1/GPa)
#
#
# Indices 1 2 3 4 5 6 
#
# 1 0.015036 -0.005177 -0.000684 0.000000 0.006434 0.000000
# 2 -0.005177 0.015526 -0.005881 0.000000 -0.006019 0.000000
# 3 -0.000684 -0.005881 0.044154 0.000000 0.009510 0.000000
# 4 0.000000 0.000000 0.000000 0.041517 0.000000 0.003440
# 5 0.006434 -0.006019 0.009510 0.000000 0.046599 0.000000
# 6 0.000000 0.000000 0.000000 0.003440 0.000000 0.046638
#
#
# Mechanical properties :
#
#
# Convention : Reuss Voigt Hill
#
# Bulk Modulus (GPa) = 19.51889 29.63657 24.57773
# Shear Modulus (GPa) = 19.99743 23.41858 21.70800
#
# Velocity S-wave (km/s) = 3.19702 3.45970 3.33095
# Velocity P-wave (km/s) = 4.85842 5.57736 5.23025
#
# Compressibility (1/GPa) = 0.05123243
#
# Stress axis : x y z
#
# Youngs Moduli (GPa) = 66.50609 64.40980 22.64779
#
# Poissons Ratio (x) = 0.33345 0.01550
# Poissons Ratio (y) = 0.34430 0.13318
# Poissons Ratio (z) = 0.04551 0.37876
#
# Static dielectric constant tensor:
#      x y z
#    x 1.662620 0.000000 -0.025770 
#    y 0.000000 1.744170 0.000000 
#    z -0.025770 0.000000 1.696660 
# 
# From -- ./inp_files/15070.got.cif
#   From: 2010.05.17/outbox.cif.g08.bks.cpg/sg9_8_cif.got.tgz:15070.got - 2010.06.03 20:04:27.
