data_PCOD9134546
_publ_section_title
;
Structure prediction by ZEFSAII (Michael W. Deem and Ramdas Pophale) SiO2 
 PCOD9134546
Probable space group: C C
;
_chemical_formula_sum "Si O2"
_cell_formula_units_Z 32
_cell_length_a 26.928727
_cell_length_b 7.272259
_cell_length_c 10.504768
_cell_angle_alpha 90.000000
_cell_angle_beta 143.667647
_cell_angle_gamma 90.000000
_cell_volume 1218.811788
_symmetry_space_group_name_H-M "C C"
_symmetry_group_IT_number 9
_symmetry_cell_setting 'monoclinic'
loop_
_space_group_symop_operation_xyz
x,y,z
x,-y,1/2+z
1/2+x,1/2+y,z
1/2+x,1/2-y,1/2+z
loop_
_atom_site_type_symbol
_atom_site_label
_atom_site_fract_x
_atom_site_fract_y
_atom_site_fract_z
Si Si1 0.490510 0.354677 0.835020
Si Si2 0.027239 0.803548 0.304286
Si Si3 0.349607 0.382102 0.834077
Si Si4 0.803997 0.326183 0.920258
Si Si5 0.619292 0.814418 0.779466
Si Si6 0.841945 0.535689 0.229760
Si Si7 0.522878 0.907581 0.197455
Si Si8 0.261215 0.536552 0.416414
O O1 0.521039 0.566057 0.914005
O O2 0.394535 0.283147 0.623488
O O3 0.534288 0.275243 0.798956
O O4 0.532888 0.240073 0.033878
O O5 0.009163 0.583647 0.267272
O O6 0.110484 0.808120 0.388726
O O7 0.946817 0.895674 0.068828
O O8 0.336947 0.176750 0.760509
O O9 0.323591 0.518801 0.666794
O O10 0.298811 0.405599 0.859298
O O11 0.810982 0.510910 0.020234
O O12 0.738210 0.177372 0.839275
O O13 0.796875 0.363838 0.755276
O O14 0.605394 0.024893 0.796058
O O15 0.690616 0.827919 0.823101
O O16 0.938672 0.599175 0.439962
#
# Coordination Sequence:
#
# PCOD9134546 Si02
#       8
#     4   4   4   4   4   4   4   4
#     4  11  18  39  68  92 134 174 232 282 339 402
#     4   9  20  40  64  98 129 172 238 283 328 410
#     4  10  21  40  64  97 135 180 228 283 346 416
#     4  10  19  37  64 101 127 176 228 287 341 406
#     4  10  22  40  61  95 136 178 224 286 341 416
#     4   9  18  36  60  92 135 160 229 288 323 396
#     4   8  19  36  57  94 126 167 217 282 328 391
#     4  11  23  38  66  95 140 185 220 281 360 415
#
# _framework density 26.255077
#
# number of rings (size 3 to 8) (size 9 to 14) (size 15 to 20)
#    0.750    1.500    2.500    0.750    1.750    1.000 
#    2.250    1.250    2.750    0.000    0.000    0.000 
#    0.000    0.000    0.000    0.000    0.000    0.000 
#
# Total GULP energy -89205.059857 kJ/mol
# GULP energy per Si atom -5575.316241 kJ/mol
# Density = 2.619532 g / cm^3
# Si number density = 26.255077 Si / 1000 Ang^3
#
#
#
# Elastic Constant Matrix: (Units=GPa)
#
#
# Indices 1 2 3 4 5 6 
#
# 1 167.0966 21.2276 21.3660 0.0000 4.2745 0.0000
# 2 21.2276 66.0071 5.7125 0.0000 -4.8587 0.0000
# 3 21.3660 5.7125 37.3045 0.0000 -1.0236 0.0000
# 4 0.0000 0.0000 0.0000 16.9118 0.0000 -3.1492
# 5 4.2745 -4.8587 -1.0236 0.0000 34.9332 0.0000
# 6 0.0000 0.0000 0.0000 -3.1492 0.0000 59.9402
#
#
#
# Elastic Compliance Matrix: (Units=1/GPa)
#
#
# Indices 1 2 3 4 5 6 
#
# 1 0.006720 -0.001939 -0.003585 0.000000 -0.001197 0.000000
# 2 -0.001939 0.016064 -0.001283 0.000000 0.002434 0.000000
# 3 -0.003585 -0.001283 0.029086 0.000000 0.001113 0.000000
# 4 0.000000 0.000000 0.000000 0.059715 0.000000 0.003137
# 5 -0.001197 0.002434 0.001113 0.000000 0.029144 0.000000
# 6 0.000000 0.000000 0.000000 0.003137 0.000000 0.016848
#
#
# Mechanical properties :
#
#
# Convention : Reuss Voigt Hill
#
# Bulk Modulus (GPa) = 26.13863 40.78004 33.45933
# Shear Modulus (GPa) = 27.18259 37.16384 32.17322
#
# Velocity S-wave (km/s) = 3.22114 3.76638 3.50438
# Velocity P-wave (km/s) = 4.87971 5.87198 5.39869
#
# Compressibility (1/GPa) = 0.03825756
#
# Stress axis : x y z
#
# Youngs Moduli (GPa) = 148.81247 62.25252 34.38028
#
# Poissons Ratio (x) = 0.12071 0.12324
# Poissons Ratio (y) = 0.28854 0.04409
# Poissons Ratio (z) = 0.53345 0.07984
#
# Static dielectric constant tensor:
#      x y z
#    x 2.135860 0.000000 -0.093000 
#    y 0.000000 2.080250 0.000000 
#    z -0.093000 0.000000 2.163140 
# 
# From -- ./inp_files/20814.got.cif
#   From: 2010.05.17/outbox.cif.g08.bks.cpg/sg9_11_cif.got.tgz:20814.got - 2010.06.03 20:04:27.
