data_PCOD9134830
_publ_section_title
;
Structure prediction by ZEFSAII (Michael W. Deem and Ramdas Pophale) SiO2 
 PCOD9134830
Probable space group: C C
;
_chemical_formula_sum "Si O2"
_cell_formula_units_Z 24
_cell_length_a 7.130021
_cell_length_b 15.906637
_cell_length_c 14.112308
_cell_angle_alpha 90.000000
_cell_angle_beta 40.289701
_cell_angle_gamma 90.000000
_cell_volume 1034.995130
_symmetry_space_group_name_H-M "C C"
_symmetry_group_IT_number 9
_symmetry_cell_setting 'monoclinic'
loop_
_space_group_symop_operation_xyz
x,y,z
x,-y,1/2+z
1/2+x,1/2+y,z
1/2+x,1/2-y,1/2+z
loop_
_atom_site_type_symbol
_atom_site_label
_atom_site_fract_x
_atom_site_fract_y
_atom_site_fract_z
Si Si1 0.985060 0.131093 0.142820
Si Si2 0.616248 0.271853 0.099214
Si Si3 0.043501 0.114411 0.910593
Si Si4 0.015993 0.053470 0.331076
Si Si5 0.038693 0.321860 0.100006
Si Si6 0.827592 0.654980 0.342460
O O1 0.066635 0.078650 0.203478
O O2 0.638022 0.149407 0.275163
O O3 0.123055 0.224589 0.085911
O O4 0.048265 0.087134 0.018508
O O5 0.346942 0.230034 0.257251
O O6 0.794838 0.319568 0.111179
O O7 0.592863 0.327281 0.014430
O O8 0.824311 0.193251 0.990635
O O9 0.363059 0.143311 0.756965
O O10 0.935228 0.041804 0.882524
O O11 0.783924 0.118222 0.464313
O O12 0.288939 0.072546 0.293880
#
# Coordination Sequence:
#
# PCOD9134830 Si02
#       6
#     4   4   4   4   4   4
#     4  10  22  47  62  85 130 167 204 249 310 372
#     4  10  19  44  65  83 128 166 205 251 306 368
#     4  10  22  40  64  93 124 165 199 259 318 352
#     4  12  25  38  67  96 123 158 212 257 308 362
#     4  10  20  42  68  85 126 172 197 249 312 372
#     4  10  22  39  64  92 119 164 209 253 296 374
#
# _framework density 23.188513
#
# number of rings (size 3 to 8) (size 9 to 14) (size 15 to 20)
#    0.000    2.000    5.000    1.000    7.000    1.333 
#    0.000    0.000    0.000    0.000    0.000    0.000 
#    0.000    0.000    0.000    0.000    0.000    0.000 
#
# Total GULP energy -67051.122830 kJ/mol
# GULP energy per Si atom -5587.593569 kJ/mol
# Density = 2.313574 g / cm^3
# Si number density = 23.188513 Si / 1000 Ang^3
#
#
#
# Elastic Constant Matrix: (Units=GPa)
#
#
# Indices 1 2 3 4 5 6 
#
# 1 50.3230 24.0582 18.0468 -0.0007 25.5166 0.0004
# 2 24.0582 63.8723 20.6292 -0.0001 16.4492 0.0002
# 3 18.0468 20.6292 110.6018 -0.0014 35.9840 0.0009
# 4 -0.0007 -0.0001 -0.0014 28.9047 0.0007 6.1094
# 5 25.5166 16.4492 35.9840 0.0007 49.4909 -0.0004
# 6 0.0004 0.0002 0.0009 6.1094 -0.0004 10.9793
#
#
#
# Elastic Compliance Matrix: (Units=1/GPa)
#
#
# Indices 1 2 3 4 5 6 
#
# 1 0.030380 -0.008255 0.001030 0.000002 -0.013668 -0.000002
# 2 -0.008255 0.019630 -0.002065 0.000000 -0.000767 0.000000
# 3 0.001030 -0.002065 0.012061 0.000001 -0.008614 -0.000002
# 4 0.000002 0.000000 0.000001 0.039208 -0.000002 -0.021817
# 5 -0.013668 -0.000767 -0.008614 -0.000002 0.033771 0.000004
# 6 -0.000002 0.000000 -0.000002 -0.021817 0.000004 0.103220
#
#
# Mechanical properties :
#
#
# Convention : Reuss Voigt Hill
#
# Bulk Modulus (GPa) = 22.99410 38.91839 30.95625
# Shear Modulus (GPa) = 18.42657 28.67917 23.55287
#
# Velocity S-wave (km/s) = 2.82200 3.52061 3.19048
# Velocity P-wave (km/s) = 4.53386 5.77461 5.19144
#
# Compressibility (1/GPa) = 0.04348941
#
# Stress axis : x y z
#
# Youngs Moduli (GPa) = 32.91690 50.94223 82.91110
#
# Poissons Ratio (x) = 0.42055 -0.08536
# Poissons Ratio (y) = 0.27174 0.17120
# Poissons Ratio (z) = -0.03389 0.10519
#
# Static dielectric constant tensor:
#      x y z
#    x 1.932240 0.000000 -0.029180 
#    y 0.000000 1.872100 0.000000 
#    z -0.029180 0.000000 1.888830 
# 
# From -- ./inp_files/5113.got.cif
#   From: 2010.05.17/outbox.cif.g08.bks.cpg/sg9_3_cif.got.tgz:5113.got - 2010.06.03 20:04:27.
