data_PCOD9134647
_publ_section_title
;
Structure prediction by ZEFSAII (Michael W. Deem and Ramdas Pophale) SiO2 
 PCOD9134647
Probable space group: C C
;
_chemical_formula_sum "Si O2"
_cell_formula_units_Z 32
_cell_length_a 10.692089
_cell_length_b 9.650911
_cell_length_c 20.358720
_cell_angle_alpha 90.000000
_cell_angle_beta 143.652671
_cell_angle_gamma 90.000000
_cell_volume 1245.089793
_symmetry_space_group_name_H-M "C C"
_symmetry_group_IT_number 9
_symmetry_cell_setting 'monoclinic'
loop_
_space_group_symop_operation_xyz
x,y,z
x,-y,1/2+z
1/2+x,1/2+y,z
1/2+x,1/2-y,1/2+z
loop_
_atom_site_type_symbol
_atom_site_label
_atom_site_fract_x
_atom_site_fract_y
_atom_site_fract_z
Si Si1 0.205230 0.206037 0.026780
Si Si2 0.116032 0.052820 0.421494
Si Si3 0.924496 0.484514 0.281519
Si Si4 0.759502 0.026805 0.068560
Si Si5 0.665020 0.149075 0.281343
Si Si6 0.184975 0.803053 0.088256
Si Si7 0.213917 0.030318 0.826544
Si Si8 0.991701 0.062872 0.048235
O O1 0.200134 0.369024 0.032314
O O2 0.446187 0.159607 0.147239
O O3 0.020885 0.150178 0.996692
O O4 0.140827 0.114346 0.937698
O O5 0.224032 0.065681 0.395808
O O6 0.370661 0.599149 0.327158
O O7 0.220759 0.123450 0.531535
O O8 0.115299 0.546239 0.320878
O O9 0.895677 0.481137 0.347384
O O10 0.724087 0.583233 0.178610
O O11 0.641817 0.141780 0.061887
O O12 0.807506 0.098074 0.018679
O O13 0.990894 0.014308 0.200077
O O14 0.700097 0.302610 0.324343
O O15 0.365818 0.841824 0.217891
O O16 0.999083 0.896931 0.039380
#
# Coordination Sequence:
#
# PCOD9134647 Si02
#       8
#     4   4   4   4   4   4   4   4
#     4   9  20  42  68  98 138 184 228 282 351 413
#     4  11  23  43  72 107 137 181 244 291 341 422
#     4   8  18  44  69  90 138 185 216 280 355 411
#     4  10  19  38  72  93 133 187 225 277 355 409
#     4  10  21  45  69  98 142 189 226 286 362 406
#     4   9  20  41  69  96 134 184 224 283 348 414
#     4  10  23  41  70 108 135 178 241 288 348 418
#     4   7  16  36  59  92 125 170 224 267 328 409
#
# _framework density 25.700956999999999
#
# number of rings (size 3 to 8) (size 9 to 14) (size 15 to 20)
#    0.750    2.000    1.250    0.000    1.750    2.000 
#    9.000   10.000    5.500    0.000    0.000    0.000 
#    0.000    0.000    0.000    0.000    0.000    0.000 
#
# Total GULP energy -89150.063182 kJ/mol
# GULP energy per Si atom -5571.878949 kJ/mol
# Density = 2.564246 g / cm^3
# Si number density = 25.700957 Si / 1000 Ang^3
#
#
#
# Elastic Constant Matrix: (Units=GPa)
#
#
# Indices 1 2 3 4 5 6 
#
# 1 150.9472 51.0844 51.6545 0.0000 -5.8725 0.0000
# 2 51.0844 94.6588 38.9670 0.0000 5.9544 0.0000
# 3 51.6545 38.9670 68.0147 0.0000 -16.6379 0.0000
# 4 0.0000 0.0000 0.0000 30.0018 0.0000 1.1603
# 5 -5.8725 5.9544 -16.6379 0.0000 45.4650 0.0000
# 6 0.0000 0.0000 0.0000 1.1603 0.0000 27.1792
#
#
#
# Elastic Compliance Matrix: (Units=1/GPa)
#
#
# Indices 1 2 3 4 5 6 
#
# 1 0.009505 -0.002708 -0.005799 0.000000 -0.000540 0.000000
# 2 -0.002708 0.015800 -0.008333 0.000000 -0.005469 0.000000
# 3 -0.005799 -0.008333 0.026321 0.000000 0.009974 0.000000
# 4 0.000000 0.000000 0.000000 0.033386 0.000000 -0.001425
# 5 -0.000540 -0.005469 0.009974 0.000000 0.026292 0.000000
# 6 0.000000 0.000000 0.000000 -0.001425 0.000000 0.036854
#
#
# Mechanical properties :
#
#
# Convention : Reuss Voigt Hill
#
# Bulk Modulus (GPa) = 55.72510 66.33693 61.03102
# Shear Modulus (GPa) = 26.62120 31.99021 29.30570
#
# Velocity S-wave (km/s) = 3.22188 3.53187 3.38043
# Velocity P-wave (km/s) = 5.96405 6.51915 6.24777
#
# Compressibility (1/GPa) = 0.01794523
#
# Stress axis : x y z
#
# Youngs Moduli (GPa) = 105.21007 63.29005 37.99252
#
# Poissons Ratio (x) = 0.17141 0.22031
# Poissons Ratio (y) = 0.28494 0.31660
# Poissons Ratio (z) = 0.61010 0.52741
#
# Static dielectric constant tensor:
#      x y z
#    x 2.010090 0.000000 0.027720 
#    y 0.000000 2.012370 0.000000 
#    z 0.027720 0.000000 2.211340 
# 
# From -- ./inp_files/30556.got.cif
#   From: 2010.05.17/outbox.cif.g08.bks.cpg/sg9_16_cif.got.tgz:30556.got - 2010.06.03 20:04:27.
