data_PCOD9134293
_publ_section_title
;
Structure prediction by ZEFSAII (Michael W. Deem and Ramdas Pophale) SiO2 
 PCOD9134293
Probable space group: C C
;
_chemical_formula_sum "Si O2"
_cell_formula_units_Z 28
_cell_length_a 9.823720
_cell_length_b 22.162653
_cell_length_c 5.598454
_cell_angle_alpha 90.000000
_cell_angle_beta 63.769255
_cell_angle_gamma 90.000000
_cell_volume 1093.373656
_symmetry_space_group_name_H-M "C C"
_symmetry_group_IT_number 9
_symmetry_cell_setting 'monoclinic'
loop_
_space_group_symop_operation_xyz
x,y,z
x,-y,1/2+z
1/2+x,1/2+y,z
1/2+x,1/2-y,1/2+z
loop_
_atom_site_type_symbol
_atom_site_label
_atom_site_fract_x
_atom_site_fract_y
_atom_site_fract_z
Si Si1 0.049490 0.100283 0.212960
Si Si2 0.041814 0.095996 0.717743
Si Si3 0.180828 0.396645 0.506875
Si Si4 0.708011 0.845158 0.987348
Si Si5 0.824036 0.333354 0.977182
Si Si6 0.418590 0.970109 0.774287
Si Si7 0.290048 0.208605 0.009046
O O1 0.073674 0.065709 0.440144
O O2 0.877578 0.125327 0.346059
O O3 0.080478 0.067414 0.941291
O O4 0.161698 0.157289 0.128906
O O5 0.138477 0.158675 0.641797
O O6 0.861731 0.103723 0.857606
O O7 0.129542 0.374747 0.282556
O O8 0.102101 0.460690 0.618599
O O9 0.144235 0.356924 0.771029
O O10 0.726116 0.774895 0.022813
O O11 0.866660 0.294370 0.711829
O O12 0.865481 0.402574 0.883249
O O13 0.874660 0.308688 0.196013
O O14 0.377545 0.989867 0.536630
#
# Coordination Sequence:
#
# PCOD9134293 Si02
#       7
#     4   4   4   4   4   4   4
#     4   8  16  28  47  73 108 142 177 221 270 328
#     4   8  16  34  55  75 102 138 177 223 282 340
#     4  10  21  38  58  82 116 154 193 245 300 354
#     4  10  19  33  55  86 117 152 191 237 296 366
#     4  10  21  38  58  82 116 154 193 245 300 354
#     4  12  26  44  62  86 120 162 210 262 304 344
#     4  10  19  33  55  86 117 152 191 237 296 366
#
# _framework density 25.608810999999999
#
# number of rings (size 3 to 8) (size 9 to 14) (size 15 to 20)
#    0.000    2.286    0.000    2.571    0.000    2.286 
#    0.000    4.286    0.000    0.000    0.000    0.000 
#    0.000    0.000    0.000    0.000    0.000    0.000 
#
# Total GULP energy -78116.891910 kJ/mol
# GULP energy per Si atom -5579.777994 kJ/mol
# Density = 2.555052 g / cm^3
# Si number density = 25.608811 Si / 1000 Ang^3
#
#
#
# Elastic Constant Matrix: (Units=GPa)
#
#
# Indices 1 2 3 4 5 6 
#
# 1 66.6149 8.0477 55.9904 0.0000 21.8041 0.0000
# 2 8.0477 92.6159 56.7431 0.0000 19.8916 0.0000
# 3 55.9904 56.7431 277.6242 0.0000 73.6961 0.0000
# 4 0.0000 0.0000 0.0000 22.0378 0.0000 -37.5938
# 5 21.8041 19.8916 73.6961 0.0000 73.5500 0.0000
# 6 0.0000 0.0000 0.0000 -37.5938 0.0000 -145.2556
#
#
#
# Elastic Compliance Matrix: (Units=1/GPa)
#
#
# Indices 1 2 3 4 5 6 
#
# 1 0.018440 0.000919 -0.003256 0.000000 -0.002453 0.000000
# 2 0.000919 0.012455 -0.002404 0.000000 -0.001232 0.000000
# 3 -0.003256 -0.002404 0.005887 0.000000 -0.004283 0.000000
# 4 0.000000 0.000000 0.000000 0.031479 0.000000 -0.008147
# 5 -0.002453 -0.001232 -0.004283 0.000000 0.018949 0.000000
# 6 0.000000 0.000000 0.000000 -0.008147 0.000000 -0.004776
#
#
# Mechanical properties :
#
#
# Convention : Reuss Voigt Hill
#
# Bulk Modulus (GPa) = 36.62865 75.37971 56.00418
# Shear Modulus (GPa) = 49.49802 11.13800 30.31801
#
# Velocity S-wave (km/s) = 4.40119 2.08776 3.44450
# Velocity P-wave (km/s) = 6.33731 5.94227 6.14297
#
# Compressibility (1/GPa) = 0.02730103
#
# Stress axis : x y z
#
# Youngs Moduli (GPa) = 54.23020 80.28995 169.86771
#
# Poissons Ratio (x) = -0.07380 0.55302
# Poissons Ratio (y) = -0.04985 0.40835
# Poissons Ratio (z) = 0.17655 0.19301
#
# Static dielectric constant tensor:
#      x y z
#    x 2.205550 0.000000 -0.045560 
#    y 0.000000 1.891900 0.000000 
#    z -0.045560 0.000000 2.109910 
# 
# From -- ./inp_files/1761.got.cif
#   From: 2010.05.17/outbox.cif.g08.bks.cpg/sg9_1_cif.got.tgz:1761.got - 2010.06.03 20:04:27.
