data_PCOD9134299
_publ_section_title
;
Structure prediction by ZEFSAII (Michael W. Deem and Ramdas Pophale) SiO2 
 PCOD9134299
Probable space group: C C
;
_chemical_formula_sum "Si O2"
_cell_formula_units_Z 32
_cell_length_a 26.212641
_cell_length_b 7.185964
_cell_length_c 15.303138
_cell_angle_alpha 90.000000
_cell_angle_beta 156.273976
_cell_angle_gamma 90.000000
_cell_volume 1159.831855
_symmetry_space_group_name_H-M "C C"
_symmetry_group_IT_number 9
_symmetry_cell_setting 'monoclinic'
loop_
_space_group_symop_operation_xyz
x,y,z
x,-y,1/2+z
1/2+x,1/2+y,z
1/2+x,1/2-y,1/2+z
loop_
_atom_site_type_symbol
_atom_site_label
_atom_site_fract_x
_atom_site_fract_y
_atom_site_fract_z
Si Si1 0.929760 0.061800 0.305970
Si Si2 0.145712 0.751658 0.067821
Si Si3 0.837091 0.812976 0.003886
Si Si4 0.917749 0.397432 0.107113
Si Si5 0.704696 0.741842 0.417106
Si Si6 0.235464 0.137642 0.010591
Si Si7 0.714897 0.692914 0.163493
Si Si8 0.515935 0.178236 0.491606
O O1 0.796495 0.146294 0.124226
O O2 0.035546 0.218420 0.468057
O O3 0.911083 0.968427 0.177588
O O4 0.973672 0.893896 0.434051
O O5 0.260463 0.643358 0.295192
O O6 0.188331 0.967550 0.122642
O O7 0.057593 0.668904 0.853227
O O8 0.911797 0.622257 0.098590
O O9 0.739926 0.745958 0.927552
O O10 0.806765 0.331789 0.002602
O O11 0.856911 0.305533 0.925189
O O12 0.655630 0.549137 0.377846
O O13 0.601120 0.867549 0.207858
O O14 0.200491 0.250016 0.041227
O O15 0.384093 0.081044 0.262932
O O16 0.613915 0.801319 0.064564
#
# Coordination Sequence:
#
# PCOD9134299 Si02
#       8
#     4   4   4   4   4   4   4   4
#     4   9  17  30  53  78 102 136 181 220 267 331
#     4   9  17  33  55  75 107 147 181 231 284 325
#     4   9  18  31  52  79 105 143 185 227 277 333
#     4   8  16  32  52  76 105 139 184 229 274 334
#     4   9  18  32  53  79 106 144 187 223 278 343
#     4  10  19  33  57  83 114 150 190 237 285 342
#     4   9  18  33  56  86 113 147 195 235 282 346
#     4   9  19  36  56  76 110 152 183 234 287 326
#
# _framework density 27.590206999999999
#
# number of rings (size 3 to 8) (size 9 to 14) (size 15 to 20)
#    0.000    3.000    0.000    2.250    0.000    5.000 
#    0.000    0.000    0.000  108.000    0.000    0.000 
#    0.000    0.000    0.000    0.000    0.000    0.000 
#
# Total GULP energy -89373.301421 kJ/mol
# GULP energy per Si atom -5585.831339 kJ/mol
# Density = 2.752741 g / cm^3
# Si number density = 27.590207 Si / 1000 Ang^3
#
#
#
# Elastic Constant Matrix: (Units=GPa)
#
#
# Indices 1 2 3 4 5 6 
#
# 1 76.0605 -11.7862 25.6188 0.0000 -4.4834 0.0000
# 2 -11.7862 72.9595 21.1626 0.0000 3.3034 0.0000
# 3 25.6188 21.1626 178.9043 0.0000 -27.3482 0.0000
# 4 0.0000 0.0000 0.0000 50.4737 0.0000 -4.5861
# 5 -4.4834 3.3034 -27.3482 0.0000 43.1376 0.0000
# 6 0.0000 0.0000 0.0000 -4.5861 0.0000 18.0887
#
#
#
# Elastic Compliance Matrix: (Units=1/GPa)
#
#
# Indices 1 2 3 4 5 6 
#
# 1 0.014439 0.003065 -0.002477 0.000000 -0.000304 0.000000
# 2 0.003065 0.015068 -0.002601 0.000000 -0.002484 0.000000
# 3 -0.002477 -0.002601 0.006913 0.000000 0.004324 0.000000
# 4 0.000000 0.000000 0.000000 0.020279 0.000000 0.005142
# 5 -0.000304 -0.002484 0.004324 0.000000 0.026082 0.000000
# 6 0.000000 0.000000 0.000000 0.005142 0.000000 0.056587
#
#
# Mechanical properties :
#
#
# Convention : Reuss Voigt Hill
#
# Bulk Modulus (GPa) = 30.87022 44.21277 37.54150
# Shear Modulus (GPa) = 32.42718 41.86861 37.14789
#
# Velocity S-wave (km/s) = 3.43201 3.89976 3.67333
# Velocity P-wave (km/s) = 5.18826 6.02802 5.62384
#
# Compressibility (1/GPa) = 0.03239368
#
# Stress axis : x y z
#
# Youngs Moduli (GPa) = 69.25903 66.36474 144.65592
#
# Poissons Ratio (x) = -0.20338 0.35825
# Poissons Ratio (y) = -0.21225 0.37626
# Poissons Ratio (z) = 0.17153 0.17262
#
# Static dielectric constant tensor:
#      x y z
#    x 2.241460 0.000000 0.025350 
#    y 0.000000 2.164290 0.000000 
#    z 0.025350 0.000000 2.128570 
# 
# From -- ./inp_files/31863.got.cif
#   From: 2010.05.17/outbox.cif.g08.bks.cpg/sg9_16_cif.got.tgz:31863.got - 2010.06.03 20:04:27.
