data_PCOD9134903
_publ_section_title
;
Structure prediction by ZEFSAII (Michael W. Deem and Ramdas Pophale) SiO2 
 PCOD9134903
Probable space group: C C
;
_chemical_formula_sum "Si O2"
_cell_formula_units_Z 20
_cell_length_a 19.270216
_cell_length_b 6.911520
_cell_length_c 8.688779
_cell_angle_alpha 90.000000
_cell_angle_beta 122.636297
_cell_angle_gamma 90.000000
_cell_volume 974.514262
_symmetry_space_group_name_H-M "C C"
_symmetry_group_IT_number 9
_symmetry_cell_setting 'monoclinic'
loop_
_space_group_symop_operation_xyz
x,y,z
x,-y,1/2+z
1/2+x,1/2+y,z
1/2+x,1/2-y,1/2+z
loop_
_atom_site_type_symbol
_atom_site_label
_atom_site_fract_x
_atom_site_fract_y
_atom_site_fract_z
Si Si1 0.488010 0.213121 0.982820
Si Si2 0.876241 0.351303 0.832597
Si Si3 0.485461 0.544427 0.788843
Si Si4 0.761418 0.577054 0.456172
Si Si5 0.147375 0.147259 0.583740
O O1 0.456083 0.325397 0.791443
O O2 0.437543 0.023370 0.956744
O O3 0.481235 0.364652 0.115273
O O4 0.585292 0.185828 0.066453
O O5 0.814866 0.302554 0.898258
O O6 0.820452 0.443581 0.630751
O O7 0.931859 0.182284 0.832322
O O8 0.581439 0.519604 0.953054
O O9 0.704326 0.694516 0.506470
O O10 0.703615 0.437444 0.284995
#
# Coordination Sequence:
#
# PCOD9134903 Si02
#       5
#     4   4   4   4   4
#     4  10  21  38  64  86 113 157 198 235 279 357
#     4  11  22  36  64  87 118 146 206 233 292 332
#     4  10  21  38  64  86 113 157 198 235 279 357
#     4  10  20  34  60  88 116 158 176 252 294 336
#     4   9  18  38  62  77 120 156 192 225 306 334
#
# _framework density 20.523046000000001
#
# number of rings (size 3 to 8) (size 9 to 14) (size 15 to 20)
#    1.200    0.800    4.000    0.000    2.800    0.000 
#    0.000    0.000   26.400    0.000    0.000    0.000 
#    0.000    0.000    0.000    0.000    0.000    0.000 
#
# Total GULP energy -55705.071941 kJ/mol
# GULP energy per Si atom -5570.507194 kJ/mol
# Density = 2.047633 g / cm^3
# Si number density = 20.523046 Si / 1000 Ang^3
#
#
#
# Elastic Constant Matrix: (Units=GPa)
#
#
# Indices 1 2 3 4 5 6 
#
# 1 174.2799 18.0894 21.5358 0.0000 -11.8543 0.0000
# 2 18.0894 17.8069 -4.6779 0.0000 6.9869 0.0000
# 3 21.5358 -4.6779 83.4359 0.0000 7.0768 0.0000
# 4 0.0000 0.0000 0.0000 -4.9358 0.0000 -49.7328
# 5 -11.8543 6.9869 7.0768 0.0000 29.1650 0.0000
# 6 0.0000 0.0000 0.0000 -49.7328 0.0000 -89.4270
#
#
#
# Elastic Compliance Matrix: (Units=1/GPa)
#
#
# Indices 1 2 3 4 5 6 
#
# 1 0.007762 -0.011335 -0.003203 0.000000 0.006648 0.000000
# 2 -0.011335 0.080508 0.009665 0.000000 -0.026239 0.000000
# 3 -0.003203 0.009665 0.013948 0.000000 -0.007002 0.000000
# 4 0.000000 0.000000 0.000000 0.044010 0.000000 -0.024475
# 5 0.006648 -0.026239 -0.007002 0.000000 0.044975 0.000000
# 6 0.000000 0.000000 0.000000 -0.024475 0.000000 0.002429
#
#
# Mechanical properties :
#
#
# Convention : Reuss Voigt Hill
#
# Bulk Modulus (GPa) = 10.81416 38.37969 24.59693
# Shear Modulus (GPa) = 21.34908 2.99880 12.17394
#
# Velocity S-wave (km/s) = 3.22879 1.21011 2.43818
# Velocity P-wave (km/s) = 4.37959 4.54905 4.46512
#
# Compressibility (1/GPa) = 0.09247131
#
# Stress axis : x y z
#
# Youngs Moduli (GPa) = 128.82587 12.42116 71.69648
#
# Poissons Ratio (x) = 0.14080 0.22964
# Poissons Ratio (y) = 1.46029 -0.69295
# Poissons Ratio (z) = 0.41262 -0.12005
#
# Static dielectric constant tensor:
#      x y z
#    x 1.766490 0.000000 -0.012420 
#    y 0.000000 1.700050 0.000000 
#    z -0.012420 0.000000 1.760350 
# 
# From -- ./inp_files/10270.got.cif
#   From: 2010.05.17/outbox.cif.g08.bks.cpg/sg9_6_cif.got.tgz:10270.got - 2010.06.03 20:04:27.
