data_PCOD9134351
_publ_section_title
;
Structure prediction by ZEFSAII (Michael W. Deem and Ramdas Pophale) SiO2 
 PCOD9134351
Probable space group: C C
;
_chemical_formula_sum "Si O2"
_cell_formula_units_Z 28
_cell_length_a 9.365142
_cell_length_b 26.558327
_cell_length_c 9.348311
_cell_angle_alpha 90.000000
_cell_angle_beta 33.083655
_cell_angle_gamma 90.000000
_cell_volume 1269.205245
_symmetry_space_group_name_H-M "C C"
_symmetry_group_IT_number 9
_symmetry_cell_setting 'monoclinic'
loop_
_space_group_symop_operation_xyz
x,y,z
x,-y,1/2+z
1/2+x,1/2+y,z
1/2+x,1/2-y,1/2+z
loop_
_atom_site_type_symbol
_atom_site_label
_atom_site_fract_x
_atom_site_fract_y
_atom_site_fract_z
Si Si1 0.560810 0.959552 0.114520
Si Si2 0.120754 0.272057 0.825232
Si Si3 0.195381 0.616049 0.246495
Si Si4 0.869183 0.268998 0.413543
Si Si5 0.172328 0.875937 0.526878
Si Si6 0.418889 0.408743 0.010215
Si Si7 0.513312 0.923480 0.596589
O O1 0.326186 0.929057 0.391236
O O2 0.518559 0.015895 0.099734
O O3 0.612550 0.925433 0.932041
O O4 0.805865 0.957320 0.018518
O O5 0.358902 0.259439 0.519826
O O6 0.054664 0.330612 0.884543
O O7 0.252057 0.257418 0.867975
O O8 0.498402 0.627224 0.030531
O O9 0.132873 0.596376 0.143192
O O10 0.651392 0.252779 0.709930
O O11 0.859905 0.328376 0.389842
O O12 0.970124 0.872703 0.830367
O O13 0.706716 0.411270 0.835685
O O14 0.198322 0.401320 0.315488
#
# Coordination Sequence:
#
# PCOD9134351 Si02
#       7
#     4   4   4   4   4   4   4
#     4  11  25  44  70  98 134 183 242 282 329 404
#     4  10  19  36  62 101 131 158 214 296 337 384
#     4  11  25  39  73 105 131 178 236 281 342 408
#     4  10  19  34  63 102 131 159 217 294 342 382
#     4  11  23  43  73 101 134 179 234 287 342 407
#     4  11  27  47  63  95 139 186 219 285 342 409
#     4  12  28  45  66  96 146 187 226 277 352 406
#
# _framework density 22.061049000000001
#
# number of rings (size 3 to 8) (size 9 to 14) (size 15 to 20)
#    0.000    1.143    4.286    2.571   10.000    0.000 
#    0.000    0.000    0.000    5.143    0.000    0.000 
#    0.000    0.000    0.000    0.000    0.000    0.000 
#
# Total GULP energy -78117.265995 kJ/mol
# GULP energy per Si atom -5579.804714 kJ/mol
# Density = 2.201084 g / cm^3
# Si number density = 22.061049 Si / 1000 Ang^3
#
#
#
# Elastic Constant Matrix: (Units=GPa)
#
#
# Indices 1 2 3 4 5 6 
#
# 1 109.7760 12.5753 46.7455 0.0000 -4.2476 0.0000
# 2 12.5753 97.3255 18.9164 0.0000 0.3173 0.0000
# 3 46.7455 18.9164 136.3231 0.0000 -19.6110 0.0000
# 4 0.0000 0.0000 0.0000 48.6437 0.0000 10.2331
# 5 -4.2476 0.3173 -19.6110 0.0000 34.6921 0.0000
# 6 0.0000 0.0000 0.0000 10.2331 0.0000 16.1096
#
#
#
# Elastic Compliance Matrix: (Units=1/GPa)
#
#
# Indices 1 2 3 4 5 6 
#
# 1 0.010731 -0.000665 -0.003698 0.000000 -0.000771 0.000000
# 2 -0.000665 0.010633 -0.001386 0.000000 -0.000962 0.000000
# 3 -0.003698 -0.001386 0.009506 0.000000 0.004933 0.000000
# 4 0.000000 0.000000 0.000000 0.023729 0.000000 -0.015073
# 5 -0.000771 -0.000962 0.004933 0.000000 0.031528 0.000000
# 6 0.000000 0.000000 0.000000 -0.015073 0.000000 0.071649
#
#
# Mechanical properties :
#
#
# Convention : Reuss Voigt Hill
#
# Bulk Modulus (GPa) = 51.62291 55.54432 53.58361
# Shear Modulus (GPa) = 28.45264 37.56823 33.01044
#
# Velocity S-wave (km/s) = 3.59517 4.13112 3.87243
# Velocity P-wave (km/s) = 6.37844 6.92727 6.65851
#
# Compressibility (1/GPa) = 0.01937125
#
# Stress axis : x y z
#
# Youngs Moduli (GPa) = 93.19150 94.04477 105.20139
#
# Poissons Ratio (x) = 0.06256 0.38904
# Poissons Ratio (y) = 0.06199 0.14579
# Poissons Ratio (z) = 0.34463 0.13033
#
# Static dielectric constant tensor:
#      x y z
#    x 1.801840 0.000000 -0.036660 
#    y 0.000000 1.809900 0.000000 
#    z -0.036660 0.000000 2.015600 
# 
# From -- ./inp_files/1024.got.cif
#   From: 2010.05.17/outbox.cif.g08.bks.cpg/sg9_1_cif.got.tgz:1024.got - 2010.06.03 20:04:27.
