data_PCOD9134307
_publ_section_title
;
Structure prediction by ZEFSAII (Michael W. Deem and Ramdas Pophale) SiO2 
 PCOD9134307
Probable space group: C C
;
_chemical_formula_sum "Si O2"
_cell_formula_units_Z 28
_cell_length_a 10.965050
_cell_length_b 11.885188
_cell_length_c 8.117754
_cell_angle_alpha 90.000000
_cell_angle_beta 98.309246
_cell_angle_gamma 90.000000
_cell_volume 1046.813816
_symmetry_space_group_name_H-M "C C"
_symmetry_group_IT_number 9
_symmetry_cell_setting 'monoclinic'
loop_
_space_group_symop_operation_xyz
x,y,z
x,-y,1/2+z
1/2+x,1/2+y,z
1/2+x,1/2-y,1/2+z
loop_
_atom_site_type_symbol
_atom_site_label
_atom_site_fract_x
_atom_site_fract_y
_atom_site_fract_z
Si Si1 0.137980 0.755219 0.033110
Si Si2 0.308879 0.382705 0.738952
Si Si3 0.404450 0.736615 0.728968
Si Si4 0.970004 0.361063 0.065219
Si Si5 0.149360 0.162889 0.190473
Si Si6 0.088633 0.525261 0.844752
Si Si7 0.964353 0.028543 0.968600
O O1 0.256045 0.740510 0.179030
O O2 0.017580 0.742651 0.125980
O O3 0.152476 0.848681 0.891428
O O4 0.140304 0.642115 0.923422
O O5 0.192907 0.458336 0.766919
O O6 0.410811 0.407554 0.899325
O O7 0.370416 0.432595 0.589600
O O8 0.399237 0.814725 0.892645
O O9 0.269078 0.772894 0.637505
O O10 0.438240 0.614010 0.810950
O O11 0.062073 0.442906 0.987177
O O12 0.037739 0.249810 0.140326
O O13 0.960398 0.439992 0.225835
O O14 0.098211 0.054377 0.078916
#
# Coordination Sequence:
#
# PCOD9134307 Si02
#       7
#     4   4   4   4   4   4   4
#     4  11  22  39  70 101 138 183 243 285 362 411
#     4  12  20  40  70 104 130 185 238 299 328 435
#     4  11  22  42  64  97 145 185 221 301 353 433
#     4  10  19  33  59  90 131 168 230 275 344 402
#     4  10  24  43  59 101 144 182 224 297 365 427
#     4  11  18  34  61 103 124 165 241 293 322 409
#     4  11  25  41  69 100 142 178 241 292 356 413
#
# _framework density 26.747833
#
# number of rings (size 3 to 8) (size 9 to 14) (size 15 to 20)
#    0.000    1.143    5.714    0.857    0.000    2.286 
#    0.000    2.857    0.000    0.000    0.000    0.000 
#    0.000    0.000    0.000    0.000    0.000    0.000 
#
# Total GULP energy -77971.896875 kJ/mol
# GULP energy per Si atom -5569.421205 kJ/mol
# Density = 2.668695 g / cm^3
# Si number density = 26.747833 Si / 1000 Ang^3
#
#
#
# Elastic Constant Matrix: (Units=GPa)
#
#
# Indices 1 2 3 4 5 6 
#
# 1 77.2095 -4.0983 35.6960 0.0000 27.5275 0.0000
# 2 -4.0983 71.5852 39.9970 0.0000 18.9680 0.0000
# 3 35.6960 39.9970 108.7556 0.0000 17.2452 0.0000
# 4 0.0000 0.0000 0.0000 6.1248 0.0000 0.4557
# 5 27.5275 18.9680 17.2452 0.0000 28.6742 0.0000
# 6 0.0000 0.0000 0.0000 0.4557 0.0000 26.4881
#
#
#
# Elastic Compliance Matrix: (Units=1/GPa)
#
#
# Indices 1 2 3 4 5 6 
#
# 1 0.031498 0.017304 -0.011156 0.000000 -0.034975 0.000000
# 2 0.017304 0.029219 -0.011857 0.000000 -0.028809 0.000000
# 3 -0.011156 -0.011857 0.015780 0.000000 0.009063 0.000000
# 4 0.000000 0.000000 0.000000 0.163480 0.000000 -0.002812
# 5 -0.034975 -0.028809 0.009063 0.000000 0.082057 0.000000
# 6 0.000000 0.000000 0.000000 -0.002812 0.000000 0.037801
#
#
# Mechanical properties :
#
#
# Convention : Reuss Voigt Hill
#
# Bulk Modulus (GPa) = 15.36618 44.52663 29.94641
# Shear Modulus (GPa) = 12.72438 24.65447 18.68943
#
# Velocity S-wave (km/s) = 2.18346 3.03931 2.64621
# Velocity P-wave (km/s) = 3.48051 5.38512 4.53395
#
# Compressibility (1/GPa) = 0.06507798
#
# Stress axis : x y z
#
# Youngs Moduli (GPa) = 31.74828 34.22488 63.37054
#
# Poissons Ratio (x) = -0.59223 0.70698
# Poissons Ratio (y) = -0.54937 0.75139
# Poissons Ratio (z) = 0.35419 0.40581
#
# Static dielectric constant tensor:
#      x y z
#    x 2.238320 0.000000 0.231350 
#    y 0.000000 2.227690 0.000000 
#    z 0.231350 0.000000 2.316970 
# 
# From -- ./inp_files/7278.got.cif
#   From: 2010.05.17/outbox.cif.g08.bks.cpg/sg9_4_cif.got.tgz:7278.got - 2010.06.03 20:04:27.
