data_PCOD9134084
_publ_section_title
;
Structure prediction by ZEFSAII (Michael W. Deem and Ramdas Pophale) SiO2 
 PCOD9134084
Probable space group: C C
;
_chemical_formula_sum "Si O2"
_cell_formula_units_Z 28
_cell_length_a 11.841444
_cell_length_b 15.200973
_cell_length_c 8.876818
_cell_angle_alpha 90.000000
_cell_angle_beta 55.097488
_cell_angle_gamma 90.000000
_cell_volume 1310.431632
_symmetry_space_group_name_H-M "C C"
_symmetry_group_IT_number 9
_symmetry_cell_setting 'monoclinic'
loop_
_space_group_symop_operation_xyz
x,y,z
x,-y,1/2+z
1/2+x,1/2+y,z
1/2+x,1/2-y,1/2+z
loop_
_atom_site_type_symbol
_atom_site_label
_atom_site_fract_x
_atom_site_fract_y
_atom_site_fract_z
Si Si1 0.835050 0.269609 0.481590
Si Si2 0.789732 0.541552 0.056086
Si Si3 0.629714 0.763716 0.403878
Si Si4 0.237620 0.589418 0.475136
Si Si5 0.601193 0.603433 0.635534
Si Si6 0.595665 0.955043 0.387293
Si Si7 0.508511 0.485676 0.925153
O O1 0.809074 0.369065 0.446010
O O2 0.761033 0.259232 0.701383
O O3 0.768383 0.192727 0.433277
O O4 0.995463 0.255511 0.397589
O O5 0.746854 0.448668 0.016420
O O6 0.933290 0.530286 0.031853
O O7 0.650971 0.558620 0.258036
O O8 0.611163 0.698942 0.558384
O O9 0.637663 0.866134 0.442907
O O10 0.186096 0.536995 0.370186
O O11 0.125301 0.569169 0.690808
O O12 0.376702 0.552098 0.443319
O O13 0.538241 0.585907 0.849743
O O14 0.505370 0.543164 0.599665
#
# Coordination Sequence:
#
# PCOD9134084 Si02
#       7
#     4   4   4   4   4   4   4
#     4  10  18  36  56  83 110 151 194 223 273 343
#     4   9  21  34  61  82 109 152 189 232 275 337
#     4  10  19  34  58  83 108 151 193 231 265 346
#     4  11  21  37  58  86 116 148 188 238 284 333
#     4  10  19  36  61  83 111 145 201 226 275 328
#     4  10  24  35  58  84 119 144 187 237 295 322
#     4  10  20  34  62  81 113 149 192 231 271 341
#
# _framework density 21.367004999999999
#
# number of rings (size 3 to 8) (size 9 to 14) (size 15 to 20)
#    0.857    1.143    2.857    0.857    4.000    0.000 
#    0.000    1.429    3.143    0.000    0.000    0.000 
#    0.000    0.000    0.000    0.000    0.000    0.000 
#
# Total GULP energy -77966.827886 kJ/mol
# GULP energy per Si atom -5569.059135 kJ/mol
# Density = 2.131837 g / cm^3
# Si number density = 21.367005 Si / 1000 Ang^3
#
#
#
# Elastic Constant Matrix: (Units=GPa)
#
#
# Indices 1 2 3 4 5 6 
#
# 1 39.8498 1.9039 3.5158 0.0000 -21.3593 0.0000
# 2 1.9039 73.1326 -24.4408 0.0000 6.4294 0.0000
# 3 3.5158 -24.4408 44.9971 0.0000 -24.6511 0.0000
# 4 0.0000 0.0000 0.0000 24.8176 0.0000 1.0063
# 5 -21.3593 6.4294 -24.6511 0.0000 29.1038 0.0000
# 6 0.0000 0.0000 0.0000 1.0063 0.0000 31.0413
#
#
#
# Elastic Compliance Matrix: (Units=1/GPa)
#
#
# Indices 1 2 3 4 5 6 
#
# 1 0.066892 0.005725 0.044937 0.000000 0.085889 0.000000
# 2 0.005725 0.018111 0.017724 0.000000 0.015214 0.000000
# 3 0.044937 0.017724 0.082582 0.000000 0.099011 0.000000
# 4 0.000000 0.000000 0.000000 0.040347 0.000000 -0.001308
# 5 0.085889 0.015214 0.099011 0.000000 0.177896 0.000000
# 6 0.000000 0.000000 0.000000 -0.001308 0.000000 0.032258
#
#
# Mechanical properties :
#
#
# Convention : Reuss Voigt Hill
#
# Bulk Modulus (GPa) = 3.28561 13.32635 8.30598
# Shear Modulus (GPa) = 13.06285 28.79259 20.92772
#
# Velocity S-wave (km/s) = 2.47524 3.67485 3.13300
# Velocity P-wave (km/s) = 3.11611 4.92508 4.12108
#
# Compressibility (1/GPa) = 0.30435728
#
# Stress axis : x y z
#
# Youngs Moduli (GPa) = 14.94941 55.21614 12.10922
#
# Poissons Ratio (x) = -0.31613 -0.54415
# Poissons Ratio (y) = -0.08559 -0.21463
# Poissons Ratio (z) = -0.67178 -0.97867
#
# Static dielectric constant tensor:
#      x y z
#    x 1.781350 0.000000 0.032350 
#    y 0.000000 1.830620 0.000000 
#    z 0.032350 0.000000 1.827090 
# 
# From -- ./inp_files/16634.got.cif
#   From: 2010.05.17/outbox.cif.g08.bks.cpg/sg9_9_cif.got.tgz:16634.got - 2010.06.03 20:04:27.
