data_PCOD9134880
_publ_section_title
;
Structure prediction by ZEFSAII (Michael W. Deem and Ramdas Pophale) SiO2 
 PCOD9134880
Probable space group: C C
;
_chemical_formula_sum "Si O2"
_cell_formula_units_Z 28
_cell_length_a 14.980768
_cell_length_b 13.557630
_cell_length_c 8.790898
_cell_angle_alpha 90.000000
_cell_angle_beta 57.369483
_cell_angle_gamma 90.000000
_cell_volume 1503.655850
_symmetry_space_group_name_H-M "C C"
_symmetry_group_IT_number 9
_symmetry_cell_setting 'monoclinic'
loop_
_space_group_symop_operation_xyz
x,y,z
x,-y,1/2+z
1/2+x,1/2+y,z
1/2+x,1/2-y,1/2+z
loop_
_atom_site_type_symbol
_atom_site_label
_atom_site_fract_x
_atom_site_fract_y
_atom_site_fract_z
Si Si1 0.025360 0.118068 0.080230
Si Si2 0.472412 0.187942 0.813330
Si Si3 0.104666 0.779958 0.942173
Si Si4 0.233418 0.821638 0.516268
Si Si5 0.751999 0.898220 0.347695
Si Si6 0.476781 0.416483 0.274372
Si Si7 0.695014 0.100743 0.555818
O O1 0.152686 0.118233 0.985857
O O2 0.986659 0.223756 0.178147
O O3 0.979810 0.031564 0.227614
O O4 0.992759 0.099115 0.937875
O O5 0.568729 0.112128 0.699182
O O6 0.501457 0.237389 0.948809
O O7 0.354591 0.146627 0.913952
O O8 0.067953 0.861286 0.094472
O O9 0.178739 0.818628 0.734607
O O10 0.168055 0.688743 0.957442
O O11 0.230554 0.707578 0.461085
O O12 0.864342 0.875815 0.319906
O O13 0.754568 0.906191 0.162725
O O14 0.717073 0.004983 0.438896
#
# Coordination Sequence:
#
# PCOD9134880 Si02
#       7
#     4   4   4   4   4   4   4
#     4  10  22  33  55  80 105 141 182 220 262 325
#     4   9  18  37  56  77 108 142 172 220 275 316
#     4   9  20  34  55  79 103 138 182 219 266 323
#     4   9  18  37  55  75 107 142 175 222 270 312
#     4  10  20  34  54  78 105 138 171 220 263 312
#     4  12  21  36  54  79 109 140 181 225 266 314
#     4   9  19  33  55  80 103 135 177 210 262 324
#
# _framework density 18.621282999999998
#
# number of rings (size 3 to 8) (size 9 to 14) (size 15 to 20)
#    0.000    2.857    0.000    5.143    0.000    3.429 
#    0.000    7.143    0.000    0.000    0.000    0.000 
#    0.000    0.000    0.000    0.000    0.000    0.000 
#
# Total GULP energy -78082.570794 kJ/mol
# GULP energy per Si atom -5577.326485 kJ/mol
# Density = 1.857890 g / cm^3
# Si number density = 18.621283 Si / 1000 Ang^3
#
#
#
# Elastic Constant Matrix: (Units=GPa)
#
#
# Indices 1 2 3 4 5 6 
#
# 1 157.5968 16.1839 44.5483 0.0000 4.3224 0.0000
# 2 16.1839 51.6938 31.5047 0.0000 15.6958 0.0000
# 3 44.5483 31.5047 45.4958 0.0000 12.4725 0.0000
# 4 0.0000 0.0000 0.0000 22.8328 0.0000 4.8706
# 5 4.3224 15.6958 12.4725 0.0000 27.2750 0.0000
# 6 0.0000 0.0000 0.0000 4.8706 0.0000 20.0968
#
#
#
# Elastic Compliance Matrix: (Units=1/GPa)
#
#
# Indices 1 2 3 4 5 6 
#
# 1 0.009443 0.004190 -0.012664 0.000000 0.001884 0.000000
# 2 0.004190 0.037845 -0.027619 0.000000 -0.009813 0.000000
# 3 -0.012664 -0.027619 0.055564 0.000000 -0.007508 0.000000
# 4 0.000000 0.000000 0.000000 0.046184 0.000000 -0.011193
# 5 0.001884 -0.009813 -0.007508 0.000000 0.045445 0.000000
# 6 0.000000 0.000000 0.000000 -0.011193 0.000000 0.052472
#
#
# Mechanical properties :
#
#
# Convention : Reuss Voigt Hill
#
# Bulk Modulus (GPa) = 32.61010 48.80669 40.70840
# Shear Modulus (GPa) = 15.18085 24.87756 20.02920
#
# Velocity S-wave (km/s) = 2.85834 3.65906 3.28320
# Velocity P-wave (km/s) = 5.33327 6.64219 6.02339
#
# Compressibility (1/GPa) = 0.03066534
#
# Stress axis : x y z
#
# Youngs Moduli (GPa) = 105.89587 26.42382 17.99715
#
# Poissons Ratio (x) = -0.11071 0.22792
# Poissons Ratio (y) = -0.44370 0.49706
# Poissons Ratio (z) = 1.34110 0.72980
#
# Static dielectric constant tensor:
#      x y z
#    x 1.662960 0.000000 -0.026190 
#    y 0.000000 1.650330 0.000000 
#    z -0.026190 0.000000 1.652830 
# 
# From -- ./inp_files/9055.got.cif
#   From: 2010.05.17/outbox.cif.g08.bks.cpg/sg9_5_cif.got.tgz:9055.got - 2010.06.03 20:04:27.
