data_PCOD9134562
_publ_section_title
;
Structure prediction by ZEFSAII (Michael W. Deem and Ramdas Pophale) SiO2 
 PCOD9134562
Probable space group: C C
;
_chemical_formula_sum "Si O2"
_cell_formula_units_Z 32
_cell_length_a 9.677143
_cell_length_b 22.068587
_cell_length_c 14.937890
_cell_angle_alpha 90.000000
_cell_angle_beta 149.528219
_cell_angle_gamma 90.000000
_cell_volume 1617.768925
_symmetry_space_group_name_H-M "C C"
_symmetry_group_IT_number 9
_symmetry_cell_setting 'monoclinic'
loop_
_space_group_symop_operation_xyz
x,y,z
x,-y,1/2+z
1/2+x,1/2+y,z
1/2+x,1/2-y,1/2+z
loop_
_atom_site_type_symbol
_atom_site_label
_atom_site_fract_x
_atom_site_fract_y
_atom_site_fract_z
Si Si1 0.226160 0.448687 0.763410
Si Si2 0.443577 0.976539 0.944714
Si Si3 0.944255 0.250043 0.812003
Si Si4 0.867845 0.992100 0.534686
Si Si5 0.258670 0.886144 0.984242
Si Si6 0.312673 0.155296 0.089187
Si Si7 0.777501 0.869550 0.400554
Si Si8 0.854682 0.272558 0.958920
O O1 0.066834 0.485247 0.596947
O O2 0.026763 0.393548 0.677551
O O3 0.303771 0.484221 0.898338
O O4 0.508759 0.425092 0.880351
O O5 0.171983 0.000809 0.743154
O O6 0.365510 0.914745 0.951291
O O7 0.668820 0.974995 0.993270
O O8 0.943143 0.298042 0.732951
O O9 0.660825 0.214182 0.661709
O O10 0.183905 0.201349 0.944689
O O11 0.908734 0.285049 0.885106
O O12 0.808996 0.919651 0.495724
O O13 0.500626 0.884033 0.192275
O O14 0.166386 0.818121 0.907094
O O15 0.049687 0.124833 0.990656
O O16 0.785327 0.798414 0.433319
#
# Coordination Sequence:
#
# PCOD9134562 Si02
#       8
#     4   4   4   4   4   4   4   4
#     4  12  28  46  66 105 145 179 230 286 351 401
#     4  12  28  44  69  99 137 182 230 284 344 409
#     4   8  18  37  63  97 125 172 231 264 332 404
#     4  12  26  46  70 103 134 184 231 283 345 413
#     4  12  24  45  67  99 141 178 227 292 342 404
#     4  10  21  41  67  97 135 184 218 288 336 408
#     4  10  22  42  74  96 133 182 228 285 337 409
#     4  10  19  37  66 102 124 175 227 270 335 408
#
# _framework density 19.780328000000001
#
# number of rings (size 3 to 8) (size 9 to 14) (size 15 to 20)
#    0.000    1.500    5.000    1.500    8.750    0.000 
#    4.500    0.000    0.000    0.000    0.000    0.000 
#    0.000    0.000    0.000    0.000    0.000    0.000 
#
# Total GULP energy -89164.915235 kJ/mol
# GULP energy per Si atom -5572.807202 kJ/mol
# Density = 1.973531 g / cm^3
# Si number density = 19.780328 Si / 1000 Ang^3
#
#
#
# Elastic Constant Matrix: (Units=GPa)
#
#
# Indices 1 2 3 4 5 6 
#
# 1 50.6705 28.1516 23.0011 0.0024 -8.4337 0.0002
# 2 28.1516 101.4391 35.3355 0.0021 6.0675 0.0010
# 3 23.0011 35.3355 131.1317 0.0058 -12.9205 0.0060
# 4 0.0024 0.0021 0.0058 22.0786 0.0029 3.8454
# 5 -8.4337 6.0675 -12.9205 0.0029 39.5112 0.0021
# 6 0.0002 0.0010 0.0060 3.8454 0.0021 21.2083
#
#
#
# Elastic Compliance Matrix: (Units=1/GPa)
#
#
# Indices 1 2 3 4 5 6 
#
# 1 0.025332 -0.006647 -0.002086 -0.000002 0.005746 0.000000
# 2 -0.006647 0.012913 -0.002737 0.000001 -0.004297 0.000001
# 3 -0.002086 -0.002737 0.009017 -0.000002 0.002924 -0.000002
# 4 -0.000002 0.000001 -0.000002 0.046770 -0.000004 -0.008480
# 5 0.005746 -0.004297 0.002924 -0.000004 0.028152 -0.000003
# 6 0.000000 0.000001 -0.000002 -0.008480 -0.000003 0.048689
#
#
# Mechanical properties :
#
#
# Convention : Reuss Voigt Hill
#
# Bulk Modulus (GPa) = 41.11522 50.69085 45.90304
# Shear Modulus (GPa) = 24.76224 29.67651 27.21937
#
# Velocity S-wave (km/s) = 3.54200 3.87758 3.71358
# Velocity P-wave (km/s) = 6.12852 6.76240 6.45325
#
# Compressibility (1/GPa) = 0.02432189
#
# Stress axis : x y z
#
# Youngs Moduli (GPa) = 39.47647 77.43934 110.89589
#
# Poissons Ratio (x) = 0.51475 0.23133
# Poissons Ratio (y) = 0.26240 0.30354
# Poissons Ratio (z) = 0.08235 0.21196
#
# Static dielectric constant tensor:
#      x y z
#    x 1.567520 -0.000010 0.140760 
#    y -0.000010 1.754080 0.000000 
#    z 0.140760 0.000000 1.459020 
# 
# From -- ./inp_files/10154.got.cif
#   From: 2010.05.17/outbox.cif.g08.bks.cpg/sg9_6_cif.got.tgz:10154.got - 2010.06.03 20:04:27.
