data_PCOD9134716
_publ_section_title
;
Structure prediction by ZEFSAII (Michael W. Deem and Ramdas Pophale) SiO2 
 PCOD9134716
Probable space group: C C
;
_chemical_formula_sum "Si O2"
_cell_formula_units_Z 24
_cell_length_a 12.043262
_cell_length_b 11.377798
_cell_length_c 8.365628
_cell_angle_alpha 90.000000
_cell_angle_beta 119.239208
_cell_angle_gamma 90.000000
_cell_volume 1000.253665
_symmetry_space_group_name_H-M "C C"
_symmetry_group_IT_number 9
_symmetry_cell_setting 'monoclinic'
loop_
_space_group_symop_operation_xyz
x,y,z
x,-y,1/2+z
1/2+x,1/2+y,z
1/2+x,1/2-y,1/2+z
loop_
_atom_site_type_symbol
_atom_site_label
_atom_site_fract_x
_atom_site_fract_y
_atom_site_fract_z
Si Si1 0.842890 0.930127 0.906870
Si Si2 0.451014 0.068028 0.867031
Si Si3 0.399221 0.810928 0.921842
Si Si4 0.007040 0.896634 0.317589
Si Si5 0.222947 0.649755 0.010517
Si Si6 0.791887 0.589115 0.046047
O O1 0.753800 0.860285 0.721504
O O2 0.943242 0.993575 0.860833
O O3 0.924959 0.870847 0.103033
O O4 0.763862 0.031414 0.943532
O O5 0.477382 0.935383 0.958694
O O6 0.352400 0.031124 0.659263
O O7 0.569487 0.144360 0.891405
O O8 0.380557 0.128210 0.964028
O O9 0.496180 0.711000 0.932343
O O10 0.298493 0.828861 0.704980
O O11 0.311102 0.750930 0.996056
O O12 0.151709 0.925473 0.381899
#
# Coordination Sequence:
#
# PCOD9134716 Si02
#       6
#     4   4   4   4   4   4
#     4   9  20  34  69  96 127 190 218 283 355 394
#     4  10  22  42  64  99 135 180 217 289 353 399
#     4   9  24  41  65 102 129 186 233 286 352 412
#     4  10  19  40  63  93 140 174 235 282 338 426
#     4  10  19  42  68 100 138 173 237 284 343 421
#     4  10  22  41  65  94 139 183 218 290 355 400
#
# _framework density 23.993914
#
# number of rings (size 3 to 8) (size 9 to 14) (size 15 to 20)
#    1.000    1.333    0.000    2.000    0.000    5.333 
#    3.000    1.667    0.000    0.000    0.000    0.000 
#    0.000    0.000    0.000    0.000    0.000    0.000 
#
# Total GULP energy -66898.717050 kJ/mol
# GULP energy per Si atom -5574.893087 kJ/mol
# Density = 2.393930 g / cm^3
# Si number density = 23.993914 Si / 1000 Ang^3
#
#
#
# Elastic Constant Matrix: (Units=GPa)
#
#
# Indices 1 2 3 4 5 6 
#
# 1 112.1357 21.2814 32.4057 0.0000 3.0675 0.0000
# 2 21.2814 75.6624 11.7693 0.0000 1.9398 0.0000
# 3 32.4057 11.7693 57.3304 0.0000 -5.5708 0.0000
# 4 0.0000 0.0000 0.0000 33.0108 0.0000 -12.8035
# 5 3.0675 1.9398 -5.5708 0.0000 37.5671 0.0000
# 6 0.0000 0.0000 0.0000 -12.8035 0.0000 9.1870
#
#
#
# Elastic Compliance Matrix: (Units=1/GPa)
#
#
# Indices 1 2 3 4 5 6 
#
# 1 0.011105 -0.002147 -0.006000 0.000000 -0.001686 0.000000
# 2 -0.002147 0.014116 -0.001763 0.000000 -0.000815 0.000000
# 3 -0.006000 -0.001763 0.021564 0.000000 0.003779 0.000000
# 4 0.000000 0.000000 0.000000 0.065933 0.000000 0.091888
# 5 -0.001686 -0.000815 0.003779 0.000000 0.027359 0.000000
# 6 0.000000 0.000000 0.000000 0.091888 0.000000 0.236910
#
#
# Mechanical properties :
#
#
# Convention : Reuss Voigt Hill
#
# Bulk Modulus (GPa) = 37.08757 41.78235 39.43496
# Shear Modulus (GPa) = 12.32148 27.93111 20.12629
#
# Velocity S-wave (km/s) = 2.26857 3.41558 2.89936
# Velocity P-wave (km/s) = 4.72784 5.74512 5.26113
#
# Compressibility (1/GPa) = 0.02696321
#
# Stress axis : x y z
#
# Youngs Moduli (GPa) = 90.04671 70.84318 46.37448
#
# Poissons Ratio (x) = 0.15210 0.27826
# Poissons Ratio (y) = 0.19333 0.08178
# Poissons Ratio (z) = 0.54031 0.12493
#
# Static dielectric constant tensor:
#      x y z
#    x 1.863640 0.000000 -0.038380 
#    y 0.000000 1.992840 0.000000 
#    z -0.038380 0.000000 2.006540 
# 
# From -- ./inp_files/7139.got.cif
#   From: 2010.05.17/outbox.cif.g08.bks.cpg/sg9_4_cif.got.tgz:7139.got - 2010.06.03 20:04:27.
