data_PCOD9134958
_publ_section_title
;
Structure prediction by ZEFSAII (Michael W. Deem and Ramdas Pophale) SiO2 
 PCOD9134958
Probable space group: C C
;
_chemical_formula_sum "Si O2"
_cell_formula_units_Z 32
_cell_length_a 8.333438
_cell_length_b 11.848142
_cell_length_c 18.359583
_cell_angle_alpha 90.000000
_cell_angle_beta 128.104398
_cell_angle_gamma 90.000000
_cell_volume 1426.428491
_symmetry_space_group_name_H-M "C C"
_symmetry_group_IT_number 9
_symmetry_cell_setting 'monoclinic'
loop_
_space_group_symop_operation_xyz
x,y,z
x,-y,1/2+z
1/2+x,1/2+y,z
1/2+x,1/2-y,1/2+z
loop_
_atom_site_type_symbol
_atom_site_label
_atom_site_fract_x
_atom_site_fract_y
_atom_site_fract_z
Si Si1 0.245090 0.133709 0.789200
Si Si2 0.889271 0.965287 0.637632
Si Si3 0.972419 0.548724 0.576608
Si Si4 0.851688 0.710600 0.665051
Si Si5 0.533212 0.497017 0.410000
Si Si6 0.321892 0.922550 0.885030
Si Si7 0.026290 0.243510 0.856824
Si Si8 0.397238 0.376751 0.005828
O O1 0.364099 0.187920 0.755144
O O2 0.112633 0.220950 0.800043
O O3 0.082587 0.040773 0.715338
O O4 0.377938 0.052546 0.879668
O O5 0.685791 0.987824 0.627568
O O6 0.856506 0.018923 0.548395
O O7 0.914832 0.832115 0.652418
O O8 0.970211 0.620378 0.648990
O O9 0.756646 0.480968 0.512112
O O10 0.943666 0.616697 0.491845
O O11 0.612705 0.683576 0.581071
O O12 0.595192 0.566399 0.355040
O O13 0.450036 0.376501 0.364412
O O14 0.400639 0.569884 0.426478
O O15 0.365551 0.840618 0.830590
O O16 0.222489 0.284201 0.957300
#
# Coordination Sequence:
#
# PCOD9134958 Si02
#       8
#     4   4   4   4   4   4   4   4
#     4  10  25  41  55  92 131 156 201 251 311 356
#     4  11  22  39  61  89 119 157 205 249 294 379
#     4   9  19  41  63  88 117 152 208 249 289 358
#     4  10  23  40  63  87 123 164 194 256 312 351
#     4   8  19  34  56  92 116 139 198 252 287 349
#     4   9  20  40  59  89 121 152 203 255 289 363
#     4  11  20  38  63  84 121 162 191 252 306 349
#     4  10  20  35  62  91 110 152 208 246 296 359
#
# _framework density 22.433651000000001
#
# number of rings (size 3 to 8) (size 9 to 14) (size 15 to 20)
#    0.750    1.500    1.250    0.750    1.750    4.000 
#    0.000    3.750    0.000    0.000    0.000    0.000 
#    0.000    0.000    0.000    0.000    0.000    0.000 
#
# Total GULP energy -89149.994493 kJ/mol
# GULP energy per Si atom -5571.874656 kJ/mol
# Density = 2.238259 g / cm^3
# Si number density = 22.433651 Si / 1000 Ang^3
#
#
#
# Elastic Constant Matrix: (Units=GPa)
#
#
# Indices 1 2 3 4 5 6 
#
# 1 49.1238 31.4529 15.8350 0.0000 -12.1765 0.0000
# 2 31.4529 83.9540 25.9065 0.0000 -25.6350 0.0000
# 3 15.8350 25.9065 56.7397 0.0000 -27.7308 0.0000
# 4 0.0000 0.0000 0.0000 18.3336 0.0000 -6.6861
# 5 -12.1765 -25.6350 -27.7308 0.0000 46.0027 0.0000
# 6 0.0000 0.0000 0.0000 -6.6861 0.0000 30.5236
#
#
#
# Elastic Compliance Matrix: (Units=1/GPa)
#
#
# Indices 1 2 3 4 5 6 
#
# 1 0.027345 -0.009171 -0.003409 0.000000 0.000073 0.000000
# 2 -0.009171 0.018015 -0.002759 0.000000 0.005948 0.000000
# 3 -0.003409 -0.002759 0.026429 0.000000 0.013492 0.000000
# 4 0.000000 0.000000 0.000000 0.059280 0.000000 0.012985
# 5 0.000073 0.005948 0.013492 0.000000 0.033205 0.000000
# 6 0.000000 0.000000 0.000000 0.012985 0.000000 0.035606
#
#
# Mechanical properties :
#
#
# Convention : Reuss Voigt Hill
#
# Bulk Modulus (GPa) = 24.32315 37.35626 30.83971
# Shear Modulus (GPa) = 20.46986 26.74685 23.60835
#
# Velocity S-wave (km/s) = 3.02398 3.45666 3.24753
# Velocity P-wave (km/s) = 4.80191 5.71134 5.27626
#
# Compressibility (1/GPa) = 0.04111309
#
# Stress axis : x y z
#
# Youngs Moduli (GPa) = 36.56919 55.51059 37.83661
#
# Poissons Ratio (x) = 0.50907 0.12898
# Poissons Ratio (y) = 0.33536 0.10438
# Poissons Ratio (z) = 0.12466 0.15313
#
# Static dielectric constant tensor:
#      x y z
#    x 1.840160 0.000000 0.031380 
#    y 0.000000 1.810020 0.000000 
#    z 0.031380 0.000000 1.955860 
# 
# From -- ./inp_files/29202.got.cif
#   From: 2010.05.17/outbox.cif.g08.bks.cpg/sg9_15_cif.got.tgz:29202.got - 2010.06.03 20:04:27.
