data_PCOD9134609
_publ_section_title
;
Structure prediction by ZEFSAII (Michael W. Deem and Ramdas Pophale) SiO2 
 PCOD9134609
Probable space group: C C
;
_chemical_formula_sum "Si O2"
_cell_formula_units_Z 28
_cell_length_a 7.115322
_cell_length_b 12.160846
_cell_length_c 13.742645
_cell_angle_alpha 90.000000
_cell_angle_beta 85.278740
_cell_angle_gamma 90.000000
_cell_volume 1185.093378
_symmetry_space_group_name_H-M "C C"
_symmetry_group_IT_number 9
_symmetry_cell_setting 'monoclinic'
loop_
_space_group_symop_operation_xyz
x,y,z
x,-y,1/2+z
1/2+x,1/2+y,z
1/2+x,1/2-y,1/2+z
loop_
_atom_site_type_symbol
_atom_site_label
_atom_site_fract_x
_atom_site_fract_y
_atom_site_fract_z
Si Si1 0.469160 0.437040 0.496730
Si Si2 0.741125 0.508827 0.636393
Si Si3 0.281767 0.663493 0.293468
Si Si4 0.711103 0.287586 0.712047
Si Si5 0.730308 0.260331 0.095697
Si Si6 0.892164 0.924860 0.283717
Si Si7 0.336934 0.681038 0.512453
O O1 0.668110 0.454845 0.540241
O O2 0.355394 0.335912 0.545770
O O3 0.495427 0.425730 0.381840
O O4 0.348544 0.548652 0.517387
O O5 0.812881 0.407231 0.697640
O O6 0.838457 0.622986 0.605649
O O7 0.548633 0.551774 0.695775
O O8 0.501888 0.683894 0.256770
O O9 0.177067 0.722068 0.208187
O O10 0.255367 0.531433 0.289583
O O11 0.265062 0.704505 0.405720
O O12 0.791457 0.191187 0.775275
O O13 0.719685 0.232796 0.605016
O O14 0.551111 0.279428 0.031755
#
# Coordination Sequence:
#
# PCOD9134609 Si02
#       7
#     4   4   4   4   4   4   4
#     4  10  19  38  64  86 118 166 207 251 315 371
#     4  10  22  38  60  94 124 160 206 262 302 388
#     4  10  22  39  64  94 124 165 215 261 312 378
#     4  11  19  41  61  89 129 161 204 262 314 368
#     4  11  19  41  61  89 129 161 204 262 314 368
#     4  10  19  38  64  86 118 166 207 251 315 371
#     4  10  22  39  64  94 124 165 215 261 312 378
#
# _framework density 23.626830999999999
#
# number of rings (size 3 to 8) (size 9 to 14) (size 15 to 20)
#    0.000    1.714    5.714    0.857    0.000    2.286 
#    5.143    0.000    0.000    0.000    0.000    0.000 
#    0.000    0.000    0.000    0.000    0.000    0.000 
#
# Total GULP energy -78169.357101 kJ/mol
# GULP energy per Si atom -5583.525507 kJ/mol
# Density = 2.357305 g / cm^3
# Si number density = 23.626831 Si / 1000 Ang^3
#
#
#
# Elastic Constant Matrix: (Units=GPa)
#
#
# Indices 1 2 3 4 5 6 
#
# 1 36.1759 26.1102 -15.2873 0.0000 6.7018 0.0000
# 2 26.1102 137.5843 -1.4067 0.0000 28.2012 0.0000
# 3 -15.2873 -1.4067 106.8919 0.0000 17.6164 0.0000
# 4 0.0000 0.0000 0.0000 29.8284 0.0000 8.2176
# 5 6.7018 28.2012 17.6164 0.0000 24.0021 0.0000
# 6 0.0000 0.0000 0.0000 8.2176 0.0000 36.0417
#
#
#
# Elastic Compliance Matrix: (Units=1/GPa)
#
#
# Indices 1 2 3 4 5 6 
#
# 1 0.035552 -0.004830 0.006509 0.000000 -0.009030 0.000000
# 2 -0.004830 0.010732 0.001486 0.000000 -0.012352 0.000000
# 3 0.006509 0.001486 0.012392 0.000000 -0.012659 0.000000
# 4 0.000000 0.000000 0.000000 0.035772 0.000000 -0.008156
# 5 -0.009030 -0.012352 -0.012659 0.000000 0.067988 0.000000
# 6 0.000000 0.000000 0.000000 -0.008156 0.000000 0.029605
#
#
# Mechanical properties :
#
#
# Convention : Reuss Voigt Hill
#
# Bulk Modulus (GPa) = 15.38300 33.27606 24.32953
# Shear Modulus (GPa) = 24.11055 36.05682 30.08368
#
# Velocity S-wave (km/s) = 3.19795 3.91077 3.57218
# Velocity P-wave (km/s) = 4.49008 5.87424 5.22817
#
# Compressibility (1/GPa) = 0.06500684
#
# Stress axis : x y z
#
# Youngs Moduli (GPa) = 28.12793 93.18154 80.69782
#
# Poissons Ratio (x) = 0.45002 -0.52527
# Poissons Ratio (y) = 0.13584 -0.11993
# Poissons Ratio (z) = -0.18309 -0.13848
#
# Static dielectric constant tensor:
#      x y z
#    x 1.960160 0.000000 0.019160 
#    y 0.000000 1.982780 0.000000 
#    z 0.019160 0.000000 1.887050 
# 
# From -- ./inp_files/22575.got.cif
#   From: 2010.05.17/outbox.cif.g08.bks.cpg/sg9_12_cif.got.tgz:22575.got - 2010.06.03 20:04:27.
