data_PCOD9134159
_publ_section_title
;
Structure prediction by ZEFSAII (Michael W. Deem and Ramdas Pophale) SiO2 
 PCOD9134159
Probable space group: C C
;
_chemical_formula_sum "Si O2"
_cell_formula_units_Z 24
_cell_length_a 8.275468
_cell_length_b 21.535162
_cell_length_c 5.497327
_cell_angle_alpha 90.000000
_cell_angle_beta 102.599022
_cell_angle_gamma 90.000000
_cell_volume 956.107472
_symmetry_space_group_name_H-M "C C"
_symmetry_group_IT_number 9
_symmetry_cell_setting 'monoclinic'
loop_
_space_group_symop_operation_xyz
x,y,z
x,-y,1/2+z
1/2+x,1/2+y,z
1/2+x,1/2-y,1/2+z
loop_
_atom_site_type_symbol
_atom_site_label
_atom_site_fract_x
_atom_site_fract_y
_atom_site_fract_z
Si Si1 0.519590 0.574727 0.032070
Si Si2 0.995580 0.482373 0.694043
Si Si3 0.428841 0.160511 0.063629
Si Si4 0.244221 0.332641 0.387066
Si Si5 0.649685 0.441221 0.072440
Si Si6 0.722887 0.228547 0.376856
O O1 0.341062 0.604347 0.968905
O O2 0.527128 0.500340 0.032810
O O3 0.613145 0.594496 0.311865
O O4 0.612403 0.591814 0.812007
O O5 0.083906 0.503309 0.476114
O O6 0.830052 0.526379 0.639108
O O7 0.941974 0.589780 0.161712
O O8 0.547462 0.159503 0.862621
O O9 0.535503 0.205083 0.278407
O O10 0.267736 0.201128 0.954182
O O11 0.284225 0.310210 0.130298
O O12 0.296477 0.288873 0.634144
#
# Coordination Sequence:
#
# PCOD9134159 Si02
#       6
#     4   4   4   4   4   4
#     4  10  18  38  61  93 140 167 239 274 346 418
#     4  12  24  45  69 104 146 192 235 291 368 433
#     4  10  28  49  73 107 145 192 244 303 360 437
#     4  10  24  44  67 106 132 190 232 304 356 415
#     4  10  19  37  59  99 133 187 227 277 344 421
#     4  10  25  47  73 103 138 188 247 293 374 402
#
# _framework density 25.101780999999999
#
# number of rings (size 3 to 8) (size 9 to 14) (size 15 to 20)
#    1.000    0.667    3.333    1.000    4.667    1.333 
#    9.000    0.000    0.000    0.000    0.000    0.000 
#    0.000    0.000    0.000    0.000    0.000    0.000 
#
# Total GULP energy -66936.024122 kJ/mol
# GULP energy per Si atom -5578.002010 kJ/mol
# Density = 2.504465 g / cm^3
# Si number density = 25.101781 Si / 1000 Ang^3
#
#
#
# Elastic Constant Matrix: (Units=GPa)
#
#
# Indices 1 2 3 4 5 6 
#
# 1 24.4821 38.6258 32.1206 0.0000 2.5184 0.0000
# 2 38.6258 131.5239 45.2384 0.0000 17.6690 0.0000
# 3 32.1206 45.2384 193.8059 0.0000 -29.2860 0.0000
# 4 0.0000 0.0000 0.0000 23.4982 0.0000 6.9556
# 5 2.5184 17.6690 -29.2860 0.0000 20.4608 0.0000
# 6 0.0000 0.0000 0.0000 6.9556 0.0000 42.3509
#
#
#
# Elastic Compliance Matrix: (Units=1/GPa)
#
#
# Indices 1 2 3 4 5 6 
#
# 1 0.090534 -0.021531 -0.011296 0.000000 -0.008719 0.000000
# 2 -0.021531 0.017094 -0.002873 0.000000 -0.016224 0.000000
# 3 -0.011296 -0.002873 0.010575 0.000000 0.019008 0.000000
# 4 0.000000 0.000000 0.000000 0.044731 0.000000 -0.007347
# 5 -0.008719 -0.016224 0.019008 0.000000 0.091164 0.000000
# 6 0.000000 0.000000 0.000000 -0.007347 0.000000 0.024819
#
#
# Mechanical properties :
#
#
# Convention : Reuss Voigt Hill
#
# Bulk Modulus (GPa) = 21.36681 64.64238 43.00459
# Shear Modulus (GPa) = 13.66419 32.85045 23.25732
#
# Velocity S-wave (km/s) = 2.33566 3.62151 3.04718
# Velocity P-wave (km/s) = 3.97546 6.57990 5.43596
#
# Compressibility (1/GPa) = 0.04680156
#
# Stress axis : x y z
#
# Youngs Moduli (GPa) = 11.04555 58.49885 94.56263
#
# Poissons Ratio (x) = 1.25955 1.06822
# Poissons Ratio (y) = 0.23782 0.27171
# Poissons Ratio (z) = 0.12477 0.16809
#
# Static dielectric constant tensor:
#      x y z
#    x 2.050070 0.000000 -0.015490 
#    y 0.000000 1.932860 0.000000 
#    z -0.015490 0.000000 2.094770 
# 
# From -- ./inp_files/891.got.cif
#   From: 2010.05.17/outbox.cif.g08.bks.cpg/sg9_1_cif.got.tgz:891.got - 2010.06.03 20:04:27.
