data_PCOD9134614
_publ_section_title
;
Structure prediction by ZEFSAII (Michael W. Deem and Ramdas Pophale) SiO2 
 PCOD9134614
Probable space group: C C
;
_chemical_formula_sum "Si O2"
_cell_formula_units_Z 28
_cell_length_a 7.981373
_cell_length_b 13.518462
_cell_length_c 12.898312
_cell_angle_alpha 90.000000
_cell_angle_beta 119.958879
_cell_angle_gamma 90.000000
_cell_volume 1205.724839
_symmetry_space_group_name_H-M "C C"
_symmetry_group_IT_number 9
_symmetry_cell_setting 'monoclinic'
loop_
_space_group_symop_operation_xyz
x,y,z
x,-y,1/2+z
1/2+x,1/2+y,z
1/2+x,1/2-y,1/2+z
loop_
_atom_site_type_symbol
_atom_site_label
_atom_site_fract_x
_atom_site_fract_y
_atom_site_fract_z
Si Si1 0.000000 0.352252 0.267300
Si Si2 0.677115 0.141642 0.465436
Si Si3 0.577318 0.347954 0.171067
Si Si4 0.428022 0.679926 0.858337
Si Si5 0.155329 0.583473 0.035231
Si Si6 0.489679 0.920832 0.703976
Si Si7 0.561269 0.575995 0.095237
O O1 0.196655 0.308788 0.280117
O O2 0.985534 0.460692 0.211311
O O3 0.050385 0.370021 0.403923
O O4 0.154373 0.536559 0.516867
O O5 0.886613 0.186057 0.551848
O O6 0.517030 0.223440 0.441147
O O7 0.642889 0.116483 0.334760
O O8 0.527646 0.335230 0.277441
O O9 0.785439 0.306956 0.201172
O O10 0.584091 0.464165 0.142819
O O11 0.485344 0.589266 0.953113
O O12 0.379675 0.616221 0.103480
O O13 0.049127 0.605868 0.107776
O O14 0.276718 0.881551 0.667256
#
# Coordination Sequence:
#
# PCOD9134614 Si02
#       7
#     4   4   4   4   4   4   4
#     4   9  19  37  62  89 117 163 217 239 300 376
#     4  10  23  37  63  96 127 160 204 251 328 348
#     4  10  21  40  60  90 124 166 206 249 301 377
#     4  11  22  40  63  92 132 157 195 274 307 353
#     4   9  18  38  62  93 118 162 210 250 291 377
#     4  10  19  38  64  90 122 163 206 253 292 376
#     4   9  20  36  66  92 118 163 214 238 305 371
#
# _framework density 23.222548
#
# number of rings (size 3 to 8) (size 9 to 14) (size 15 to 20)
#    0.000    2.286    0.000    3.429    2.000    0.000 
#    0.000   11.429    3.143    0.000    0.000    0.000 
#    0.000    0.000    0.000    0.000    0.000    0.000 
#
# Total GULP energy -78213.216953 kJ/mol
# GULP energy per Si atom -5586.658354 kJ/mol
# Density = 2.316969 g / cm^3
# Si number density = 23.222548 Si / 1000 Ang^3
#
#
#
# Elastic Constant Matrix: (Units=GPa)
#
#
# Indices 1 2 3 4 5 6 
#
# 1 194.7842 60.8175 56.4370 0.0000 17.9569 0.0000
# 2 60.8175 77.9656 30.2375 0.0000 -6.8607 0.0000
# 3 56.4370 30.2375 73.9376 0.0000 -8.7417 0.0000
# 4 0.0000 0.0000 0.0000 2.7656 0.0000 -4.2620
# 5 17.9569 -6.8607 -8.7417 0.0000 42.5642 0.0000
# 6 0.0000 0.0000 0.0000 -4.2620 0.0000 26.9396
#
#
#
# Elastic Compliance Matrix: (Units=1/GPa)
#
#
# Indices 1 2 3 4 5 6 
#
# 1 0.008850 -0.005375 -0.005228 0.000000 -0.005674 0.000000
# 2 -0.005375 0.018569 -0.002941 0.000000 0.004657 0.000000
# 3 -0.005228 -0.002941 0.019393 0.000000 0.005714 0.000000
# 4 0.000000 0.000000 0.000000 0.478164 0.000000 0.075648
# 5 -0.005674 0.004657 0.005714 0.000000 0.027812 0.000000
# 6 0.000000 0.000000 0.000000 0.075648 0.000000 0.049088
#
#
# Mechanical properties :
#
#
# Convention : Reuss Voigt Hill
#
# Bulk Modulus (GPa) = 50.69541 71.29684 60.99612
# Shear Modulus (GPa) = 7.86734 27.73358 17.80046
#
# Velocity S-wave (km/s) = 1.84260 3.45954 2.77161
# Velocity P-wave (km/s) = 5.13853 6.83565 6.04693
#
# Compressibility (1/GPa) = 0.01972565
#
# Stress axis : x y z
#
# Youngs Moduli (GPa) = 112.99521 53.85204 51.56368
#
# Poissons Ratio (x) = 0.28947 0.26956
# Poissons Ratio (y) = 0.60737 0.15163
# Poissons Ratio (z) = 0.59071 0.15836
#
# Static dielectric constant tensor:
#      x y z
#    x 1.873480 0.000000 0.025000 
#    y 0.000000 1.945270 0.000000 
#    z 0.025000 0.000000 1.826360 
# 
# From -- ./inp_files/14480.got.cif
#   From: 2010.05.17/outbox.cif.g08.bks.cpg/sg9_8_cif.got.tgz:14480.got - 2010.06.03 20:04:27.
