data_PCOD9134477
_publ_section_title
;
Structure prediction by ZEFSAII (Michael W. Deem and Ramdas Pophale) SiO2 
 PCOD9134477
Probable space group: C C
;
_chemical_formula_sum "Si O2"
_cell_formula_units_Z 32
_cell_length_a 23.570886
_cell_length_b 5.266080
_cell_length_c 14.193922
_cell_angle_alpha 90.000000
_cell_angle_beta 130.775729
_cell_angle_gamma 90.000000
_cell_volume 1334.189593
_symmetry_space_group_name_H-M "C C"
_symmetry_group_IT_number 9
_symmetry_cell_setting 'monoclinic'
loop_
_space_group_symop_operation_xyz
x,y,z
x,-y,1/2+z
1/2+x,1/2+y,z
1/2+x,1/2-y,1/2+z
loop_
_atom_site_type_symbol
_atom_site_label
_atom_site_fract_x
_atom_site_fract_y
_atom_site_fract_z
Si Si1 0.886220 0.778540 0.156770
Si Si2 0.037853 0.012132 0.765949
Si Si3 0.860796 0.859653 0.805431
Si Si4 0.174340 0.128660 0.313788
Si Si5 0.489272 0.111145 0.867009
Si Si6 0.624666 0.829440 0.998743
Si Si7 0.260066 0.365264 0.870702
Si Si8 0.213644 0.846339 0.076075
O O1 0.927512 0.517501 0.230896
O O2 0.951626 0.911363 0.165098
O O3 0.872863 0.924438 0.240482
O O4 0.809207 0.805497 0.017048
O O5 0.087169 0.253078 0.856689
O O6 0.084962 0.901634 0.730680
O O7 0.034018 0.813112 0.850230
O O8 0.942126 0.734032 0.899370
O O9 0.821662 0.934538 0.859169
O O10 0.799725 0.662491 0.697707
O O11 0.203007 0.400812 0.311711
O O12 0.204102 0.118480 0.454249
O O13 0.213006 0.891578 0.303990
O O14 0.549264 0.910163 0.970135
O O15 0.669750 0.580266 0.074896
O O16 0.679401 0.068780 0.059376
#
# Coordination Sequence:
#
# PCOD9134477 Si02
#       8
#     4   4   4   4   4   4   4   4
#     4  10  23  42  72  96 133 178 223 274 340 386
#     4   9  20  38  69  98 128 173 226 269 330 398
#     4  11  26  42  67 103 138 175 228 271 335 400
#     4  11  22  42  68  97 132 175 222 269 334 389
#     4  10  20  41  69 100 127 176 226 274 330 401
#     4  10  19  36  66 100 126 170 224 268 327 394
#     4  12  27  43  68 100 137 178 219 277 329 400
#     4  11  21  38  69  98 131 171 224 272 327 396
#
# _framework density 23.984598999999999
#
# number of rings (size 3 to 8) (size 9 to 14) (size 15 to 20)
#    0.000    1.500    3.750    2.250    7.000    0.000 
#    0.000    1.250   11.000    0.000    0.000    0.000 
#    0.000    0.000    0.000    0.000    0.000    0.000 
#
# Total GULP energy -89363.683540 kJ/mol
# GULP energy per Si atom -5585.230221 kJ/mol
# Density = 2.393001 g / cm^3
# Si number density = 23.984599 Si / 1000 Ang^3
#
#
#
# Elastic Constant Matrix: (Units=GPa)
#
#
# Indices 1 2 3 4 5 6 
#
# 1 140.3006 73.1677 22.2081 0.0000 4.2727 0.0000
# 2 73.1677 151.7387 28.3550 0.0003 20.8164 0.0000
# 3 22.2081 28.3550 32.5716 0.0001 2.1819 0.0000
# 4 0.0000 0.0003 0.0001 17.0449 0.0000 21.6831
# 5 4.2727 20.8164 2.1819 0.0000 25.7901 0.0000
# 6 0.0000 0.0000 0.0000 21.6831 0.0000 44.3209
#
#
#
# Elastic Compliance Matrix: (Units=1/GPa)
#
#
# Indices 1 2 3 4 5 6 
#
# 1 0.009886 -0.004526 -0.002952 0.000000 0.002265 0.000000
# 2 -0.004526 0.010914 -0.005909 0.000000 -0.007559 0.000000
# 3 -0.002952 -0.005909 0.037720 0.000000 0.002067 0.000000
# 4 0.000000 0.000000 0.000000 0.155355 0.000000 -0.076005
# 5 0.002265 -0.007559 0.002067 0.000000 0.044326 0.000000
# 6 0.000000 0.000000 0.000000 -0.076005 0.000000 0.059746
#
#
# Mechanical properties :
#
#
# Convention : Reuss Voigt Hill
#
# Bulk Modulus (GPa) = 31.50007 63.56361 47.53184
# Shear Modulus (GPa) = 14.07245 30.82318 22.44781
#
# Velocity S-wave (km/s) = 2.42488 3.58875 3.06261
# Velocity P-wave (km/s) = 4.58279 6.61298 5.68918
#
# Compressibility (1/GPa) = 0.03174596
#
# Stress axis : x y z
#
# Youngs Moduli (GPa) = 101.14977 91.62562 26.51127
#
# Poissons Ratio (x) = 0.41472 0.07827
# Poissons Ratio (y) = 0.45783 0.15665
# Poissons Ratio (z) = 0.29862 0.54138
#
# Static dielectric constant tensor:
#      x y z
#    x 1.955930 0.000000 -0.019670 
#    y 0.000000 1.958260 0.000000 
#    z -0.019670 0.000000 1.919370 
# 
# From -- ./inp_files/26351.got.cif
#   From: 2010.05.17/outbox.cif.g08.bks.cpg/sg9_14_cif.got.tgz:26351.got - 2010.06.03 20:04:27.
