data_PCOD9134178
_publ_section_title
;
Structure prediction by ZEFSAII (Michael W. Deem and Ramdas Pophale) SiO2 
 PCOD9134178
Probable space group: C C
;
_chemical_formula_sum "Si O2"
_cell_formula_units_Z 28
_cell_length_a 11.765438
_cell_length_b 7.338439
_cell_length_c 14.274048
_cell_angle_alpha 90.000000
_cell_angle_beta 62.244393
_cell_angle_gamma 90.000000
_cell_volume 1090.620814
_symmetry_space_group_name_H-M "C C"
_symmetry_group_IT_number 9
_symmetry_cell_setting 'monoclinic'
loop_
_space_group_symop_operation_xyz
x,y,z
x,-y,1/2+z
1/2+x,1/2+y,z
1/2+x,1/2-y,1/2+z
loop_
_atom_site_type_symbol
_atom_site_label
_atom_site_fract_x
_atom_site_fract_y
_atom_site_fract_z
Si Si1 0.595560 0.570359 0.893120
Si Si2 0.510254 0.807222 0.496635
Si Si3 0.209582 0.574675 0.381344
Si Si4 0.971023 0.520801 0.682948
Si Si5 0.858353 0.229309 0.075842
Si Si6 0.885625 0.770870 0.353335
Si Si7 0.235485 0.628609 0.593215
O O1 0.592213 0.357921 0.919154
O O2 0.514876 0.618065 0.830976
O O3 0.709078 0.717507 0.849054
O O4 0.501053 0.643010 0.011882
O O5 0.567347 0.986904 0.423426
O O6 0.534582 0.856889 0.596010
O O7 0.358905 0.759426 0.554423
O O8 0.306901 0.413226 0.319590
O O9 0.238287 0.592330 0.480959
O O10 0.876658 0.614334 0.644026
O O11 0.907040 0.415851 0.791892
O O12 0.084694 0.658349 0.671450
O O13 0.768511 0.059077 0.135154
O O14 0.827126 0.276319 0.979114
#
# Coordination Sequence:
#
# PCOD9134178 Si02
#       7
#     4   4   4   4   4   4   4
#     4   9  18  38  60  82 117 155 200 240 298 364
#     4  10  19  35  63  86 109 165 205 233 311 365
#     4  10  18  39  60  84 121 157 196 258 297 355
#     4  11  20  38  62  87 126 161 199 258 302 359
#     4   8  17  37  58  83 116 158 193 243 300 351
#     4   9  20  37  61  87 126 159 198 260 304 348
#     4   9  18  36  56  85 121 149 201 252 294 358
#
# _framework density 25.673449000000002
#
# number of rings (size 3 to 8) (size 9 to 14) (size 15 to 20)
#    0.857    1.714    4.286    0.000    0.000    1.143 
#   12.857    0.000   12.571    0.000    0.000    0.000 
#    0.000    0.000    0.000    0.000    0.000    0.000 
#
# Total GULP energy -77950.594103 kJ/mol
# GULP energy per Si atom -5567.899579 kJ/mol
# Density = 2.561501 g / cm^3
# Si number density = 25.673449 Si / 1000 Ang^3
#
#
#
# Elastic Constant Matrix: (Units=GPa)
#
#
# Indices 1 2 3 4 5 6 
#
# 1 117.4801 59.8026 27.8453 0.0000 7.3678 0.0000
# 2 59.8026 135.4003 30.7394 0.0000 6.1040 0.0000
# 3 27.8453 30.7394 69.1024 0.0000 11.6222 0.0000
# 4 0.0000 0.0000 0.0000 32.7404 0.0000 -2.5286
# 5 7.3678 6.1040 11.6222 0.0000 17.3135 0.0000
# 6 0.0000 0.0000 0.0000 -2.5286 0.0000 41.4828
#
#
#
# Elastic Compliance Matrix: (Units=1/GPa)
#
#
# Indices 1 2 3 4 5 6 
#
# 1 0.011437 -0.004442 -0.002342 0.000000 -0.001729 0.000000
# 2 -0.004442 0.009944 -0.002663 0.000000 0.000172 0.000000
# 3 -0.002342 -0.002663 0.018345 0.000000 -0.010379 0.000000
# 4 0.000000 0.000000 0.000000 0.030688 0.000000 0.001871
# 5 -0.001729 0.000172 -0.010379 0.000000 0.065401 0.000000
# 6 0.000000 0.000000 0.000000 0.001871 0.000000 0.024220
#
#
# Mechanical properties :
#
#
# Convention : Reuss Voigt Hill
#
# Bulk Modulus (GPa) = 47.99956 62.08417 55.04187
# Shear Modulus (GPa) = 26.90029 31.88037 29.39033
#
# Velocity S-wave (km/s) = 3.24046 3.52769 3.38712
# Velocity P-wave (km/s) = 5.72168 6.38964 6.06486
#
# Compressibility (1/GPa) = 0.02083352
#
# Stress axis : x y z
#
# Youngs Moduli (GPa) = 87.43896 100.56340 54.51064
#
# Poissons Ratio (x) = 0.44666 0.12766
# Poissons Ratio (y) = 0.38837 0.14514
# Poissons Ratio (z) = 0.20477 0.26776
#
# Static dielectric constant tensor:
#      x y z
#    x 2.104450 0.000000 -0.085820 
#    y 0.000000 2.070980 0.000000 
#    z -0.085820 0.000000 2.080740 
# 
# From -- ./inp_files/30502.got.cif
#   From: 2010.05.17/outbox.cif.g08.bks.cpg/sg9_16_cif.got.tgz:30502.got - 2010.06.03 20:04:27.
