data_PCOD9134739
_publ_section_title
;
Structure prediction by ZEFSAII (Michael W. Deem and Ramdas Pophale) SiO2 
 PCOD9134739
Probable space group: C C
;
_chemical_formula_sum "Si O2"
_cell_formula_units_Z 28
_cell_length_a 7.388505
_cell_length_b 14.802962
_cell_length_c 13.809742
_cell_angle_alpha 90.000000
_cell_angle_beta 54.198066
_cell_angle_gamma 90.000000
_cell_volume 1224.997538
_symmetry_space_group_name_H-M "C C"
_symmetry_group_IT_number 9
_symmetry_cell_setting 'monoclinic'
loop_
_space_group_symop_operation_xyz
x,y,z
x,-y,1/2+z
1/2+x,1/2+y,z
1/2+x,1/2-y,1/2+z
loop_
_atom_site_type_symbol
_atom_site_label
_atom_site_fract_x
_atom_site_fract_y
_atom_site_fract_z
Si Si1 0.899170 0.261825 0.289950
Si Si2 0.662870 0.616109 0.335031
Si Si3 0.771011 0.154691 0.577776
Si Si4 0.794379 0.936131 0.278384
Si Si5 0.021707 0.385286 0.889966
Si Si6 0.891437 0.649780 0.983554
Si Si7 0.777091 0.486689 0.137356
O O1 0.684990 0.200145 0.341912
O O2 0.832401 0.336243 0.389928
O O3 0.088131 0.198387 0.285892
O O4 0.011756 0.311436 0.163350
O O5 0.413009 0.594340 0.457047
O O6 0.817039 0.633126 0.380726
O O7 0.806847 0.542408 0.228580
O O8 0.793510 0.110449 0.674627
O O9 0.885033 0.252473 0.532507
O O10 0.643416 0.885153 0.403534
O O11 0.047041 0.938390 0.230220
O O12 0.678989 0.033298 0.304091
O O13 0.932339 0.422106 0.022564
O O14 0.741806 0.572314 0.076007
#
# Coordination Sequence:
#
# PCOD9134739 Si02
#       7
#     4   4   4   4   4   4   4
#     4  10  21  42  69  93 135 182 227 288 351 404
#     4  11  22  38  69  96 138 183 221 286 350 397
#     4  10  19  40  67  92 135 183 218 283 352 396
#     4  10  20  38  67  90 134 176 224 279 342 406
#     4  11  23  41  70 103 133 179 242 281 338 429
#     4   9  20  36  69  89 127 186 212 280 355 393
#     4  11  21  43  67  99 142 177 230 289 342 417
#
# _framework density 22.857187
#
# number of rings (size 3 to 8) (size 9 to 14) (size 15 to 20)
#    0.000    1.714    4.286    0.000    0.000    2.286 
#    0.000    4.286   28.286    0.000    0.000    0.000 
#    0.000    0.000    0.000    0.000    0.000    0.000 
#
# Total GULP energy -77935.356549 kJ/mol
# GULP energy per Si atom -5566.811182 kJ/mol
# Density = 2.280516 g / cm^3
# Si number density = 22.857187 Si / 1000 Ang^3
#
#
#
# Elastic Constant Matrix: (Units=GPa)
#
#
# Indices 1 2 3 4 5 6 
#
# 1 86.1051 23.6420 37.7714 0.0000 -8.8893 0.0000
# 2 23.6420 28.3047 18.7803 0.0000 12.5319 0.0000
# 3 37.7714 18.7803 123.2750 0.0000 2.3651 0.0000
# 4 0.0000 0.0000 0.0000 51.6656 0.0000 -10.4356
# 5 -8.8893 12.5319 2.3651 0.0000 23.5851 0.0000
# 6 0.0000 0.0000 0.0000 -10.4356 0.0000 22.9208
#
#
#
# Elastic Compliance Matrix: (Units=1/GPa)
#
#
# Indices 1 2 3 4 5 6 
#
# 1 0.023084 -0.027555 -0.003329 0.000000 0.023676 0.000000
# 2 -0.027555 0.085110 -0.003463 0.000000 -0.055261 0.000000
# 3 -0.003329 -0.003463 0.009667 0.000000 -0.000384 0.000000
# 4 0.000000 0.000000 0.000000 0.021315 0.000000 0.009705
# 5 0.023676 -0.055261 -0.000384 0.000000 0.080725 0.000000
# 6 0.000000 0.000000 0.000000 0.009705 0.000000 0.048047
#
#
# Mechanical properties :
#
#
# Convention : Reuss Voigt Hill
#
# Bulk Modulus (GPa) = 20.33887 44.23025 32.28456
# Shear Modulus (GPa) = 14.16302 30.13370 22.14836
#
# Velocity S-wave (km/s) = 2.49194 3.63484 3.11624
# Velocity P-wave (km/s) = 4.14695 6.08349 5.20606
#
# Compressibility (1/GPa) = 0.04916695
#
# Stress axis : x y z
#
# Youngs Moduli (GPa) = 43.31977 11.74945 103.44440
#
# Poissons Ratio (x) = 0.32375 0.34440
# Poissons Ratio (y) = 1.19367 0.35825
# Poissons Ratio (z) = 0.14423 0.04069
#
# Static dielectric constant tensor:
#      x y z
#    x 1.901850 0.000000 -0.027160 
#    y 0.000000 1.913190 0.000000 
#    z -0.027160 0.000000 1.927820 
# 
# From -- ./inp_files/23339.got.cif
#   From: 2010.05.17/outbox.cif.g08.bks.cpg/sg9_12_cif.got.tgz:23339.got - 2010.06.03 20:04:27.
