data_PCOD9134828
_publ_section_title
;
Structure prediction by ZEFSAII (Michael W. Deem and Ramdas Pophale) SiO2 
 PCOD9134828
Probable space group: C C
;
_chemical_formula_sum "Si O2"
_cell_formula_units_Z 28
_cell_length_a 19.538135
_cell_length_b 7.339844
_cell_length_c 13.068909
_cell_angle_alpha 90.000000
_cell_angle_beta 144.937830
_cell_angle_gamma 90.000000
_cell_volume 1076.645664
_symmetry_space_group_name_H-M "C C"
_symmetry_group_IT_number 9
_symmetry_cell_setting 'monoclinic'
loop_
_space_group_symop_operation_xyz
x,y,z
x,-y,1/2+z
1/2+x,1/2+y,z
1/2+x,1/2-y,1/2+z
loop_
_atom_site_type_symbol
_atom_site_label
_atom_site_fract_x
_atom_site_fract_y
_atom_site_fract_z
Si Si1 0.006110 0.844251 0.279550
Si Si2 0.323511 0.679756 0.054770
Si Si3 0.853238 0.075221 0.881373
Si Si4 0.174884 0.585874 0.494918
Si Si5 0.478150 0.108009 0.893518
Si Si6 0.343987 0.154350 0.928213
Si Si7 0.091683 0.003859 0.591133
O O1 0.121684 0.754152 0.365381
O O2 0.072409 0.877097 0.469090
O O3 0.931174 0.029865 0.180820
O O4 0.909876 0.700578 0.115171
O O5 0.371137 0.840381 0.184199
O O6 0.300760 0.695977 0.907100
O O7 0.210989 0.582705 0.968220
O O8 0.795831 0.131790 0.703674
O O9 0.820055 0.860758 0.855349
O O10 0.996146 0.076048 0.053477
O O11 0.074075 0.515621 0.451813
O O12 0.423794 0.054754 0.937819
O O13 0.541674 0.298700 0.996767
O O14 0.222146 0.047998 0.787846
#
# Coordination Sequence:
#
# PCOD9134828 Si02
#       7
#     4   4   4   4   4   4   4
#     4  10  24  37  62  99 129 167 216 264 334 388
#     4  10  22  43  61  92 129 171 212 265 329 400
#     4  10  21  39  68  90 126 174 210 262 341 378
#     4  12  22  41  64  96 132 161 212 283 317 398
#     4  10  20  40  66  94 122 168 223 259 333 398
#     4  10  20  40  71  94 120 176 222 265 326 405
#     4  10  19  44  64  91 134 171 217 272 318 405
#
# _framework density 26.006698
#
# number of rings (size 3 to 8) (size 9 to 14) (size 15 to 20)
#    0.000    1.714    5.714    0.000    2.000    4.571 
#    5.143    1.429    3.143    0.000    0.000    0.000 
#    0.000    0.000    0.000    0.000    0.000    0.000 
#
# Total GULP energy -78103.336325 kJ/mol
# GULP energy per Si atom -5578.809738 kJ/mol
# Density = 2.594751 g / cm^3
# Si number density = 26.006698 Si / 1000 Ang^3
#
#
#
# Elastic Constant Matrix: (Units=GPa)
#
#
# Indices 1 2 3 4 5 6 
#
# 1 109.0642 24.7997 46.6862 0.0000 1.9968 0.0000
# 2 24.7997 77.4261 27.9905 0.0000 8.1971 0.0000
# 3 46.6862 27.9905 127.1879 0.0000 5.2558 0.0000
# 4 0.0000 0.0000 0.0000 18.4197 0.0000 1.6250
# 5 1.9968 8.1971 5.2558 0.0000 35.4970 0.0000
# 6 0.0000 0.0000 0.0000 1.6250 0.0000 12.4342
#
#
#
# Elastic Compliance Matrix: (Units=1/GPa)
#
#
# Indices 1 2 3 4 5 6 
#
# 1 0.011247 -0.002336 -0.003633 0.000000 0.000445 0.000000
# 2 -0.002336 0.014799 -0.002278 0.000000 -0.002949 0.000000
# 3 -0.003633 -0.002278 0.009726 0.000000 -0.000710 0.000000
# 4 0.000000 0.000000 0.000000 0.054923 0.000000 -0.007178
# 5 0.000445 -0.002949 -0.000710 0.000000 0.028932 0.000000
# 6 0.000000 0.000000 0.000000 -0.007178 0.000000 0.081361
#
#
# Mechanical properties :
#
#
# Convention : Reuss Voigt Hill
#
# Bulk Modulus (GPa) = 51.86738 56.95902 54.41320
# Shear Modulus (GPa) = 22.33056 27.55033 24.94045
#
# Velocity S-wave (km/s) = 2.93345 3.25830 3.10013
# Velocity P-wave (km/s) = 5.60898 6.00871 5.81228
#
# Compressibility (1/GPa) = 0.01927994
#
# Stress axis : x y z
#
# Youngs Moduli (GPa) = 88.91274 67.57031 102.81375
#
# Poissons Ratio (x) = 0.15786 0.37348
# Poissons Ratio (y) = 0.20773 0.23416
# Poissons Ratio (z) = 0.32298 0.15389
#
# Static dielectric constant tensor:
#      x y z
#    x 2.108210 0.000000 -0.026320 
#    y 0.000000 2.154920 0.000000 
#    z -0.026320 0.000000 2.030610 
# 
# From -- ./inp_files/27291.got.cif
#   From: 2010.05.17/outbox.cif.g08.bks.cpg/sg9_14_cif.got.tgz:27291.got - 2010.06.03 20:04:27.
