data_PCOD9134180
_publ_section_title
;
Structure prediction by ZEFSAII (Michael W. Deem and Ramdas Pophale) SiO2 
 PCOD9134180
Probable space group: C C
;
_chemical_formula_sum "Si O2"
_cell_formula_units_Z 32
_cell_length_a 11.457975
_cell_length_b 8.111486
_cell_length_c 19.630669
_cell_angle_alpha 90.000000
_cell_angle_beta 141.436046
_cell_angle_gamma 90.000000
_cell_volume 1137.369803
_symmetry_space_group_name_H-M "C C"
_symmetry_group_IT_number 9
_symmetry_cell_setting 'monoclinic'
loop_
_space_group_symop_operation_xyz
x,y,z
x,-y,1/2+z
1/2+x,1/2+y,z
1/2+x,1/2-y,1/2+z
loop_
_atom_site_type_symbol
_atom_site_label
_atom_site_fract_x
_atom_site_fract_y
_atom_site_fract_z
Si Si1 0.417910 0.133092 0.224970
Si Si2 0.331795 0.499482 0.390956
Si Si3 0.297805 0.873951 0.892321
Si Si4 0.880405 0.594402 0.825170
Si Si5 0.440980 0.602475 0.142474
Si Si6 0.172075 0.871062 0.975862
Si Si7 0.746129 0.017815 0.689742
Si Si8 0.498612 0.253799 0.127468
O O1 0.646516 0.094440 0.336321
O O2 0.341955 0.986031 0.235040
O O3 0.305719 0.292363 0.201301
O O4 0.378652 0.148846 0.126817
O O5 0.351149 0.314712 0.429435
O O6 0.542819 0.572845 0.480768
O O7 0.294626 0.484971 0.292194
O O8 0.448749 0.979901 0.918950
O O9 0.151389 0.867619 0.763052
O O10 0.217476 0.960449 0.923998
O O11 0.039625 0.725809 0.886711
O O12 0.687735 0.687679 0.753887
O O13 0.353489 0.561061 0.175398
O O14 0.414210 0.439868 0.081251
O O15 0.360180 0.776074 0.081807
O O16 0.569814 0.887289 0.609373
#
# Coordination Sequence:
#
# PCOD9134180 Si02
#       8
#     4   4   4   4   4   4   4   4
#     4  10  19  33  62  94 116 158 213 254 312 390
#     4  11  21  37  68  90 127 173 213 259 326 390
#     4  11  23  42  67  89 127 179 217 265 332 391
#     4  11  20  36  63  89 122 165 209 260 323 382
#     4  10  23  41  66  94 132 167 221 278 326 380
#     4  12  24  42  63  97 132 166 220 277 323 388
#     4  10  18  39  63  87 125 163 208 262 318 389
#     4   9  20  38  62  92 119 167 207 261 322 388
#
# _framework density 28.135089000000001
#
# number of rings (size 3 to 8) (size 9 to 14) (size 15 to 20)
#    0.000    1.500    6.250    0.000    0.000    1.000 
#    2.250    0.000    8.250    0.000    0.000    0.000 
#    0.000    0.000    0.000    0.000    0.000    0.000 
#
# Total GULP energy -89074.181613 kJ/mol
# GULP energy per Si atom -5567.136351 kJ/mol
# Density = 2.807105 g / cm^3
# Si number density = 28.135089 Si / 1000 Ang^3
#
#
#
# Elastic Constant Matrix: (Units=GPa)
#
#
# Indices 1 2 3 4 5 6 
#
# 1 131.9793 40.6788 11.0990 0.0000 -6.0292 0.0000
# 2 40.6788 98.3828 2.3013 0.0000 3.1316 0.0000
# 3 11.0990 2.3013 70.6277 0.0000 1.2917 0.0000
# 4 0.0000 0.0000 0.0000 21.1229 0.0000 -0.4154
# 5 -6.0292 3.1316 1.2917 0.0000 26.9073 0.0000
# 6 0.0000 0.0000 0.0000 -0.4154 0.0000 66.5126
#
#
#
# Elastic Compliance Matrix: (Units=1/GPa)
#
#
# Indices 1 2 3 4 5 6 
#
# 1 0.008960 -0.003754 -0.001332 0.000000 0.002509 0.000000
# 2 -0.003754 0.011781 0.000247 0.000000 -0.002224 0.000000
# 3 -0.001332 0.000247 0.014379 0.000000 -0.001017 0.000000
# 4 0.000000 0.000000 0.000000 0.047348 0.000000 0.000296
# 5 0.002509 -0.002224 -0.001017 0.000000 0.038034 0.000000
# 6 0.000000 0.000000 0.000000 0.000296 0.000000 0.015037
#
#
# Mechanical properties :
#
#
# Convention : Reuss Voigt Hill
#
# Bulk Modulus (GPa) = 39.30323 45.46089 42.38206
# Shear Modulus (GPa) = 32.53140 39.36928 35.95034
#
# Velocity S-wave (km/s) = 3.40407 3.74477 3.57848
# Velocity P-wave (km/s) = 5.42679 5.90685 5.67190
#
# Compressibility (1/GPa) = 0.02544320
#
# Stress axis : x y z
#
# Youngs Moduli (GPa) = 111.60106 84.87935 69.54779
#
# Poissons Ratio (x) = 0.31861 0.09262
# Poissons Ratio (y) = 0.41891 -0.01716
# Poissons Ratio (z) = 0.14862 -0.02094
#
# Static dielectric constant tensor:
#      x y z
#    x 2.199670 0.000000 0.120970 
#    y 0.000000 2.553220 0.000000 
#    z 0.120970 0.000000 2.337730 
# 
# From -- ./inp_files/33224.got.cif
#   From: 2010.05.17/outbox.cif.g08.bks.cpg/sg9_17_cif.got.tgz:33224.got - 2010.06.03 20:04:27.
