data_PCOD9134352
_publ_section_title
;
Structure prediction by ZEFSAII (Michael W. Deem and Ramdas Pophale) SiO2 
 PCOD9134352
Probable space group: C C
;
_chemical_formula_sum "Si O2"
_cell_formula_units_Z 32
_cell_length_a 8.737806
_cell_length_b 14.545490
_cell_length_c 13.896464
_cell_angle_alpha 90.000000
_cell_angle_beta 51.467345
_cell_angle_gamma 90.000000
_cell_volume 1381.600332
_symmetry_space_group_name_H-M "C C"
_symmetry_group_IT_number 9
_symmetry_cell_setting 'monoclinic'
loop_
_space_group_symop_operation_xyz
x,y,z
x,-y,1/2+z
1/2+x,1/2+y,z
1/2+x,1/2-y,1/2+z
loop_
_atom_site_type_symbol
_atom_site_label
_atom_site_fract_x
_atom_site_fract_y
_atom_site_fract_z
Si Si1 0.078480 0.519774 0.500000
Si Si2 0.606253 0.808662 0.529876
Si Si3 0.497822 0.306157 0.255014
Si Si4 0.801682 0.595516 0.745026
Si Si5 0.384098 0.524635 0.650826
Si Si6 0.083680 0.142537 0.419030
Si Si7 0.021433 0.061706 0.263428
Si Si8 0.933155 0.476683 0.849909
O O1 0.053646 0.414808 0.542801
O O2 0.298930 0.538305 0.381476
O O3 0.007489 0.587132 0.610654
O O4 0.940752 0.532240 0.461191
O O5 0.562776 0.769739 0.652087
O O6 0.507580 0.736484 0.495183
O O7 0.825308 0.800295 0.400898
O O8 0.685310 0.318972 0.250708
O O9 0.424444 0.389990 0.210944
O O10 0.667913 0.513773 0.750858
O O11 0.834262 0.567423 0.841965
O O12 0.457926 0.561640 0.519883
O O13 0.512822 0.445024 0.652120
O O14 0.162192 0.488427 0.732242
O O15 0.074216 0.149070 0.307572
O O16 0.302455 0.108218 0.362986
#
# Coordination Sequence:
#
# PCOD9134352 Si02
#       8
#     4   4   4   4   4   4   4   4
#     4  11  20  37  65  88 115 165 209 251 308 376
#     4  11  22  38  64  91 125 160 206 256 321 374
#     4  10  21  41  61  88 127 160 205 258 315 370
#     4  10  20  36  60  88 119 162 207 259 299 371
#     4   9  17  36  56  81 119 152 197 251 294 357
#     4  10  21  34  57  89 118 153 199 259 307 357
#     4   9  18  34  56  83 116 149 205 244 294 359
#     4  10  19  34  63  84 115 155 212 246 308 354
#
# _framework density 23.161546000000001
#
# number of rings (size 3 to 8) (size 9 to 14) (size 15 to 20)
#    0.000    2.000    3.750    3.000    3.500    0.000 
#    0.000    0.000   13.750    0.000    0.000    0.000 
#    0.000    0.000    0.000    0.000    0.000    0.000 
#
# Total GULP energy -89125.197155 kJ/mol
# GULP energy per Si atom -5570.324822 kJ/mol
# Density = 2.310883 g / cm^3
# Si number density = 23.161546 Si / 1000 Ang^3
#
#
#
# Elastic Constant Matrix: (Units=GPa)
#
#
# Indices 1 2 3 4 5 6 
#
# 1 92.7741 3.9068 11.6217 0.0000 8.0554 0.0000
# 2 3.9068 30.8883 5.4934 0.0000 1.5925 0.0000
# 3 11.6217 5.4934 104.2098 0.0000 -10.2885 0.0000
# 4 0.0000 0.0000 0.0000 26.1694 0.0000 -6.3289
# 5 8.0554 1.5925 -10.2885 0.0000 34.4162 0.0000
# 6 0.0000 0.0000 0.0000 -6.3289 0.0000 6.2152
#
#
#
# Elastic Compliance Matrix: (Units=1/GPa)
#
#
# Indices 1 2 3 4 5 6 
#
# 1 0.011274 -0.001001 -0.001505 0.000000 -0.003042 0.000000
# 2 -0.001001 0.032916 -0.001804 0.000000 -0.001828 0.000000
# 3 -0.001505 -0.001804 0.010203 0.000000 0.003486 0.000000
# 4 0.000000 0.000000 0.000000 0.050698 0.000000 0.051626
# 5 -0.003042 -0.001828 0.003486 0.000000 0.030895 0.000000
# 6 0.000000 0.000000 0.000000 0.051626 0.000000 0.213467
#
#
# Mechanical properties :
#
#
# Convention : Reuss Voigt Hill
#
# Bulk Modulus (GPa) = 21.84707 29.99067 25.91887
# Shear Modulus (GPa) = 13.39296 27.15019 20.27157
#
# Velocity S-wave (km/s) = 2.40727 3.42747 2.96163
# Velocity P-wave (km/s) = 4.14482 5.35163 4.78642
#
# Compressibility (1/GPa) = 0.04577273
#
# Stress axis : x y z
#
# Youngs Moduli (GPa) = 88.70202 30.37999 98.00947
#
# Poissons Ratio (x) = 0.03042 0.14749
# Poissons Ratio (y) = 0.08883 0.17681
# Poissons Ratio (z) = 0.13348 0.05480
#
# Static dielectric constant tensor:
#      x y z
#    x 1.921890 0.000000 -0.010240 
#    y 0.000000 1.966980 0.000000 
#    z -0.010240 0.000000 1.902320 
# 
# From -- ./inp_files/23611.got.cif
#   From: 2010.05.17/outbox.cif.g08.bks.cpg/sg9_12_cif.got.tgz:23611.got - 2010.06.03 20:04:27.
