data_PCOD9134814
_publ_section_title
;
Structure prediction by ZEFSAII (Michael W. Deem and Ramdas Pophale) SiO2 
 PCOD9134814
Probable space group: C C
;
_chemical_formula_sum "Si O2"
_cell_formula_units_Z 32
_cell_length_a 5.722919
_cell_length_b 13.875178
_cell_length_c 18.483229
_cell_angle_alpha 90.000000
_cell_angle_beta 64.913278
_cell_angle_gamma 90.000000
_cell_volume 1329.237512
_symmetry_space_group_name_H-M "C C"
_symmetry_group_IT_number 9
_symmetry_cell_setting 'monoclinic'
loop_
_space_group_symop_operation_xyz
x,y,z
x,-y,1/2+z
1/2+x,1/2+y,z
1/2+x,1/2-y,1/2+z
loop_
_atom_site_type_symbol
_atom_site_label
_atom_site_fract_x
_atom_site_fract_y
_atom_site_fract_z
Si Si1 0.542920 0.493309 0.390590
Si Si2 0.038709 0.260263 0.538654
Si Si3 0.063325 0.136430 0.747812
Si Si4 0.995283 0.773182 0.687602
Si Si5 0.726862 0.675594 0.293027
Si Si6 0.040520 0.941695 0.095140
Si Si7 0.940106 0.563194 0.967984
Si Si8 0.170002 0.405700 0.637757
O O1 0.596587 0.432956 0.310497
O O2 0.622843 0.604160 0.366558
O O3 0.743703 0.455727 0.426290
O O4 0.228529 0.482353 0.433967
O O5 0.770236 0.258784 0.616829
O O6 0.987468 0.322051 0.473528
O O7 0.124165 0.150501 0.535913
O O8 0.206904 0.331581 0.566743
O O9 0.331002 0.181629 0.687935
O O10 0.968983 0.087170 0.686520
O O11 0.896311 0.231233 0.790906
O O12 0.863685 0.867890 0.673898
O O13 0.002116 0.782145 0.772691
O O14 0.897822 0.610884 0.213325
O O15 0.780157 0.992014 0.100066
O O16 0.274933 0.017533 0.055872
#
# Coordination Sequence:
#
# PCOD9134814 Si02
#       8
#     4   4   4   4   4   4   4   4
#     4  12  31  53  75 107 167 214 249 318 394 473
#     4  11  24  47  73 110 153 191 255 325 374 458
#     4  11  26  44  80 116 142 202 263 331 389 444
#     4  10  19  42  74 113 145 176 259 334 372 435
#     4  10  24  45  74 113 150 192 258 330 377 457
#     4  12  24  48  84 112 145 211 255 324 401 441
#     4  12  31  53  73 116 163 215 255 308 394 489
#     4  10  21  42  73 117 147 179 256 332 375 443
#
# _framework density 24.073948999999999
#
# number of rings (size 3 to 8) (size 9 to 14) (size 15 to 20)
#    0.000    1.000    5.000    1.500   10.500    2.000 
#    0.000    2.500    0.000    0.000    0.000    0.000 
#    0.000    0.000    0.000    0.000    0.000    0.000 
#
# Total GULP energy -89320.012491 kJ/mol
# GULP energy per Si atom -5582.500781 kJ/mol
# Density = 2.401916 g / cm^3
# Si number density = 24.073949 Si / 1000 Ang^3
#
#
#
# Elastic Constant Matrix: (Units=GPa)
#
#
# Indices 1 2 3 4 5 6 
#
# 1 98.7473 27.3260 23.4898 0.0000 13.4019 0.0000
# 2 27.3260 119.3925 23.3111 0.0000 -4.6549 0.0000
# 3 23.4898 23.3111 66.0289 0.0000 3.7410 0.0000
# 4 0.0000 0.0000 0.0000 33.7781 0.0000 -3.8412
# 5 13.4019 -4.6549 3.7410 0.0000 30.5388 0.0000
# 6 0.0000 0.0000 0.0000 -3.8412 0.0000 40.1698
#
#
#
# Elastic Compliance Matrix: (Units=1/GPa)
#
#
# Indices 1 2 3 4 5 6 
#
# 1 0.012282 -0.002391 -0.003222 0.000000 -0.005360 0.000000
# 2 -0.002391 0.009558 -0.002684 0.000000 0.002835 0.000000
# 3 -0.003222 -0.002684 0.017302 0.000000 -0.001115 0.000000
# 4 0.000000 0.000000 0.000000 0.029930 0.000000 0.002862
# 5 -0.005360 0.002835 -0.001115 0.000000 0.035666 0.000000
# 6 0.000000 0.000000 0.000000 0.002862 0.000000 0.025168
#
#
# Mechanical properties :
#
#
# Convention : Reuss Voigt Hill
#
# Bulk Modulus (GPa) = 44.35015 48.04696 46.19855
# Shear Modulus (GPa) = 32.46414 34.90013 33.68214
#
# Velocity S-wave (km/s) = 3.67620 3.81163 3.74453
# Velocity P-wave (km/s) = 6.04001 6.27477 6.15851
#
# Compressibility (1/GPa) = 0.02254784
#
# Stress axis : x y z
#
# Youngs Moduli (GPa) = 81.41785 104.62860 57.79751
#
# Poissons Ratio (x) = 0.25018 0.18620
# Poissons Ratio (y) = 0.19468 0.15514
# Poissons Ratio (z) = 0.26230 0.28085
#
# Static dielectric constant tensor:
#      x y z
#    x 1.936320 0.000000 0.009280 
#    y 0.000000 1.983500 0.000000 
#    z 0.009280 0.000000 1.958780 
# 
# From -- ./inp_files/28687.got.cif
#   From: 2010.05.17/outbox.cif.g08.bks.cpg/sg9_15_cif.got.tgz:28687.got - 2010.06.03 20:04:27.
