data_PCOD9134297
_publ_section_title
;
Structure prediction by ZEFSAII (Michael W. Deem and Ramdas Pophale) SiO2 
 PCOD9134297
Probable space group: C C
;
_chemical_formula_sum "Si O2"
_cell_formula_units_Z 32
_cell_length_a 12.945987
_cell_length_b 11.385644
_cell_length_c 15.138083
_cell_angle_alpha 90.000000
_cell_angle_beta 31.593763
_cell_angle_gamma 90.000000
_cell_volume 1168.978167
_symmetry_space_group_name_H-M "C C"
_symmetry_group_IT_number 9
_symmetry_cell_setting 'monoclinic'
loop_
_space_group_symop_operation_xyz
x,y,z
x,-y,1/2+z
1/2+x,1/2+y,z
1/2+x,1/2-y,1/2+z
loop_
_atom_site_type_symbol
_atom_site_label
_atom_site_fract_x
_atom_site_fract_y
_atom_site_fract_z
Si Si1 0.721530 0.938546 0.381980
Si Si2 0.908395 0.008505 0.416958
Si Si3 0.870526 0.436784 0.419946
Si Si4 0.322639 0.664784 0.233437
Si Si5 0.888313 0.716060 0.219279
Si Si6 0.588680 0.842471 0.748708
Si Si7 0.136138 0.271464 0.136548
Si Si8 0.643982 0.503426 0.410930
O O1 0.818056 0.845596 0.243948
O O2 0.531477 0.869868 0.559179
O O3 0.892595 0.961733 0.329661
O O4 0.676915 0.072865 0.388359
O O5 0.813405 0.139945 0.480301
O O6 0.100118 0.993863 0.337980
O O7 0.744502 0.927787 0.586385
O O8 0.718294 0.360522 0.587753
O O9 0.807753 0.457781 0.362636
O O10 0.932245 0.565481 0.404414
O O11 0.047402 0.344121 0.281699
O O12 0.196214 0.725787 0.249019
O O13 0.462999 0.745962 0.190025
O O14 0.465232 0.570400 0.082706
O O15 0.690489 0.641556 0.381777
O O16 0.990835 0.726981 0.240700
#
# Coordination Sequence:
#
# PCOD9134297 Si02
#       8
#     4   4   4   4   4   4   4   4
#     4  11  22  38  58  86 119 154 196 242 292 353
#     4   9  19  36  57  82 114 149 192 241 292 348
#     4   9  18  33  55  80 110 148 189 236 289 340
#     4  10  20  36  59  84 112 149 196 246 295 348
#     4  10  21  39  59  82 118 158 194 241 294 350
#     4   8  18  37  57  78 110 151 193 240 293 346
#     4  10  19  33  56  83 113 145 187 240 291 343
#     4   9  19  38  59  79 112 156 195 240 294 348
#
# _framework density 27.374334999999999
#
# number of rings (size 3 to 8) (size 9 to 14) (size 15 to 20)
#    0.000    2.500    0.000    2.250    0.000    2.000 
#    0.000   13.750    0.000    0.000    0.000    0.000 
#    0.000    0.000    0.000    0.000    0.000    0.000 
#
# Total GULP energy -89196.240856 kJ/mol
# GULP energy per Si atom -5574.765053 kJ/mol
# Density = 2.731203 g / cm^3
# Si number density = 27.374335 Si / 1000 Ang^3
#
#
#
# Elastic Constant Matrix: (Units=GPa)
#
#
# Indices 1 2 3 4 5 6 
#
# 1 171.2123 28.3177 11.6180 0.0002 -34.4861 0.0001
# 2 28.3177 111.5408 13.3480 -0.0014 -8.9943 -0.0005
# 3 11.6180 13.3480 61.6104 -0.0046 -1.0657 -0.0002
# 4 0.0002 -0.0014 -0.0046 20.3585 0.0002 14.3566
# 5 -34.4861 -8.9943 -1.0657 0.0002 20.2561 0.0002
# 6 0.0001 -0.0005 -0.0002 14.3566 0.0002 -10.4173
#
#
#
# Elastic Compliance Matrix: (Units=1/GPa)
#
#
# Indices 1 2 3 4 5 6 
#
# 1 0.009108 -0.000952 -0.001252 0.000000 0.015018 0.000000
# 2 -0.000952 0.009636 -0.001864 0.000000 0.002561 0.000000
# 3 -0.001252 -0.001864 0.016835 0.000002 -0.002073 0.000002
# 4 0.000000 0.000000 0.000002 0.024910 -0.000001 0.034330
# 5 0.015018 0.002561 -0.002073 -0.000001 0.075964 0.000000
# 6 0.000000 0.000000 0.000002 0.034330 0.000000 -0.048682
#
#
# Mechanical properties :
#
#
# Convention : Reuss Voigt Hill
#
# Bulk Modulus (GPa) = 36.43625 50.10344 43.26984
# Shear Modulus (GPa) = 47.59434 25.44479 36.51957
#
# Velocity S-wave (km/s) = 4.17423 3.05210 3.65647
# Velocity P-wave (km/s) = 6.04744 5.54646 5.80236
#
# Compressibility (1/GPa) = 0.02744520
#
# Stress axis : x y z
#
# Youngs Moduli (GPa) = 109.79369 103.77246 59.39995
#
# Poissons Ratio (x) = 0.09874 0.07434
# Poissons Ratio (y) = 0.10447 0.11072
# Poissons Ratio (z) = 0.13742 0.19344
#
# Static dielectric constant tensor:
#      x y z
#    x 2.164060 0.000000 0.038250 
#    y 0.000000 2.093940 0.000000 
#    z 0.038250 0.000000 2.293490 
# 
# From -- ./inp_files/16209.got.cif
#   From: 2010.05.17/outbox.cif.g08.bks.cpg/sg9_9_cif.got.tgz:16209.got - 2010.06.03 20:04:27.
