data_PCOD9134003
_publ_section_title
;
Structure prediction by ZEFSAII (Michael W. Deem and Ramdas Pophale) SiO2 
 PCOD9134003
Probable space group: C C
;
_chemical_formula_sum "Si O2"
_cell_formula_units_Z 32
_cell_length_a 27.211976
_cell_length_b 5.341304
_cell_length_c 19.326282
_cell_angle_alpha 90.000000
_cell_angle_beta 25.005028
_cell_angle_gamma 90.000000
_cell_volume 1187.368898
_symmetry_space_group_name_H-M "C C"
_symmetry_group_IT_number 9
_symmetry_cell_setting 'monoclinic'
loop_
_space_group_symop_operation_xyz
x,y,z
x,-y,1/2+z
1/2+x,1/2+y,z
1/2+x,1/2-y,1/2+z
loop_
_atom_site_type_symbol
_atom_site_label
_atom_site_fract_x
_atom_site_fract_y
_atom_site_fract_z
Si Si1 0.611290 0.620018 0.002760
Si Si2 0.331399 0.598031 0.666861
Si Si3 0.090419 0.406688 0.388440
Si Si4 0.405540 0.245607 0.216475
Si Si5 0.825609 0.598425 0.620880
Si Si6 0.143053 0.090729 0.747029
Si Si7 0.461406 0.031394 0.773243
Si Si8 0.052834 0.030251 0.713375
O O1 0.499205 0.459436 0.120785
O O2 0.568489 0.888567 0.085089
O O3 0.644540 0.492383 0.033024
O O4 0.714648 0.612909 0.816311
O O5 0.204565 0.598017 0.792017
O O6 0.330787 0.618932 0.750889
O O7 0.389199 0.352664 0.559651
O O8 0.387787 0.846420 0.562359
O O9 0.111696 0.625479 0.306679
O O10 0.976943 0.454437 0.578792
O O11 0.083970 0.125925 0.368087
O O12 0.374632 0.099210 0.327261
O O13 0.775529 0.578117 0.607534
O O14 0.118971 0.011600 0.700383
O O15 0.459683 0.303735 0.815168
O O16 0.499926 0.806918 0.773790
#
# Coordination Sequence:
#
# PCOD9134003 Si02
#       8
#     4   4   4   4   4   4   4   4
#     4   9  19  34  56  81 113 139 188 231 279 335
#     4  10  22  32  53  87 114 143 179 237 290 324
#     4  10  21  34  55  84 115 140 192 237 273 345
#     4  11  20  35  58  86 115 150 184 238 293 332
#     4  10  20  35  52  83 115 136 189 241 268 338
#     4  10  18  34  54  81 112 146 187 229 282 334
#     4   9  19  30  51  81 110 140 189 225 265 343
#     4   9  19  30  53  85 106 148 190 222 280 341
#
# _framework density 26.950344999999999
#
# number of rings (size 3 to 8) (size 9 to 14) (size 15 to 20)
#    0.750    1.500    2.500    2.250    3.500    0.000 
#    0.000    0.000    0.000    0.000   45.500    0.000 
#    0.000    0.000    0.000    0.000    0.000    0.000 
#
# Total GULP energy -89286.872593 kJ/mol
# GULP energy per Si atom -5580.429537 kJ/mol
# Density = 2.688900 g / cm^3
# Si number density = 26.950345 Si / 1000 Ang^3
#
#
#
# Elastic Constant Matrix: (Units=GPa)
#
#
# Indices 1 2 3 4 5 6 
#
# 1 255.4127 55.9580 16.4935 -0.0173 7.3387 -0.0198
# 2 55.9580 201.6808 2.0918 -0.0758 -4.9313 -0.0302
# 3 16.4935 2.0918 50.0205 -0.1005 -3.4230 -0.0155
# 4 -0.0173 -0.0758 -0.1005 28.4025 -0.0024 -1.6912
# 5 7.3387 -4.9313 -3.4230 -0.0024 30.8572 0.0005
# 6 -0.0198 -0.0302 -0.0155 -1.6912 0.0005 49.0317
#
#
#
# Elastic Compliance Matrix: (Units=1/GPa)
#
#
# Indices 1 2 3 4 5 6 
#
# 1 0.004316 -0.001216 -0.001467 -0.000006 -0.001384 0.000000
# 2 -0.001216 0.005322 0.000258 0.000015 0.001168 0.000003
# 3 -0.001467 0.000258 0.020648 0.000074 0.002681 0.000009
# 4 -0.000006 0.000015 0.000074 0.035281 0.000015 0.001217
# 5 -0.001384 0.001168 0.002681 0.000015 0.033220 0.000001
# 6 0.000000 0.000003 0.000009 0.001217 0.000001 0.020437
#
#
# Mechanical properties :
#
#
# Convention : Reuss Voigt Hill
#
# Bulk Modulus (GPa) = 39.31332 72.91118 56.11225
# Shear Modulus (GPa) = 37.72080 50.49633 44.10857
#
# Velocity S-wave (km/s) = 3.74524 4.33330 4.04996
# Velocity P-wave (km/s) = 5.77247 7.22144 6.53723
#
# Compressibility (1/GPa) = 0.02543667
#
# Stress axis : x y z
#
# Youngs Moduli (GPa) = 231.68692 187.91132 48.43005
#
# Poissons Ratio (x) = 0.22853 0.07105
# Poissons Ratio (y) = 0.28177 -0.01252
# Poissons Ratio (z) = 0.33989 -0.04857
#
# Static dielectric constant tensor:
#      x y z
#    x 2.191770 -0.000040 -0.011740 
#    y -0.000040 2.185420 -0.000010 
#    z -0.011740 -0.000010 2.199920 
# 
# From -- ./inp_files/34408.got.cif
#   From: 2010.05.17/outbox.cif.g08.bks.cpg/sg9_18_cif.got.tgz:34408.got - 2010.06.03 20:04:27.
