data_PCOD9134222
_publ_section_title
;
Structure prediction by ZEFSAII (Michael W. Deem and Ramdas Pophale) SiO2 
 PCOD9134222
Probable space group: C C
;
_chemical_formula_sum "Si O2"
_cell_formula_units_Z 24
_cell_length_a 10.306246
_cell_length_b 17.763046
_cell_length_c 5.462707
_cell_angle_alpha 90.000000
_cell_angle_beta 56.217682
_cell_angle_gamma 90.000000
_cell_volume 831.205585
_symmetry_space_group_name_H-M "C C"
_symmetry_group_IT_number 9
_symmetry_cell_setting 'monoclinic'
loop_
_space_group_symop_operation_xyz
x,y,z
x,-y,1/2+z
1/2+x,1/2+y,z
1/2+x,1/2-y,1/2+z
loop_
_atom_site_type_symbol
_atom_site_label
_atom_site_fract_x
_atom_site_fract_y
_atom_site_fract_z
Si Si1 0.603300 0.642137 0.569470
Si Si2 0.557397 0.812344 0.133010
Si Si3 0.895160 0.541528 0.917460
Si Si4 0.745222 0.202164 0.943116
Si Si5 0.769105 0.030119 0.566814
Si Si6 0.529380 0.368048 0.643510
O O1 0.731196 0.707233 0.466684
O O2 0.315335 0.529632 0.804617
O O3 0.619632 0.605156 0.289407
O O4 0.600067 0.598621 0.824282
O O5 0.412447 0.869708 0.312447
O O6 0.649281 0.827213 0.780635
O O7 0.650964 0.816926 0.293607
O O8 0.521391 0.722616 0.149801
O O9 0.845644 0.512158 0.241508
O O10 0.084821 0.529337 0.742708
O O11 0.927972 0.180583 0.749498
O O12 0.859908 0.098664 0.351642
#
# Coordination Sequence:
#
# PCOD9134222 Si02
#       6
#     4   4   4   4   4   4
#     4  10  19  31  49  73 105 137 171 218 265 314
#     4  10  20  33  50  73 106 143 180 215 260 322
#     4  10  19  30  47  72 104 138 168 211 274 330
#     4  10  19  31  49  73 105 137 171 218 265 314
#     4  10  19  30  47  72 104 138 168 211 274 330
#     4  10  20  33  50  73 106 143 180 215 260 322
#
# _framework density 28.873719999999999
#
# number of rings (size 3 to 8) (size 9 to 14) (size 15 to 20)
#    0.000    2.000    0.000    5.000    0.000    2.667 
#    0.000    0.000    0.000    0.000    0.000    0.000 
#    0.000  493.333    0.000    0.000    0.000    0.000 
#
# Total GULP energy -67112.245528 kJ/mol
# GULP energy per Si atom -5592.687127 kJ/mol
# Density = 2.880800 g / cm^3
# Si number density = 28.873720 Si / 1000 Ang^3
#
#
#
# Elastic Constant Matrix: (Units=GPa)
#
#
# Indices 1 2 3 4 5 6 
#
# 1 80.5405 21.7363 37.6245 0.0000 27.5734 0.0000
# 2 21.7363 68.0848 -7.3461 0.0000 12.0845 0.0000
# 3 37.6245 -7.3461 215.3464 0.0000 39.7199 0.0000
# 4 0.0000 0.0000 0.0000 42.0675 0.0000 11.4243
# 5 27.5734 12.0845 39.7199 0.0000 52.7521 0.0000
# 6 0.0000 0.0000 0.0000 11.4243 0.0000 41.8870
#
#
#
# Elastic Compliance Matrix: (Units=1/GPa)
#
#
# Indices 1 2 3 4 5 6 
#
# 1 0.016635 -0.004406 -0.001903 0.000000 -0.006252 0.000000
# 2 -0.004406 0.016827 0.001893 0.000000 -0.002977 0.000000
# 3 -0.001903 0.001893 0.005734 0.000000 -0.003756 0.000000
# 4 0.000000 0.000000 0.000000 0.025673 0.000000 -0.007002
# 5 -0.006252 -0.002977 -0.003756 0.000000 0.025735 0.000000
# 6 0.000000 0.000000 0.000000 -0.007002 0.000000 0.025783
#
#
# Mechanical properties :
#
#
# Convention : Reuss Voigt Hill
#
# Bulk Modulus (GPa) = 32.93627 52.00014 42.46820
# Shear Modulus (GPa) = 36.94370 48.13846 42.54108
#
# Velocity S-wave (km/s) = 3.58088 4.08757 3.84259
# Velocity P-wave (km/s) = 5.34123 6.35030 5.86749
#
# Compressibility (1/GPa) = 0.03036167
#
# Stress axis : x y z
#
# Youngs Moduli (GPa) = 60.11389 59.42847 174.41128
#
# Poissons Ratio (x) = 0.26187 0.33199
# Poissons Ratio (y) = 0.26489 -0.33015
# Poissons Ratio (z) = 0.11443 -0.11250
#
# Static dielectric constant tensor:
#      x y z
#    x 2.298840 0.000000 -0.040720 
#    y 0.000000 2.426890 0.000000 
#    z -0.040720 0.000000 2.357670 
# 
# From -- ./inp_files/2347.got.cif
#   From: 2010.05.17/outbox.cif.g08.bks.cpg/sg9_2_cif.got.tgz:2347.got - 2010.06.03 20:04:27.
