data_PCOD9134438
_publ_section_title
;
Structure prediction by ZEFSAII (Michael W. Deem and Ramdas Pophale) SiO2 
 PCOD9134438
Probable space group: C C
;
_chemical_formula_sum "Si O2"
_cell_formula_units_Z 32
_cell_length_a 27.065715
_cell_length_b 8.166650
_cell_length_c 14.930489
_cell_angle_alpha 90.000000
_cell_angle_beta 151.862282
_cell_angle_gamma 90.000000
_cell_volume 1556.339559
_symmetry_space_group_name_H-M "C C"
_symmetry_group_IT_number 9
_symmetry_cell_setting 'monoclinic'
loop_
_space_group_symop_operation_xyz
x,y,z
x,-y,1/2+z
1/2+x,1/2+y,z
1/2+x,1/2-y,1/2+z
loop_
_atom_site_type_symbol
_atom_site_label
_atom_site_fract_x
_atom_site_fract_y
_atom_site_fract_z
Si Si1 0.198940 0.493075 0.190860
Si Si2 0.105093 0.744681 0.180608
Si Si3 0.943061 0.068109 0.296211
Si Si4 0.534437 0.238582 0.489040
Si Si5 0.203736 0.068068 0.386305
Si Si6 0.368329 0.228806 0.524310
Si Si7 0.006958 0.532443 0.610687
Si Si8 0.724100 0.157276 0.042000
O O1 0.172963 0.608865 0.234989
O O2 0.096502 0.377221 0.019626
O O3 0.289905 0.360301 0.353919
O O4 0.221571 0.603025 0.140715
O O5 0.022356 0.657700 0.114423
O O6 0.177083 0.878048 0.343851
O O7 0.033953 0.841870 0.996439
O O8 0.944431 0.154232 0.202290
O O9 0.830782 0.098074 0.164311
O O10 0.965258 0.875331 0.331886
O O11 0.615510 0.337751 0.684428
O O12 0.480320 0.117802 0.473100
O O13 0.307760 0.115799 0.498826
O O14 0.211990 0.151621 0.496694
O O15 0.425397 0.107615 0.548616
O O16 0.122591 0.579397 0.831907
#
# Coordination Sequence:
#
# PCOD9134438 Si02
#       8
#     4   4   4   4   4   4   4   4
#     4  10  20  37  60  86 118 156 197 244 296 354
#     4  10  20  37  59  85 117 154 195 246 300 351
#     4  10  19  36  60  84 114 154 196 246 300 347
#     4   8  17  35  57  81 112 149 189 241 294 341
#     4   8  18  36  56  79 116 153 189 240 292 341
#     4  10  20  37  60  86 119 157 197 244 294 353
#     4  10  20  37  57  83 117 151 194 244 293 354
#     4  10  20  37  57  82 117 156 195 239 293 353
#
# _framework density 20.561064999999999
#
# number of rings (size 3 to 8) (size 9 to 14) (size 15 to 20)
#    0.000    2.500    0.000    3.750    0.000    1.000 
#    0.000   25.000    0.000    0.000    0.000    0.000 
#    0.000    0.000    0.000    0.000    0.000    0.000 
#
# Total GULP energy -89215.145632 kJ/mol
# GULP energy per Si atom -5575.946602 kJ/mol
# Density = 2.051427 g / cm^3
# Si number density = 20.561065 Si / 1000 Ang^3
#
#
#
# Elastic Constant Matrix: (Units=GPa)
#
#
# Indices 1 2 3 4 5 6 
#
# 1 112.2605 65.9840 21.3986 0.0000 -5.1476 0.0000
# 2 65.9840 148.2707 30.8620 0.0000 -0.6320 0.0000
# 3 21.3986 30.8620 33.1839 0.0000 0.1175 0.0000
# 4 0.0000 0.0000 0.0000 33.2202 0.0000 -3.7984
# 5 -5.1476 -0.6320 0.1175 0.0000 18.1353 0.0000
# 6 0.0000 0.0000 0.0000 -3.7984 0.0000 29.5023
#
#
#
# Elastic Compliance Matrix: (Units=1/GPa)
#
#
# Indices 1 2 3 4 5 6 
#
# 1 0.012601 -0.004835 -0.003641 0.000000 0.003432 0.000000
# 2 -0.004835 0.010221 -0.006384 0.000000 -0.000975 0.000000
# 3 -0.003641 -0.006384 0.038426 0.000000 -0.001505 0.000000
# 4 0.000000 0.000000 0.000000 0.030552 0.000000 0.003934
# 5 0.003432 -0.000975 -0.001505 0.000000 0.056091 0.000000
# 6 0.000000 0.000000 0.000000 0.003934 0.000000 0.034402
#
#
# Mechanical properties :
#
#
# Convention : Reuss Voigt Hill
#
# Bulk Modulus (GPa) = 31.71906 58.91158 45.31532
# Shear Modulus (GPa) = 22.46951 27.86960 25.16956
#
# Velocity S-wave (km/s) = 3.30937 3.68564 3.50256
# Velocity P-wave (km/s) = 5.48295 6.84297 6.20036
#
# Compressibility (1/GPa) = 0.03152679
#
# Stress axis : x y z
#
# Youngs Moduli (GPa) = 79.35626 97.83785 26.02417
#
# Poissons Ratio (x) = 0.47309 0.09476
# Poissons Ratio (y) = 0.38372 0.16614
# Poissons Ratio (z) = 0.28894 0.62462
#
# Static dielectric constant tensor:
#      x y z
#    x 1.729340 0.000000 0.008500 
#    y 0.000000 1.750700 0.000000 
#    z 0.008500 0.000000 1.771440 
# 
# From -- ./inp_files/25501.got.cif
#   From: 2010.05.17/outbox.cif.g08.bks.cpg/sg9_13_cif.got.tgz:25501.got - 2010.06.03 20:04:27.
