data_PCOD9134326
_publ_section_title
;
Structure prediction by ZEFSAII (Michael W. Deem and Ramdas Pophale) SiO2 
 PCOD9134326
Probable space group: C C
;
_chemical_formula_sum "Si O2"
_cell_formula_units_Z 32
_cell_length_a 7.554316
_cell_length_b 11.575460
_cell_length_c 20.640540
_cell_angle_alpha 90.000000
_cell_angle_beta 48.654674
_cell_angle_gamma 90.000000
_cell_volume 1355.017944
_symmetry_space_group_name_H-M "C C"
_symmetry_group_IT_number 9
_symmetry_cell_setting 'monoclinic'
loop_
_space_group_symop_operation_xyz
x,y,z
x,-y,1/2+z
1/2+x,1/2+y,z
1/2+x,1/2-y,1/2+z
loop_
_atom_site_type_symbol
_atom_site_label
_atom_site_fract_x
_atom_site_fract_y
_atom_site_fract_z
Si Si1 0.751310 0.285840 0.803140
Si Si2 0.639236 0.044159 0.428195
Si Si3 0.001979 0.901565 0.173332
Si Si4 0.041019 0.754750 0.357146
Si Si5 0.062019 0.792891 0.027867
Si Si6 0.747025 0.221241 0.497080
Si Si7 0.123339 0.041392 0.031779
Si Si8 0.659479 0.469652 0.270387
O O1 0.782084 0.167283 0.755920
O O2 0.961226 0.286688 0.805054
O O3 0.500303 0.279635 0.899667
O O4 0.764821 0.405539 0.760396
O O5 0.634930 0.151229 0.378366
O O6 0.637203 0.102495 0.499459
O O7 0.403310 0.971021 0.477881
O O8 0.880326 0.981757 0.353550
O O9 0.086710 0.810173 0.098386
O O10 0.168011 0.934044 0.193219
O O11 0.977705 0.012980 0.132604
O O12 0.783817 0.780181 0.451175
O O13 0.218000 0.861568 0.303109
O O14 0.080848 0.927924 0.998338
O O15 0.813428 0.759837 0.056497
O O16 0.592465 0.331034 0.513262
#
# Coordination Sequence:
#
# PCOD9134326 Si02
#       8
#     4   4   4   4   4   4   4   4
#     4   9  19  35  57  80 110 145 187 219 269 331
#     4  10  20  34  58  81 105 136 190 229 258 319
#     4   9  19  33  58  80 111 150 174 220 287 320
#     4   9  18  36  55  79 105 140 186 226 264 319
#     4   8  18  32  55  79 108 140 178 224 268 320
#     4  10  19  34  57  81 101 147 187 221 261 326
#     4   9  19  34  54  77 109 141 174 226 272 313
#     4  10  20  36  58  79 109 149 182 221 275 324
#
# _framework density 23.615922999999999
#
# number of rings (size 3 to 8) (size 9 to 14) (size 15 to 20)
#    0.750    2.000    0.000    2.250    1.750    4.000 
#    0.000    2.500    2.750    0.000    0.000    0.000 
#    0.000    0.000    0.000    0.000    0.000    0.000 
#
# Total GULP energy -89105.476029 kJ/mol
# GULP energy per Si atom -5569.092252 kJ/mol
# Density = 2.356217 g / cm^3
# Si number density = 23.615923 Si / 1000 Ang^3
#
#
#
# Elastic Constant Matrix: (Units=GPa)
#
#
# Indices 1 2 3 4 5 6 
#
# 1 50.3465 21.9386 13.2389 0.0001 6.8413 -0.0001
# 2 21.9386 78.0608 22.5255 0.0003 15.9686 -0.0002
# 3 13.2389 22.5255 61.1775 0.0005 20.9371 -0.0003
# 4 0.0001 0.0003 0.0005 26.5416 -0.0004 4.6932
# 5 6.8413 15.9686 20.9371 -0.0004 19.5159 0.0002
# 6 -0.0001 -0.0002 -0.0003 4.6932 0.0002 30.6115
#
#
#
# Elastic Compliance Matrix: (Units=1/GPa)
#
#
# Indices 1 2 3 4 5 6 
#
# 1 0.023094 -0.005579 -0.002742 0.000000 -0.000590 0.000000
# 2 -0.005579 0.016914 -0.001506 0.000000 -0.010268 0.000000
# 3 -0.002742 -0.001506 0.026457 -0.000001 -0.026190 0.000001
# 4 0.000000 0.000000 -0.000001 0.038726 0.000002 -0.005937
# 5 -0.000590 -0.010268 -0.026190 0.000002 0.087945 -0.000001
# 6 0.000000 0.000000 0.000001 -0.005937 -0.000001 0.033578
#
#
# Mechanical properties :
#
#
# Convention : Reuss Voigt Hill
#
# Bulk Modulus (GPa) = 21.36257 33.88786 27.62522
# Shear Modulus (GPa) = 19.08605 24.12594 21.60600
#
# Velocity S-wave (km/s) = 2.84594 3.19971 3.02800
# Velocity P-wave (km/s) = 4.45698 5.29449 4.89368
#
# Compressibility (1/GPa) = 0.04681084
#
# Stress axis : x y z
#
# Youngs Moduli (GPa) = 43.30058 59.12435 37.79736
#
# Poissons Ratio (x) = 0.32984 0.10363
# Poissons Ratio (y) = 0.24156 0.05694
# Poissons Ratio (z) = 0.11872 0.08906
#
# Static dielectric constant tensor:
#      x y z
#    x 1.928130 0.000000 0.035860 
#    y 0.000000 1.940510 0.000000 
#    z 0.035860 0.000000 1.919340 
# 
# From -- ./inp_files/29143.got.cif
#   From: 2010.05.17/outbox.cif.g08.bks.cpg/sg9_15_cif.got.tgz:29143.got - 2010.06.03 20:04:27.
