data_PCOD9134135
_publ_section_title
;
Structure prediction by ZEFSAII (Michael W. Deem and Ramdas Pophale) SiO2 
 PCOD9134135
Probable space group: C C
;
_chemical_formula_sum "Si O2"
_cell_formula_units_Z 32
_cell_length_a 22.911620
_cell_length_b 10.650131
_cell_length_c 11.601020
_cell_angle_alpha 90.000000
_cell_angle_beta 151.681567
_cell_angle_gamma 90.000000
_cell_volume 1342.843697
_symmetry_space_group_name_H-M "C C"
_symmetry_group_IT_number 9
_symmetry_cell_setting 'monoclinic'
loop_
_space_group_symop_operation_xyz
x,y,z
x,-y,1/2+z
1/2+x,1/2+y,z
1/2+x,1/2-y,1/2+z
loop_
_atom_site_type_symbol
_atom_site_label
_atom_site_fract_x
_atom_site_fract_y
_atom_site_fract_z
Si Si1 0.610260 0.698235 0.255740
Si Si2 0.957184 0.425680 0.337847
Si Si3 0.633201 0.320709 0.542595
Si Si4 0.353773 0.195513 0.244592
Si Si5 0.192091 0.482406 0.370242
Si Si6 0.034889 0.427577 0.787269
Si Si7 0.865739 0.874886 0.044861
Si Si8 0.317465 0.794458 0.263309
O O1 0.683750 0.650035 0.496334
O O2 0.661939 0.839277 0.337263
O O3 0.650875 0.633924 0.204939
O O4 0.464123 0.722221 0.994696
O O5 0.891889 0.553171 0.273745
O O6 0.888659 0.304017 0.264634
O O7 0.094693 0.440200 0.623606
O O8 0.976207 0.446758 0.236593
O O9 0.743810 0.319429 0.644994
O O10 0.579841 0.176770 0.456445
O O11 0.511495 0.386231 0.281173
O O12 0.330679 0.270745 0.083795
O O13 0.158704 0.545806 0.433104
O O14 0.317079 0.500691 0.520479
O O15 0.920549 0.370319 0.517045
O O16 0.808600 0.830242 0.824475
#
# Coordination Sequence:
#
# PCOD9134135 Si02
#       8
#     4   4   4   4   4   4   4   4
#     4  10  22  37  55  95 120 157 215 256 310 370
#     4  10  20  38  63  93 118 165 210 251 311 387
#     4  10  19  38  60  84 121 167 203 253 323 380
#     4  10  19  40  65  81 120 171 208 249 320 388
#     4  10  20  34  64  91 116 160 211 261 302 377
#     4  10  18  37  63  91 117 165 212 249 317 379
#     4  10  20  38  63  91 123 161 211 261 317 373
#     4  10  22  36  59  96 129 150 210 274 304 358
#
# _framework density 23.830026
#
# number of rings (size 3 to 8) (size 9 to 14) (size 15 to 20)
#    0.000    2.000    6.250    0.000    1.750    3.000 
#    2.250    1.250    8.250    0.000    0.000    0.000 
#    0.000    0.000    0.000    0.000    0.000    0.000 
#
# Total GULP energy -89077.677965 kJ/mol
# GULP energy per Si atom -5567.354873 kJ/mol
# Density = 2.377579 g / cm^3
# Si number density = 23.830026 Si / 1000 Ang^3
#
#
#
# Elastic Constant Matrix: (Units=GPa)
#
#
# Indices 1 2 3 4 5 6 
#
# 1 120.8346 7.6802 39.5507 0.0000 34.8092 0.0000
# 2 7.6802 23.5540 -2.0152 0.0000 3.6814 0.0000
# 3 39.5507 -2.0152 108.4851 0.0000 -0.9756 0.0000
# 4 0.0000 0.0000 0.0000 19.9538 0.0000 -0.0323
# 5 34.8092 3.6814 -0.9756 0.0000 41.4681 0.0000
# 6 0.0000 0.0000 0.0000 -0.0323 0.0000 27.5672
#
#
#
# Elastic Compliance Matrix: (Units=1/GPa)
#
#
# Indices 1 2 3 4 5 6 
#
# 1 0.013267 -0.003036 -0.004992 0.000000 -0.010985 0.000000
# 2 -0.003036 0.043812 0.001909 0.000000 -0.001296 0.000000
# 3 -0.004992 0.001909 0.011112 0.000000 0.004282 0.000000
# 4 0.000000 0.000000 0.000000 0.050116 0.000000 0.000059
# 5 -0.010985 -0.001296 0.004282 0.000000 0.033551 0.000000
# 6 0.000000 0.000000 0.000000 0.000059 0.000000 0.036275
#
#
# Mechanical properties :
#
#
# Convention : Reuss Voigt Hill
#
# Bulk Modulus (GPa) = 17.87243 38.14501 28.00872
# Shear Modulus (GPa) = 22.82880 31.64167 27.23523
#
# Velocity S-wave (km/s) = 3.09849 3.64786 3.38434
# Velocity P-wave (km/s) = 4.50745 5.81243 5.20103
#
# Compressibility (1/GPa) = 0.05595212
#
# Stress axis : x y z
#
# Youngs Moduli (GPa) = 75.37473 22.82506 89.99455
#
# Poissons Ratio (x) = 0.06930 0.44925
# Poissons Ratio (y) = 0.22886 -0.17181
# Poissons Ratio (z) = 0.37627 -0.04358
#
# Static dielectric constant tensor:
#      x y z
#    x 2.004310 0.000000 -0.043650 
#    y 0.000000 1.976590 0.000000 
#    z -0.043650 0.000000 2.049320 
# 
# From -- ./inp_files/16727.got.cif
#   From: 2010.05.17/outbox.cif.g08.bks.cpg/sg9_9_cif.got.tgz:16727.got - 2010.06.03 20:04:27.
