data_PCOD9134521
_publ_section_title
;
Structure prediction by ZEFSAII (Michael W. Deem and Ramdas Pophale) SiO2 
 PCOD9134521
Probable space group: C C
;
_chemical_formula_sum "Si O2"
_cell_formula_units_Z 24
_cell_length_a 13.378255
_cell_length_b 5.936017
_cell_length_c 13.247945
_cell_angle_alpha 90.000000
_cell_angle_beta 62.319854
_cell_angle_gamma 90.000000
_cell_volume 931.662230
_symmetry_space_group_name_H-M "C C"
_symmetry_group_IT_number 9
_symmetry_cell_setting 'monoclinic'
loop_
_space_group_symop_operation_xyz
x,y,z
x,-y,1/2+z
1/2+x,1/2+y,z
1/2+x,1/2-y,1/2+z
loop_
_atom_site_type_symbol
_atom_site_label
_atom_site_fract_x
_atom_site_fract_y
_atom_site_fract_z
Si Si1 0.375000 0.785333 0.508600
Si Si2 0.503702 0.824777 0.858432
Si Si3 0.177359 0.696943 0.755867
Si Si4 0.119340 0.272487 0.501214
Si Si5 0.064977 0.214798 0.052396
Si Si6 0.450961 0.570834 0.282621
O O1 0.278708 0.744484 0.634168
O O2 0.492109 0.758627 0.515066
O O3 0.366677 0.629778 0.412600
O O4 0.399404 0.023629 0.444059
O O5 0.536578 0.703101 0.947435
O O6 0.463375 0.694551 0.778900
O O7 0.618429 0.953399 0.776409
O O8 0.199201 0.726200 0.864431
O O9 0.071968 0.849989 0.771315
O O10 0.116965 0.532641 0.545549
O O11 0.951843 0.809693 0.674769
O O12 0.132008 0.021315 0.544456
#
# Coordination Sequence:
#
# PCOD9134521 Si02
#       6
#     4   4   4   4   4   4
#     4   9  19  36  57  83 114 154 193 237 294 348
#     4   9  19  38  57  85 117 157 191 245 301 339
#     4   9  19  36  57  83 114 154 193 237 294 348
#     4   9  20  38  58  84 112 154 191 242 292 336
#     4  10  19  37  62  81 115 154 197 234 291 347
#     4  10  20  35  57  82 116 155 191 237 292 346
#
# _framework density 25.760408999999999
#
# number of rings (size 3 to 8) (size 9 to 14) (size 15 to 20)
#    0.000    3.333    3.333    0.000    4.667    1.333 
#    0.000    6.667    0.000    0.000    0.000    0.000 
#    0.000    0.000    0.000    0.000    0.000    0.000 
#
# Total GULP energy -66834.516180 kJ/mol
# GULP energy per Si atom -5569.543015 kJ/mol
# Density = 2.570178 g / cm^3
# Si number density = 25.760409 Si / 1000 Ang^3
#
#
#
# Elastic Constant Matrix: (Units=GPa)
#
#
# Indices 1 2 3 4 5 6 
#
# 1 61.2103 1.7155 14.7628 0.0000 -12.8046 0.0000
# 2 1.7155 154.9241 41.3715 0.0000 3.2696 -0.0001
# 3 14.7628 41.3715 179.1582 0.0000 -18.8486 0.0000
# 4 0.0000 0.0000 0.0000 31.2249 0.0000 19.7569
# 5 -12.8046 3.2696 -18.8486 0.0000 44.8643 0.0000
# 6 0.0000 -0.0001 0.0000 19.7569 0.0000 -5.8268
#
#
#
# Elastic Compliance Matrix: (Units=1/GPa)
#
#
# Indices 1 2 3 4 5 6 
#
# 1 0.017531 -0.000037 -0.000951 0.000000 0.004607 0.000000
# 2 -0.000037 0.006944 -0.001731 0.000000 -0.001244 0.000000
# 3 -0.000951 -0.001731 0.006324 0.000000 0.002512 0.000000
# 4 0.000000 0.000000 0.000000 0.010182 0.000000 0.034523
# 5 0.004607 -0.001244 0.002512 0.000000 0.024750 0.000000
# 6 0.000000 0.000000 0.000000 0.034523 0.000000 -0.054563
#
#
# Mechanical properties :
#
#
# Convention : Reuss Voigt Hill
#
# Bulk Modulus (GPa) = 39.43329 56.77691 48.10510
# Shear Modulus (GPa) = 199.51085 36.54866 118.02976
#
# Velocity S-wave (km/s) = 8.81004 3.77077 6.77626
# Velocity P-wave (km/s) = 10.90092 6.40676 8.94082
#
# Compressibility (1/GPa) = 0.02535928
#
# Stress axis : x y z
#
# Youngs Moduli (GPa) = 57.04094 144.01404 158.12604
#
# Poissons Ratio (x) = 0.00537 0.15043
# Poissons Ratio (y) = 0.00213 0.27376
# Poissons Ratio (z) = 0.05427 0.24933
#
# Static dielectric constant tensor:
#      x y z
#    x 2.025120 0.000000 -0.002740 
#    y 0.000000 2.289740 0.000000 
#    z -0.002740 0.000000 2.044260 
# 
# From -- ./inp_files/26993.got.cif
#   From: 2010.05.17/outbox.cif.g08.bks.cpg/sg9_14_cif.got.tgz:26993.got - 2010.06.03 20:04:27.
