data_PCOD9134215
_publ_section_title
;
Structure prediction by ZEFSAII (Michael W. Deem and Ramdas Pophale) SiO2 
 PCOD9134215
Probable space group: C C
;
_chemical_formula_sum "Si O2"
_cell_formula_units_Z 32
_cell_length_a 15.820339
_cell_length_b 6.818154
_cell_length_c 15.811067
_cell_angle_alpha 90.000000
_cell_angle_beta 43.898475
_cell_angle_gamma 90.000000
_cell_volume 1182.542453
_symmetry_space_group_name_H-M "C C"
_symmetry_group_IT_number 9
_symmetry_cell_setting 'monoclinic'
loop_
_space_group_symop_operation_xyz
x,y,z
x,-y,1/2+z
1/2+x,1/2+y,z
1/2+x,1/2-y,1/2+z
loop_
_atom_site_type_symbol
_atom_site_label
_atom_site_fract_x
_atom_site_fract_y
_atom_site_fract_z
Si Si1 0.246010 0.348829 0.016130
Si Si2 0.779089 0.478190 0.712803
Si Si3 0.504267 0.659257 0.369568
Si Si4 0.200651 0.130101 0.432464
Si Si5 0.434765 0.588376 0.608910
Si Si6 0.594705 0.079842 0.265620
Si Si7 0.205630 0.441652 0.860960
Si Si8 0.221224 0.898612 0.092681
O O1 0.193867 0.473743 0.132184
O O2 0.226102 0.125079 0.059571
O O3 0.388042 0.396046 0.896262
O O4 0.179847 0.373049 0.974171
O O5 0.646788 0.402615 0.772193
O O6 0.878942 0.308498 0.649956
O O7 0.808290 0.618588 0.612639
O O8 0.757844 0.528285 0.826856
O O9 0.458079 0.572294 0.492436
O O10 0.507018 0.895135 0.347653
O O11 0.181303 0.324169 0.390090
O O12 0.268236 0.190312 0.469346
O O13 0.065835 0.070990 0.556483
O O14 0.341939 0.447633 0.723952
O O15 0.629608 0.137561 0.336495
O O16 0.596193 0.284632 0.212009
#
# Coordination Sequence:
#
# PCOD9134215 Si02
#       8
#     4   4   4   4   4   4   4   4
#     4  12  25  46  71 105 152 187 236 303 365 430
#     4  10  21  42  68  94 142 181 233 300 347 421
#     4  11  19  44  72  96 140 190 230 294 360 417
#     4  10  22  41  69 101 138 186 236 296 358 426
#     4  10  18  41  73  96 136 190 231 292 362 417
#     4  12  24  47  73 102 143 194 239 296 362 436
#     4  11  22  43  71 103 146 188 238 298 363 431
#     4  12  25  44  67 105 139 182 243 295 351 432
#
# _framework density 27.060338000000002
#
# number of rings (size 3 to 8) (size 9 to 14) (size 15 to 20)
#    0.000    1.000    8.750    0.000    3.500    0.000 
#    6.750    0.000    5.500    0.000    0.000    0.000 
#    0.000    0.000    0.000    0.000    0.000    0.000 
#
# Total GULP energy -89078.565581 kJ/mol
# GULP energy per Si atom -5567.410349 kJ/mol
# Density = 2.699875 g / cm^3
# Si number density = 27.060338 Si / 1000 Ang^3
#
#
#
# Elastic Constant Matrix: (Units=GPa)
#
#
# Indices 1 2 3 4 5 6 
#
# 1 66.7737 25.2978 55.0052 -0.0001 24.2801 0.0000
# 2 25.2978 95.6833 24.5337 -0.0004 5.6989 0.0006
# 3 55.0052 24.5337 130.8448 0.0000 28.0299 0.0001
# 4 -0.0001 -0.0004 0.0000 60.1452 0.0000 14.0106
# 5 24.2801 5.6989 28.0299 0.0000 59.0661 0.0000
# 6 0.0000 0.0006 0.0001 14.0106 0.0000 33.2481
#
#
#
# Elastic Compliance Matrix: (Units=1/GPa)
#
#
# Indices 1 2 3 4 5 6 
#
# 1 0.026126 -0.004268 -0.008872 0.000000 -0.006117 0.000000
# 2 -0.004268 0.011677 -0.000590 0.000000 0.000908 0.000000
# 3 -0.008872 -0.000590 0.011899 0.000000 -0.001943 0.000000
# 4 0.000000 0.000000 0.000000 0.018436 0.000000 -0.007769
# 5 -0.006117 0.000908 -0.001943 0.000000 0.020279 0.000000
# 6 0.000000 0.000000 0.000000 -0.007769 0.000000 0.033351
#
#
# Mechanical properties :
#
#
# Convention : Reuss Voigt Hill
#
# Bulk Modulus (GPa) = 44.96034 55.88612 50.42323
# Shear Modulus (GPa) = 31.91998 43.05621 37.48810
#
# Velocity S-wave (km/s) = 3.43824 3.99321 3.72607
# Velocity P-wave (km/s) = 5.69323 6.47752 6.09799
#
# Compressibility (1/GPa) = 0.02224183
#
# Stress axis : x y z
#
# Youngs Moduli (GPa) = 38.27623 85.64037 84.03996
#
# Poissons Ratio (x) = 0.36553 0.74561
# Poissons Ratio (y) = 0.16337 0.04955
# Poissons Ratio (z) = 0.33959 0.05049
#
# Static dielectric constant tensor:
#      x y z
#    x 2.147130 0.000000 0.018350 
#    y 0.000000 2.365960 0.000000 
#    z 0.018350 0.000000 2.247310 
# 
# From -- ./inp_files/26663.got.cif
#   From: 2010.05.17/outbox.cif.g08.bks.cpg/sg9_14_cif.got.tgz:26663.got - 2010.06.03 20:04:27.
