data_PCOD9134396
_publ_section_title
;
Structure prediction by ZEFSAII (Michael W. Deem and Ramdas Pophale) SiO2 
 PCOD9134396
Probable space group: C C
;
_chemical_formula_sum "Si O2"
_cell_formula_units_Z 28
_cell_length_a 16.942076
_cell_length_b 6.857702
_cell_length_c 16.234604
_cell_angle_alpha 90.000000
_cell_angle_beta 145.869249
_cell_angle_gamma 90.000000
_cell_volume 1058.313429
_symmetry_space_group_name_H-M "C C"
_symmetry_group_IT_number 9
_symmetry_cell_setting 'monoclinic'
loop_
_space_group_symop_operation_xyz
x,y,z
x,-y,1/2+z
1/2+x,1/2+y,z
1/2+x,1/2-y,1/2+z
loop_
_atom_site_type_symbol
_atom_site_label
_atom_site_fract_x
_atom_site_fract_y
_atom_site_fract_z
Si Si1 0.009990 0.899788 0.007190
Si Si2 0.926761 0.063650 0.783148
Si Si3 0.514692 0.146314 0.818326
Si Si4 0.294371 0.166905 0.491916
Si Si5 0.098363 0.840807 0.270255
Si Si6 0.715758 0.025339 0.800231
Si Si7 0.609438 0.036324 0.544984
O O1 0.057140 0.918361 0.143718
O O2 0.087163 0.700959 0.044079
O O3 0.022790 0.077691 0.950555
O O4 0.839921 0.893021 0.868464
O O5 0.930104 0.827331 0.783349
O O6 0.763820 0.113488 0.652743
O O7 0.985615 0.124752 0.745044
O O8 0.434918 0.138349 0.663119
O O9 0.673337 0.223538 0.941270
O O10 0.513028 0.962120 0.879066
O O11 0.295713 0.298218 0.412192
O O12 0.233575 0.958715 0.416463
O O13 0.140628 0.617641 0.298514
O O14 0.605733 0.100585 0.637088
#
# Coordination Sequence:
#
# PCOD9134396 Si02
#       7
#     4   4   4   4   4   4   4
#     4   9  19  36  64  94 133 172 226 276 343 410
#     4   9  17  35  63  94 127 174 222 276 334 408
#     4  10  19  35  62  96 123 173 228 268 333 422
#     4  11  22  37  65  95 131 173 230 276 346 410
#     4  10  22  39  66  97 133 180 225 285 348 412
#     4  10  21  39  62  97 132 175 223 288 344 412
#     4   9  18  35  64  93 123 179 226 265 344 412
#
# _framework density 26.457189
#
# number of rings (size 3 to 8) (size 9 to 14) (size 15 to 20)
#    0.000    2.286    1.429    1.714    0.000    2.286 
#    0.000    1.429    0.000   18.857    0.000    0.000 
#    0.000    0.000    0.000    0.000    0.000    0.000 
#
# Total GULP energy -78116.206198 kJ/mol
# GULP energy per Si atom -5579.729014 kJ/mol
# Density = 2.639697 g / cm^3
# Si number density = 26.457189 Si / 1000 Ang^3
#
#
#
# Elastic Constant Matrix: (Units=GPa)
#
#
# Indices 1 2 3 4 5 6 
#
# 1 126.3916 33.9224 35.7222 0.0000 -19.7512 0.0000
# 2 33.9224 43.8065 37.7064 0.0000 -4.7206 0.0000
# 3 35.7222 37.7064 165.2051 0.0000 -35.3772 0.0000
# 4 0.0000 0.0000 0.0000 37.7085 0.0000 -12.8183
# 5 -19.7512 -4.7206 -35.3772 0.0000 54.1379 0.0000
# 6 0.0000 0.0000 0.0000 -12.8183 0.0000 49.1769
#
#
#
# Elastic Compliance Matrix: (Units=1/GPa)
#
#
# Indices 1 2 3 4 5 6 
#
# 1 0.010502 -0.008003 0.000264 0.000000 0.003306 0.000000
# 2 -0.008003 0.034704 -0.007171 0.000000 -0.004580 0.000000
# 3 0.000264 -0.007171 0.008743 0.000000 0.005184 0.000000
# 4 0.000000 0.000000 0.000000 0.029097 0.000000 0.007584
# 5 0.003306 -0.004580 0.005184 0.000000 0.022666 0.000000
# 6 0.000000 0.000000 0.000000 0.007584 0.000000 0.022312
#
#
# Mechanical properties :
#
#
# Convention : Reuss Voigt Hill
#
# Bulk Modulus (GPa) = 41.44571 61.12280 51.28425
# Shear Modulus (GPa) = 30.14094 43.40815 36.77455
#
# Velocity S-wave (km/s) = 3.37892 4.05494 3.73227
# Velocity P-wave (km/s) = 5.56075 6.71387 6.16434
#
# Compressibility (1/GPa) = 0.02412795
#
# Stress axis : x y z
#
# Youngs Moduli (GPa) = 95.22012 28.81512 114.37845
#
# Poissons Ratio (x) = 0.23061 -0.03017
# Poissons Ratio (y) = 0.76206 0.82021
# Poissons Ratio (z) = -0.02511 0.20663
#
# Static dielectric constant tensor:
#      x y z
#    x 2.180020 0.000000 -0.169220 
#    y 0.000000 2.158920 0.000000 
#    z -0.169220 0.000000 2.156510 
# 
# From -- ./inp_files/31215.got.cif
#   From: 2010.05.17/outbox.cif.g08.bks.cpg/sg9_16_cif.got.tgz:31215.got - 2010.06.03 20:04:27.
