data_PCOD9134384
_publ_section_title
;
Structure prediction by ZEFSAII (Michael W. Deem and Ramdas Pophale) SiO2 
 PCOD9134384
Probable space group: C C
;
_chemical_formula_sum "Si O2"
_cell_formula_units_Z 32
_cell_length_a 7.291807
_cell_length_b 19.314291
_cell_length_c 8.307469
_cell_angle_alpha 90.000000
_cell_angle_beta 101.510640
_cell_angle_gamma 90.000000
_cell_volume 1146.460129
_symmetry_space_group_name_H-M "C C"
_symmetry_group_IT_number 9
_symmetry_cell_setting 'monoclinic'
loop_
_space_group_symop_operation_xyz
x,y,z
x,-y,1/2+z
1/2+x,1/2+y,z
1/2+x,1/2-y,1/2+z
loop_
_atom_site_type_symbol
_atom_site_label
_atom_site_fract_x
_atom_site_fract_y
_atom_site_fract_z
Si Si1 0.884240 0.018120 0.976250
Si Si2 0.402612 0.894524 0.125066
Si Si3 0.982013 0.233589 0.853036
Si Si4 0.901539 0.724882 0.846464
Si Si5 0.854175 0.104228 0.655564
Si Si6 0.442163 0.988913 0.852023
Si Si7 0.016770 0.361219 0.667397
Si Si8 0.938782 0.849819 0.674204
O O1 0.912974 0.052776 0.810075
O O2 0.653662 0.012104 0.944900
O O3 0.982075 0.072980 0.115922
O O4 0.931374 0.938261 0.017399
O O5 0.355002 0.818030 0.174907
O O6 0.628373 0.890318 0.130020
O O7 0.353026 0.941461 0.271325
O O8 0.340656 0.941116 0.964339
O O9 0.205327 0.240702 0.896285
O O10 0.923222 0.309400 0.781288
O O11 0.931894 0.179577 0.702865
O O12 0.922369 0.194206 0.004105
O O13 0.019430 0.792060 0.812338
O O14 0.993649 0.672820 0.988868
O O15 0.454828 0.938064 0.699124
O O16 0.238586 0.361843 0.721442
#
# Coordination Sequence:
#
# PCOD9134384 Si02
#       8
#     4   4   4   4   4   4   4   4
#     4   9  17  32  59  85 104 141 196 242 278 325
#     4  10  19  35  60  86 114 150 194 242 288 341
#     4  10  23  38  55  83 119 152 190 239 295 354
#     4  11  23  37  57  85 119 152 190 239 298 357
#     4   9  18  34  57  80 110 147 189 240 284 336
#     4  10  19  35  63  90 112 147 202 249 281 333
#     4  11  22  37  60  86 112 153 201 241 289 344
#     4  10  21  40  59  81 114 154 198 244 287 342
#
# _framework density 27.912002999999999
#
# number of rings (size 3 to 8) (size 9 to 14) (size 15 to 20)
#    0.000    2.000    0.000    6.000    0.000    7.000 
#    0.000    5.000    0.000    0.000    0.000    0.000 
#    0.000    0.000    0.000    0.000    0.000    0.000 
#
# Total GULP energy -89384.030784 kJ/mol
# GULP energy per Si atom -5586.501924 kJ/mol
# Density = 2.784847 g / cm^3
# Si number density = 27.912003 Si / 1000 Ang^3
#
#
#
# Elastic Constant Matrix: (Units=GPa)
#
#
# Indices 1 2 3 4 5 6 
#
# 1 93.5956 2.9686 11.8204 0.0000 -17.4130 0.0000
# 2 2.9686 171.0838 43.1592 0.0000 -6.9765 0.0000
# 3 11.8204 43.1592 88.2925 0.0000 2.9440 0.0000
# 4 0.0000 0.0000 0.0000 66.9044 0.0000 -2.2914
# 5 -17.4130 -6.9765 2.9440 0.0000 17.3336 0.0000
# 6 0.0000 0.0000 0.0000 -2.2914 0.0000 9.2940
#
#
#
# Elastic Compliance Matrix: (Units=1/GPa)
#
#
# Indices 1 2 3 4 5 6 
#
# 1 0.013754 0.001085 -0.002863 0.000000 0.014739 0.000000
# 2 0.001085 0.006941 -0.003688 0.000000 0.004510 0.000000
# 3 -0.002863 -0.003688 0.013735 0.000000 -0.006693 0.000000
# 4 0.000000 0.000000 0.000000 0.015074 0.000000 0.003716
# 5 0.014739 0.004510 -0.006693 0.000000 0.075450 0.000000
# 6 0.000000 0.000000 0.000000 0.003716 0.000000 0.108513
#
#
# Mechanical properties :
#
#
# Convention : Reuss Voigt Hill
#
# Bulk Modulus (GPa) = 42.55971 52.09645 47.32808
# Shear Modulus (GPa) = 19.82302 38.37463 29.09883
#
# Velocity S-wave (km/s) = 2.66784 3.71191 3.23231
# Velocity P-wave (km/s) = 4.97702 6.08901 5.56088
#
# Compressibility (1/GPa) = 0.02349640
#
# Stress axis : x y z
#
# Youngs Moduli (GPa) = 72.70804 144.07973 72.80476
#
# Poissons Ratio (x) = -0.15627 0.20844
# Poissons Ratio (y) = -0.07886 0.26852
# Poissons Ratio (z) = 0.20816 0.53141
#
# Static dielectric constant tensor:
#      x y z
#    x 2.167380 0.000000 0.071870 
#    y 0.000000 2.203290 0.000000 
#    z 0.071870 0.000000 2.301470 
# 
# From -- ./inp_files/5816.got.cif
#   From: 2010.05.17/outbox.cif.g08.bks.cpg/sg9_3_cif.got.tgz:5816.got - 2010.06.03 20:04:27.
