data_PCOD9134979
_publ_section_title
;
Structure prediction by ZEFSAII (Michael W. Deem and Ramdas Pophale) SiO2 
 PCOD9134979
Probable space group: C C
;
_chemical_formula_sum "Si O2"
_cell_formula_units_Z 24
_cell_length_a 24.425722
_cell_length_b 9.439545
_cell_length_c 5.171497
_cell_angle_alpha 90.000000
_cell_angle_beta 63.309673
_cell_angle_gamma 90.000000
_cell_volume 1065.328771
_symmetry_space_group_name_H-M "C C"
_symmetry_group_IT_number 9
_symmetry_cell_setting 'monoclinic'
loop_
_space_group_symop_operation_xyz
x,y,z
x,-y,1/2+z
1/2+x,1/2+y,z
1/2+x,1/2-y,1/2+z
loop_
_atom_site_type_symbol
_atom_site_label
_atom_site_fract_x
_atom_site_fract_y
_atom_site_fract_z
Si Si1 0.924020 0.593664 0.945690
Si Si2 0.250988 0.448680 0.463617
Si Si3 0.275000 0.090184 0.661663
Si Si4 0.128561 0.093346 0.991005
Si Si5 0.324605 0.697543 0.451537
Si Si6 0.069586 0.403824 0.114992
O O1 0.912566 0.470790 0.754954
O O2 0.996154 0.625152 0.774329
O O3 0.883621 0.730411 0.950707
O O4 0.218562 0.540791 0.307327
O O5 0.314760 0.532636 0.397079
O O6 0.268430 0.304347 0.283595
O O7 0.202146 0.110287 0.832435
O O8 0.308379 0.223173 0.720952
O O9 0.290128 0.972448 0.850229
O O10 0.100574 0.249978 0.048321
O O11 0.111510 0.001263 0.278639
O O12 0.083334 0.501560 0.333894
#
# Coordination Sequence:
#
# PCOD9134979 Si02
#       6
#     4   4   4   4   4   4
#     4  10  22  34  57  80 109 141 182 224 271 327
#     4   8  20  32  46  70 108 140 172 222 246 326
#     4  10  22  34  57  80 109 141 182 224 271 327
#     4  10  21  41  59  88 114 150 192 241 281 343
#     4  10  20  36  52  78 112 142 180 216 280 314
#     4  10  21  41  59  88 114 150 192 241 281 343
#
# _framework density 22.528258000000001
#
# number of rings (size 3 to 8) (size 9 to 14) (size 15 to 20)
#    1.000    1.333    0.000    2.000    4.667    0.000 
#    6.000    0.000    0.000    0.000    0.000    0.000 
#    0.000    0.000    0.000    0.000    0.000    0.000 
#
# Total GULP energy -66910.705945 kJ/mol
# GULP energy per Si atom -5575.892162 kJ/mol
# Density = 2.247698 g / cm^3
# Si number density = 22.528258 Si / 1000 Ang^3
#
#
#
# Elastic Constant Matrix: (Units=GPa)
#
#
# Indices 1 2 3 4 5 6 
#
# 1 81.6331 45.6565 30.1775 0.0000 7.1902 0.0000
# 2 45.6565 137.1578 41.4955 0.0000 6.8102 0.0000
# 3 30.1775 41.4955 137.3968 0.0000 42.0046 0.0000
# 4 0.0000 0.0000 0.0000 30.5411 0.0000 6.4249
# 5 7.1902 6.8102 42.0046 0.0000 38.8793 0.0000
# 6 0.0000 0.0000 0.0000 6.4249 0.0000 42.0512
#
#
#
# Elastic Compliance Matrix: (Units=1/GPa)
#
#
# Indices 1 2 3 4 5 6 
#
# 1 0.015555 -0.004552 -0.002099 0.000000 0.000189 0.000000
# 2 -0.004552 0.009443 -0.002395 0.000000 0.001775 0.000000
# 3 -0.002099 -0.002395 0.012267 0.000000 -0.012446 0.000000
# 4 0.000000 0.000000 0.000000 0.033830 0.000000 -0.005169
# 5 0.000189 0.001775 -0.012446 0.000000 0.038821 0.000000
# 6 0.000000 0.000000 0.000000 -0.005169 0.000000 0.024570
#
#
# Mechanical properties :
#
#
# Convention : Reuss Voigt Hill
#
# Bulk Modulus (GPa) = 52.15702 65.64963 58.90333
# Shear Modulus (GPa) = 31.45244 38.21822 34.83533
#
# Velocity S-wave (km/s) = 3.74054 4.12327 3.93656
# Velocity P-wave (km/s) = 6.46974 7.20228 6.84582
#
# Compressibility (1/GPa) = 0.01917288
#
# Stress axis : x y z
#
# Youngs Moduli (GPa) = 64.28627 105.90406 81.51688
#
# Poissons Ratio (x) = 0.48210 0.17114
# Poissons Ratio (y) = 0.29265 0.19519
# Poissons Ratio (z) = 0.13497 0.25359
#
# Static dielectric constant tensor:
#      x y z
#    x 1.849890 0.000000 0.031600 
#    y 0.000000 1.949030 0.000000 
#    z 0.031600 0.000000 2.047350 
# 
# From -- ./inp_files/3361.got.cif
#   From: 2010.05.17/outbox.cif.g08.bks.cpg/sg9_2_cif.got.tgz:3361.got - 2010.06.03 20:04:27.
