data_PCOD9134300
_publ_section_title
;
Structure prediction by ZEFSAII (Michael W. Deem and Ramdas Pophale) SiO2 
 PCOD9134300
Probable space group: C C
;
_chemical_formula_sum "Si O2"
_cell_formula_units_Z 28
_cell_length_a 13.687221
_cell_length_b 9.051154
_cell_length_c 11.585569
_cell_angle_alpha 90.000000
_cell_angle_beta 63.149858
_cell_angle_gamma 90.000000
_cell_volume 1280.543655
_symmetry_space_group_name_H-M "C C"
_symmetry_group_IT_number 9
_symmetry_cell_setting 'monoclinic'
loop_
_space_group_symop_operation_xyz
x,y,z
x,-y,1/2+z
1/2+x,1/2+y,z
1/2+x,1/2-y,1/2+z
loop_
_atom_site_type_symbol
_atom_site_label
_atom_site_fract_x
_atom_site_fract_y
_atom_site_fract_z
Si Si1 0.250000 0.172051 0.887130
Si Si2 0.121246 0.002078 0.266045
Si Si3 0.512519 0.031374 0.085716
Si Si4 0.178725 0.437865 0.808525
Si Si5 0.828703 0.442106 0.003622
Si Si6 0.980584 0.249300 0.795675
Si Si7 0.638416 0.183172 0.669097
O O1 0.170650 0.061169 0.858691
O O2 0.268644 0.316011 0.796922
O O3 0.337541 0.066376 0.899715
O O4 0.193686 0.245828 0.028029
O O5 0.008964 0.920917 0.294852
O O6 0.112360 0.177953 0.264275
O O7 0.208554 0.946118 0.122410
O O8 0.538669 0.909057 0.168916
O O9 0.487010 0.184409 0.163849
O O10 0.619657 0.024157 0.945955
O O11 0.409835 0.983752 0.063916
O O12 0.079583 0.337298 0.808927
O O13 0.209530 0.561658 0.699526
O O14 0.869885 0.294399 0.920013
#
# Coordination Sequence:
#
# PCOD9134300 Si02
#       7
#     4   4   4   4   4   4   4
#     4   9  18  33  55  87 116 148 196 239 287 352
#     4  10  20  34  58  85 114 155 199 243 291 343
#     4   9  17  33  56  79 111 153 193 238 296 351
#     4   8  16  31  54  80 110 151 193 233 288 348
#     4  10  19  33  58  84 112 152 199 247 292 347
#     4   9  18  33  54  81 111 150 195 237 289 348
#     4   9  18  33  57  86 116 155 197 241 291 349
#
# _framework density 21.865714000000001
#
# number of rings (size 3 to 8) (size 9 to 14) (size 15 to 20)
#    0.000    2.857    0.000    1.714    0.000    2.286 
#    0.000    0.000    0.000   80.571    0.000    0.000 
#    0.000    0.000    0.000    0.000    0.000    0.000 
#
# Total GULP energy -78022.885749 kJ/mol
# GULP energy per Si atom -5573.063268 kJ/mol
# Density = 2.181595 g / cm^3
# Si number density = 21.865714 Si / 1000 Ang^3
#
#
#
# Elastic Constant Matrix: (Units=GPa)
#
#
# Indices 1 2 3 4 5 6 
#
# 1 42.9787 31.3864 18.5791 0.0000 9.9323 0.0000
# 2 31.3864 121.2354 17.2353 0.0000 28.1168 0.0000
# 3 18.5791 17.2353 59.5403 0.0000 17.0247 0.0000
# 4 0.0000 0.0000 0.0000 38.0185 0.0000 10.4922
# 5 9.9323 28.1168 17.0247 0.0000 28.6686 0.0000
# 6 0.0000 0.0000 0.0000 10.4922 0.0000 26.3524
#
#
#
# Elastic Compliance Matrix: (Units=1/GPa)
#
#
# Indices 1 2 3 4 5 6 
#
# 1 0.031903 -0.007326 -0.008105 0.000000 0.000945 0.000000
# 2 -0.007326 0.012360 0.001745 0.000000 -0.010620 0.000000
# 3 -0.008105 0.001745 0.022291 0.000000 -0.012141 0.000000
# 4 0.000000 0.000000 0.000000 0.029550 0.000000 -0.011765
# 5 0.000945 -0.010620 -0.012141 0.000000 0.052179 0.000000
# 6 0.000000 0.000000 0.000000 -0.011765 0.000000 0.042632
#
#
# Mechanical properties :
#
#
# Convention : Reuss Voigt Hill
#
# Bulk Modulus (GPa) = 25.52232 39.79514 32.65873
# Shear Modulus (GPa) = 21.61263 29.04480 25.32872
#
# Velocity S-wave (km/s) = 3.14733 3.64857 3.40718
# Velocity P-wave (km/s) = 4.99052 5.99906 5.51788
#
# Compressibility (1/GPa) = 0.03918139
#
# Stress axis : x y z
#
# Youngs Moduli (GPa) = 31.34542 80.90590 44.86190
#
# Poissons Ratio (x) = 0.59274 0.36358
# Poissons Ratio (y) = 0.22965 -0.07828
# Poissons Ratio (z) = 0.25404 -0.14117
#
# Static dielectric constant tensor:
#      x y z
#    x 1.821910 0.000000 0.013130 
#    y 0.000000 1.833650 0.000000 
#    z 0.013130 0.000000 1.856550 
# 
# From -- ./inp_files/17542.got.cif
#   From: 2010.05.17/outbox.cif.g08.bks.cpg/sg9_9_cif.got.tgz:17542.got - 2010.06.03 20:04:27.
