data_PCOD9134452
_publ_section_title
;
Structure prediction by ZEFSAII (Michael W. Deem and Ramdas Pophale) SiO2 
 PCOD9134452
Probable space group: C C
;
_chemical_formula_sum "Si O2"
_cell_formula_units_Z 32
_cell_length_a 11.439432
_cell_length_b 8.221656
_cell_length_c 26.245634
_cell_angle_alpha 90.000000
_cell_angle_beta 32.636561
_cell_angle_gamma 90.000000
_cell_volume 1331.244715
_symmetry_space_group_name_H-M "C C"
_symmetry_group_IT_number 9
_symmetry_cell_setting 'monoclinic'
loop_
_space_group_symop_operation_xyz
x,y,z
x,-y,1/2+z
1/2+x,1/2+y,z
1/2+x,1/2-y,1/2+z
loop_
_atom_site_type_symbol
_atom_site_label
_atom_site_fract_x
_atom_site_fract_y
_atom_site_fract_z
Si Si1 0.604090 0.822582 0.761680
Si Si2 0.709115 0.897298 0.824440
Si Si3 0.011007 0.752274 0.050538
Si Si4 0.279200 0.928599 0.752250
Si Si5 0.652784 0.763118 0.385597
Si Si6 0.059062 0.898378 0.134468
Si Si7 0.517454 0.151782 0.742598
Si Si8 0.350408 0.076667 0.623617
O O1 0.574904 0.793384 0.832629
O O2 0.412779 0.738752 0.799559
O O3 0.828463 0.761594 0.652961
O O4 0.554375 0.013581 0.771005
O O5 0.829747 0.783501 0.820657
O O6 0.597328 0.054598 0.888966
O O7 0.897802 0.964570 0.716400
O O8 0.109038 0.877530 0.056080
O O9 0.750507 0.772842 0.147683
O O10 0.042756 0.557388 0.050268
O O11 0.067577 0.786825 0.971583
O O12 0.107804 0.864847 0.856821
O O13 0.423235 0.768786 0.689856
O O14 0.433544 0.058206 0.723247
O O15 0.212243 0.000204 0.722529
O O16 0.257731 0.910222 0.100607
#
# Coordination Sequence:
#
# PCOD9134452 Si02
#       8
#     4   4   4   4   4   4   4   4
#     4  11  21  38  65  88 121 162 214 252 298 382
#     4  11  20  37  66  86 115 169 214 249 304 379
#     4  11  23  36  62  93 129 162 200 268 330 362
#     4   9  20  36  62  88 119 164 213 250 303 372
#     4  10  23  42  54  92 134 160 199 270 328 363
#     4  10  19  36  61  87 120 161 207 256 303 369
#     4  11  19  35  65  91 112 160 217 251 295 382
#     4  11  19  38  65  89 118 168 214 252 301 379
#
# _framework density 24.037654
#
# number of rings (size 3 to 8) (size 9 to 14) (size 15 to 20)
#    0.000    1.500    7.500    0.000    0.000    1.000 
#    0.000    5.000    0.000    0.000    0.000    0.000 
#    0.000    0.000    0.000    0.000    0.000    0.000 
#
# Total GULP energy -89089.257956 kJ/mol
# GULP energy per Si atom -5568.078622 kJ/mol
# Density = 2.398294 g / cm^3
# Si number density = 24.037654 Si / 1000 Ang^3
#
#
#
# Elastic Constant Matrix: (Units=GPa)
#
#
# Indices 1 2 3 4 5 6 
#
# 1 100.6167 36.4115 26.9659 0.0000 31.9140 0.0001
# 2 36.4115 73.3462 1.0296 0.0001 6.8447 0.0001
# 3 26.9659 1.0296 48.1817 -0.0001 32.5421 0.0000
# 4 0.0000 0.0001 -0.0001 18.3128 0.0000 11.2927
# 5 31.9140 6.8447 32.5421 0.0000 36.3169 0.0000
# 6 0.0001 0.0001 0.0000 11.2927 0.0000 55.8406
#
#
#
# Elastic Compliance Matrix: (Units=1/GPa)
#
#
# Indices 1 2 3 4 5 6 
#
# 1 0.016741 -0.007095 -0.000468 0.000000 -0.012954 0.000000
# 2 -0.007095 0.017154 0.003994 0.000000 -0.000577 0.000000
# 3 -0.000468 0.003994 0.053602 0.000000 -0.048372 0.000000
# 4 0.000000 0.000000 0.000000 0.062387 0.000000 -0.012617
# 5 -0.012954 -0.000577 -0.048372 0.000000 0.082372 0.000000
# 6 0.000000 0.000000 0.000000 -0.012617 0.000000 0.020460
#
#
# Mechanical properties :
#
#
# Convention : Reuss Voigt Hill
#
# Bulk Modulus (GPa) = 12.44434 38.99542 25.71988
# Shear Modulus (GPa) = 17.44352 32.60992 25.02672
#
# Velocity S-wave (km/s) = 2.69676 3.68723 3.23018
# Velocity P-wave (km/s) = 3.85810 5.86390 4.96338
#
# Compressibility (1/GPa) = 0.08035783
#
# Stress axis : x y z
#
# Youngs Moduli (GPa) = 59.73451 58.29532 18.65606
#
# Poissons Ratio (x) = 0.41362 0.00874
# Poissons Ratio (y) = 0.42383 -0.07451
# Poissons Ratio (z) = 0.02797 -0.23284
#
# Static dielectric constant tensor:
#      x y z
#    x 1.994630 0.000000 0.012580 
#    y 0.000000 2.071710 0.000000 
#    z 0.012580 0.000000 2.011670 
# 
# From -- ./inp_files/29832.got.cif
#   From: 2010.05.17/outbox.cif.g08.bks.cpg/sg9_15_cif.got.tgz:29832.got - 2010.06.03 20:04:27.
