data_PCOD9134388
_publ_section_title
;
Structure prediction by ZEFSAII (Michael W. Deem and Ramdas Pophale) SiO2 
 PCOD9134388
Probable space group: C C
;
_chemical_formula_sum "Si O2"
_cell_formula_units_Z 32
_cell_length_a 14.979351
_cell_length_b 10.461138
_cell_length_c 14.117639
_cell_angle_alpha 90.000000
_cell_angle_beta 143.242802
_cell_angle_gamma 90.000000
_cell_volume 1323.865655
_symmetry_space_group_name_H-M "C C"
_symmetry_group_IT_number 9
_symmetry_cell_setting 'monoclinic'
loop_
_space_group_symop_operation_xyz
x,y,z
x,-y,1/2+z
1/2+x,1/2+y,z
1/2+x,1/2-y,1/2+z
loop_
_atom_site_type_symbol
_atom_site_label
_atom_site_fract_x
_atom_site_fract_y
_atom_site_fract_z
Si Si1 0.956760 0.099523 0.071780
Si Si2 0.201832 0.462068 0.745860
Si Si3 0.778856 0.386246 0.040859
Si Si4 0.557531 0.933130 0.805072
Si Si5 0.839126 0.253844 0.714084
Si Si6 0.913756 0.376787 0.975063
Si Si7 0.293044 0.592811 0.117321
Si Si8 0.575858 0.580641 0.981289
O O1 0.983611 0.250047 0.082729
O O2 0.930622 0.066503 0.159280
O O3 0.059319 0.038768 0.076708
O O4 0.797057 0.070711 0.882685
O O5 0.154126 0.382675 0.797969
O O6 0.283323 0.399921 0.724596
O O7 0.042772 0.518962 0.578285
O O8 0.771701 0.404377 0.921156
O O9 0.757676 0.239621 0.053644
O O10 0.667068 0.474711 0.003803
O O11 0.946274 0.444169 0.197934
O O12 0.439779 0.821596 0.722525
O O13 0.671545 0.987580 0.980109
O O14 0.667328 0.285200 0.548690
O O15 0.864463 0.336622 0.830081
O O16 0.914659 0.118109 0.799909
#
# Coordination Sequence:
#
# PCOD9134388 Si02
#       8
#     4   4   4   4   4   4   4   4
#     4   9  21  34  57  91 114 148 203 250 270 352
#     4  10  19  35  61  87 115 156 199 236 298 353
#     4   9  20  38  55  88 117 153 192 249 284 352
#     4   9  19  36  59  86 118 150 201 238 294 362
#     4  10  20  37  62  86 116 156 192 249 295 349
#     4   9  18  33  60  83 111 153 196 236 291 339
#     4  10  19  37  62  85 117 160 193 237 300 350
#     4  10  22  38  60  86 122 150 200 247 294 345
#
# _framework density 24.171637
#
# number of rings (size 3 to 8) (size 9 to 14) (size 15 to 20)
#    0.000    2.500    1.250    0.000    7.000    1.000 
#    4.500    2.500   19.250    0.000    0.000    0.000 
#    0.000    0.000    0.000    0.000    0.000    0.000 
#
# Total GULP energy -89111.966238 kJ/mol
# GULP energy per Si atom -5569.497890 kJ/mol
# Density = 2.411662 g / cm^3
# Si number density = 24.171637 Si / 1000 Ang^3
#
#
#
# Elastic Constant Matrix: (Units=GPa)
#
#
# Indices 1 2 3 4 5 6 
#
# 1 218.9017 40.2902 21.8591 0.0000 -11.3105 0.0000
# 2 40.2902 41.4339 -7.1962 0.0000 0.9603 0.0000
# 3 21.8591 -7.1962 67.8426 0.0000 -1.9278 0.0000
# 4 0.0000 0.0000 0.0000 19.5699 0.0000 2.6042
# 5 -11.3105 0.9603 -1.9278 0.0000 33.7726 0.0000
# 6 0.0000 0.0000 0.0000 2.6042 0.0000 42.8218
#
#
#
# Elastic Compliance Matrix: (Units=1/GPa)
#
#
# Indices 1 2 3 4 5 6 
#
# 1 0.006123 -0.006454 -0.002598 0.000000 0.002086 0.000000
# 2 -0.006454 0.031400 0.005332 0.000000 -0.002750 0.000000
# 3 -0.002598 0.005332 0.016140 0.000000 -0.000100 0.000000
# 4 0.000000 0.000000 0.000000 0.051516 0.000000 -0.003133
# 5 0.002086 -0.002750 -0.000100 0.000000 0.030381 0.000000
# 6 0.000000 0.000000 0.000000 -0.003133 0.000000 0.023543
#
#
# Mechanical properties :
#
#
# Convention : Reuss Voigt Hill
#
# Bulk Modulus (GPa) = 21.63409 48.67605 35.15507
# Shear Modulus (GPa) = 27.47983 37.44788 32.46385
#
# Velocity S-wave (km/s) = 3.37540 3.94032 3.66875
# Velocity P-wave (km/s) = 4.91535 6.39397 5.70279
#
# Compressibility (1/GPa) = 0.04622334
#
# Stress axis : x y z
#
# Youngs Moduli (GPa) = 163.30810 31.84664 61.95825
#
# Poissons Ratio (x) = 0.20554 0.16099
# Poissons Ratio (y) = 1.05399 -0.33036
# Poissons Ratio (z) = 0.42432 -0.16981
#
# Static dielectric constant tensor:
#      x y z
#    x 2.013520 0.000000 -0.012870 
#    y 0.000000 1.977110 0.000000 
#    z -0.012870 0.000000 2.032900 
# 
# From -- ./inp_files/25916.got.cif
#   From: 2010.05.17/outbox.cif.g08.bks.cpg/sg9_13_cif.got.tgz:25916.got - 2010.06.03 20:04:27.
