data_PCOD9134777
_publ_section_title
;
Structure prediction by ZEFSAII (Michael W. Deem and Ramdas Pophale) SiO2 
 PCOD9134777
Probable space group: C C
;
_chemical_formula_sum "Si O2"
_cell_formula_units_Z 32
_cell_length_a 11.621523
_cell_length_b 8.748578
_cell_length_c 15.445217
_cell_angle_alpha 90.000000
_cell_angle_beta 65.358874
_cell_angle_gamma 90.000000
_cell_volume 1427.342992
_symmetry_space_group_name_H-M "C C"
_symmetry_group_IT_number 9
_symmetry_cell_setting 'monoclinic'
loop_
_space_group_symop_operation_xyz
x,y,z
x,-y,1/2+z
1/2+x,1/2+y,z
1/2+x,1/2-y,1/2+z
loop_
_atom_site_type_symbol
_atom_site_label
_atom_site_fract_x
_atom_site_fract_y
_atom_site_fract_z
Si Si1 0.975690 0.536775 0.917590
Si Si2 0.980038 0.027628 0.167960
Si Si3 0.531337 0.729960 0.994568
Si Si4 0.268919 0.350220 0.543890
Si Si5 0.243548 0.021741 0.866791
Si Si6 0.688910 0.377918 0.207941
Si Si7 0.557523 0.283226 0.998849
Si Si8 0.695707 0.959303 0.740177
O O1 0.861013 0.490800 0.891677
O O2 0.095256 0.565551 0.816879
O O3 0.015012 0.402501 0.970471
O O4 0.953386 0.687578 0.980752
O O5 0.008269 0.178045 0.101277
O O6 0.833687 0.035153 0.240623
O O7 0.078927 0.991002 0.212253
O O8 0.002445 0.886525 0.093599
O O9 0.417547 0.638877 0.978865
O O10 0.668912 0.668826 0.926553
O O11 0.260534 0.188088 0.601165
O O12 0.164041 0.331305 0.504590
O O13 0.226255 0.475096 0.628364
O O14 0.272585 0.049053 0.757063
O O15 0.139408 0.890812 0.911087
O O16 0.639124 0.214319 0.260469
#
# Coordination Sequence:
#
# PCOD9134777 Si02
#       8
#     4   4   4   4   4   4   4   4
#     4  12  24  41  61  99 127 164 213 257 321 377
#     4   9  20  40  71  88 120 174 212 254 325 369
#     4  10  19  41  66  86 126 166 204 262 313 367
#     4   8  17  41  63  86 119 171 198 254 318 363
#     4  11  23  41  62  92 128 167 203 264 313 373
#     4   9  19  39  64  92 122 164 212 253 312 380
#     4  10  22  42  64  93 126 161 217 257 312 384
#     4   9  20  39  63  90 126 167 203 259 324 369
#
# _framework density 22.419279
#
# number of rings (size 3 to 8) (size 9 to 14) (size 15 to 20)
#    0.750    1.500    2.500    0.000    0.000    3.000 
#    9.000    0.000    0.000    0.000    0.000    0.000 
#    0.000    0.000    0.000    0.000    0.000    0.000 
#
# Total GULP energy -89158.879298 kJ/mol
# GULP energy per Si atom -5572.429956 kJ/mol
# Density = 2.236825 g / cm^3
# Si number density = 22.419279 Si / 1000 Ang^3
#
#
#
# Elastic Constant Matrix: (Units=GPa)
#
#
# Indices 1 2 3 4 5 6 
#
# 1 87.4114 38.5061 19.0867 0.0000 5.7343 0.0000
# 2 38.5061 59.2457 15.2188 0.0000 15.5746 0.0000
# 3 19.0867 15.2188 42.3815 0.0000 -5.0913 0.0000
# 4 0.0000 0.0000 0.0000 14.7693 0.0000 7.1740
# 5 5.7343 15.5746 -5.0913 0.0000 33.0843 0.0000
# 6 0.0000 0.0000 0.0000 7.1740 0.0000 31.8074
#
#
#
# Elastic Compliance Matrix: (Units=1/GPa)
#
#
# Indices 1 2 3 4 5 6 
#
# 1 0.016666 -0.010253 -0.003658 0.000000 0.001375 0.000000
# 2 -0.010253 0.028803 -0.007275 0.000000 -0.012902 0.000000
# 3 -0.003658 -0.007275 0.028877 0.000000 0.008503 0.000000
# 4 0.000000 0.000000 0.000000 0.076039 0.000000 -0.017150
# 5 0.001375 -0.012902 0.008503 0.000000 0.037369 0.000000
# 6 0.000000 0.000000 0.000000 -0.017150 0.000000 0.035307
#
#
# Mechanical properties :
#
#
# Convention : Reuss Voigt Hill
#
# Bulk Modulus (GPa) = 31.27765 37.18462 34.23114
# Shear Modulus (GPa) = 18.10991 23.68066 20.89529
#
# Velocity S-wave (km/s) = 2.84524 3.25355 3.05622
# Velocity P-wave (km/s) = 4.97748 5.54401 5.26837
#
# Compressibility (1/GPa) = 0.03197171
#
# Stress axis : x y z
#
# Youngs Moduli (GPa) = 60.00411 34.71806 34.63012
#
# Poissons Ratio (x) = 0.35598 0.12669
# Poissons Ratio (y) = 0.61525 0.25194
# Poissons Ratio (z) = 0.21951 0.25258
#
# Static dielectric constant tensor:
#      x y z
#    x 1.818950 0.000000 -0.008370 
#    y 0.000000 1.888200 0.000000 
#    z -0.008370 0.000000 1.898070 
# 
# From -- ./inp_files/29794.got.cif
#   From: 2010.05.17/outbox.cif.g08.bks.cpg/sg9_15_cif.got.tgz:29794.got - 2010.06.03 20:04:27.
