data_PCOD9134868
_publ_section_title
;
Structure prediction by ZEFSAII (Michael W. Deem and Ramdas Pophale) SiO2 
 PCOD9134868
Probable space group: C C
;
_chemical_formula_sum "Si O2"
_cell_formula_units_Z 32
_cell_length_a 11.308960
_cell_length_b 23.542855
_cell_length_c 5.426622
_cell_angle_alpha 90.000000
_cell_angle_beta 108.808384
_cell_angle_gamma 90.000000
_cell_volume 1367.662148
_symmetry_space_group_name_H-M "C C"
_symmetry_group_IT_number 9
_symmetry_cell_setting 'monoclinic'
loop_
_space_group_symop_operation_xyz
x,y,z
x,-y,1/2+z
1/2+x,1/2+y,z
1/2+x,1/2-y,1/2+z
loop_
_atom_site_type_symbol
_atom_site_label
_atom_site_fract_x
_atom_site_fract_y
_atom_site_fract_z
Si Si1 0.104230 0.974358 0.761530
Si Si2 0.114950 0.467544 0.408235
Si Si3 0.389014 0.269454 0.262219
Si Si4 0.535137 0.733699 0.376825
Si Si5 0.841358 0.547887 0.900409
Si Si6 0.424763 0.857873 0.822278
Si Si7 0.154796 0.341743 0.292831
Si Si8 0.703623 0.631214 0.516371
O O1 0.111081 0.906432 0.784987
O O2 0.049224 0.997920 0.471872
O O3 0.252780 0.992706 0.879953
O O4 0.152031 0.501560 0.186469
O O5 0.167942 0.403544 0.422251
O O6 0.961804 0.465995 0.311744
O O7 0.481756 0.271886 0.562667
O O8 0.367228 0.202111 0.195474
O O9 0.273861 0.307309 0.274474
O O10 0.444176 0.286802 0.034067
O O11 0.579374 0.798983 0.423498
O O12 0.654228 0.693901 0.497743
O O13 0.724960 0.591846 0.765452
O O14 0.908175 0.586951 0.148453
O O15 0.343229 0.867508 0.010469
O O16 0.566321 0.850939 0.997166
#
# Coordination Sequence:
#
# PCOD9134868 Si02
#       8
#     4   4   4   4   4   4   4   4
#     4  10  20  33  56  91 136 166 197 258 331 400
#     4  12  25  40  63  98 136 177 219 277 340 397
#     4  11  27  46  69  97 135 180 232 270 328 398
#     4  11  27  46  70 100 132 181 222 281 331 401
#     4  11  22  36  63 101 145 165 214 271 350 405
#     4  11  22  41  66 101 134 174 214 276 342 401
#     4  11  25  47  69 100 137 179 226 279 340 405
#     4  11  22  39  64  96 139 168 214 266 338 399
#
# _framework density 23.397593000000001
#
# number of rings (size 3 to 8) (size 9 to 14) (size 15 to 20)
#    0.000    1.000    3.750    3.000    3.500    5.000 
#    0.000    0.000    0.000    9.000    0.000    0.000 
#    0.000    0.000    0.000    0.000    0.000    0.000 
#
# Total GULP energy -89266.271700 kJ/mol
# GULP energy per Si atom -5579.141981 kJ/mol
# Density = 2.334434 g / cm^3
# Si number density = 23.397593 Si / 1000 Ang^3
#
#
#
# Elastic Constant Matrix: (Units=GPa)
#
#
# Indices 1 2 3 4 5 6 
#
# 1 43.1993 26.4110 25.5842 0.0000 -13.3253 0.0000
# 2 26.4110 156.9561 31.0986 0.0000 -0.7186 0.0000
# 3 25.5842 31.0986 82.0402 0.0000 -25.9358 0.0000
# 4 0.0000 0.0000 0.0000 27.1304 0.0000 7.7661
# 5 -13.3253 -0.7186 -25.9358 0.0000 23.6200 0.0000
# 6 0.0000 0.0000 0.0000 7.7661 0.0000 -0.9361
#
#
#
# Elastic Compliance Matrix: (Units=1/GPa)
#
#
# Indices 1 2 3 4 5 6 
#
# 1 0.032642 -0.004626 -0.004057 0.000000 0.013819 0.000000
# 2 -0.004626 0.007809 -0.003473 0.000000 -0.006186 0.000000
# 3 -0.004057 -0.003473 0.021465 0.000000 0.021175 0.000000
# 4 0.000000 0.000000 0.000000 0.010922 0.000000 0.090610
# 5 0.013819 -0.006186 0.021175 0.000000 0.073196 0.000000
# 6 0.000000 0.000000 0.000000 0.090610 0.000000 -0.316544
#
#
# Mechanical properties :
#
#
# Convention : Reuss Voigt Hill
#
# Bulk Modulus (GPa) = 26.59264 49.82035 38.20650
# Shear Modulus (GPa) = -37.40781 23.23631 -7.08575
#
# Velocity S-wave (km/s) = -4.00282 3.15478 -1.74212
# Velocity P-wave (km/s) = 3.15804 5.88297 3.50971
#
# Compressibility (1/GPa) = 0.03760438
#
# Stress axis : x y z
#
# Youngs Moduli (GPa) = 30.63536 128.05039 46.58691
#
# Poissons Ratio (x) = 0.59230 0.18902
# Poissons Ratio (y) = 0.14170 0.16181
# Poissons Ratio (z) = 0.12430 0.44477
#
# Static dielectric constant tensor:
#      x y z
#    x 1.929930 0.000000 -0.113980 
#    y 0.000000 1.983680 0.000000 
#    z -0.113980 0.000000 2.115520 
# 
# From -- ./inp_files/2093.got.cif
#   From: 2010.05.17/outbox.cif.g08.bks.cpg/sg9_2_cif.got.tgz:2093.got - 2010.06.03 20:04:27.
