data_PCOD9134684
_publ_section_title
;
Structure prediction by ZEFSAII (Michael W. Deem and Ramdas Pophale) SiO2 
 PCOD9134684
Probable space group: C C
;
_chemical_formula_sum "Si O2"
_cell_formula_units_Z 32
_cell_length_a 11.548489
_cell_length_b 8.642804
_cell_length_c 21.277733
_cell_angle_alpha 90.000000
_cell_angle_beta 36.185279
_cell_angle_gamma 90.000000
_cell_volume 1253.863598
_symmetry_space_group_name_H-M "C C"
_symmetry_group_IT_number 9
_symmetry_cell_setting 'monoclinic'
loop_
_space_group_symop_operation_xyz
x,y,z
x,-y,1/2+z
1/2+x,1/2+y,z
1/2+x,1/2-y,1/2+z
loop_
_atom_site_type_symbol
_atom_site_label
_atom_site_fract_x
_atom_site_fract_y
_atom_site_fract_z
Si Si1 0.462080 0.472865 0.328690
Si Si2 0.499542 0.643059 0.675214
Si Si3 0.903239 0.289438 0.311625
Si Si4 0.595714 0.757369 0.847139
Si Si5 0.428352 0.039859 0.136553
Si Si6 0.413235 0.965883 0.497654
Si Si7 0.721694 0.834214 0.079547
Si Si8 0.720468 0.979070 0.698080
O O1 0.424191 0.390537 0.278660
O O2 0.362617 0.640352 0.371014
O O3 0.417938 0.353007 0.404122
O O4 0.693759 0.510010 0.240567
O O5 0.716404 0.570862 0.580680
O O6 0.373905 0.555204 0.677753
O O7 0.477336 0.819216 0.662226
O O8 0.727325 0.325911 0.341927
O O9 0.082991 0.233201 0.187792
O O10 0.005117 0.439109 0.296291
O O11 0.693255 0.807762 0.737171
O O12 0.555037 0.922179 0.897168
O O13 0.474343 0.063512 0.042944
O O14 0.564771 0.901620 0.100656
O O15 0.375584 0.792246 0.488797
O O16 0.789130 0.972433 0.097518
#
# Coordination Sequence:
#
# PCOD9134684 Si02
#       8
#     4   4   4   4   4   4   4   4
#     4  11  20  36  61  95 112 157 206 248 294 357
#     4  11  19  39  65  89 116 161 210 244 290 367
#     4  10  20  38  64  87 114 159 206 250 289 350
#     4  12  24  38  61  92 129 156 195 258 313 349
#     4  11  20  39  66  85 117 155 209 250 287 359
#     4  11  25  40  57  93 130 158 194 252 315 358
#     4  10  19  41  66  85 115 163 203 252 284 363
#     4  10  19  39  66  90 113 163 211 246 290 363
#
# _framework density 25.521117
#
# number of rings (size 3 to 8) (size 9 to 14) (size 15 to 20)
#    0.750    0.500    7.500    0.750    0.000    2.000 
#    0.000    0.000    0.000    0.000    0.000    0.000 
#    0.000    0.000    0.000    0.000    0.000    0.000 
#
# Total GULP energy -89339.861508 kJ/mol
# GULP energy per Si atom -5583.741344 kJ/mol
# Density = 2.546303 g / cm^3
# Si number density = 25.521117 Si / 1000 Ang^3
#
#
#
# Elastic Constant Matrix: (Units=GPa)
#
#
# Indices 1 2 3 4 5 6 
#
# 1 189.0508 66.8617 14.4774 0.0000 5.6445 0.0000
# 2 66.8617 100.6366 1.0710 0.0000 10.7324 0.0000
# 3 14.4774 1.0710 42.0438 -0.0001 11.1995 0.0000
# 4 0.0000 0.0000 -0.0001 29.4873 0.0000 -0.1251
# 5 5.6445 10.7324 11.1995 0.0000 25.3153 0.0000
# 6 0.0000 0.0000 0.0000 -0.1251 0.0000 67.8404
#
#
#
# Elastic Compliance Matrix: (Units=1/GPa)
#
#
# Indices 1 2 3 4 5 6 
#
# 1 0.007200 -0.004939 -0.002815 0.000000 0.001734 0.000000
# 2 -0.004939 0.013834 0.002967 0.000000 -0.006076 0.000000
# 3 -0.002815 0.002967 0.028166 0.000000 -0.013091 0.000000
# 4 0.000000 0.000000 0.000000 0.033913 0.000000 0.000063
# 5 0.001734 -0.006076 -0.013091 0.000000 0.047483 0.000000
# 6 0.000000 0.000000 0.000000 0.000063 0.000000 0.014741
#
#
# Mechanical properties :
#
#
# Convention : Reuss Voigt Hill
#
# Bulk Modulus (GPa) = 25.23612 55.17238 40.20425
# Shear Modulus (GPa) = 29.74081 41.15000 35.44541
#
# Velocity S-wave (km/s) = 3.41741 4.01981 3.73079
# Velocity P-wave (km/s) = 5.04791 6.57347 5.86054
#
# Compressibility (1/GPa) = 0.03962574
#
# Stress axis : x y z
#
# Youngs Moduli (GPa) = 138.88831 72.28409 35.50427
#
# Poissons Ratio (x) = 0.35698 0.09996
# Poissons Ratio (y) = 0.68591 -0.10533
# Poissons Ratio (z) = 0.39101 -0.21445
#
# Static dielectric constant tensor:
#      x y z
#    x 1.974780 0.000000 0.024050 
#    y 0.000000 2.043350 0.000000 
#    z 0.024050 0.000000 2.148500 
# 
# From -- ./inp_files/29819.got.cif
#   From: 2010.05.17/outbox.cif.g08.bks.cpg/sg9_15_cif.got.tgz:29819.got - 2010.06.03 20:04:27.
