data_PCOD9134065
_publ_section_title
;
Structure prediction by ZEFSAII (Michael W. Deem and Ramdas Pophale) SiO2 
 PCOD9134065
Probable space group: C C
;
_chemical_formula_sum "Si O2"
_cell_formula_units_Z 28
_cell_length_a 9.767659
_cell_length_b 16.659801
_cell_length_c 7.283297
_cell_angle_alpha 90.000000
_cell_angle_beta 101.021367
_cell_angle_gamma 90.000000
_cell_volume 1163.331218
_symmetry_space_group_name_H-M "C C"
_symmetry_group_IT_number 9
_symmetry_cell_setting 'monoclinic'
loop_
_space_group_symop_operation_xyz
x,y,z
x,-y,1/2+z
1/2+x,1/2+y,z
1/2+x,1/2-y,1/2+z
loop_
_atom_site_type_symbol
_atom_site_label
_atom_site_fract_x
_atom_site_fract_y
_atom_site_fract_z
Si Si1 0.070280 0.390764 0.365080
Si Si2 0.717046 0.834580 0.079914
Si Si3 0.482582 0.056380 0.466099
Si Si4 0.376185 0.756143 0.338458
Si Si5 0.017535 0.815849 0.547414
Si Si6 0.621745 0.621733 0.733462
Si Si7 0.165370 0.938836 0.836400
O O1 0.209792 0.380469 0.276396
O O2 0.047895 0.467100 0.487285
O O3 0.964392 0.414610 0.171113
O O4 0.014430 0.306955 0.427765
O O5 0.605590 0.885882 0.929246
O O6 0.638120 0.751342 0.102222
O O7 0.840590 0.812480 0.975429
O O8 0.331757 0.068368 0.339684
O O9 0.393787 0.719558 0.139284
O O10 0.252271 0.820278 0.305169
O O11 0.003554 0.834852 0.328937
O O12 0.073587 0.894448 0.662458
O O13 0.622927 0.602517 0.517718
O O14 0.639487 0.533503 0.825672
#
# Coordination Sequence:
#
# PCOD9134065 Si02
#       7
#     4   4   4   4   4   4   4
#     4   9  18  32  61  84 107 146 193 237 288 332
#     4   8  20  36  57  82 125 152 185 246 300 338
#     4  10  18  35  59  90 110 143 203 241 282 343
#     4  10  18  40  56  82 127 156 182 251 295 342
#     4  10  22  36  58  85 128 152 191 246 296 349
#     4  11  21  36  62  89 116 151 202 246 290 345
#     4  12  19  35  63  92 111 152 202 249 289 341
#
# _framework density 24.068811
#
# number of rings (size 3 to 8) (size 9 to 14) (size 15 to 20)
#    0.857    1.143    4.286    0.000    0.000    0.000 
#    0.000   15.714    0.000    0.000    0.000    0.000 
#    0.000    0.000    0.000    0.000    0.000    0.000 
#
# Total GULP energy -78012.674754 kJ/mol
# GULP energy per Si atom -5572.333911 kJ/mol
# Density = 2.401403 g / cm^3
# Si number density = 24.068811 Si / 1000 Ang^3
#
#
#
# Elastic Constant Matrix: (Units=GPa)
#
#
# Indices 1 2 3 4 5 6 
#
# 1 56.7878 31.4666 19.9249 0.0000 -38.2561 0.0000
# 2 31.4666 100.4140 38.2772 0.0000 -25.6760 0.0000
# 3 19.9249 38.2772 93.1713 0.0000 -23.5857 0.0000
# 4 0.0000 0.0000 0.0000 41.0299 0.0000 -28.7381
# 5 -38.2561 -25.6760 -23.5857 0.0000 37.3304 0.0000
# 6 0.0000 0.0000 0.0000 -28.7381 0.0000 -6.2624
#
#
#
# Elastic Compliance Matrix: (Units=1/GPa)
#
#
# Indices 1 2 3 4 5 6 
#
# 1 0.059433 -0.004931 0.004613 0.000000 0.060430 0.000000
# 2 -0.004931 0.013474 -0.004064 0.000000 0.001647 0.000000
# 3 0.004613 -0.004064 0.014172 0.000000 0.010886 0.000000
# 4 0.000000 0.000000 0.000000 0.005783 0.000000 -0.026540
# 5 0.060430 0.001647 0.010886 0.000000 0.096727 0.000000
# 6 0.000000 0.000000 0.000000 -0.026540 0.000000 -0.037892
#
#
# Mechanical properties :
#
#
# Convention : Reuss Voigt Hill
#
# Bulk Modulus (GPa) = 12.76890 47.74558 30.25724
# Shear Modulus (GPa) = 26.80012 25.13321 25.96666
#
# Velocity S-wave (km/s) = 3.34050 3.23495 3.28815
# Velocity P-wave (km/s) = 4.49392 5.81665 5.19753
#
# Compressibility (1/GPa) = 0.07831528
#
# Stress axis : x y z
#
# Youngs Moduli (GPa) = 16.82574 74.21544 70.56251
#
# Poissons Ratio (x) = 0.36595 -0.32553
# Poissons Ratio (y) = 0.08297 0.28678
# Poissons Ratio (z) = -0.07762 0.30163
#
# Static dielectric constant tensor:
#      x y z
#    x 2.001310 0.000000 -0.008780 
#    y 0.000000 1.899720 0.000000 
#    z -0.008780 0.000000 1.975180 
# 
# From -- ./inp_files/7749.got.cif
#   From: 2010.05.17/outbox.cif.g08.bks.cpg/sg9_4_cif.got.tgz:7749.got - 2010.06.03 20:04:27.
