data_PCOD9134780
_publ_section_title
;
Structure prediction by ZEFSAII (Michael W. Deem and Ramdas Pophale) SiO2 
 PCOD9134780
Probable space group: C C
;
_chemical_formula_sum "Si O2"
_cell_formula_units_Z 28
_cell_length_a 9.648480
_cell_length_b 16.402217
_cell_length_c 15.436174
_cell_angle_alpha 90.000000
_cell_angle_beta 31.398314
_cell_angle_gamma 90.000000
_cell_volume 1272.699679
_symmetry_space_group_name_H-M "C C"
_symmetry_group_IT_number 9
_symmetry_cell_setting 'monoclinic'
loop_
_space_group_symop_operation_xyz
x,y,z
x,-y,1/2+z
1/2+x,1/2+y,z
1/2+x,1/2-y,1/2+z
loop_
_atom_site_type_symbol
_atom_site_label
_atom_site_fract_x
_atom_site_fract_y
_atom_site_fract_z
Si Si1 0.442070 0.613520 0.126830
Si Si2 0.822175 0.083477 0.503697
Si Si3 0.370135 0.859860 0.932272
Si Si4 0.395644 0.859824 0.520804
Si Si5 0.784609 0.499119 0.340663
Si Si6 0.594370 0.040460 0.444086
Si Si7 0.843310 0.209192 0.652885
O O1 0.302258 0.538354 0.252717
O O2 0.176832 0.665499 0.248516
O O3 0.653234 0.645969 0.082361
O O4 0.614812 0.580683 0.956051
O O5 0.585064 0.024153 0.662126
O O6 0.814376 0.158153 0.577298
O O7 0.742581 0.083302 0.445220
O O8 0.109177 0.042810 0.362069
O O9 0.298726 0.938908 0.912924
O O10 0.377467 0.894080 0.026020
O O11 0.141531 0.798259 0.030570
O O12 0.474544 0.950291 0.510619
O O13 0.643467 0.824071 0.332501
O O14 0.309701 0.802804 0.645784
#
# Coordination Sequence:
#
# PCOD9134780 Si02
#       7
#     4   4   4   4   4   4   4
#     4  10  19  41  67  92 124 182 218 273 322 395
#     4  11  23  36  66 101 131 165 229 281 328 395
#     4   9  20  40  67  89 129 176 217 269 327 402
#     4  12  25  43  70  99 137 181 218 281 336 403
#     4  11  18  36  61  97 126 169 222 276 321 382
#     4  10  23  39  73  97 126 170 232 281 322 392
#     4  11  26  45  64  97 141 181 216 269 356 397
#
# _framework density 22.000475999999999
#
# number of rings (size 3 to 8) (size 9 to 14) (size 15 to 20)
#    0.857    0.571    4.286    1.714    4.000    1.143 
#    0.000    4.286    0.000    0.000    0.000    0.000 
#    0.000    0.000    0.000    0.000    0.000    0.000 
#
# Total GULP energy -78001.473049 kJ/mol
# GULP energy per Si atom -5571.533789 kJ/mol
# Density = 2.195040 g / cm^3
# Si number density = 22.000476 Si / 1000 Ang^3
#
#
#
# Elastic Constant Matrix: (Units=GPa)
#
#
# Indices 1 2 3 4 5 6 
#
# 1 157.1020 24.0288 13.9329 0.0054 -24.0137 0.0053
# 2 24.0288 37.0428 -4.6915 0.0798 -5.1211 -0.0137
# 3 13.9329 -4.6915 60.2059 0.1077 -11.0581 -0.0035
# 4 0.0054 0.0798 0.1077 13.2404 -0.0052 2.2398
# 5 -24.0137 -5.1211 -11.0581 -0.0052 45.5184 -0.0076
# 6 0.0053 -0.0137 -0.0035 2.2398 -0.0076 12.0797
#
#
#
# Elastic Compliance Matrix: (Units=1/GPa)
#
#
# Indices 1 2 3 4 5 6 
#
# 1 0.007716 -0.004770 -0.001579 0.000042 0.003151 -0.000015
# 2 -0.004770 0.030840 0.003855 -0.000228 0.001890 0.000082
# 3 -0.001579 0.003855 0.018006 -0.000175 0.003975 0.000045
# 4 0.000042 -0.000228 -0.000175 0.077975 -0.000039 -0.014458
# 5 0.003151 0.001890 0.003975 -0.000039 0.024810 0.000025
# 6 -0.000015 0.000082 0.000045 -0.014458 0.000025 0.085464
#
#
# Mechanical properties :
#
#
# Convention : Reuss Voigt Hill
#
# Bulk Modulus (GPa) = 19.38977 35.65459 27.52218
# Shear Modulus (GPa) = 18.72727 28.90643 23.81685
#
# Velocity S-wave (km/s) = 2.92073 3.62871 3.29380
# Velocity P-wave (km/s) = 4.49519 5.81362 5.19639
#
# Compressibility (1/GPa) = 0.05157360
#
# Stress axis : x y z
#
# Youngs Moduli (GPa) = 129.59285 32.42556 55.53764
#
# Poissons Ratio (x) = 0.15467 0.08768
# Poissons Ratio (y) = 0.61815 -0.21407
# Poissons Ratio (z) = 0.20461 -0.12499
#
# Static dielectric constant tensor:
#      x y z
#    x 1.878780 0.000000 0.043690 
#    y 0.000000 1.790500 0.000010 
#    z 0.043690 0.000010 1.878700 
# 
# From -- ./inp_files/5648.got.cif
#   From: 2010.05.17/outbox.cif.g08.bks.cpg/sg9_3_cif.got.tgz:5648.got - 2010.06.03 20:04:27.
