data_PCOD9134064
_publ_section_title
;
Structure prediction by ZEFSAII (Michael W. Deem and Ramdas Pophale) SiO2 
 PCOD9134064
Probable space group: C C
;
_chemical_formula_sum "Si O2"
_cell_formula_units_Z 32
_cell_length_a 23.062533
_cell_length_b 9.771802
_cell_length_c 13.547303
_cell_angle_alpha 90.000000
_cell_angle_beta 27.170314
_cell_angle_gamma 90.000000
_cell_volume 1394.137620
_symmetry_space_group_name_H-M "C C"
_symmetry_group_IT_number 9
_symmetry_cell_setting 'monoclinic'
loop_
_space_group_symop_operation_xyz
x,y,z
x,-y,1/2+z
1/2+x,1/2+y,z
1/2+x,1/2-y,1/2+z
loop_
_atom_site_type_symbol
_atom_site_label
_atom_site_fract_x
_atom_site_fract_y
_atom_site_fract_z
Si Si1 0.134490 0.137927 0.700900
Si Si2 0.530734 0.416698 0.722433
Si Si3 0.512889 0.131010 0.276680
Si Si4 0.906445 0.613744 0.236235
Si Si5 0.280239 0.213335 0.760211
Si Si6 0.362722 0.327593 0.138938
Si Si7 0.139426 0.518099 0.430920
Si Si8 0.437951 0.589695 0.152431
O O1 0.272279 0.071407 0.485654
O O2 0.119678 0.289160 0.677881
O O3 0.041670 0.055649 0.767704
O O4 0.076382 0.122519 0.896712
O O5 0.668614 0.377626 0.473268
O O6 0.441891 0.423930 0.762401
O O7 0.469512 0.314586 0.893901
O O8 0.472082 0.194075 0.230062
O O9 0.385808 0.136919 0.534522
O O10 0.575687 0.992399 0.137780
O O11 0.865355 0.693679 0.201365
O O12 0.016161 0.503036 0.049042
O O13 0.216332 0.343277 0.800496
O O14 0.351432 0.288789 0.742658
O O15 0.234952 0.387943 0.282436
O O16 0.396631 0.449153 0.163910
#
# Coordination Sequence:
#
# PCOD9134064 Si02
#       8
#     4   4   4   4   4   4   4   4
#     4  10  19  37  60  87 112 158 204 243 298 374
#     4  11  23  37  59  88 122 157 195 248 315 365
#     4   9  19  37  65  84 117 160 204 244 308 363
#     4  10  18  35  59  88 115 150 204 255 293 360
#     4  10  21  41  58  89 128 154 202 256 302 372
#     4  10  20  38  59  86 121 152 197 252 299 364
#     4   9  21  37  60  89 119 155 210 239 300 371
#     4   9  21  38  60  79 118 164 196 237 309 371
#
# _framework density 22.953258000000002
#
# number of rings (size 3 to 8) (size 9 to 14) (size 15 to 20)
#    0.750    1.500    1.250    2.250    0.000    2.000 
#    2.250    3.750    0.000    0.000    0.000    0.000 
#    0.000    0.000    0.000    0.000    0.000    0.000 
#
# Total GULP energy -89191.095908 kJ/mol
# GULP energy per Si atom -5574.443494 kJ/mol
# Density = 2.290102 g / cm^3
# Si number density = 22.953258 Si / 1000 Ang^3
#
#
#
# Elastic Constant Matrix: (Units=GPa)
#
#
# Indices 1 2 3 4 5 6 
#
# 1 72.7398 4.6870 15.1629 0.0000 6.8159 0.0000
# 2 4.6870 22.9389 2.9631 0.0000 -0.7191 0.0000
# 3 15.1629 2.9631 101.6987 0.0000 -5.8293 0.0000
# 4 0.0000 0.0000 0.0000 18.1881 0.0000 -2.1551
# 5 6.8159 -0.7191 -5.8293 0.0000 36.0244 0.0000
# 6 0.0000 0.0000 0.0000 -2.1551 0.0000 26.8778
#
#
#
# Elastic Compliance Matrix: (Units=1/GPa)
#
#
# Indices 1 2 3 4 5 6 
#
# 1 0.014708 -0.002809 -0.002295 0.000000 -0.003210 0.000000
# 2 -0.002809 0.044312 -0.000798 0.000000 0.001287 0.000000
# 3 -0.002295 -0.000798 0.010318 0.000000 0.002088 0.000000
# 4 0.000000 0.000000 0.000000 0.055508 0.000000 0.004451
# 5 -0.003210 0.001287 0.002088 0.000000 0.028730 0.000000
# 6 0.000000 0.000000 0.000000 0.004451 0.000000 0.037562
#
#
# Mechanical properties :
#
#
# Convention : Reuss Voigt Hill
#
# Bulk Modulus (GPa) = 17.38168 27.00037 22.19102
# Shear Modulus (GPa) = 22.51025 27.85570 25.18297
#
# Velocity S-wave (km/s) = 3.13501 3.48743 3.31591
# Velocity P-wave (km/s) = 4.54901 5.29197 4.93449
#
# Compressibility (1/GPa) = 0.05753185
#
# Stress axis : x y z
#
# Youngs Moduli (GPa) = 67.99083 22.56748 96.91714
#
# Poissons Ratio (x) = 0.06340 0.22243
# Poissons Ratio (y) = 0.19101 0.07738
# Poissons Ratio (z) = 0.15604 0.01802
#
# Static dielectric constant tensor:
#      x y z
#    x 1.884380 0.000000 -0.044150 
#    y 0.000000 1.912370 0.000000 
#    z -0.044150 0.000000 1.884040 
# 
# From -- ./inp_files/20314.got.cif
#   From: 2010.05.17/outbox.cif.g08.bks.cpg/sg9_11_cif.got.tgz:20314.got - 2010.06.03 20:04:27.
