data_PCOD9134020
_publ_section_title
;
Structure prediction by ZEFSAII (Michael W. Deem and Ramdas Pophale) SiO2 
 PCOD9134020
Probable space group: C C
;
_chemical_formula_sum "Si O2"
_cell_formula_units_Z 28
_cell_length_a 17.623432
_cell_length_b 6.867643
_cell_length_c 29.259835
_cell_angle_alpha 90.000000
_cell_angle_beta 158.710048
_cell_angle_gamma 90.000000
_cell_volume 1285.824711
_symmetry_space_group_name_H-M "C C"
_symmetry_group_IT_number 9
_symmetry_cell_setting 'monoclinic'
loop_
_space_group_symop_operation_xyz
x,y,z
x,-y,1/2+z
1/2+x,1/2+y,z
1/2+x,1/2-y,1/2+z
loop_
_atom_site_type_symbol
_atom_site_label
_atom_site_fract_x
_atom_site_fract_y
_atom_site_fract_z
Si Si1 0.312400 0.945057 0.217200
Si Si2 0.724949 0.315870 0.580078
Si Si3 0.212285 0.289826 0.405019
Si Si4 0.027443 0.019429 0.135854
Si Si5 0.647171 0.256329 0.438086
Si Si6 0.853360 0.453555 0.898797
Si Si7 0.194680 0.742703 0.365580
O O1 0.221203 0.021405 0.117849
O O2 0.137606 0.900003 0.156373
O O3 0.438937 0.129263 0.311100
O O4 0.490083 0.784894 0.306271
O O5 0.650980 0.374344 0.487409
O O6 0.572192 0.143102 0.509944
O O7 0.963799 0.243403 0.714625
O O8 0.414388 0.290064 0.551327
O O9 0.242983 0.161285 0.378128
O O10 0.218079 0.514882 0.389818
O O11 0.203008 0.059129 0.271236
O O12 0.837180 0.897074 0.050230
O O13 0.693355 0.350083 0.414470
O O14 0.858186 0.670649 0.921785
#
# Coordination Sequence:
#
# PCOD9134020 Si02
#       7
#     4   4   4   4   4   4   4
#     4   9  18  35  56  76 119 150 180 237 292 326
#     4  10  18  34  59  83 112 152 189 234 287 342
#     4   9  22  40  55  84 121 149 191 241 285 339
#     4  10  18  34  59  83 112 152 189 234 287 342
#     4   9  18  35  56  76 119 150 180 237 292 326
#     4  12  20  36  66  86 108 156 204 226 290 346
#     4   9  22  40  55  84 121 149 191 241 285 339
#
# _framework density 21.775907
#
# number of rings (size 3 to 8) (size 9 to 14) (size 15 to 20)
#    0.000    2.857    4.286    0.000    0.000    0.000 
#   10.286    0.000    3.143    0.000    0.000    0.000 
#    0.000    0.000    0.000    0.000    0.000    0.000 
#
# Total GULP energy -78033.214081 kJ/mol
# GULP energy per Si atom -5573.801006 kJ/mol
# Density = 2.172634 g / cm^3
# Si number density = 21.775907 Si / 1000 Ang^3
#
#
#
# Elastic Constant Matrix: (Units=GPa)
#
#
# Indices 1 2 3 4 5 6 
#
# 1 87.2647 10.5022 9.9028 0.0002 -29.6974 -0.0005
# 2 10.5022 15.6626 5.7810 0.0014 -3.2601 0.0005
# 3 9.9028 5.7810 69.1714 0.0060 -16.4459 -0.0006
# 4 0.0002 0.0014 0.0060 16.1870 -0.0013 1.6896
# 5 -29.6974 -3.2601 -16.4459 -0.0013 50.5984 -0.0005
# 6 -0.0005 0.0005 -0.0006 1.6896 -0.0005 25.9794
#
#
#
# Elastic Compliance Matrix: (Units=1/GPa)
#
#
# Indices 1 2 3 4 5 6 
#
# 1 0.015392 -0.008734 0.000586 0.000001 0.008661 0.000001
# 2 -0.008734 0.071167 -0.005230 -0.000004 -0.002241 -0.000001
# 3 0.000586 -0.005230 0.016052 -0.000005 0.005224 0.000001
# 4 0.000001 -0.000004 -0.000005 0.062200 0.000000 -0.004045
# 5 0.008661 -0.002241 0.005224 0.000000 0.026401 0.000001
# 6 0.000001 -0.000001 0.000001 -0.004045 0.000001 0.038755
#
#
# Mechanical properties :
#
#
# Convention : Reuss Voigt Hill
#
# Bulk Modulus (GPa) = 13.18322 24.94119 19.06220
# Shear Modulus (GPa) = 17.73001 28.28048 23.00524
#
# Velocity S-wave (km/s) = 2.85652 3.60766 3.25384
# Velocity P-wave (km/s) = 4.11665 5.36955 4.78429
#
# Compressibility (1/GPa) = 0.07585399
#
# Stress axis : x y z
#
# Youngs Moduli (GPa) = 64.97048 14.05149 62.29676
#
# Poissons Ratio (x) = 0.12272 -0.03649
# Poissons Ratio (y) = 0.56744 0.32582
# Poissons Ratio (z) = -0.03805 0.07349
#
# Static dielectric constant tensor:
#      x y z
#    x 1.821570 0.000000 -0.015070 
#    y 0.000000 1.874480 0.000000 
#    z -0.015070 0.000000 1.812950 
# 
# From -- ./inp_files/5576.got.cif
#   From: 2010.05.17/outbox.cif.g08.bks.cpg/sg9_3_cif.got.tgz:5576.got - 2010.06.03 20:04:27.
