data_PCOD9134752
_publ_section_title
;
Structure prediction by ZEFSAII (Michael W. Deem and Ramdas Pophale) SiO2 
 PCOD9134752
Probable space group: C C
;
_chemical_formula_sum "Si O2"
_cell_formula_units_Z 28
_cell_length_a 6.717878
_cell_length_b 17.187037
_cell_length_c 11.740293
_cell_angle_alpha 90.000000
_cell_angle_beta 125.775193
_cell_angle_gamma 90.000000
_cell_volume 1099.771955
_symmetry_space_group_name_H-M "C C"
_symmetry_group_IT_number 9
_symmetry_cell_setting 'monoclinic'
loop_
_space_group_symop_operation_xyz
x,y,z
x,-y,1/2+z
1/2+x,1/2+y,z
1/2+x,1/2-y,1/2+z
loop_
_atom_site_type_symbol
_atom_site_label
_atom_site_fract_x
_atom_site_fract_y
_atom_site_fract_z
Si Si1 0.910400 0.320970 0.172960
Si Si2 0.640658 0.587151 0.410325
Si Si3 0.073944 0.551306 0.861496
Si Si4 0.977757 0.074655 0.794835
Si Si5 0.370695 0.663544 0.112595
Si Si6 0.730424 0.892108 0.969092
Si Si7 0.980250 0.225367 0.907028
O O1 0.747070 0.242892 0.119649
O O2 0.183876 0.285374 0.286962
O O3 0.866342 0.389234 0.249528
O O4 0.868032 0.365661 0.039595
O O5 0.658818 0.496052 0.386883
O O6 0.540099 0.626884 0.264053
O O7 0.437795 0.601856 0.440878
O O8 0.261418 0.557751 0.816073
O O9 0.198158 0.595057 0.009030
O O10 0.040208 0.460659 0.871310
O O11 0.854568 0.081241 0.629851
O O12 0.088505 0.157849 0.864479
O O13 0.508403 0.696266 0.046391
O O14 0.607356 0.807315 0.926864
#
# Coordination Sequence:
#
# PCOD9134752 Si02
#       7
#     4   4   4   4   4   4   4
#     4  10  21  39  64 102 133 187 232 290 352 423
#     4  11  22  39  70  98 144 181 235 301 350 410
#     4   9  20  40  64  96 138 183 239 277 351 424
#     4   9  20  40  65  97 136 179 234 288 348 416
#     4  10  19  40  70  93 130 192 230 282 342 437
#     4  11  22  42  67 103 144 187 236 298 344 426
#     4  10  22  42  70  95 137 185 244 284 351 438
#
# _framework density 25.459827000000001
#
# number of rings (size 3 to 8) (size 9 to 14) (size 15 to 20)
#    0.000    2.286    1.429    3.429    0.000    1.143 
#   10.286    2.857    3.143    0.000    0.000    0.000 
#    0.000    0.000    0.000    0.000    0.000    0.000 
#
# Total GULP energy -78222.730400 kJ/mol
# GULP energy per Si atom -5587.337886 kJ/mol
# Density = 2.540188 g / cm^3
# Si number density = 25.459827 Si / 1000 Ang^3
#
#
#
# Elastic Constant Matrix: (Units=GPa)
#
#
# Indices 1 2 3 4 5 6 
#
# 1 108.4044 24.1655 18.2347 0.0000 0.2938 0.0000
# 2 24.1655 259.2620 64.6746 0.0000 -10.7126 0.0000
# 3 18.2347 64.6746 185.2971 0.0000 -17.2666 0.0000
# 4 0.0000 0.0000 0.0000 48.6858 0.0000 1.7866
# 5 0.2938 -10.7126 -17.2666 0.0000 20.0224 0.0000
# 6 0.0000 0.0000 0.0000 1.7866 0.0000 24.2799
#
#
#
# Elastic Compliance Matrix: (Units=1/GPa)
#
#
# Indices 1 2 3 4 5 6 
#
# 1 0.009526 -0.000741 -0.000793 0.000000 -0.001220 0.000000
# 2 -0.000741 0.004304 -0.001320 0.000000 0.001175 0.000000
# 3 -0.000793 -0.001320 0.006384 0.000000 0.004811 0.000000
# 4 0.000000 0.000000 0.000000 0.020595 0.000000 -0.001516
# 5 -0.001220 0.001175 0.004811 0.000000 0.054739 0.000000
# 6 0.000000 0.000000 0.000000 -0.001516 0.000000 0.041298
#
#
# Mechanical properties :
#
#
# Convention : Reuss Voigt Hill
#
# Bulk Modulus (GPa) = 68.92765 85.23480 77.08122
# Shear Modulus (GPa) = 33.92390 48.32354 41.12372
#
# Velocity S-wave (km/s) = 3.65423 4.36137 4.02336
# Velocity P-wave (km/s) = 6.70346 7.67547 7.20587
#
# Compressibility (1/GPa) = 0.01450797
#
# Stress axis : x y z
#
# Youngs Moduli (GPa) = 104.97095 232.34550 156.65024
#
# Poissons Ratio (x) = 0.17208 0.12416
# Poissons Ratio (y) = 0.07774 0.20675
# Poissons Ratio (z) = 0.08320 0.30665
#
# Static dielectric constant tensor:
#      x y z
#    x 2.217130 0.000000 0.030520 
#    y 0.000000 2.059730 0.000000 
#    z 0.030520 0.000000 2.023070 
# 
# From -- ./inp_files/24795.got.cif
#   From: 2010.05.17/outbox.cif.g08.bks.cpg/sg9_13_cif.got.tgz:24795.got - 2010.06.03 20:04:27.
