data_PCOD9134211
_publ_section_title
;
Structure prediction by ZEFSAII (Michael W. Deem and Ramdas Pophale) SiO2 
 PCOD9134211
Probable space group: C C
;
_chemical_formula_sum "Si O2"
_cell_formula_units_Z 28
_cell_length_a 22.928356
_cell_length_b 4.839679
_cell_length_c 21.107549
_cell_angle_alpha 90.000000
_cell_angle_beta 150.032874
_cell_angle_gamma 90.000000
_cell_volume 1169.944889
_symmetry_space_group_name_H-M "C C"
_symmetry_group_IT_number 9
_symmetry_cell_setting 'monoclinic'
loop_
_space_group_symop_operation_xyz
x,y,z
x,-y,1/2+z
1/2+x,1/2+y,z
1/2+x,1/2-y,1/2+z
loop_
_atom_site_type_symbol
_atom_site_label
_atom_site_fract_x
_atom_site_fract_y
_atom_site_fract_z
Si Si1 0.605380 0.682897 0.955300
Si Si2 0.664060 0.954523 0.804747
Si Si3 0.758228 0.204152 0.100458
Si Si4 0.916794 0.540931 0.850088
Si Si5 0.575362 0.704152 0.599720
Si Si6 0.669532 0.454523 0.895433
Si Si7 0.728209 0.817102 0.244876
O O1 0.366470 0.228401 0.746136
O O2 0.577020 0.601062 0.856124
O O3 0.651326 0.395453 0.026414
O O4 0.509853 0.838370 0.905037
O O5 0.570665 0.826694 0.666976
O O6 0.711802 0.696569 0.889216
O O7 0.621790 0.196568 0.810964
O O8 0.756570 0.101064 0.844053
O O9 0.716140 0.891093 0.057447
O O10 0.762927 0.326696 0.033204
O O11 0.967120 0.728397 0.954043
O O12 0.823735 0.338371 0.795138
O O13 0.617449 0.391092 0.642729
O O14 0.682265 0.895452 0.673764
#
# Coordination Sequence:
#
# PCOD9134211 Si02
#       7
#     4   4   4   4   4   4   4
#     4  10  23  40  64  94 125 166 199 261 306 366
#     4  10  18  41  68  83 124 166 204 252 310 356
#     4  10  23  40  64  94 125 166 199 261 306 366
#     4  12  24  42  64  98 128 158 212 248 324 368
#     4  10  23  40  64  94 125 166 199 261 306 366
#     4  10  18  41  68  83 124 166 204 252 310 356
#     4  10  23  40  64  94 125 166 199 261 306 366
#
# _framework density 23.932749999999999
#
# number of rings (size 3 to 8) (size 9 to 14) (size 15 to 20)
#    1.714    0.000    2.857    1.714    0.000    4.571 
#    0.000    2.857    0.000    0.000    0.000    0.000 
#    0.000    0.000    0.000    0.000    0.000    0.000 
#
# Total GULP energy -78183.170496 kJ/mol
# GULP energy per Si atom -5584.512178 kJ/mol
# Density = 2.387828 g / cm^3
# Si number density = 23.932750 Si / 1000 Ang^3
#
#
#
# Elastic Constant Matrix: (Units=GPa)
#
#
# Indices 1 2 3 4 5 6 
#
# 1 84.9066 39.9664 48.5425 0.0000 -44.5395 0.0005
# 2 39.9664 144.7519 23.5040 0.0005 -25.4154 0.0021
# 3 48.5425 23.5040 89.1296 -0.0001 -40.5292 0.0003
# 4 0.0000 0.0005 -0.0001 39.2078 0.0000 -22.2290
# 5 -44.5395 -25.4154 -40.5292 0.0000 34.5500 0.0001
# 6 0.0005 0.0021 0.0003 -22.2290 0.0001 44.7430
#
#
#
# Elastic Compliance Matrix: (Units=1/GPa)
#
#
# Indices 1 2 3 4 5 6 
#
# 1 0.037304 -0.001980 0.003023 0.000000 0.050180 -0.000001
# 2 -0.001980 0.008099 0.001052 0.000000 0.004639 -0.000001
# 3 0.003023 0.001052 0.024475 0.000000 0.033382 0.000000
# 4 0.000000 0.000000 0.000000 0.035506 -0.000001 0.017640
# 5 0.050180 0.004639 0.033382 -0.000001 0.136204 -0.000002
# 6 -0.000001 -0.000001 0.000000 0.017640 -0.000002 0.031114
#
#
# Mechanical properties :
#
#
# Convention : Reuss Voigt Hill
#
# Bulk Modulus (GPa) = 13.50094 60.31264 36.90679
# Shear Modulus (GPa) = 17.05313 37.48517 27.26915
#
# Velocity S-wave (km/s) = 2.67225 3.96191 3.37917
# Velocity P-wave (km/s) = 3.89547 6.79592 5.53892
#
# Compressibility (1/GPa) = 0.07406890
#
# Stress axis : x y z
#
# Youngs Moduli (GPa) = 26.80666 123.47511 40.85747
#
# Poissons Ratio (x) = 0.24450 -0.12352
# Poissons Ratio (y) = 0.05308 -0.04300
# Poissons Ratio (z) = -0.08104 -0.12994
#
# Static dielectric constant tensor:
#      x y z
#    x 2.009890 0.000000 -0.015390 
#    y 0.000000 1.863640 0.000000 
#    z -0.015390 0.000000 1.967910 
# 
# From -- ./inp_files/34442.got.cif
#   From: 2010.05.17/outbox.cif.g08.bks.cpg/sg9_18_cif.got.tgz:34442.got - 2010.06.03 20:04:27.
