data_PCOD9134603
_publ_section_title
;
Structure prediction by ZEFSAII (Michael W. Deem and Ramdas Pophale) SiO2 
 PCOD9134603
Probable space group: C C
;
_chemical_formula_sum "Si O2"
_cell_formula_units_Z 28
_cell_length_a 13.443249
_cell_length_b 7.200745
_cell_length_c 10.597417
_cell_angle_alpha 90.000000
_cell_angle_beta 103.205164
_cell_angle_gamma 90.000000
_cell_volume 998.719823
_symmetry_space_group_name_H-M "C C"
_symmetry_group_IT_number 9
_symmetry_cell_setting 'monoclinic'
loop_
_space_group_symop_operation_xyz
x,y,z
x,-y,1/2+z
1/2+x,1/2+y,z
1/2+x,1/2-y,1/2+z
loop_
_atom_site_type_symbol
_atom_site_label
_atom_site_fract_x
_atom_site_fract_y
_atom_site_fract_z
Si Si1 0.578770 0.770151 0.988060
Si Si2 0.208773 0.285427 0.787413
Si Si3 0.573776 0.801530 0.529576
Si Si4 0.357061 0.254471 0.488138
Si Si5 0.885528 0.135957 0.622177
Si Si6 0.927638 0.223436 0.274135
Si Si7 0.704943 0.231320 0.742715
O O1 0.642834 0.712279 0.885012
O O2 0.458090 0.763414 0.933042
O O3 0.609458 0.687889 0.135048
O O4 0.600598 0.985563 0.017777
O O5 0.327725 0.234930 0.829731
O O6 0.193593 0.510594 0.772800
O O7 0.166891 0.219636 0.637911
O O8 0.475704 0.755096 0.588778
O O9 0.258269 0.186359 0.383731
O O10 0.532008 0.750886 0.379009
O O11 0.397872 0.175221 0.634029
O O12 0.925819 0.992270 0.738616
O O13 0.844433 0.974702 0.514818
O O14 0.792678 0.758457 0.159497
#
# Coordination Sequence:
#
# PCOD9134603 Si02
#       7
#     4   4   4   4   4   4   4
#     4  11  24  36  64  98 125 161 216 266 324 359
#     4  10  22  37  63  93 116 174 213 254 302 380
#     4  11  22  38  66  92 132 160 211 273 312 368
#     4  10  22  38  62  95 124 166 212 259 314 379
#     4   9  19  39  64  87 121 169 213 253 306 379
#     4   9  22  38  64  90 124 168 220 248 310 379
#     4  10  19  38  63  87 120 166 215 251 298 390
#
# _framework density 28.035889000000001
#
# number of rings (size 3 to 8) (size 9 to 14) (size 15 to 20)
#    0.857    1.143    0.000    4.286    6.000    0.000 
#    0.000    1.429    3.143    0.000    0.000    0.000 
#    0.000    0.000    0.000    0.000    0.000    0.000 
#
# Total GULP energy -78234.849664 kJ/mol
# GULP energy per Si atom -5588.203547 kJ/mol
# Density = 2.797208 g / cm^3
# Si number density = 28.035889 Si / 1000 Ang^3
#
#
#
# Elastic Constant Matrix: (Units=GPa)
#
#
# Indices 1 2 3 4 5 6 
#
# 1 139.1347 -0.3851 47.1725 0.0000 20.7945 0.0000
# 2 -0.3851 52.7366 -10.1302 0.0000 3.4122 0.0000
# 3 47.1725 -10.1302 160.9183 0.0000 45.6161 0.0000
# 4 0.0000 0.0000 0.0000 15.8624 0.0000 -6.4300
# 5 20.7945 3.4122 45.6161 0.0000 74.7760 0.0000
# 6 0.0000 0.0000 0.0000 -6.4300 0.0000 28.8992
#
#
#
# Elastic Compliance Matrix: (Units=1/GPa)
#
#
# Indices 1 2 3 4 5 6 
#
# 1 0.008042 -0.000286 -0.002110 0.000000 -0.000936 0.000000
# 2 -0.000286 0.019443 0.001858 0.000000 -0.001941 0.000000
# 3 -0.002110 0.001858 0.008231 0.000000 -0.004519 0.000000
# 4 0.000000 0.000000 0.000000 0.069292 0.000000 0.015417
# 5 -0.000936 -0.001941 -0.004519 0.000000 0.016479 0.000000
# 6 0.000000 0.000000 0.000000 0.015417 0.000000 0.038033
#
#
# Mechanical properties :
#
#
# Convention : Reuss Voigt Hill
#
# Bulk Modulus (GPa) = 28.86896 47.34489 38.10692
# Shear Modulus (GPa) = 29.04573 44.98299 37.01436
#
# Velocity S-wave (km/s) = 3.22222 4.00994 3.63747
# Velocity P-wave (km/s) = 4.91560 6.19382 5.59135
#
# Compressibility (1/GPa) = 0.03463928
#
# Stress axis : x y z
#
# Youngs Moduli (GPa) = 124.35039 51.43343 121.49295
#
# Poissons Ratio (x) = 0.01471 0.25636
# Poissons Ratio (y) = 0.03557 -0.22574
# Poissons Ratio (z) = 0.26239 -0.09557
#
# Static dielectric constant tensor:
#      x y z
#    x 2.220740 0.000000 0.026850 
#    y 0.000000 2.156290 0.000000 
#    z 0.026850 0.000000 2.380160 
# 
# From -- ./inp_files/25415.got.cif
#   From: 2010.05.17/outbox.cif.g08.bks.cpg/sg9_13_cif.got.tgz:25415.got - 2010.06.03 20:04:27.
