data_PCOD9134165
_publ_section_title
;
Structure prediction by ZEFSAII (Michael W. Deem and Ramdas Pophale) SiO2 
 PCOD9134165
Probable space group: C C
;
_chemical_formula_sum "Si O2"
_cell_formula_units_Z 32
_cell_length_a 6.812779
_cell_length_b 19.336482
_cell_length_c 11.835301
_cell_angle_alpha 90.000000
_cell_angle_beta 102.378494
_cell_angle_gamma 90.000000
_cell_volume 1522.880204
_symmetry_space_group_name_H-M "C C"
_symmetry_group_IT_number 9
_symmetry_cell_setting 'monoclinic'
loop_
_space_group_symop_operation_xyz
x,y,z
x,-y,1/2+z
1/2+x,1/2+y,z
1/2+x,1/2-y,1/2+z
loop_
_atom_site_type_symbol
_atom_site_label
_atom_site_fract_x
_atom_site_fract_y
_atom_site_fract_z
Si Si1 0.868720 0.217853 0.940580
Si Si2 0.553594 0.592383 0.532319
Si Si3 0.832897 0.621439 0.373494
Si Si4 0.483305 0.091062 0.689655
Si Si5 0.509859 0.128545 0.947827
Si Si6 0.333386 0.312869 0.186267
Si Si7 0.164642 0.515543 0.524771
Si Si8 0.233013 0.161275 0.116316
O O1 0.897809 0.299550 0.916541
O O2 0.640966 0.198058 0.947819
O O3 0.906748 0.179190 0.824744
O O4 0.009956 0.185570 0.054245
O O5 0.624554 0.612880 0.416509
O O6 0.766553 0.574726 0.613631
O O7 0.454475 0.648610 0.603560
O O8 0.384619 0.534754 0.509544
O O9 0.778384 0.616666 0.233937
O O10 0.000412 0.564788 0.436503
O O11 0.452047 0.102274 0.816920
O O12 0.602702 0.159639 0.661837
O O13 0.630659 0.034336 0.652902
O O14 0.331128 0.134065 0.013962
O O15 0.641101 0.065223 0.008291
O O16 0.341703 0.233059 0.159076
#
# Coordination Sequence:
#
# PCOD9134165 Si02
#       8
#     4   4   4   4   4   4   4   4
#     4  10  21  39  61  94 125 160 206 261 310 372
#     4  10  18  38  64  84 113 171 200 241 311 372
#     4  10  23  40  62  92 129 159 207 262 311 376
#     4   9  20  39  61  86 118 161 207 250 307 373
#     4  11  24  39  61  90 127 162 206 264 309 365
#     4   9  19  36  61  91 123 155 204 254 307 370
#     4  10  23  40  59  87 122 163 208 257 308 372
#     4  11  22  37  61  94 125 161 204 257 311 368
#
# _framework density 21.012813999999999
#
# number of rings (size 3 to 8) (size 9 to 14) (size 15 to 20)
#    0.000    2.000    0.000    3.750    1.750    3.000 
#    0.000    6.250    0.000    0.000    0.000    0.000 
#    0.000    0.000    0.000    0.000    0.000    0.000 
#
# Total GULP energy -89116.048343 kJ/mol
# GULP energy per Si atom -5569.753021 kJ/mol
# Density = 2.096499 g / cm^3
# Si number density = 21.012814 Si / 1000 Ang^3
#
#
#
# Elastic Constant Matrix: (Units=GPa)
#
#
# Indices 1 2 3 4 5 6 
#
# 1 84.5620 -0.9284 21.6957 0.0000 -15.1791 0.0000
# 2 -0.9284 38.9849 -15.3629 0.0000 -3.8805 0.0000
# 3 21.6957 -15.3629 110.1919 0.0000 -18.0585 0.0000
# 4 0.0000 0.0000 0.0000 51.9050 0.0000 17.4471
# 5 -15.1791 -3.8805 -18.0585 0.0000 35.5997 0.0000
# 6 0.0000 0.0000 0.0000 17.4471 0.0000 18.7415
#
#
#
# Elastic Compliance Matrix: (Units=1/GPa)
#
#
# Indices 1 2 3 4 5 6 
#
# 1 0.013132 0.000067 -0.001808 0.000000 0.004690 0.000000
# 2 0.000067 0.028099 0.004811 0.000000 0.005532 0.000000
# 3 -0.001808 0.004811 0.010974 0.000000 0.005320 0.000000
# 4 0.000000 0.000000 0.000000 0.028040 0.000000 -0.026104
# 5 0.004690 0.005532 0.005320 0.000000 0.033391 0.000000
# 6 0.000000 0.000000 0.000000 -0.026104 0.000000 0.077658
#
#
# Mechanical properties :
#
#
# Convention : Reuss Voigt Hill
#
# Bulk Modulus (GPa) = 17.13925 27.17195 22.15560
# Shear Modulus (GPa) = 24.43767 36.47153 30.45460
#
# Velocity S-wave (km/s) = 3.41396 4.17067 3.81114
# Velocity P-wave (km/s) = 4.86975 6.01264 5.47112
#
# Compressibility (1/GPa) = 0.05834561
#
# Stress axis : x y z
#
# Youngs Moduli (GPa) = 76.15018 35.58833 91.12768
#
# Poissons Ratio (x) = -0.00239 0.16473
# Poissons Ratio (y) = -0.00512 -0.43841
# Poissons Ratio (z) = 0.13765 -0.17121
#
# Static dielectric constant tensor:
#      x y z
#    x 1.760100 0.000000 0.022160 
#    y 0.000000 1.780950 0.000000 
#    z 0.022160 0.000000 1.842250 
# 
# From -- ./inp_files/13509.got.cif
#   From: 2010.05.17/outbox.cif.g08.bks.cpg/sg9_7_cif.got.tgz:13509.got - 2010.06.03 20:04:27.
