data_PCOD9134552
_publ_section_title
;
Structure prediction by ZEFSAII (Michael W. Deem and Ramdas Pophale) SiO2 
 PCOD9134552
Probable space group: C C
;
_chemical_formula_sum "Si O2"
_cell_formula_units_Z 32
_cell_length_a 20.440681
_cell_length_b 13.085328
_cell_length_c 5.191862
_cell_angle_alpha 90.000000
_cell_angle_beta 98.719432
_cell_angle_gamma 90.000000
_cell_volume 1372.633322
_symmetry_space_group_name_H-M "C C"
_symmetry_group_IT_number 9
_symmetry_cell_setting 'monoclinic'
loop_
_space_group_symop_operation_xyz
x,y,z
x,-y,1/2+z
1/2+x,1/2+y,z
1/2+x,1/2-y,1/2+z
loop_
_atom_site_type_symbol
_atom_site_label
_atom_site_fract_x
_atom_site_fract_y
_atom_site_fract_z
Si Si1 0.101260 0.429510 0.188330
Si Si2 0.846884 0.062299 0.086526
Si Si3 0.111007 0.066017 0.923290
Si Si4 0.480058 0.426682 0.504906
Si Si5 0.450138 0.879320 0.014241
Si Si6 0.728102 0.798374 0.379718
Si Si7 0.246423 0.173033 0.907946
Si Si8 0.891681 0.609627 0.975596
O O1 0.109142 0.514371 0.417855
O O2 0.155527 0.343444 0.280447
O O3 0.026505 0.386252 0.136856
O O4 0.909714 0.874591 0.511392
O O5 0.851210 0.033465 0.389737
O O6 0.776696 0.113218 0.003134
O O7 0.107750 0.026689 0.627492
O O8 0.048148 0.133066 0.985029
O O9 0.181916 0.117541 0.981722
O O10 0.481895 0.496706 0.762217
O O11 0.407949 0.834617 0.220699
O O12 0.422523 0.996344 0.967717
O O13 0.431151 0.835452 0.727291
O O14 0.757074 0.761177 0.124578
O O15 0.731126 0.714715 0.611795
O O16 0.312987 0.106242 0.957394
#
# Coordination Sequence:
#
# PCOD9134552 Si02
#       8
#     4   4   4   4   4   4   4   4
#     4  12  21  41  68  95 125 165 228 278 314 386
#     4  10  19  38  65  90 109 155 211 257 299 359
#     4  10  21  38  63  90 109 158 210 254 302 359
#     4   8  16  32  58  85 109 130 191 257 286 338
#     4  10  19  37  64  98 111 157 225 278 305 353
#     4  12  26  41  57  92 135 173 200 256 334 397
#     4  12  26  41  57  90 138 171 201 258 332 396
#     4  10  20  36  60  86 128 151 212 268 314 372
#
# _framework density 23.312853
#
# number of rings (size 3 to 8) (size 9 to 14) (size 15 to 20)
#    0.000    1.500    2.500    3.750    3.500    0.000 
#    0.000    3.750    0.000    0.000    0.000    0.000 
#    0.000    0.000    0.000    0.000    0.000    0.000 
#
# Total GULP energy -89251.452552 kJ/mol
# GULP energy per Si atom -5578.215785 kJ/mol
# Density = 2.325979 g / cm^3
# Si number density = 23.312853 Si / 1000 Ang^3
#
#
#
# Elastic Constant Matrix: (Units=GPa)
#
#
# Indices 1 2 3 4 5 6 
#
# 1 140.5930 26.9354 -6.1763 0.0000 22.7163 0.0000
# 2 26.9354 29.9242 8.4012 0.0000 2.0812 0.0000
# 3 -6.1763 8.4012 125.0884 0.0000 -18.0139 0.0000
# 4 0.0000 0.0000 0.0000 19.3673 0.0000 -14.7200
# 5 22.7163 2.0812 -18.0139 0.0000 40.5094 0.0000
# 6 0.0000 0.0000 0.0000 -14.7200 0.0000 -21.9420
#
#
#
# Elastic Compliance Matrix: (Units=1/GPa)
#
#
# Indices 1 2 3 4 5 6 
#
# 1 0.009484 -0.008304 0.000344 0.000000 -0.004739 0.000000
# 2 -0.008304 0.041665 -0.003041 0.000000 0.001164 0.000000
# 3 0.000344 -0.003041 0.008772 0.000000 0.003864 0.000000
# 4 0.000000 0.000000 0.000000 0.034197 0.000000 -0.022941
# 5 -0.004739 0.001164 0.003864 0.000000 0.029002 0.000000
# 6 0.000000 0.000000 0.000000 -0.022941 0.000000 -0.030184
#
#
# Mechanical properties :
#
#
# Convention : Reuss Voigt Hill
#
# Bulk Modulus (GPa) = 26.37185 39.32513 32.84849
# Shear Modulus (GPa) = 39.19159 25.34996 32.27078
#
# Velocity S-wave (km/s) = 4.10459 3.30112 3.72458
# Velocity P-wave (km/s) = 5.81380 5.60669 5.71118
#
# Compressibility (1/GPa) = 0.03791923
#
# Stress axis : x y z
#
# Youngs Moduli (GPa) = 105.43544 24.00086 113.99862
#
# Poissons Ratio (x) = 0.19930 -0.03916
# Poissons Ratio (y) = 0.87554 0.34664
# Poissons Ratio (z) = -0.03622 0.07298
#
# Static dielectric constant tensor:
#      x y z
#    x 1.961300 0.000000 0.049980 
#    y 0.000000 1.896260 0.000000 
#    z 0.049980 0.000000 1.954070 
# 
# From -- ./inp_files/2947.got.cif
#   From: 2010.05.17/outbox.cif.g08.bks.cpg/sg9_2_cif.got.tgz:2947.got - 2010.06.03 20:04:27.
