data_PCOD9134870
_publ_section_title
;
Structure prediction by ZEFSAII (Michael W. Deem and Ramdas Pophale) SiO2 
 PCOD9134870
Probable space group: C C
;
_chemical_formula_sum "Si O2"
_cell_formula_units_Z 32
_cell_length_a 24.052145
_cell_length_b 7.511123
_cell_length_c 20.542408
_cell_angle_alpha 90.000000
_cell_angle_beta 158.137329
_cell_angle_gamma 90.000000
_cell_volume 1381.974799
_symmetry_space_group_name_H-M "C C"
_symmetry_group_IT_number 9
_symmetry_cell_setting 'monoclinic'
loop_
_space_group_symop_operation_xyz
x,y,z
x,-y,1/2+z
1/2+x,1/2+y,z
1/2+x,1/2-y,1/2+z
loop_
_atom_site_type_symbol
_atom_site_label
_atom_site_fract_x
_atom_site_fract_y
_atom_site_fract_z
Si Si1 0.981730 0.028795 0.050950
Si Si2 0.171834 0.064020 0.644244
Si Si3 0.522356 0.593557 0.352326
Si Si4 0.967938 0.436127 0.014380
Si Si5 0.202336 0.462099 0.673566
Si Si6 0.996348 0.468678 0.191178
Si Si7 0.649788 0.422616 0.856223
Si Si8 0.678431 0.025269 0.005158
O O1 0.022301 0.234247 0.081492
O O2 0.047436 0.979875 0.191698
O O3 0.054357 0.911631 0.074083
O O4 0.807525 0.020584 0.847483
O O5 0.086157 0.005164 0.486874
O O6 0.241623 0.255755 0.704715
O O7 0.294339 0.937078 0.807881
O O8 0.605901 0.515047 0.380419
O O9 0.573882 0.801728 0.408198
O O10 0.343091 0.578137 0.157480
O O11 0.991556 0.530113 0.110444
O O12 0.041972 0.517652 0.031080
O O13 0.208012 0.556206 0.609261
O O14 0.088114 0.281345 0.287923
O O15 0.086378 0.569227 0.346706
O O16 0.823896 0.437424 0.026053
#
# Coordination Sequence:
#
# PCOD9134870 Si02
#       8
#     4   4   4   4   4   4   4   4
#     4  11  22  41  60  91 122 152 204 241 302 358
#     4  11  22  41  60  91 122 152 204 241 302 358
#     4  10  20  33  58  84 118 154 199 254 290 344
#     4  11  24  37  64  89 119 161 194 250 299 352
#     4  11  24  37  64  89 119 161 194 250 299 352
#     4  10  20  34  56  86 117 152 204 249 294 345
#     4  10  20  33  58  84 118 154 199 254 290 344
#     4  10  20  34  56  86 117 152 204 249 294 345
#
# _framework density 23.155272
#
# number of rings (size 3 to 8) (size 9 to 14) (size 15 to 20)
#    0.000    1.500    2.500    4.500   14.000    0.000 
#    0.000    0.000    0.000    9.000    0.000    0.000 
#    0.000    0.000    0.000    0.000    0.000    0.000 
#
# Total GULP energy -89220.742127 kJ/mol
# GULP energy per Si atom -5576.296383 kJ/mol
# Density = 2.310257 g / cm^3
# Si number density = 23.155272 Si / 1000 Ang^3
#
#
#
# Elastic Constant Matrix: (Units=GPa)
#
#
# Indices 1 2 3 4 5 6 
#
# 1 117.8821 -14.0704 33.9272 0.0000 -24.6028 0.0000
# 2 -14.0704 130.3029 -61.2745 0.0000 -0.6340 0.0000
# 3 33.9272 -61.2745 161.9840 0.0000 -14.0388 0.0000
# 4 0.0000 0.0000 0.0000 21.2549 0.0000 2.3783
# 5 -24.6028 -0.6340 -14.0388 0.0000 59.0201 0.0000
# 6 0.0000 0.0000 0.0000 2.3783 0.0000 15.5824
#
#
#
# Elastic Compliance Matrix: (Units=1/GPa)
#
#
# Indices 1 2 3 4 5 6 
#
# 1 0.009752 0.000317 -0.001603 0.000000 0.003687 0.000000
# 2 0.000317 0.009399 0.003583 0.000000 0.001085 0.000000
# 3 -0.001603 0.003583 0.007974 0.000000 0.001267 0.000000
# 4 0.000000 0.000000 0.000000 0.047865 0.000000 -0.007305
# 5 0.003687 0.001085 0.001267 0.000000 0.018793 0.000000
# 6 0.000000 0.000000 0.000000 -0.007305 0.000000 0.065290
#
#
# Mechanical properties :
#
#
# Convention : Reuss Voigt Hill
#
# Bulk Modulus (GPa) = 31.52641 36.37040 33.94840
# Shear Modulus (GPa) = 30.29344 49.27729 39.78536
#
# Velocity S-wave (km/s) = 3.62093 4.61816 4.14961
# Velocity P-wave (km/s) = 5.57909 6.64664 6.13613
#
# Compressibility (1/GPa) = 0.03171944
#
# Stress axis : x y z
#
# Youngs Moduli (GPa) = 102.54524 106.39607 125.40203
#
# Poissons Ratio (x) = -0.03375 0.20101
# Poissons Ratio (y) = -0.03253 -0.44931
# Poissons Ratio (z) = 0.16437 -0.38122
#
# Static dielectric constant tensor:
#      x y z
#    x 1.884850 0.000000 -0.131910 
#    y 0.000000 1.921360 0.000000 
#    z -0.131910 0.000000 1.643700 
# 
# From -- ./inp_files/34496.got.cif
#   From: 2010.05.17/outbox.cif.g08.bks.cpg/sg9_18_cif.got.tgz:34496.got - 2010.06.03 20:04:27.
