data_PCOD9134745
_publ_section_title
;
Structure prediction by ZEFSAII (Michael W. Deem and Ramdas Pophale) SiO2 
 PCOD9134745
Probable space group: C C
;
_chemical_formula_sum "Si O2"
_cell_formula_units_Z 28
_cell_length_a 11.736366
_cell_length_b 15.175078
_cell_length_c 7.623271
_cell_angle_alpha 90.000000
_cell_angle_beta 118.390122
_cell_angle_gamma 90.000000
_cell_volume 1194.416003
_symmetry_space_group_name_H-M "C C"
_symmetry_group_IT_number 9
_symmetry_cell_setting 'monoclinic'
loop_
_space_group_symop_operation_xyz
x,y,z
x,-y,1/2+z
1/2+x,1/2+y,z
1/2+x,1/2-y,1/2+z
loop_
_atom_site_type_symbol
_atom_site_label
_atom_site_fract_x
_atom_site_fract_y
_atom_site_fract_z
Si Si1 0.163630 0.468554 0.000000
Si Si2 0.036483 0.609486 0.080726
Si Si3 0.273438 0.693807 0.740330
Si Si4 0.910760 0.911057 0.762699
Si Si5 0.252554 0.151814 0.951657
Si Si6 0.730268 0.245585 0.101573
Si Si7 0.521038 0.421077 0.488747
O O1 0.041155 0.530029 0.947018
O O2 0.180052 0.391084 0.154333
O O3 0.289436 0.531949 0.093278
O O4 0.141946 0.421268 0.801080
O O5 0.094377 0.695922 0.033540
O O6 0.899895 0.621225 0.069543
O O7 0.244398 0.758318 0.559007
O O8 0.414635 0.647591 0.832110
O O9 0.257962 0.744499 0.913759
O O10 0.845088 0.818677 0.760137
O O11 0.018090 0.896319 0.691008
O O12 0.971272 0.978203 0.944282
O O13 0.227594 0.170850 0.727317
O O14 0.149866 0.089213 0.971008
#
# Coordination Sequence:
#
# PCOD9134745 Si02
#       7
#     4   4   4   4   4   4   4
#     4  10  19  40  68  92 118 164 221 254 295 369
#     4  11  22  39  64  94 127 164 209 257 306 372
#     4  10  22  41  68  90 118 165 213 257 301 368
#     4   9  19  39  67  89 113 162 216 254 291 367
#     4  12  25  40  60  96 135 159 193 261 325 366
#     4  10  21  42  65  92 118 166 214 252 306 364
#     4  10  22  39  62  93 121 160 208 251 308 364
#
# _framework density 23.442419000000001
#
# number of rings (size 3 to 8) (size 9 to 14) (size 15 to 20)
#    0.000    1.714    1.429    5.143    2.000    3.429 
#    5.143    0.000    0.000    0.000    0.000    0.000 
#    0.000    0.000    0.000    0.000    0.000    0.000 
#
# Total GULP energy -78217.012841 kJ/mol
# GULP energy per Si atom -5586.929489 kJ/mol
# Density = 2.338906 g / cm^3
# Si number density = 23.442419 Si / 1000 Ang^3
#
#
#
# Elastic Constant Matrix: (Units=GPa)
#
#
# Indices 1 2 3 4 5 6 
#
# 1 128.8814 14.3615 3.2430 0.0000 0.6773 0.0000
# 2 14.3615 34.7418 1.4227 0.0000 3.6998 0.0000
# 3 3.2430 1.4227 37.8492 0.0000 -14.9113 0.0000
# 4 0.0000 0.0000 0.0000 -69.4521 0.0000 -90.4531
# 5 0.6773 3.6998 -14.9113 0.0000 28.5906 0.0000
# 6 0.0000 0.0000 0.0000 -90.4531 0.0000 -46.1411
#
#
#
# Elastic Compliance Matrix: (Units=1/GPa)
#
#
# Indices 1 2 3 4 5 6 
#
# 1 0.008146 -0.003335 -0.000602 0.000000 -0.000076 0.000000
# 2 -0.003335 0.030873 -0.003043 0.000000 -0.005503 0.000000
# 3 -0.000602 -0.003043 0.033665 0.000000 0.017966 0.000000
# 4 0.000000 0.000000 0.000000 0.009271 0.000000 -0.018174
# 5 -0.000076 -0.005503 0.017966 0.000000 0.045060 0.000000
# 6 0.000000 0.000000 0.000000 -0.018174 0.000000 0.013954
#
#
# Mechanical properties :
#
#
# Convention : Reuss Voigt Hill
#
# Bulk Modulus (GPa) = 17.02888 26.61408 21.82148
# Shear Modulus (GPa) = 28.65277 -5.23750 11.70764
#
# Velocity S-wave (km/s) = 3.49988 -1.49635 2.23720
# Velocity P-wave (km/s) = 4.85923 2.89693 4.00027
#
# Compressibility (1/GPa) = 0.05872376
#
# Stress axis : x y z
#
# Youngs Moduli (GPa) = 122.75624 32.39088 29.70484
#
# Poissons Ratio (x) = 0.10801 0.01790
# Poissons Ratio (y) = 0.40936 0.09039
# Poissons Ratio (z) = 0.07395 0.09856
#
# Static dielectric constant tensor:
#      x y z
#    x 1.886840 0.000000 -0.008400 
#    y 0.000000 1.930740 0.000000 
#    z -0.008400 0.000000 1.947740 
# 
# From -- ./inp_files/7303.got.cif
#   From: 2010.05.17/outbox.cif.g08.bks.cpg/sg9_4_cif.got.tgz:7303.got - 2010.06.03 20:04:27.
