data_PCOD9134296
_publ_section_title
;
Structure prediction by ZEFSAII (Michael W. Deem and Ramdas Pophale) SiO2 
 PCOD9134296
Probable space group: C C
;
_chemical_formula_sum "Si O2"
_cell_formula_units_Z 28
_cell_length_a 18.489347
_cell_length_b 8.481456
_cell_length_c 14.940967
_cell_angle_alpha 90.000000
_cell_angle_beta 152.025906
_cell_angle_gamma 90.000000
_cell_volume 1099.032348
_symmetry_space_group_name_H-M "C C"
_symmetry_group_IT_number 9
_symmetry_cell_setting 'monoclinic'
loop_
_space_group_symop_operation_xyz
x,y,z
x,-y,1/2+z
1/2+x,1/2+y,z
1/2+x,1/2-y,1/2+z
loop_
_atom_site_type_symbol
_atom_site_label
_atom_site_fract_x
_atom_site_fract_y
_atom_site_fract_z
Si Si1 0.336870 0.397506 0.445920
Si Si2 0.096845 0.117776 0.671185
Si Si3 0.524998 0.534998 0.898846
Si Si4 0.410262 0.091320 0.940162
Si Si5 0.084672 0.673283 0.804191
Si Si6 0.319884 0.213945 0.248182
Si Si7 0.369704 0.207620 0.703854
O O1 0.460899 0.540002 0.581496
O O2 0.190976 0.420521 0.351339
O O3 0.445066 0.254844 0.599737
O O4 0.277798 0.334142 0.284303
O O5 0.057534 0.302155 0.622505
O O6 0.281231 0.091760 0.877654
O O7 0.063087 0.024646 0.541478
O O8 0.407900 0.678649 0.775076
O O9 0.437163 0.384550 0.763734
O O10 0.686121 0.617718 0.051415
O O11 0.343897 0.186865 0.780650
O O12 0.422296 0.919691 0.909434
O O13 0.000943 0.600710 0.800343
O O14 0.207890 0.798895 0.977524
#
# Coordination Sequence:
#
# PCOD9134296 Si02
#       7
#     4   4   4   4   4   4   4
#     4  10  20  36  56  85 111 148 195 232 287 341
#     4   9  19  33  52  81 114 139 182 242 284 331
#     4   9  19  33  52  81 114 139 182 242 284 331
#     4  10  19  33  56  83 110 142 181 240 297 336
#     4  10  20  34  58  76 112 156 190 228 266 360
#     4  10  19  33  56  83 110 142 181 240 297 336
#     4  10  20  36  56  85 111 148 195 232 287 341
#
# _framework density 25.476956000000001
#
# number of rings (size 3 to 8) (size 9 to 14) (size 15 to 20)
#    0.000    2.286    0.000    5.143    0.000    5.714 
#    0.000    0.000    0.000   30.857    0.000    0.000 
#    0.000    0.000    0.000    0.000    0.000    0.000 
#
# Total GULP energy -78037.248012 kJ/mol
# GULP energy per Si atom -5574.089144 kJ/mol
# Density = 2.541897 g / cm^3
# Si number density = 25.476956 Si / 1000 Ang^3
#
#
#
# Elastic Constant Matrix: (Units=GPa)
#
#
# Indices 1 2 3 4 5 6 
#
# 1 66.9718 20.7521 16.2780 0.0000 36.4899 0.0000
# 2 20.7521 109.0679 14.6329 0.0000 16.4985 0.0000
# 3 16.2780 14.6329 66.4989 0.0000 16.9621 0.0000
# 4 0.0000 0.0000 0.0000 40.7089 0.0000 8.1654
# 5 36.4899 16.4985 16.9621 0.0000 42.4890 0.0000
# 6 0.0000 0.0000 0.0000 8.1654 0.0000 26.2546
#
#
#
# Elastic Compliance Matrix: (Units=1/GPa)
#
#
# Indices 1 2 3 4 5 6 
#
# 1 0.028419 -0.001777 -0.000575 0.000000 -0.023487 0.000000
# 2 -0.001777 0.009956 -0.001290 0.000000 -0.001824 0.000000
# 3 -0.000575 -0.001290 0.016933 0.000000 -0.005765 0.000000
# 4 0.000000 0.000000 0.000000 0.026199 0.000000 -0.008148
# 5 -0.023487 -0.001824 -0.005765 0.000000 0.046716 0.000000
# 6 0.000000 0.000000 0.000000 -0.008148 0.000000 0.040623
#
#
# Mechanical properties :
#
#
# Convention : Reuss Voigt Hill
#
# Bulk Modulus (GPa) = 20.82319 38.42941 29.62630
# Shear Modulus (GPa) = 26.02293 34.61553 30.31923
#
# Velocity S-wave (km/s) = 3.19945 3.69005 3.45347
# Velocity P-wave (km/s) = 4.67330 5.76819 5.24937
#
# Compressibility (1/GPa) = 0.04802338
#
# Stress axis : x y z
#
# Youngs Moduli (GPa) = 35.18773 100.44342 59.05613
#
# Poissons Ratio (x) = 0.17852 0.03393
# Poissons Ratio (y) = 0.06254 0.07620
# Poissons Ratio (z) = 0.02022 0.12961
#
# Static dielectric constant tensor:
#      x y z
#    x 2.148140 0.000000 0.007410 
#    y 0.000000 2.032390 0.000000 
#    z 0.007410 0.000000 2.068680 
# 
# From -- ./inp_files/11255.got.cif
#   From: 2010.05.17/outbox.cif.g08.bks.cpg/sg9_6_cif.got.tgz:11255.got - 2010.06.03 20:04:27.
