data_PCOD9134847
_publ_section_title
;
Structure prediction by ZEFSAII (Michael W. Deem and Ramdas Pophale) SiO2 
 PCOD9134847
Probable space group: C C
;
_chemical_formula_sum "Si O2"
_cell_formula_units_Z 32
_cell_length_a 23.532374
_cell_length_b 11.539194
_cell_length_c 13.638885
_cell_angle_alpha 90.000000
_cell_angle_beta 162.530588
_cell_angle_gamma 90.000000
_cell_volume 1111.797926
_symmetry_space_group_name_H-M "C C"
_symmetry_group_IT_number 9
_symmetry_cell_setting 'monoclinic'
loop_
_space_group_symop_operation_xyz
x,y,z
x,-y,1/2+z
1/2+x,1/2+y,z
1/2+x,1/2-y,1/2+z
loop_
_atom_site_type_symbol
_atom_site_label
_atom_site_fract_x
_atom_site_fract_y
_atom_site_fract_z
Si Si1 0.730160 0.440424 0.127690
Si Si2 0.714811 0.745072 0.277639
Si Si3 0.018774 0.004754 0.452175
Si Si4 0.962344 0.765297 0.115380
Si Si5 0.713420 0.937454 0.589988
Si Si6 0.459400 0.177525 0.521147
Si Si7 0.216846 0.230127 0.872658
Si Si8 0.940314 0.615672 0.792750
O O1 0.839654 0.337062 0.363754
O O2 0.850460 0.556092 0.344306
O O3 0.760523 0.422178 0.061894
O O4 0.532523 0.462743 0.858869
O O5 0.821667 0.768848 0.351028
O O6 0.882449 0.726515 0.633631
O O7 0.631583 0.614219 0.144624
O O8 0.559609 0.817292 0.080843
O O9 0.128225 0.110450 0.686249
O O10 0.823439 0.987587 0.189870
O O11 0.865931 0.880857 0.913950
O O12 0.169859 0.765918 0.410117
O O13 0.923063 0.750291 0.165619
O O14 0.542245 0.970884 0.382500
O O15 0.627755 0.838373 0.378050
O O16 0.095365 0.334869 0.624083
#
# Coordination Sequence:
#
# PCOD9134847 Si02
#       8
#     4   4   4   4   4   4   4   4
#     4   9  17  29  46  69  96 124 155 194 239 284
#     4  10  20  32  48  72  99 128 163 200 239 284
#     4   9  17  29  46  69  96 124 155 194 239 284
#     4   8  13  23  41  63  86 111 141 181 226 269
#     4   9  17  30  49  72  95 121 156 197 240 285
#     4  10  20  32  48  72  99 128 163 200 239 284
#     4   8  13  23  41  63  86 111 141 181 226 269
#     4   9  17  30  49  72  95 121 156 197 240 285
#
# _framework density 28.782208000000001
#
# number of rings (size 3 to 8) (size 9 to 14) (size 15 to 20)
#    0.000    3.000    0.000    2.250    0.000    4.000 
#    0.000    0.000    0.000    4.500    0.000   17.500 
#    0.000    0.000    0.000    0.000    0.000    0.000 
#
# Total GULP energy -89413.851023 kJ/mol
# GULP energy per Si atom -5588.365689 kJ/mol
# Density = 2.871670 g / cm^3
# Si number density = 28.782208 Si / 1000 Ang^3
#
#
#
# Elastic Constant Matrix: (Units=GPa)
#
#
# Indices 1 2 3 4 5 6 
#
# 1 265.1684 31.6916 59.3546 0.0000 55.6641 0.0000
# 2 31.6916 56.5284 15.6578 0.0000 4.6905 0.0000
# 3 59.3546 15.6578 75.3914 0.0000 31.7360 0.0000
# 4 0.0000 0.0000 0.0000 38.7280 0.0000 6.4840
# 5 55.6641 4.6905 31.7360 0.0000 49.6228 0.0000
# 6 0.0000 0.0000 0.0000 6.4840 0.0000 33.6882
#
#
#
# Elastic Compliance Matrix: (Units=1/GPa)
#
#
# Indices 1 2 3 4 5 6 
#
# 1 0.005428 -0.002141 -0.001849 0.000000 -0.004705 0.000000
# 2 -0.002141 0.019650 -0.003591 0.000000 0.002841 0.000000
# 3 -0.001849 -0.003591 0.019773 0.000000 -0.010232 0.000000
# 4 0.000000 0.000000 0.000000 0.026681 0.000000 -0.005135
# 5 -0.004705 0.002841 -0.010232 0.000000 0.031705 0.000000
# 6 0.000000 0.000000 0.000000 -0.005135 0.000000 0.030672
#
#
# Mechanical properties :
#
#
# Convention : Reuss Voigt Hill
#
# Bulk Modulus (GPa) = 33.68279 67.83290 50.75784
# Shear Modulus (GPa) = 31.45303 43.76674 37.60989
#
# Velocity S-wave (km/s) = 3.30933 3.90374 3.61876
# Velocity P-wave (km/s) = 5.13130 6.62855 5.92739
#
# Compressibility (1/GPa) = 0.02968876
#
# Stress axis : x y z
#
# Youngs Moduli (GPa) = 184.21387 50.89177 50.57470
#
# Poissons Ratio (x) = 0.10896 0.09350
# Poissons Ratio (y) = 0.39439 0.18163
# Poissons Ratio (z) = 0.34055 0.18277
#
# Static dielectric constant tensor:
#      x y z
#    x 2.307590 0.000000 0.060270 
#    y 0.000000 2.206200 0.000000 
#    z 0.060270 0.000000 2.273840 
# 
# From -- ./inp_files/16201.got.cif
#   From: 2010.05.17/outbox.cif.g08.bks.cpg/sg9_9_cif.got.tgz:16201.got - 2010.06.03 20:04:27.
