data_PCOD9134273
_publ_section_title
;
Structure prediction by ZEFSAII (Michael W. Deem and Ramdas Pophale) SiO2 
 PCOD9134273
Probable space group: C C
;
_chemical_formula_sum "Si O2"
_cell_formula_units_Z 32
_cell_length_a 23.873253
_cell_length_b 9.877635
_cell_length_c 5.617838
_cell_angle_alpha 90.000000
_cell_angle_beta 104.978751
_cell_angle_gamma 90.000000
_cell_volume 1279.736890
_symmetry_space_group_name_H-M "C C"
_symmetry_group_IT_number 9
_symmetry_cell_setting 'monoclinic'
loop_
_space_group_symop_operation_xyz
x,y,z
x,-y,1/2+z
1/2+x,1/2+y,z
1/2+x,1/2-y,1/2+z
loop_
_atom_site_type_symbol
_atom_site_label
_atom_site_fract_x
_atom_site_fract_y
_atom_site_fract_z
Si Si1 0.992870 0.206658 0.189440
Si Si2 0.372891 0.073078 0.548645
Si Si3 0.321233 0.648443 0.505750
Si Si4 0.116710 0.915410 0.859864
Si Si5 0.821147 0.830041 0.504813
Si Si6 0.952226 0.781143 0.144269
Si Si7 0.732916 0.568621 0.353006
Si Si8 0.027546 0.505244 0.223598
O O1 0.970248 0.151472 0.416210
O O2 0.061869 0.181180 0.274256
O O3 0.986290 0.372074 0.178170
O O4 0.972373 0.151849 0.912071
O O5 0.378888 0.236613 0.563265
O O6 0.301799 0.085597 0.461683
O O7 0.387317 0.999731 0.314749
O O8 0.336459 0.489673 0.523016
O O9 0.289533 0.682598 0.716053
O O10 0.382590 0.726203 0.572766
O O11 0.290888 0.687636 0.227061
O O12 0.178317 0.840873 0.876734
O O13 0.113712 0.019152 0.625192
O O14 0.987632 0.639121 0.179673
O O15 0.724300 0.458922 0.561594
O O16 0.060278 0.500092 0.509559
#
# Coordination Sequence:
#
# PCOD9134273 Si02
#       8
#     4   4   4   4   4   4   4   4
#     4  10  19  33  50  75  99 138 176 228 266 315
#     4  10  19  35  58  87 110 141 179 220 286 341
#     4  10  21  38  55  76 104 146 184 231 272 318
#     4  10  19  33  47  78 109 139 176 216 275 322
#     4  10  21  38  55  79 105 141 180 231 277 321
#     4  10  19  35  52  73  96 139 189 215 268 312
#     4   8  16  30  52  75 109 136 168 217 264 337
#     4   8  16  30  49  67  90 122 172 216 256 300
#
# _framework density 25.005140000000001
#
# number of rings (size 3 to 8) (size 9 to 14) (size 15 to 20)
#    0.000    2.500    0.000    2.250    0.000    0.000 
#   13.500   11.250    0.000    0.000   19.500    0.000 
#    0.000    0.000    0.000    0.000    0.000    0.000 
#
# Total GULP energy -89073.776505 kJ/mol
# GULP energy per Si atom -5567.111032 kJ/mol
# Density = 2.494823 g / cm^3
# Si number density = 25.005140 Si / 1000 Ang^3
#
#
#
# Elastic Constant Matrix: (Units=GPa)
#
#
# Indices 1 2 3 4 5 6 
#
# 1 62.7530 -17.5455 43.5045 0.0000 -6.7714 0.0000
# 2 -17.5455 105.5812 34.6862 0.0000 -11.5712 0.0000
# 3 43.5045 34.6862 288.3038 0.0000 -55.5070 0.0000
# 4 0.0000 0.0000 0.0000 18.1207 0.0000 0.8962
# 5 -6.7714 -11.5712 -55.5070 0.0000 38.3804 0.0000
# 6 0.0000 0.0000 0.0000 0.8962 0.0000 8.9578
#
#
#
# Elastic Compliance Matrix: (Units=1/GPa)
#
#
# Indices 1 2 3 4 5 6 
#
# 1 0.019584 0.004382 -0.003552 0.000000 -0.000360 0.000000
# 2 0.004382 0.010926 -0.001653 0.000000 0.001677 0.000000
# 3 -0.003552 -0.001653 0.005525 0.000000 0.006866 0.000000
# 4 0.000000 0.000000 0.000000 0.055460 0.000000 -0.005549
# 5 -0.000360 0.001677 0.006866 0.000000 0.036427 0.000000
# 6 0.000000 0.000000 0.000000 -0.005549 0.000000 0.112190
#
#
# Mechanical properties :
#
#
# Convention : Reuss Voigt Hill
#
# Bulk Modulus (GPa) = 29.07832 64.21426 46.64629
# Shear Modulus (GPa) = 19.74556 39.49130 29.61843
#
# Velocity S-wave (km/s) = 2.81314 3.97839 3.44538
# Velocity P-wave (km/s) = 4.71231 6.84394 5.87560
#
# Compressibility (1/GPa) = 0.03438988
#
# Stress axis : x y z
#
# Youngs Moduli (GPa) = 51.06188 91.52183 180.98664
#
# Poissons Ratio (x) = -0.40103 0.64283
# Poissons Ratio (y) = -0.22374 0.29916
# Poissons Ratio (z) = 0.18136 0.15128
#
# Static dielectric constant tensor:
#      x y z
#    x 2.047240 0.000000 0.037680 
#    y 0.000000 2.188790 0.000000 
#    z 0.037680 0.000000 2.072720 
# 
# From -- ./inp_files/3298.got.cif
#   From: 2010.05.17/outbox.cif.g08.bks.cpg/sg9_2_cif.got.tgz:3298.got - 2010.06.03 20:04:27.
