data_PCOD9134509
_publ_section_title
;
Structure prediction by ZEFSAII (Michael W. Deem and Ramdas Pophale) SiO2 
 PCOD9134509
Probable space group: C C
;
_chemical_formula_sum "Si O2"
_cell_formula_units_Z 32
_cell_length_a 23.646628
_cell_length_b 9.175123
_cell_length_c 11.833870
_cell_angle_alpha 90.000000
_cell_angle_beta 33.680862
_cell_angle_gamma 90.000000
_cell_volume 1423.841165
_symmetry_space_group_name_H-M "C C"
_symmetry_group_IT_number 9
_symmetry_cell_setting 'monoclinic'
loop_
_space_group_symop_operation_xyz
x,y,z
x,-y,1/2+z
1/2+x,1/2+y,z
1/2+x,1/2-y,1/2+z
loop_
_atom_site_type_symbol
_atom_site_label
_atom_site_fract_x
_atom_site_fract_y
_atom_site_fract_z
Si Si1 0.056420 0.086648 0.809940
Si Si2 0.184758 0.602621 0.491021
Si Si3 0.542659 0.087684 0.925777
Si Si4 0.123066 0.718851 0.380174
Si Si5 0.479469 0.642874 0.295505
Si Si6 0.339654 0.202709 0.211061
Si Si7 0.376164 0.509677 0.777074
Si Si8 0.122203 0.720905 0.016443
O O1 0.045444 0.217140 0.737882
O O2 0.136620 0.152584 0.767066
O O3 0.568821 0.558046 0.214654
O O4 0.960088 0.041054 0.046090
O O5 0.280072 0.593223 0.414580
O O6 0.159211 0.440698 0.487734
O O7 0.204243 0.693573 0.344630
O O8 0.089482 0.640938 0.729255
O O9 0.420055 0.080481 0.117837
O O10 0.574107 0.201713 0.972466
O O11 0.595489 0.932927 0.865131
O O12 0.025133 0.758461 0.620440
O O13 0.397569 0.721979 0.509494
O O14 0.419457 0.515142 0.328501
O O15 0.342256 0.326481 0.304482
O O16 0.223641 0.179072 0.364319
#
# Coordination Sequence:
#
# PCOD9134509 Si02
#       8
#     4   4   4   4   4   4   4   4
#     4  10  20  38  57  85 125 158 196 255 308 358
#     4  10  19  37  61  89 118 156 207 252 301 364
#     4  11  20  36  64  88 124 161 198 263 306 356
#     4  10  21  37  61  89 122 158 203 252 310 369
#     4  10  19  37  61  81 122 155 205 253 301 363
#     4  10  20  36  59  88 116 158 203 244 307 362
#     4   9  20  35  60  89 114 160 208 249 296 361
#     4  10  21  36  59  89 121 158 206 244 305 375
#
# _framework density 22.474416999999999
#
# number of rings (size 3 to 8) (size 9 to 14) (size 15 to 20)
#    0.000    2.000    2.500    1.500    0.000    1.000 
#    2.250    2.500    8.250    0.000    0.000    0.000 
#    0.000    0.000    0.000    0.000    0.000    0.000 
#
# Total GULP energy -89162.177295 kJ/mol
# GULP energy per Si atom -5572.636081 kJ/mol
# Density = 2.242326 g / cm^3
# Si number density = 22.474417 Si / 1000 Ang^3
#
#
#
# Elastic Constant Matrix: (Units=GPa)
#
#
# Indices 1 2 3 4 5 6 
#
# 1 100.0574 20.6967 19.0208 0.0000 5.3923 0.0000
# 2 20.6967 38.6636 4.2796 0.0000 3.0843 0.0000
# 3 19.0208 4.2796 31.5006 0.0000 -2.8521 0.0000
# 4 0.0000 0.0000 0.0000 26.0548 0.0000 2.7222
# 5 5.3923 3.0843 -2.8521 0.0000 32.2045 0.0000
# 6 0.0000 0.0000 0.0000 2.7222 0.0000 21.8804
#
#
#
# Elastic Compliance Matrix: (Units=1/GPa)
#
#
# Indices 1 2 3 4 5 6 
#
# 1 0.012656 -0.005820 -0.007049 0.000000 -0.002186 0.000000
# 2 -0.005820 0.029198 -0.000622 0.000000 -0.001877 0.000000
# 3 -0.007049 -0.000622 0.036491 0.000000 0.004472 0.000000
# 4 0.000000 0.000000 0.000000 0.038886 0.000000 -0.004838
# 5 -0.002186 -0.001877 0.004472 0.000000 0.031993 0.000000
# 6 0.000000 0.000000 0.000000 -0.004838 0.000000 0.046305
#
#
# Mechanical properties :
#
#
# Convention : Reuss Voigt Hill
#
# Bulk Modulus (GPa) = 19.46960 28.69065 24.08012
# Shear Modulus (GPa) = 20.86513 24.44290 22.65401
#
# Velocity S-wave (km/s) = 3.05026 3.30144 3.17833
# Velocity P-wave (km/s) = 4.59209 5.22745 4.92004
#
# Compressibility (1/GPa) = 0.05136212
#
# Stress axis : x y z
#
# Youngs Moduli (GPa) = 79.01377 34.24856 27.40377
#
# Poissons Ratio (x) = 0.19933 0.19318
# Poissons Ratio (y) = 0.45987 0.01706
# Poissons Ratio (z) = 0.55699 0.02132
#
# Static dielectric constant tensor:
#      x y z
#    x 1.876810 0.000000 -0.023740 
#    y 0.000000 1.874940 0.000000 
#    z -0.023740 0.000000 1.827680 
# 
# From -- ./inp_files/18061.got.cif
#   From: 2010.05.17/outbox.cif.g08.bks.cpg/sg9_10_cif.got.tgz:18061.got - 2010.06.03 20:04:27.
