data_PCOD9134924
_publ_section_title
;
Structure prediction by ZEFSAII (Michael W. Deem and Ramdas Pophale) SiO2 
 PCOD9134924
Probable space group: C C
;
_chemical_formula_sum "Si O2"
_cell_formula_units_Z 24
_cell_length_a 24.730791
_cell_length_b 8.384123
_cell_length_c 10.343477
_cell_angle_alpha 90.000000
_cell_angle_beta 155.276331
_cell_angle_gamma 90.000000
_cell_volume 896.995371
_symmetry_space_group_name_H-M "C C"
_symmetry_group_IT_number 9
_symmetry_cell_setting 'monoclinic'
loop_
_space_group_symop_operation_xyz
x,y,z
x,-y,1/2+z
1/2+x,1/2+y,z
1/2+x,1/2-y,1/2+z
loop_
_atom_site_type_symbol
_atom_site_label
_atom_site_fract_x
_atom_site_fract_y
_atom_site_fract_z
Si Si1 0.011290 0.186455 0.389620
Si Si2 0.810948 0.683815 0.657586
Si Si3 0.565935 0.340738 0.459123
Si Si4 0.255370 0.482259 0.069174
Si Si5 0.748744 0.350924 0.603226
Si Si6 0.088042 0.498537 0.949023
O O1 0.140075 0.166663 0.756171
O O2 0.042233 0.320113 0.352087
O O3 0.984464 0.002617 0.297049
O O4 0.903074 0.279163 0.236886
O O5 0.824633 0.853339 0.758261
O O6 0.831371 0.510369 0.762339
O O7 0.661014 0.673930 0.289023
O O8 0.666644 0.364879 0.557527
O O9 0.509630 0.162006 0.319706
O O10 0.325764 0.315066 0.249361
O O11 0.137804 0.465951 0.913820
O O12 0.202579 0.499193 0.808163
#
# Coordination Sequence:
#
# PCOD9134924 Si02
#       6
#     4   4   4   4   4   4
#     4  10  20  35  56  85 111 148 198 233 285 354
#     4  10  20  35  56  85 111 148 198 233 285 354
#     4   9  19  38  55  77 117 150 182 243 297 332
#     4   9  18  35  58  79 112 152 185 231 293 337
#     4   9  19  38  55  77 117 150 182 243 297 332
#     4   9  18  35  58  79 112 152 185 231 293 337
#
# _framework density 26.755990000000001
#
# number of rings (size 3 to 8) (size 9 to 14) (size 15 to 20)
#    0.000    2.667    0.000    1.000    0.000    1.333 
#   18.000    0.000    0.000    0.000    0.000    0.000 
#    0.000    0.000    0.000    0.000    0.000    0.000 
#
# Total GULP energy -67009.898112 kJ/mol
# GULP energy per Si atom -5584.158176 kJ/mol
# Density = 2.669509 g / cm^3
# Si number density = 26.755990 Si / 1000 Ang^3
#
#
#
# Elastic Constant Matrix: (Units=GPa)
#
#
# Indices 1 2 3 4 5 6 
#
# 1 51.3964 40.2679 10.9653 0.0000 -3.8862 0.0000
# 2 40.2679 232.0993 55.1908 0.0000 -13.9866 0.0000
# 3 10.9653 55.1908 83.8663 0.0000 -23.9686 0.0000
# 4 0.0000 0.0000 0.0000 50.5112 0.0000 9.0042
# 5 -3.8862 -13.9866 -23.9686 0.0000 23.9334 0.0000
# 6 0.0000 0.0000 0.0000 9.0042 0.0000 36.0484
#
#
#
# Elastic Compliance Matrix: (Units=1/GPa)
#
#
# Indices 1 2 3 4 5 6 
#
# 1 0.022564 -0.003822 -0.000037 0.000000 0.001394 0.000000
# 2 -0.003822 0.005760 -0.003511 0.000000 -0.000771 0.000000
# 3 -0.000037 -0.003511 0.019125 0.000000 0.017095 0.000000
# 4 0.000000 0.000000 0.000000 0.020720 0.000000 -0.005176
# 5 0.001394 -0.000771 0.017095 0.000000 0.058679 0.000000
# 6 0.000000 0.000000 0.000000 -0.005176 0.000000 0.029033
#
#
# Mechanical properties :
#
#
# Convention : Reuss Voigt Hill
#
# Bulk Modulus (GPa) = 30.57225 64.46778 47.52002
# Shear Modulus (GPa) = 27.54448 39.49446 33.51947
#
# Velocity S-wave (km/s) = 3.21202 3.84617 3.54331
# Velocity P-wave (km/s) = 5.02068 6.62352 5.87700
#
# Compressibility (1/GPa) = 0.03270940
#
# Stress axis : x y z
#
# Youngs Moduli (GPa) = 44.31770 173.60879 52.28795
#
# Poissons Ratio (x) = 0.66355 0.00192
# Poissons Ratio (y) = 0.16939 0.18359
# Poissons Ratio (z) = 0.00163 0.60957
#
# Static dielectric constant tensor:
#      x y z
#    x 2.081220 0.000000 0.016870 
#    y 0.000000 2.352990 0.000000 
#    z 0.016870 0.000000 2.172040 
# 
# From -- ./inp_files/15870.got.cif
#   From: 2010.05.17/outbox.cif.g08.bks.cpg/sg9_8_cif.got.tgz:15870.got - 2010.06.03 20:04:27.
