data_PCOD9134210
_publ_section_title
;
Structure prediction by ZEFSAII (Michael W. Deem and Ramdas Pophale) SiO2 
 PCOD9134210
Probable space group: C C
;
_chemical_formula_sum "Si O2"
_cell_formula_units_Z 32
_cell_length_a 5.247894
_cell_length_b 23.076904
_cell_length_c 11.663079
_cell_angle_alpha 90.000000
_cell_angle_beta 56.784149
_cell_angle_gamma 90.000000
_cell_volume 1181.681179
_symmetry_space_group_name_H-M "C C"
_symmetry_group_IT_number 9
_symmetry_cell_setting 'monoclinic'
loop_
_space_group_symop_operation_xyz
x,y,z
x,-y,1/2+z
1/2+x,1/2+y,z
1/2+x,1/2-y,1/2+z
loop_
_atom_site_type_symbol
_atom_site_label
_atom_site_fract_x
_atom_site_fract_y
_atom_site_fract_z
Si Si1 0.144500 0.888649 0.965560
Si Si2 0.184590 0.929271 0.652525
Si Si3 0.541228 0.018867 0.268756
Si Si4 0.794348 0.400738 0.370336
Si Si5 0.107736 0.711478 0.276626
Si Si6 0.547099 0.334743 0.232831
Si Si7 0.726689 0.804881 0.999830
Si Si8 0.764584 0.688590 0.047331
O O1 0.273960 0.951423 0.911790
O O2 0.406176 0.844154 0.858358
O O3 0.023882 0.869342 0.119483
O O4 0.872214 0.867977 0.951828
O O5 0.853109 0.958686 0.750474
O O6 0.262833 0.860089 0.646323
O O7 0.441828 0.959299 0.666048
O O8 0.183944 0.930946 0.514345
O O9 0.512657 0.949703 0.267156
O O10 0.542885 0.378321 0.342618
O O11 0.926513 0.342921 0.399274
O O12 0.934693 0.768897 0.278347
O O13 0.225671 0.724730 0.376206
O O14 0.394535 0.695753 0.124432
O O15 0.908512 0.318282 0.136182
O O16 0.875617 0.753682 0.040082
#
# Coordination Sequence:
#
# PCOD9134210 Si02
#       8
#     4   4   4   4   4   4   4   4
#     4  11  24  38  67 104 134 185 230 297 356 422
#     4  10  25  48  72 104 130 195 237 291 353 419
#     4  12  26  47  75 101 144 190 243 292 350 424
#     4  10  24  47  70  99 142 184 239 292 349 427
#     4  10  18  41  65  91 139 175 231 283 354 423
#     4  10  23  41  63 100 138 178 229 297 353 420
#     4  10  21  39  66  97 137 177 228 292 356 416
#     4   9  19  43  66  96 132 186 231 286 351 419
#
# _framework density 27.080062999999999
#
# number of rings (size 3 to 8) (size 9 to 14) (size 15 to 20)
#    0.750    1.000    2.500    0.750    3.500    5.000 
#    6.750    0.000    0.000    0.000    0.000    0.000 
#    0.000    0.000    0.000    0.000    0.000    0.000 
#
# Total GULP energy -89170.925511 kJ/mol
# GULP energy per Si atom -5573.182844 kJ/mol
# Density = 2.701843 g / cm^3
# Si number density = 27.080063 Si / 1000 Ang^3
#
#
#
# Elastic Constant Matrix: (Units=GPa)
#
#
# Indices 1 2 3 4 5 6 
#
# 1 64.7625 24.8383 10.2223 0.0000 16.8502 0.0000
# 2 24.8383 160.6218 25.0182 0.0000 5.3329 0.0000
# 3 10.2223 25.0182 102.2886 0.0000 41.3725 0.0000
# 4 0.0000 0.0000 0.0000 29.2076 0.0000 -4.8645
# 5 16.8502 5.3329 41.3725 0.0000 45.6557 0.0000
# 6 0.0000 0.0000 0.0000 -4.8645 0.0000 18.1039
#
#
#
# Elastic Compliance Matrix: (Units=1/GPa)
#
#
# Indices 1 2 3 4 5 6 
#
# 1 0.018428 -0.002930 0.002348 0.000000 -0.008587 0.000000
# 2 -0.002930 0.006972 -0.002400 0.000000 0.002442 0.000000
# 3 0.002348 -0.002400 0.016363 0.000000 -0.015414 0.000000
# 4 0.000000 0.000000 0.000000 0.035842 0.000000 0.009631
# 5 -0.008587 0.002442 -0.015414 0.000000 0.038755 0.000000
# 6 0.000000 0.000000 0.000000 0.009631 0.000000 0.057824
#
#
# Mechanical properties :
#
#
# Convention : Reuss Voigt Hill
#
# Bulk Modulus (GPa) = 27.93372 49.75896 38.84634
# Shear Modulus (GPa) = 26.03052 36.43306 31.23179
#
# Velocity S-wave (km/s) = 3.10376 3.67193 3.39973
# Velocity P-wave (km/s) = 4.81477 6.03258 5.45775
#
# Compressibility (1/GPa) = 0.03579903
#
# Stress axis : x y z
#
# Youngs Moduli (GPa) = 54.26379 143.43688 61.11247
#
# Poissons Ratio (x) = 0.42033 -0.14351
# Poissons Ratio (y) = 0.15902 0.14667
# Poissons Ratio (z) = -0.12743 0.34426
#
# Static dielectric constant tensor:
#      x y z
#    x 2.312430 0.000000 -0.048240 
#    y 0.000000 2.101060 0.000000 
#    z -0.048240 0.000000 2.202440 
# 
# From -- ./inp_files/13729.got.cif
#   From: 2010.05.17/outbox.cif.g08.bks.cpg/sg9_7_cif.got.tgz:13729.got - 2010.06.03 20:04:27.
