data_PCOD9134911
_publ_section_title
;
Structure prediction by ZEFSAII (Michael W. Deem and Ramdas Pophale) SiO2 
 PCOD9134911
Probable space group: C C
;
_chemical_formula_sum "Si O2"
_cell_formula_units_Z 32
_cell_length_a 26.382746
_cell_length_b 8.064308
_cell_length_c 20.687567
_cell_angle_alpha 90.000000
_cell_angle_beta 18.188575
_cell_angle_gamma 90.000000
_cell_volume 1373.895107
_symmetry_space_group_name_H-M "C C"
_symmetry_group_IT_number 9
_symmetry_cell_setting 'monoclinic'
loop_
_space_group_symop_operation_xyz
x,y,z
x,-y,1/2+z
1/2+x,1/2+y,z
1/2+x,1/2-y,1/2+z
loop_
_atom_site_type_symbol
_atom_site_label
_atom_site_fract_x
_atom_site_fract_y
_atom_site_fract_z
Si Si1 0.121600 0.711551 0.242440
Si Si2 0.381336 0.946934 0.508931
Si Si3 0.296859 0.598106 0.400261
Si Si4 0.206002 0.966697 0.987137
Si Si5 0.286551 0.287410 0.673244
Si Si6 0.645166 0.685420 0.185619
Si Si7 0.621934 0.235242 0.501961
Si Si8 0.922715 0.751717 0.288376
O O1 0.175438 0.653142 0.248619
O O2 0.031033 0.571445 0.309585
O O3 0.973226 0.838646 0.434166
O O4 0.286351 0.766844 0.009425
O O5 0.479312 0.778564 0.408082
O O6 0.249691 0.896923 0.615446
O O7 0.294068 0.082721 0.661590
O O8 0.259962 0.670723 0.515635
O O9 0.145090 0.620280 0.536804
O O10 0.367285 0.416666 0.317920
O O11 0.440450 0.718929 0.201581
O O12 0.094459 0.805478 0.108777
O O13 0.130741 0.064836 0.140317
O O14 0.385277 0.903650 0.788105
O O15 0.191054 0.088749 0.944949
O O16 0.220491 0.334966 0.822501
#
# Coordination Sequence:
#
# PCOD9134911 Si02
#       8
#     4   4   4   4   4   4   4   4
#     4  10  21  35  60  88 114 153 195 258 299 355
#     4  10  23  36  61  87 123 157 198 258 300 370
#     4  10  20  34  63  83 119 151 197 256 295 364
#     4  10  24  34  62  86 127 155 198 257 301 375
#     4  10  21  39  58  85 121 160 207 243 297 364
#     4  11  20  41  58  95 117 157 205 249 320 351
#     4  10  21  38  57  85 113 163 202 241 294 364
#     4  11  20  37  55  93 118 150 196 252 322 345
#
# _framework density 23.291443000000001
#
# number of rings (size 3 to 8) (size 9 to 14) (size 15 to 20)
#    0.750    1.000    1.250    4.500    1.750    1.000 
#    0.000    2.500    2.750    0.000    0.000    0.000 
#    0.000    0.000    0.000    0.000    0.000    0.000 
#
# Total GULP energy -89176.908398 kJ/mol
# GULP energy per Si atom -5573.556775 kJ/mol
# Density = 2.323843 g / cm^3
# Si number density = 23.291443 Si / 1000 Ang^3
#
#
#
# Elastic Constant Matrix: (Units=GPa)
#
#
# Indices 1 2 3 4 5 6 
#
# 1 93.8973 16.7832 25.6576 -0.0001 -28.4630 0.0000
# 2 16.7832 67.2051 2.4961 -0.0008 -18.3575 0.0002
# 3 25.6576 2.4961 53.7890 -0.0003 -23.6147 0.0001
# 4 -0.0001 -0.0008 -0.0003 28.2603 0.0001 -13.3241
# 5 -28.4630 -18.3575 -23.6147 0.0001 46.5335 0.0000
# 6 0.0000 0.0002 0.0001 -13.3241 0.0000 27.6790
#
#
#
# Elastic Compliance Matrix: (Units=1/GPa)
#
#
# Indices 1 2 3 4 5 6 
#
# 1 0.013783 -0.001729 -0.003979 0.000000 0.005729 0.000000
# 2 -0.001729 0.017209 0.003271 0.000001 0.007391 0.000000
# 3 -0.003979 0.003271 0.025521 0.000000 0.011808 0.000000
# 4 0.000000 0.000001 0.000000 0.045774 0.000000 0.022035
# 5 0.005729 0.007391 0.011808 0.000000 0.033902 0.000000
# 6 0.000000 0.000000 0.000000 0.022035 0.000000 0.046736
#
#
# Mechanical properties :
#
#
# Convention : Reuss Voigt Hill
#
# Bulk Modulus (GPa) = 19.36506 33.86280 26.61393
# Shear Modulus (GPa) = 24.38866 31.82486 28.10676
#
# Velocity S-wave (km/s) = 3.23942 3.70046 3.47759
# Velocity P-wave (km/s) = 4.72483 5.72959 5.25130
#
# Compressibility (1/GPa) = 0.05163939
#
# Stress axis : x y z
#
# Youngs Moduli (GPa) = 72.55327 58.10845 39.18269
#
# Poissons Ratio (x) = 0.10049 0.15591
# Poissons Ratio (y) = 0.12547 -0.12818
# Poissons Ratio (z) = 0.28870 -0.19009
#
# Static dielectric constant tensor:
#      x y z
#    x 1.857800 0.000000 -0.036060 
#    y 0.000000 1.993150 0.000000 
#    z -0.036060 0.000000 1.911140 
# 
# From -- ./inp_files/11326.got.cif
#   From: 2010.05.17/outbox.cif.g08.bks.cpg/sg9_6_cif.got.tgz:11326.got - 2010.06.03 20:04:27.
