data_PCOD9134130
_publ_section_title
;
Structure prediction by ZEFSAII (Michael W. Deem and Ramdas Pophale) SiO2 
 PCOD9134130
Probable space group: C C
;
_chemical_formula_sum "Si O2"
_cell_formula_units_Z 32
_cell_length_a 11.040682
_cell_length_b 8.166393
_cell_length_c 24.716366
_cell_angle_alpha 90.000000
_cell_angle_beta 34.297448
_cell_angle_gamma 90.000000
_cell_volume 1255.730471
_symmetry_space_group_name_H-M "C C"
_symmetry_group_IT_number 9
_symmetry_cell_setting 'monoclinic'
loop_
_space_group_symop_operation_xyz
x,y,z
x,-y,1/2+z
1/2+x,1/2+y,z
1/2+x,1/2-y,1/2+z
loop_
_atom_site_type_symbol
_atom_site_label
_atom_site_fract_x
_atom_site_fract_y
_atom_site_fract_z
Si Si1 0.514310 0.125837 0.966990
Si Si2 0.457211 0.721712 0.745846
Si Si3 0.374346 0.406303 0.418843
Si Si4 0.708891 0.390888 0.495101
Si Si5 0.057126 0.748852 0.447237
Si Si6 0.912112 0.151144 0.648864
Si Si7 0.067736 0.578000 0.300288
Si Si8 0.522676 0.625591 0.270267
O O1 0.711118 0.195536 0.857864
O O2 0.633266 0.120270 0.982346
O O3 0.468817 0.933928 0.972501
O O4 0.297515 0.192296 0.017746
O O5 0.494026 0.752432 0.669507
O O6 0.538405 0.878035 0.748607
O O7 0.559722 0.546327 0.725421
O O8 0.428863 0.388584 0.461856
O O9 0.510127 0.249272 0.348400
O O10 0.470707 0.561335 0.351003
O O11 0.564222 0.283353 0.508658
O O12 0.583265 0.560736 0.549774
O O13 0.908622 0.444181 0.383548
O O14 0.303437 0.719824 0.335652
O O15 0.724462 0.255873 0.691005
O O16 0.800722 0.995942 0.720431
#
# Coordination Sequence:
#
# PCOD9134130 Si02
#       8
#     4   4   4   4   4   4   4   4
#     4   9  19  40  60  91 121 160 212 256 307 373
#     4   9  20  40  66  83 119 173 208 256 317 364
#     4   9  19  38  73  84 117 173 210 254 319 366
#     4  12  23  37  65  97 130 164 208 262 318 374
#     4  10  18  37  62  89 121 160 205 259 308 371
#     4  12  23  39  61  94 130 166 205 264 313 375
#     4  10  20  42  63  89 124 171 207 256 313 376
#     4   9  20  37  60  91 116 159 215 257 305 371
#
# _framework density 25.483176
#
# number of rings (size 3 to 8) (size 9 to 14) (size 15 to 20)
#    0.000    2.500    3.750    0.750    1.750    1.000 
#    6.750    0.000    5.500    0.000    0.000    0.000 
#    0.000    0.000    0.000    0.000    0.000    0.000 
#
# Total GULP energy -89254.565672 kJ/mol
# GULP energy per Si atom -5578.410355 kJ/mol
# Density = 2.542518 g / cm^3
# Si number density = 25.483176 Si / 1000 Ang^3
#
#
#
# Elastic Constant Matrix: (Units=GPa)
#
#
# Indices 1 2 3 4 5 6 
#
# 1 140.5813 31.6015 13.8884 0.0000 -2.2222 0.0000
# 2 31.6015 71.1772 7.8814 -0.0001 -10.0285 0.0001
# 3 13.8884 7.8814 53.7176 -0.0003 -19.1133 0.0001
# 4 0.0000 -0.0001 -0.0003 27.3753 0.0000 2.2684
# 5 -2.2222 -10.0285 -19.1133 0.0000 17.6958 0.0000
# 6 0.0000 0.0001 0.0001 2.2684 0.0000 36.1131
#
#
#
# Elastic Compliance Matrix: (Units=1/GPa)
#
#
# Indices 1 2 3 4 5 6 
#
# 1 0.008249 -0.003967 -0.003219 0.000000 -0.004689 0.000000
# 2 -0.003967 0.017238 0.002916 0.000000 0.012420 0.000000
# 3 -0.003219 0.002916 0.031614 0.000000 0.035395 0.000000
# 4 0.000000 0.000000 0.000000 0.036720 0.000000 -0.002307
# 5 -0.004689 0.012420 0.035395 0.000000 0.101191 0.000000
# 6 0.000000 0.000000 0.000000 -0.002307 0.000000 0.027836
#
#
# Mechanical properties :
#
#
# Convention : Reuss Voigt Hill
#
# Bulk Modulus (GPa) = 20.59290 41.35764 30.97527
# Shear Modulus (GPa) = 20.19593 30.37715 25.28654
#
# Velocity S-wave (km/s) = 2.81823 3.45635 3.15347
# Velocity P-wave (km/s) = 4.32301 5.67390 5.04388
#
# Compressibility (1/GPa) = 0.04856044
#
# Stress axis : x y z
#
# Youngs Moduli (GPa) = 121.22848 58.01274 31.63124
#
# Poissons Ratio (x) = 0.23011 0.10183
# Poissons Ratio (y) = 0.48086 -0.09222
# Poissons Ratio (z) = 0.39026 -0.16914
#
# Static dielectric constant tensor:
#      x y z
#    x 2.215570 0.000000 0.075810 
#    y 0.000000 1.983410 0.000000 
#    z 0.075810 0.000000 2.048030 
# 
# From -- ./inp_files/36501.got.cif
#   From: 2010.05.17/outbox.cif.g08.bks.cpg/sg9_19_cif.got.tgz:36501.got - 2010.06.03 20:04:27.
