data_PCOD9134325
_publ_section_title
;
Structure prediction by ZEFSAII (Michael W. Deem and Ramdas Pophale) SiO2 
 PCOD9134325
Probable space group: C C
;
_chemical_formula_sum "Si O2"
_cell_formula_units_Z 32
_cell_length_a 13.749944
_cell_length_b 14.861885
_cell_length_c 12.049801
_cell_angle_alpha 90.000000
_cell_angle_beta 42.076259
_cell_angle_gamma 90.000000
_cell_volume 1650.086489
_symmetry_space_group_name_H-M "C C"
_symmetry_group_IT_number 9
_symmetry_cell_setting 'monoclinic'
loop_
_space_group_symop_operation_xyz
x,y,z
x,-y,1/2+z
1/2+x,1/2+y,z
1/2+x,1/2-y,1/2+z
loop_
_atom_site_type_symbol
_atom_site_label
_atom_site_fract_x
_atom_site_fract_y
_atom_site_fract_z
Si Si1 0.692820 0.662603 0.721200
Si Si2 0.358467 0.306372 0.196208
Si Si3 0.402013 0.326294 0.828062
Si Si4 0.366824 0.466034 0.045327
Si Si5 0.241102 0.185934 0.091393
Si Si6 0.219169 0.027919 0.257115
Si Si7 0.875966 0.841617 0.592523
Si Si8 0.193377 0.170170 0.463026
O O1 0.765220 0.575393 0.717518
O O2 0.779554 0.754031 0.660900
O O3 0.683301 0.642052 0.598422
O O4 0.532462 0.674742 0.905681
O O5 0.319600 0.407760 0.192781
O O6 0.298336 0.245733 0.146034
O O7 0.290660 0.259000 0.360859
O O8 0.532096 0.305117 0.057046
O O9 0.568188 0.309334 0.723594
O O10 0.397473 0.356771 0.705559
O O11 0.338320 0.404545 0.961819
O O12 0.315977 0.233307 0.923322
O O13 0.310346 0.567245 0.095554
O O14 0.542730 0.474895 0.900885
O O15 0.272711 0.084221 0.104311
O O16 0.251825 0.088307 0.337388
#
# Coordination Sequence:
#
# PCOD9134325 Si02
#       8
#     4   4   4   4   4   4   4   4
#     4  11  23  37  53  78 110 141 179 219 264 320
#     4   9  17  33  56  82 105 133 178 219 260 314
#     4  10  19  34  57  80 107 141 172 221 271 304
#     4   8  18  34  55  79 102 137 185 218 252 315
#     4   9  17  33  56  82 105 133 178 219 260 314
#     4   8  18  34  55  79 102 137 185 218 252 315
#     4  11  23  37  53  78 110 141 179 219 264 320
#     4  10  19  34  57  80 107 141 172 221 271 304
#
# _framework density 19.392921999999999
#
# number of rings (size 3 to 8) (size 9 to 14) (size 15 to 20)
#    0.000    2.500    0.000    3.750    0.000   11.000 
#    0.000    5.000    0.000   10.500    0.000    0.000 
#    0.000    0.000    0.000    0.000    0.000    0.000 
#
# Total GULP energy -89177.140887 kJ/mol
# GULP energy per Si atom -5573.571305 kJ/mol
# Density = 1.934878 g / cm^3
# Si number density = 19.392922 Si / 1000 Ang^3
#
#
#
# Elastic Constant Matrix: (Units=GPa)
#
#
# Indices 1 2 3 4 5 6 
#
# 1 31.9809 3.4954 -1.1346 0.0000 8.8123 0.0000
# 2 3.4954 107.2832 10.6421 0.0000 -3.8781 0.0000
# 3 -1.1346 10.6421 58.5237 0.0000 18.9854 0.0000
# 4 0.0000 0.0000 0.0000 25.5180 0.0000 -2.7448
# 5 8.8123 -3.8781 18.9854 0.0000 26.6080 0.0000
# 6 0.0000 0.0000 0.0000 -2.7448 0.0000 21.1880
#
#
#
# Elastic Compliance Matrix: (Units=1/GPa)
#
#
# Indices 1 2 3 4 5 6 
#
# 1 0.036548 -0.002488 0.006773 0.000000 -0.017300 0.000000
# 2 -0.002488 0.009905 -0.003363 0.000000 0.004667 0.000000
# 3 0.006773 -0.003363 0.024354 0.000000 -0.020111 0.000000
# 4 0.000000 0.000000 0.000000 0.039742 0.000000 0.005148
# 5 -0.017300 0.004667 -0.020111 0.000000 0.058342 0.000000
# 6 0.000000 0.000000 0.000000 0.005148 0.000000 0.047864
#
#
# Mechanical properties :
#
#
# Convention : Reuss Voigt Hill
#
# Bulk Modulus (GPa) = 13.76473 24.86597 19.31535
# Shear Modulus (GPa) = 20.90943 26.98179 23.94561
#
# Velocity S-wave (km/s) = 3.28716 3.73409 3.51773
# Velocity P-wave (km/s) = 4.63901 5.60725 5.14595
#
# Compressibility (1/GPa) = 0.07264946
#
# Stress axis : x y z
#
# Youngs Moduli (GPa) = 27.36149 100.96371 41.06103
#
# Poissons Ratio (x) = 0.25120 -0.27811
# Poissons Ratio (y) = 0.06807 0.13811
# Poissons Ratio (z) = -0.18532 0.33959
#
# Static dielectric constant tensor:
#      x y z
#    x 1.693380 0.000000 0.076530 
#    y 0.000000 1.714760 0.000000 
#    z 0.076530 0.000000 1.780360 
# 
# From -- ./inp_files/9706.got.cif
#   From: 2010.05.17/outbox.cif.g08.bks.cpg/sg9_5_cif.got.tgz:9706.got - 2010.06.03 20:04:27.
