data_PCOD9134586
_publ_section_title
;
Structure prediction by ZEFSAII (Michael W. Deem and Ramdas Pophale) SiO2 
 PCOD9134586
Probable space group: C C
;
_chemical_formula_sum "Si O2"
_cell_formula_units_Z 28
_cell_length_a 10.067584
_cell_length_b 17.393755
_cell_length_c 8.162348
_cell_angle_alpha 90.000000
_cell_angle_beta 81.667922
_cell_angle_gamma 90.000000
_cell_volume 1414.247090
_symmetry_space_group_name_H-M "C C"
_symmetry_group_IT_number 9
_symmetry_cell_setting 'monoclinic'
loop_
_space_group_symop_operation_xyz
x,y,z
x,-y,1/2+z
1/2+x,1/2+y,z
1/2+x,1/2-y,1/2+z
loop_
_atom_site_type_symbol
_atom_site_label
_atom_site_fract_x
_atom_site_fract_y
_atom_site_fract_z
Si Si1 0.934200 0.064799 0.821620
Si Si2 0.111437 0.189224 0.615857
Si Si3 0.751478 0.673446 0.281540
Si Si4 0.736374 0.787941 0.866648
Si Si5 0.473636 0.604753 0.195133
Si Si6 0.440107 0.816437 0.484917
Si Si7 0.685714 0.848538 0.224989
O O1 0.791119 0.087978 0.766670
O O2 0.041839 0.115919 0.705311
O O3 0.959600 0.975088 0.794054
O O4 0.951081 0.087926 0.007595
O O5 0.233836 0.161646 0.478824
O O6 0.141867 0.255283 0.742681
O O7 0.008850 0.234665 0.516538
O O8 0.618415 0.640382 0.215619
O O9 0.883710 0.645389 0.161430
O O10 0.749154 0.766364 0.267780
O O11 0.853781 0.839112 0.769032
O O12 0.805895 0.709229 0.916655
O O13 0.673527 0.834672 0.031290
O O14 0.546408 0.857676 0.348457
#
# Coordination Sequence:
#
# PCOD9134586 Si02
#       7
#     4   4   4   4   4   4   4
#     4  12  23  38  62  91 122 160 204 257 310 363
#     4  11  21  35  60  88 123 160 204 251 307 359
#     4  10  19  38  57  88 121 157 202 254 298 362
#     4  11  21  35  60  88 123 160 204 251 307 359
#     4  12  23  38  62  91 122 160 204 257 310 363
#     4  10  20  36  60  86 124 158 208 256 290 370
#     4  10  19  38  57  88 121 157 202 254 298 362
#
# _framework density 19.79852
#
# number of rings (size 3 to 8) (size 9 to 14) (size 15 to 20)
#    0.000    1.143    5.714    5.143    0.000    0.000 
#    0.000    0.000    0.000   15.429    0.000    0.000 
#    0.000    0.000    0.000    0.000    0.000    0.000 
#
# Total GULP energy -78063.537879 kJ/mol
# GULP energy per Si atom -5575.966991 kJ/mol
# Density = 1.975346 g / cm^3
# Si number density = 19.798520 Si / 1000 Ang^3
#
#
#
# Elastic Constant Matrix: (Units=GPa)
#
#
# Indices 1 2 3 4 5 6 
#
# 1 62.9467 12.1854 25.7018 0.0000 -23.7264 0.0000
# 2 12.1854 48.5106 -10.1696 0.0000 -2.6164 0.0000
# 3 25.7018 -10.1696 111.7511 0.0000 -24.7000 0.0000
# 4 0.0000 0.0000 0.0000 28.7916 0.0000 -0.8913
# 5 -23.7264 -2.6164 -24.7000 0.0000 47.1298 0.0000
# 6 0.0000 0.0000 0.0000 -0.8913 0.0000 23.4883
#
#
#
# Elastic Compliance Matrix: (Units=1/GPa)
#
#
# Indices 1 2 3 4 5 6 
#
# 1 0.021767 -0.005749 -0.003594 0.000000 0.008755 0.000000
# 2 -0.005749 0.022787 0.003434 0.000000 0.000170 0.000000
# 3 -0.003594 0.003434 0.011004 0.000000 0.004148 0.000000
# 4 0.000000 0.000000 0.000000 0.034773 0.000000 0.001319
# 5 0.008755 0.000170 0.004148 0.000000 0.027809 0.000000
# 6 0.000000 0.000000 0.000000 0.001319 0.000000 0.042625
#
#
# Mechanical properties :
#
#
# Convention : Reuss Voigt Hill
#
# Bulk Modulus (GPa) = 22.86273 30.96039 26.91156
# Shear Modulus (GPa) = 26.71445 32.91466 29.81456
#
# Velocity S-wave (km/s) = 3.67729 4.08178 3.88480
# Velocity P-wave (km/s) = 5.44084 6.15518 5.80900
#
# Compressibility (1/GPa) = 0.04373931
#
# Stress axis : x y z
#
# Youngs Moduli (GPa) = 45.94109 43.88442 90.87206
#
# Poissons Ratio (x) = 0.25229 0.32662
# Poissons Ratio (y) = 0.26411 -0.31201
# Poissons Ratio (z) = 0.16512 -0.15068
#
# Static dielectric constant tensor:
#      x y z
#    x 1.714380 0.000000 -0.041300 
#    y 0.000000 1.647890 0.000000 
#    z -0.041300 0.000000 1.803370 
# 
# From -- ./inp_files/5256.got.cif
#   From: 2010.05.17/outbox.cif.g08.bks.cpg/sg9_3_cif.got.tgz:5256.got - 2010.06.03 20:04:27.
