data_PCOD9134405
_publ_section_title
;
Structure prediction by ZEFSAII (Michael W. Deem and Ramdas Pophale) SiO2 
 PCOD9134405
Probable space group: C C
;
_chemical_formula_sum "Si O2"
_cell_formula_units_Z 32
_cell_length_a 11.282559
_cell_length_b 17.445585
_cell_length_c 9.498777
_cell_angle_alpha 90.000000
_cell_angle_beta 51.401731
_cell_angle_gamma 90.000000
_cell_volume 1461.206769
_symmetry_space_group_name_H-M "C C"
_symmetry_group_IT_number 9
_symmetry_cell_setting 'monoclinic'
loop_
_space_group_symop_operation_xyz
x,y,z
x,-y,1/2+z
1/2+x,1/2+y,z
1/2+x,1/2-y,1/2+z
loop_
_atom_site_type_symbol
_atom_site_label
_atom_site_fract_x
_atom_site_fract_y
_atom_site_fract_z
Si Si1 0.819590 0.100748 0.414700
Si Si2 0.681858 0.713451 0.387728
Si Si3 0.107104 0.823451 0.638040
Si Si4 0.973176 0.797176 0.288435
Si Si5 0.908518 0.666865 0.748992
Si Si6 0.637133 0.870252 0.295270
Si Si7 0.236911 0.570853 0.005502
Si Si8 0.075277 0.653169 0.365249
O O1 0.780036 0.148863 0.585934
O O2 0.709375 0.132287 0.375015
O O3 0.986555 0.108534 0.231020
O O4 0.785516 0.015653 0.493210
O O5 0.683879 0.674143 0.235386
O O6 0.843955 0.739147 0.325694
O O7 0.581988 0.675004 0.582490
O O8 0.600327 0.794349 0.411216
O O9 0.239055 0.826253 0.427389
O O10 0.000976 0.747658 0.696327
O O11 0.875150 0.868089 0.420163
O O12 0.069550 0.741377 0.317946
O O13 0.001785 0.612344 0.788083
O O14 0.928766 0.641427 0.572896
O O15 0.682716 0.928124 0.383036
O O16 0.106600 0.600510 0.207060
#
# Coordination Sequence:
#
# PCOD9134405 Si02
#       8
#     4   4   4   4   4   4   4   4
#     4  11  24  42  68  96 133 185 221 273 350 430
#     4  10  19  35  65  95 121 165 222 283 322 389
#     4  11  21  37  66  99 139 175 231 277 342 410
#     4  11  21  38  65  97 127 166 227 286 333 387
#     4  10  22  37  65 102 137 173 228 285 335 401
#     4   9  18  40  63  92 124 172 223 269 328 406
#     4  11  23  42  71  94 135 176 233 272 348 416
#     4  11  24  41  65 101 134 180 223 289 348 409
#
# _framework density 21.899709000000001
#
# number of rings (size 3 to 8) (size 9 to 14) (size 15 to 20)
#    0.000    1.500    2.500    6.000    3.500    0.000 
#    0.000    0.000    8.250    0.000    0.000    0.000 
#    0.000    0.000    0.000    0.000    0.000    0.000 
#
# Total GULP energy -89309.095437 kJ/mol
# GULP energy per Si atom -5581.818465 kJ/mol
# Density = 2.184986 g / cm^3
# Si number density = 21.899709 Si / 1000 Ang^3
#
#
#
# Elastic Constant Matrix: (Units=GPa)
#
#
# Indices 1 2 3 4 5 6 
#
# 1 61.8399 25.7061 47.8675 0.0000 3.1992 0.0000
# 2 25.7061 77.0649 33.0406 0.0000 -6.8689 0.0000
# 3 47.8675 33.0406 196.0059 0.0000 -12.4100 0.0000
# 4 0.0000 0.0000 0.0000 19.0896 0.0000 -0.4756
# 5 3.1992 -6.8689 -12.4100 0.0000 39.3498 0.0000
# 6 0.0000 0.0000 0.0000 -0.4756 0.0000 21.4511
#
#
#
# Elastic Compliance Matrix: (Units=1/GPa)
#
#
# Indices 1 2 3 4 5 6 
#
# 1 0.022541 -0.005852 -0.004795 0.000000 -0.004366 0.000000
# 2 -0.005852 0.015623 -0.001022 0.000000 0.002881 0.000000
# 3 -0.004795 -0.001022 0.006590 0.000000 0.002290 0.000000
# 4 0.000000 0.000000 0.000000 0.052413 0.000000 0.001162
# 5 -0.004366 0.002881 0.002290 0.000000 0.026993 0.000000
# 6 0.000000 0.000000 0.000000 0.001162 0.000000 0.046643
#
#
# Mechanical properties :
#
#
# Convention : Reuss Voigt Hill
#
# Bulk Modulus (GPa) = 46.69410 60.90435 53.79922
# Shear Modulus (GPa) = 24.84095 31.19787 28.01941
#
# Velocity S-wave (km/s) = 3.37160 3.77845 3.58081
# Velocity P-wave (km/s) = 6.04359 6.84884 6.45878
#
# Compressibility (1/GPa) = 0.02141598
#
# Stress axis : x y z
#
# Youngs Moduli (GPa) = 44.36398 64.00772 151.74328
#
# Poissons Ratio (x) = 0.37459 0.72757
# Poissons Ratio (y) = 0.25963 0.15508
# Poissons Ratio (z) = 0.21271 0.06541
#
# Static dielectric constant tensor:
#      x y z
#    x 1.867970 0.000000 0.016680 
#    y 0.000000 1.819010 0.000000 
#    z 0.016680 0.000000 1.830350 
# 
# From -- ./inp_files/8320.got.cif
#   From: 2010.05.17/outbox.cif.g08.bks.cpg/sg9_5_cif.got.tgz:8320.got - 2010.06.03 20:04:27.
