data_PCOD9134675
_publ_section_title
;
Structure prediction by ZEFSAII (Michael W. Deem and Ramdas Pophale) SiO2 
 PCOD9134675
Probable space group: C C
;
_chemical_formula_sum "Si O2"
_cell_formula_units_Z 32
_cell_length_a 12.765718
_cell_length_b 14.188824
_cell_length_c 17.765350
_cell_angle_alpha 90.000000
_cell_angle_beta 152.779436
_cell_angle_gamma 90.000000
_cell_volume 1471.898386
_symmetry_space_group_name_H-M "C C"
_symmetry_group_IT_number 9
_symmetry_cell_setting 'monoclinic'
loop_
_space_group_symop_operation_xyz
x,y,z
x,-y,1/2+z
1/2+x,1/2+y,z
1/2+x,1/2-y,1/2+z
loop_
_atom_site_type_symbol
_atom_site_label
_atom_site_fract_x
_atom_site_fract_y
_atom_site_fract_z
Si Si1 0.936800 0.504183 0.133460
Si Si2 0.361993 0.802748 0.011287
Si Si3 0.645808 0.116715 0.135034
Si Si4 0.765025 0.564919 0.662911
Si Si5 0.224506 0.830808 0.761290
Si Si6 0.390139 0.494219 0.022851
Si Si7 0.132656 0.533501 0.500938
Si Si8 0.591717 0.266782 0.975667
O O1 0.881277 0.409493 0.052584
O O2 0.754201 0.509879 0.086166
O O3 0.987268 0.585365 0.104458
O O4 0.165628 0.488529 0.329446
O O5 0.611927 0.760412 0.151766
O O6 0.216400 0.806636 0.843426
O O7 0.227055 0.739598 0.986204
O O8 0.873702 0.169036 0.312014
O O9 0.540063 0.187711 0.004916
O O10 0.694139 0.020629 0.117350
O O11 0.539613 0.575491 0.568640
O O12 0.963614 0.535621 0.846050
O O13 0.780767 0.665342 0.634871
O O14 0.478218 0.872432 0.909422
O O15 0.050578 0.914750 0.630826
O O16 0.338031 0.456557 0.072985
#
# Coordination Sequence:
#
# PCOD9134675 Si02
#       8
#     4   4   4   4   4   4   4   4
#     4  10  21  38  64  89 133 167 216 270 335 390
#     4  11  21  38  59  98 129 167 220 274 320 400
#     4  12  22  40  62 100 134 167 217 281 333 392
#     4   9  20  38  62  90 120 173 217 263 322 397
#     4  11  22  37  65  95 131 169 221 275 332 386
#     4  10  19  39  64  89 126 171 214 267 325 400
#     4  10  21  37  63  92 132 168 215 269 334 392
#     4  11  22  35  65  93 129 168 218 273 331 383
#
# _framework density 21.740632000000002
#
# number of rings (size 3 to 8) (size 9 to 14) (size 15 to 20)
#    0.000    1.500    2.500    3.750    0.000    2.000 
#    0.000    0.000   11.000    0.000    0.000    0.000 
#    0.000    0.000    0.000    0.000    0.000    0.000 
#
# Total GULP energy -89156.634980 kJ/mol
# GULP energy per Si atom -5572.289686 kJ/mol
# Density = 2.169115 g / cm^3
# Si number density = 21.740632 Si / 1000 Ang^3
#
#
#
# Elastic Constant Matrix: (Units=GPa)
#
#
# Indices 1 2 3 4 5 6 
#
# 1 112.2197 14.6332 15.8020 -0.0040 -2.1613 -0.0022
# 2 14.6332 38.9571 15.7330 0.0244 -6.5198 0.0013
# 3 15.8020 15.7330 53.3491 0.0359 -13.2253 0.0050
# 4 -0.0040 0.0244 0.0359 27.9642 0.0039 -10.9217
# 5 -2.1613 -6.5198 -13.2253 0.0039 34.3712 -0.0021
# 6 -0.0022 0.0013 0.0050 -10.9217 -0.0021 37.4159
#
#
#
# Elastic Compliance Matrix: (Units=1/GPa)
#
#
# Indices 1 2 3 4 5 6 
#
# 1 0.009575 -0.002842 -0.002191 0.000008 -0.000780 0.000003
# 2 -0.002842 0.030172 -0.007386 -0.000020 0.002703 -0.000006
# 3 -0.002191 -0.007386 0.023425 -0.000029 0.007474 -0.000011
# 4 0.000008 -0.000020 -0.000029 0.040361 -0.000018 0.011781
# 5 -0.000780 0.002703 0.007474 -0.000018 0.032434 -0.000005
# 6 0.000003 -0.000006 -0.000011 0.011781 -0.000005 0.030166
#
#
# Mechanical properties :
#
#
# Convention : Reuss Voigt Hill
#
# Bulk Modulus (GPa) = 26.08750 32.98471 29.53610
# Shear Modulus (GPa) = 24.53987 30.50743 27.52365
#
# Velocity S-wave (km/s) = 3.36334 3.75005 3.56195
# Velocity P-wave (km/s) = 5.20656 5.82713 5.52556
#
# Compressibility (1/GPa) = 0.03833253
#
# Stress axis : x y z
#
# Youngs Moduli (GPa) = 104.43567 33.14315 42.68989
#
# Poissons Ratio (x) = 0.09420 0.09355
# Poissons Ratio (y) = 0.29684 0.31531
# Poissons Ratio (z) = 0.22886 0.24480
#
# Static dielectric constant tensor:
#      x y z
#    x 1.877750 0.000000 0.058180 
#    y 0.000000 1.836080 -0.000010 
#    z 0.058180 -0.000010 1.879320 
# 
# From -- ./inp_files/7498.got.cif
#   From: 2010.05.17/outbox.cif.g08.bks.cpg/sg9_4_cif.got.tgz:7498.got - 2010.06.03 20:04:27.
