data_PCOD9134951
_publ_section_title
;
Structure prediction by ZEFSAII (Michael W. Deem and Ramdas Pophale) SiO2 
 PCOD9134951
Probable space group: C C
;
_chemical_formula_sum "Si O2"
_cell_formula_units_Z 32
_cell_length_a 20.797537
_cell_length_b 11.127753
_cell_length_c 9.168844
_cell_angle_alpha 90.000000
_cell_angle_beta 128.270583
_cell_angle_gamma 90.000000
_cell_volume 1665.926698
_symmetry_space_group_name_H-M "C C"
_symmetry_group_IT_number 9
_symmetry_cell_setting 'monoclinic'
loop_
_space_group_symop_operation_xyz
x,y,z
x,-y,1/2+z
1/2+x,1/2+y,z
1/2+x,1/2-y,1/2+z
loop_
_atom_site_type_symbol
_atom_site_label
_atom_site_fract_x
_atom_site_fract_y
_atom_site_fract_z
Si Si1 0.090940 0.135783 0.151880
Si Si2 0.366307 0.836086 0.091130
Si Si3 0.166843 0.927885 0.448408
Si Si4 0.410946 0.402026 0.502427
Si Si5 0.202872 0.691202 0.940585
Si Si6 0.719699 0.265340 0.286570
Si Si7 0.310758 0.550531 0.574939
Si Si8 0.830269 0.526639 0.805168
O O1 0.122936 0.269893 0.236973
O O2 0.134434 0.049375 0.331032
O O3 0.121791 0.103008 0.034542
O O4 0.996476 0.103260 0.039261
O O5 0.386785 0.901262 0.271475
O O6 0.411950 0.718422 0.101158
O O7 0.273821 0.784475 0.986007
O O8 0.371295 0.935172 0.972991
O O9 0.158038 0.824507 0.315004
O O10 0.262224 0.949946 0.621066
O O11 0.387552 0.506123 0.584293
O O12 0.341303 0.412637 0.279080
O O13 0.185596 0.714304 0.086976
O O14 0.246043 0.560974 0.987029
O O15 0.769317 0.162189 0.437803
O O16 0.779475 0.373844 0.322786
#
# Coordination Sequence:
#
# PCOD9134951 Si02
#       8
#     4   4   4   4   4   4   4   4
#     4  12  22  38  61  90 129 158 202 257 313 361
#     4  10  20  35  60  87 114 156 197 251 296 356
#     4  12  19  33  61  94 116 153 196 258 305 351
#     4  11  25  40  59  88 129 165 199 248 318 372
#     4  10  20  38  60  89 119 156 208 246 299 362
#     4  11  20  34  63  91 114 151 206 254 297 355
#     4  11  23  40  61  90 123 167 202 251 303 374
#     4  11  17  34  61  91 112 140 204 259 293 343
#
# _framework density 19.208527
#
# number of rings (size 3 to 8) (size 9 to 14) (size 15 to 20)
#    0.000    1.000    7.500    1.500    1.750    0.000 
#    0.000    0.000    5.500    0.000    0.000    0.000 
#    0.000    0.000    0.000    0.000    0.000    0.000 
#
# Total GULP energy -89242.609827 kJ/mol
# GULP energy per Si atom -5577.663114 kJ/mol
# Density = 1.916481 g / cm^3
# Si number density = 19.208527 Si / 1000 Ang^3
#
#
#
# Elastic Constant Matrix: (Units=GPa)
#
#
# Indices 1 2 3 4 5 6 
#
# 1 70.3957 7.8068 25.4602 0.0000 -22.4242 0.0000
# 2 7.8068 33.5573 2.8799 0.0000 -2.2801 0.0000
# 3 25.4602 2.8799 42.6322 0.0000 -22.3944 0.0000
# 4 0.0000 0.0000 0.0000 25.4793 0.0000 -11.6376
# 5 -22.4242 -2.2801 -22.3944 0.0000 29.8986 0.0000
# 6 0.0000 0.0000 0.0000 -11.6376 0.0000 18.0164
#
#
#
# Elastic Compliance Matrix: (Units=1/GPa)
#
#
# Indices 1 2 3 4 5 6 
#
# 1 0.020121 -0.003443 -0.006586 0.000000 0.009896 0.000000
# 2 -0.003443 0.030592 -0.000233 0.000000 -0.000424 0.000000
# 3 -0.006586 -0.000233 0.040889 0.000000 0.025669 0.000000
# 4 0.000000 0.000000 0.000000 0.055673 0.000000 0.035962
# 5 0.009896 -0.000424 0.025669 0.000000 0.060062 0.000000
# 6 0.000000 0.000000 0.000000 0.035962 0.000000 0.078734
#
#
# Mechanical properties :
#
#
# Convention : Reuss Voigt Hill
#
# Bulk Modulus (GPa) = 14.06902 24.31989 19.19446
# Shear Modulus (GPa) = 15.13823 22.04143 18.58983
#
# Velocity S-wave (km/s) = 2.81036 3.39112 3.11431
# Velocity P-wave (km/s) = 4.22742 5.29353 4.79022
#
# Compressibility (1/GPa) = 0.07107816
#
# Stress axis : x y z
#
# Youngs Moduli (GPa) = 49.69822 32.68820 24.45632
#
# Poissons Ratio (x) = 0.11256 0.16107
# Poissons Ratio (y) = 0.17113 0.00570
# Poissons Ratio (z) = 0.32731 0.00761
#
# Static dielectric constant tensor:
#      x y z
#    x 1.698630 0.000000 -0.001140 
#    y 0.000000 1.677640 0.000000 
#    z -0.001140 0.000000 1.675700 
# 
# From -- ./inp_files/10626.got.cif
#   From: 2010.05.17/outbox.cif.g08.bks.cpg/sg9_6_cif.got.tgz:10626.got - 2010.06.03 20:04:27.
