data_PCOD9134186
_publ_section_title
;
Structure prediction by ZEFSAII (Michael W. Deem and Ramdas Pophale) SiO2 
 PCOD9134186
Probable space group: C C
;
_chemical_formula_sum "Si O2"
_cell_formula_units_Z 32
_cell_length_a 9.716875
_cell_length_b 17.740208
_cell_length_c 9.296446
_cell_angle_alpha 90.000000
_cell_angle_beta 96.967071
_cell_angle_gamma 90.000000
_cell_volume 1590.682701
_symmetry_space_group_name_H-M "C C"
_symmetry_group_IT_number 9
_symmetry_cell_setting 'monoclinic'
loop_
_space_group_symop_operation_xyz
x,y,z
x,-y,1/2+z
1/2+x,1/2+y,z
1/2+x,1/2-y,1/2+z
loop_
_atom_site_type_symbol
_atom_site_label
_atom_site_fract_x
_atom_site_fract_y
_atom_site_fract_z
Si Si1 0.556490 0.679582 0.245850
Si Si2 0.202391 0.790656 0.191475
Si Si3 0.992037 0.300203 0.771548
Si Si4 0.816270 0.571315 0.345987
Si Si5 0.345472 0.309993 0.477948
Si Si6 0.422746 0.689367 0.540041
Si Si7 0.674906 0.150475 0.706343
Si Si8 0.384412 0.077750 0.685736
O O1 0.683056 0.621271 0.282480
O O2 0.463467 0.683801 0.379077
O O3 0.614948 0.763519 0.215529
O O4 0.455783 0.656522 0.102302
O O5 0.285783 0.651790 0.589678
O O6 0.324427 0.845391 0.247026
O O7 0.063621 0.839002 0.140824
O O8 0.245442 0.744721 0.055723
O O9 0.950927 0.382846 0.807655
O O10 0.922196 0.246041 0.878900
O O11 0.930181 0.274731 0.608254
O O12 0.151219 0.274273 0.791997
O O13 0.820204 0.569064 0.518621
O O14 0.833335 0.490340 0.276923
O O15 0.258634 0.364377 0.364909
O O16 0.547253 0.093236 0.681788
#
# Coordination Sequence:
#
# PCOD9134186 Si02
#       8
#     4   4   4   4   4   4   4   4
#     4  12  20  39  69 102 136 172 230 285 329 407
#     4  10  18  39  67  97 125 172 220 275 320 394
#     4   9  18  39  64  89 133 162 223 266 325 394
#     4  12  24  46  63 102 133 183 220 283 342 409
#     4  11  20  35  68 101 132 164 229 279 330 393
#     4   9  19  36  71  92 129 169 225 271 328 388
#     4  11  21  43  65 102 135 175 223 286 339 395
#     4  12  26  43  71  93 145 169 228 283 343 402
#
# _framework density 20.117148
#
# number of rings (size 3 to 8) (size 9 to 14) (size 15 to 20)
#    0.750    0.500    7.500    0.000    0.000    5.000 
#    0.000    0.000    8.250    0.000    0.000    0.000 
#    0.000    0.000    0.000    0.000    0.000    0.000 
#
# Total GULP energy -89159.227801 kJ/mol
# GULP energy per Si atom -5572.451738 kJ/mol
# Density = 2.007136 g / cm^3
# Si number density = 20.117148 Si / 1000 Ang^3
#
#
#
# Elastic Constant Matrix: (Units=GPa)
#
#
# Indices 1 2 3 4 5 6 
#
# 1 137.1410 37.5078 39.9635 0.0000 -13.9484 0.0000
# 2 37.5078 48.2988 29.3794 0.0000 -5.5304 0.0000
# 3 39.9635 29.3794 90.1998 0.0000 13.4294 0.0000
# 4 0.0000 0.0000 0.0000 13.5078 0.0000 -5.5781
# 5 -13.9484 -5.5304 13.4294 0.0000 40.3462 0.0000
# 6 0.0000 0.0000 0.0000 -5.5781 0.0000 23.8802
#
#
#
# Elastic Compliance Matrix: (Units=1/GPa)
#
#
# Indices 1 2 3 4 5 6 
#
# 1 0.010126 -0.005417 -0.003296 0.000000 0.003855 0.000000
# 2 -0.005417 0.030545 -0.008305 0.000000 0.005078 0.000000
# 3 -0.003296 -0.008305 0.016404 0.000000 -0.007738 0.000000
# 4 0.000000 0.000000 0.000000 0.081935 0.000000 0.019139
# 5 0.003855 0.005078 -0.007738 0.000000 0.029390 0.000000
# 6 0.000000 0.000000 0.000000 0.019139 0.000000 0.046346
#
#
# Mechanical properties :
#
#
# Convention : Reuss Voigt Hill
#
# Bulk Modulus (GPa) = 43.40562 54.37121 48.88841
# Shear Modulus (GPa) = 19.49617 26.79942 23.14780
#
# Velocity S-wave (km/s) = 3.11647 3.65385 3.39580
# Velocity P-wave (km/s) = 5.87989 6.69976 6.30317
#
# Compressibility (1/GPa) = 0.02303849
#
# Stress axis : x y z
#
# Youngs Moduli (GPa) = 98.75652 32.73908 60.96176
#
# Poissons Ratio (x) = 0.17736 0.20092
# Poissons Ratio (y) = 0.53500 0.50627
# Poissons Ratio (z) = 0.32548 0.27189
#
# Static dielectric constant tensor:
#      x y z
#    x 1.798430 0.000000 0.021300 
#    y 0.000000 1.697690 0.000000 
#    z 0.021300 0.000000 1.792950 
# 
# From -- ./inp_files/7873.got.cif
#   From: 2010.05.17/outbox.cif.g08.bks.cpg/sg9_4_cif.got.tgz:7873.got - 2010.06.03 20:04:27.
