data_PCOD9134185
_publ_section_title
;
Structure prediction by ZEFSAII (Michael W. Deem and Ramdas Pophale) SiO2 
 PCOD9134185
Probable space group: C C
;
_chemical_formula_sum "Si O2"
_cell_formula_units_Z 24
_cell_length_a 16.663728
_cell_length_b 15.444222
_cell_length_c 7.920547
_cell_angle_alpha 90.000000
_cell_angle_beta 38.483600
_cell_angle_gamma 90.000000
_cell_volume 1268.488754
_symmetry_space_group_name_H-M "C C"
_symmetry_group_IT_number 9
_symmetry_cell_setting 'monoclinic'
loop_
_space_group_symop_operation_xyz
x,y,z
x,-y,1/2+z
1/2+x,1/2+y,z
1/2+x,1/2-y,1/2+z
loop_
_atom_site_type_symbol
_atom_site_label
_atom_site_fract_x
_atom_site_fract_y
_atom_site_fract_z
Si Si1 0.363520 0.093866 0.094150
Si Si2 0.920568 0.969647 0.607036
Si Si3 0.008376 0.685468 0.160421
Si Si4 0.984108 0.573352 0.530925
Si Si5 0.722036 0.939168 0.184675
Si Si6 0.564255 0.615655 0.587390
O O1 0.413177 0.150720 0.170486
O O2 0.215582 0.113837 0.302910
O O3 0.379897 0.995709 0.133876
O O4 0.447585 0.100728 0.782438
O O5 0.026885 0.913252 0.337816
O O6 0.823533 0.020816 0.645678
O O7 0.816705 0.912207 0.878441
O O8 0.992964 0.043159 0.593918
O O9 0.985575 0.648270 0.387266
O O10 0.012286 0.788137 0.146818
O O11 0.143214 0.640759 0.886216
O O12 0.116708 0.515110 0.314433
#
# Coordination Sequence:
#
# PCOD9134185 Si02
#       6
#     4   4   4   4   4   4
#     4  11  22  41  66  94 132 165 211 260 322 380
#     4  10  22  40  64  85 130 172 198 254 332 377
#     4  11  24  40  68  97 121 165 220 272 300 370
#     4  11  20  40  71  96 120 172 210 261 317 374
#     4  10  18  39  67  91 122 162 215 252 313 378
#     4  11  26  42  60  95 129 168 210 263 324 377
#
# _framework density 18.920152999999999
#
# number of rings (size 3 to 8) (size 9 to 14) (size 15 to 20)
#    0.000    1.333    5.000    2.000    2.333    1.333 
#    3.000    0.000    0.000    0.000    0.000    0.000 
#    0.000    0.000    0.000    0.000    0.000    0.000 
#
# Total GULP energy -66878.991786 kJ/mol
# GULP energy per Si atom -5573.249316 kJ/mol
# Density = 1.887709 g / cm^3
# Si number density = 18.920153 Si / 1000 Ang^3
#
#
#
# Elastic Constant Matrix: (Units=GPa)
#
#
# Indices 1 2 3 4 5 6 
#
# 1 70.0131 19.2698 31.0401 0.0000 10.8266 0.0000
# 2 19.2698 86.5732 35.7388 0.0000 5.6077 0.0000
# 3 31.0401 35.7388 102.6598 0.0000 13.4650 0.0000
# 4 0.0000 0.0000 0.0000 17.2465 0.0000 5.2111
# 5 10.8266 5.6077 13.4650 0.0000 28.1909 0.0000
# 6 0.0000 0.0000 0.0000 5.2111 0.0000 22.4486
#
#
#
# Elastic Compliance Matrix: (Units=1/GPa)
#
#
# Indices 1 2 3 4 5 6 
#
# 1 0.017245 -0.001915 -0.003978 0.000000 -0.004342 0.000000
# 2 -0.001915 0.013708 -0.004195 0.000000 0.000012 0.000000
# 3 -0.003978 -0.004195 0.012903 0.000000 -0.003801 0.000000
# 4 0.000000 0.000000 0.000000 0.062357 0.000000 -0.014475
# 5 -0.004342 0.000012 -0.003801 0.000000 0.038953 0.000000
# 6 0.000000 0.000000 0.000000 -0.014475 0.000000 0.047906
#
#
# Mechanical properties :
#
#
# Convention : Reuss Voigt Hill
#
# Bulk Modulus (GPa) = 42.22964 47.92706 45.07835
# Shear Modulus (GPa) = 22.61005 25.12367 23.86686
#
# Velocity S-wave (km/s) = 3.46066 3.64796 3.55555
# Velocity P-wave (km/s) = 6.19166 6.56732 6.38225
#
# Compressibility (1/GPa) = 0.02368005
#
# Stress axis : x y z
#
# Youngs Moduli (GPa) = 57.98705 72.94989 77.50431
#
# Poissons Ratio (x) = 0.13970 0.30832
# Poissons Ratio (y) = 0.11105 0.32511
# Poissons Ratio (z) = 0.23068 0.30600
#
# Static dielectric constant tensor:
#      x y z
#    x 1.707600 0.000000 0.090680 
#    y 0.000000 1.613660 0.000000 
#    z 0.090680 0.000000 1.752890 
# 
# From -- ./inp_files/4979.got.cif
#   From: 2010.05.17/outbox.cif.g08.bks.cpg/sg9_3_cif.got.tgz:4979.got - 2010.06.03 20:04:27.
