data_PCOD9134085
_publ_section_title
;
Structure prediction by ZEFSAII (Michael W. Deem and Ramdas Pophale) SiO2 
 PCOD9134085
Probable space group: C C
;
_chemical_formula_sum "Si O2"
_cell_formula_units_Z 32
_cell_length_a 12.190537
_cell_length_b 17.947835
_cell_length_c 5.437406
_cell_angle_alpha 90.000000
_cell_angle_beta 91.499859
_cell_angle_gamma 90.000000
_cell_volume 1189.262837
_symmetry_space_group_name_H-M "C C"
_symmetry_group_IT_number 9
_symmetry_cell_setting 'monoclinic'
loop_
_space_group_symop_operation_xyz
x,y,z
x,-y,1/2+z
1/2+x,1/2+y,z
1/2+x,1/2-y,1/2+z
loop_
_atom_site_type_symbol
_atom_site_label
_atom_site_fract_x
_atom_site_fract_y
_atom_site_fract_z
Si Si1 0.622960 0.724630 0.643760
Si Si2 0.905086 0.852750 0.526169
Si Si3 0.649537 0.032501 0.380882
Si Si4 0.356893 0.180524 0.542159
Si Si5 0.095544 0.681583 0.647103
Si Si6 0.082771 0.973987 0.532969
Si Si7 0.887741 0.537559 0.281982
Si Si8 0.422423 0.608818 0.534672
O O1 0.738296 0.680545 0.660103
O O2 0.632632 0.779794 0.404912
O O3 0.520505 0.670275 0.572895
O O4 0.605103 0.764124 0.906589
O O5 0.885306 0.765867 0.484018
O O6 0.028799 0.891666 0.548728
O O7 0.858676 0.889683 0.282611
O O8 0.858691 0.869443 0.789620
O O9 0.650842 0.108857 0.537565
O O10 0.519312 0.027813 0.307935
O O11 0.692439 0.023168 0.100957
O O12 0.467700 0.158758 0.694230
O O13 0.355794 0.124128 0.313861
O O14 0.139200 0.996618 0.282073
O O15 0.977375 0.029168 0.510564
O O16 0.849336 0.504836 0.023957
#
# Coordination Sequence:
#
# PCOD9134085 Si02
#       8
#     4   4   4   4   4   4   4   4
#     4  12  24  39  62  99 131 173 227 271 334 400
#     4  10  19  36  59  87 117 162 208 256 327 373
#     4   9  17  34  62  87 115 164 206 256 336 395
#     4  11  24  41  69  94 136 178 220 281 328 400
#     4  11  24  42  63  96 133 167 222 280 334 392
#     4   8  16  29  54  79 111 157 202 252 310 373
#     4   9  20  37  57  89 125 163 212 264 326 392
#     4  10  18  36  56  85 120 160 209 256 315 385
#
# _framework density 26.907422
#
# number of rings (size 3 to 8) (size 9 to 14) (size 15 to 20)
#    0.000    2.000    2.500    0.750    0.000    7.000 
#    0.000    3.750    0.000   13.500    0.000    0.000 
#    0.000    0.000    0.000    0.000    0.000    0.000 
#
# Total GULP energy -89346.960443 kJ/mol
# GULP energy per Si atom -5584.185028 kJ/mol
# Density = 2.684618 g / cm^3
# Si number density = 26.907422 Si / 1000 Ang^3
#
#
#
# Elastic Constant Matrix: (Units=GPa)
#
#
# Indices 1 2 3 4 5 6 
#
# 1 130.9838 22.1184 39.1054 0.0000 4.3528 0.0000
# 2 22.1184 134.9993 48.8490 0.0000 10.1750 0.0000
# 3 39.1054 48.8490 223.5628 0.0000 -2.3257 0.0000
# 4 0.0000 0.0000 0.0000 18.8042 0.0000 -9.1952
# 5 4.3528 10.1750 -2.3257 0.0000 32.4636 0.0000
# 6 0.0000 0.0000 0.0000 -9.1952 0.0000 1.0937
#
#
#
# Elastic Compliance Matrix: (Units=1/GPa)
#
#
# Indices 1 2 3 4 5 6 
#
# 1 0.008180 -0.000813 -0.001263 0.000000 -0.000932 0.000000
# 2 -0.000813 0.008358 -0.001712 0.000000 -0.002633 0.000000
# 3 -0.001263 -0.001712 0.005079 0.000000 0.001070 0.000000
# 4 0.000000 0.000000 0.000000 -0.017092 0.000000 -0.143705
# 5 -0.000932 -0.002633 0.001070 0.000000 0.031831 0.000000
# 6 0.000000 0.000000 0.000000 -0.143705 0.000000 -0.293877
#
#
# Mechanical properties :
#
#
# Convention : Reuss Voigt Hill
#
# Bulk Modulus (GPa) = 71.21201 78.85459 75.03330
# Shear Modulus (GPa) = -20.38607 35.77051 7.69222
#
# Velocity S-wave (km/s) = -2.75551 3.65004 1.69262
# Velocity P-wave (km/s) = 4.04960 6.86536 5.63615
#
# Compressibility (1/GPa) = 0.01404257
#
# Stress axis : x y z
#
# Youngs Moduli (GPa) = 122.25201 119.63967 196.88851
#
# Poissons Ratio (x) = 0.09726 0.24865
# Poissons Ratio (y) = 0.09938 0.33698
# Poissons Ratio (z) = 0.15439 0.20477
#
# Static dielectric constant tensor:
#      x y z
#    x 2.135750 0.000000 -0.049040 
#    y 0.000000 2.148840 0.000000 
#    z -0.049040 0.000000 2.151070 
# 
# From -- ./inp_files/2543.got.cif
#   From: 2010.05.17/outbox.cif.g08.bks.cpg/sg9_2_cif.got.tgz:2543.got - 2010.06.03 20:04:27.
