data_PCOD9134705
_publ_section_title
;
Structure prediction by ZEFSAII (Michael W. Deem and Ramdas Pophale) SiO2 
 PCOD9134705
Probable space group: C C
;
_chemical_formula_sum "Si O2"
_cell_formula_units_Z 24
_cell_length_a 15.533242
_cell_length_b 7.988809
_cell_length_c 11.736168
_cell_angle_alpha 90.000000
_cell_angle_beta 137.165367
_cell_angle_gamma 90.000000
_cell_volume 990.160793
_symmetry_space_group_name_H-M "C C"
_symmetry_group_IT_number 9
_symmetry_cell_setting 'monoclinic'
loop_
_space_group_symop_operation_xyz
x,y,z
x,-y,1/2+z
1/2+x,1/2+y,z
1/2+x,1/2-y,1/2+z
loop_
_atom_site_type_symbol
_atom_site_label
_atom_site_fract_x
_atom_site_fract_y
_atom_site_fract_z
Si Si1 0.132820 0.585334 0.273240
Si Si2 0.409108 0.497393 0.072255
Si Si3 0.468812 0.237469 0.301278
Si Si4 0.039004 0.187392 0.492766
Si Si5 0.815614 0.569470 0.723664
Si Si6 0.940207 0.345830 0.022188
O O1 0.279925 0.590235 0.414299
O O2 0.089632 0.649625 0.108975
O O3 0.057064 0.412899 0.208437
O O4 0.083195 0.687794 0.331885
O O5 0.435341 0.421522 0.222663
O O6 0.503430 0.433539 0.065103
O O7 0.382229 0.692614 0.033843
O O8 0.497369 0.231241 0.461248
O O9 0.364383 0.085847 0.191083
O O10 0.168299 0.115749 0.560858
O O11 0.912738 0.271204 0.313079
O O12 0.842189 0.484468 0.876308
#
# Coordination Sequence:
#
# PCOD9134705 Si02
#       6
#     4   4   4   4   4   4
#     4  10  21  42  64  97 137 181 235 294 346 426
#     4  11  22  39  71  97 137 189 235 286 357 416
#     4   9  23  44  64  98 141 182 231 290 354 429
#     4  10  19  39  70  97 136 185 225 284 363 409
#     4   9  20  42  67 101 142 180 229 294 358 422
#     4   9  23  42  64  98 145 179 233 296 350 416
#
# _framework density 24.238486999999999
#
# number of rings (size 3 to 8) (size 9 to 14) (size 15 to 20)
#    1.000    1.333    1.667    0.000    2.333    2.667 
#    6.000    0.000    0.000    0.000    0.000    0.000 
#    0.000    0.000    0.000    0.000    0.000    0.000 
#
# Total GULP energy -66818.986407 kJ/mol
# GULP energy per Si atom -5568.248867 kJ/mol
# Density = 2.418332 g / cm^3
# Si number density = 24.238487 Si / 1000 Ang^3
#
#
#
# Elastic Constant Matrix: (Units=GPa)
#
#
# Indices 1 2 3 4 5 6 
#
# 1 79.9023 23.3530 27.7053 0.0000 12.4647 0.0000
# 2 23.3530 105.2689 16.1286 0.0000 7.0374 0.0000
# 3 27.7053 16.1286 69.1093 0.0000 17.0974 0.0000
# 4 0.0000 0.0000 0.0000 -269.9146 0.0000 -127.8980
# 5 12.4647 7.0374 17.0974 0.0000 42.0231 0.0000
# 6 0.0000 0.0000 0.0000 -127.8980 0.0000 -18.5783
#
#
#
# Elastic Compliance Matrix: (Units=1/GPa)
#
#
# Indices 1 2 3 4 5 6 
#
# 1 0.015315 -0.002486 -0.005047 0.000000 -0.002073 0.000000
# 2 -0.002486 0.010279 -0.001289 0.000000 -0.000460 0.000000
# 3 -0.005047 -0.001289 0.018202 0.000000 -0.005693 0.000000
# 4 0.000000 0.000000 0.000000 0.001638 0.000000 -0.011275
# 5 -0.002073 -0.000460 -0.005693 0.000000 0.026805 0.000000
# 6 0.000000 0.000000 0.000000 -0.011275 0.000000 0.023795
#
#
# Mechanical properties :
#
#
# Convention : Reuss Voigt Hill
#
# Bulk Modulus (GPa) = 38.23477 43.18382 40.70929
# Shear Modulus (GPa) = 40.85172 -36.82105 2.01534
#
# Velocity S-wave (km/s) = 4.10982 -3.90181 0.91283
# Velocity P-wave (km/s) = 6.19108 1.56331 4.23589
#
# Compressibility (1/GPa) = 0.02615421
#
# Stress axis : x y z
#
# Youngs Moduli (GPa) = 65.29515 97.28489 54.93855
#
# Poissons Ratio (x) = 0.24182 0.27726
# Poissons Ratio (y) = 0.16230 0.07080
# Poissons Ratio (z) = 0.32952 0.12537
#
# Static dielectric constant tensor:
#      x y z
#    x 1.924330 0.000000 -0.054340 
#    y 0.000000 2.807000 0.000000 
#    z -0.054340 0.000000 1.977410 
# 
# From -- ./inp_files/20057.got.cif
#   From: 2010.05.17/outbox.cif.g08.bks.cpg/sg9_11_cif.got.tgz:20057.got - 2010.06.03 20:04:27.
