data_PCOD9134627
_publ_section_title
;
Structure prediction by ZEFSAII (Michael W. Deem and Ramdas Pophale) SiO2 
 PCOD9134627
Probable space group: C C
;
_chemical_formula_sum "Si O2"
_cell_formula_units_Z 32
_cell_length_a 19.591968
_cell_length_b 12.809567
_cell_length_c 8.784761
_cell_angle_alpha 90.000000
_cell_angle_beta 144.281361
_cell_angle_gamma 90.000000
_cell_volume 1287.094817
_symmetry_space_group_name_H-M "C C"
_symmetry_group_IT_number 9
_symmetry_cell_setting 'monoclinic'
loop_
_space_group_symop_operation_xyz
x,y,z
x,-y,1/2+z
1/2+x,1/2+y,z
1/2+x,1/2-y,1/2+z
loop_
_atom_site_type_symbol
_atom_site_label
_atom_site_fract_x
_atom_site_fract_y
_atom_site_fract_z
Si Si1 0.022690 0.744272 0.031060
Si Si2 0.172670 0.881420 0.833917
Si Si3 0.173850 0.534648 0.820388
Si Si4 0.610545 0.402163 0.369339
Si Si5 0.402321 0.112715 0.618809
Si Si6 0.840428 0.964108 0.867329
Si Si7 0.511364 0.091568 0.261678
Si Si8 0.944486 0.812645 0.576881
O O1 0.133324 0.806909 0.295370
O O2 0.978306 0.695676 0.112043
O O3 0.966588 0.821381 0.800470
O O4 0.025013 0.644651 0.920841
O O5 0.147993 0.887942 0.609294
O O6 0.308287 0.852815 0.074737
O O7 0.070894 0.816056 0.727599
O O8 0.162957 0.993580 0.894876
O O9 0.261136 0.467284 0.873334
O O10 0.089290 0.600788 0.555757
O O11 0.095235 0.470177 0.795851
O O12 0.264435 0.590418 0.098701
O O13 0.469362 0.417126 0.115048
O O14 0.391045 0.196374 0.462998
O O15 0.406281 0.990826 0.596598
O O16 0.868207 0.088621 0.887053
#
# Coordination Sequence:
#
# PCOD9134627 Si02
#       8
#     4   4   4   4   4   4   4   4
#     4  10  23  46  65  94 144 182 230 297 341 423
#     4  11  24  43  75 102 142 190 225 299 366 419
#     4  10  21  35  67  89 128 183 224 281 359 402
#     4  11  23  43  69 105 139 182 239 288 354 433
#     4  10  25  44  69  99 140 190 229 297 355 426
#     4  10  19  38  65  98 133 176 227 300 345 417
#     4  11  22  44  60  95 142 182 235 292 347 419
#     4   9  21  43  66  98 138 175 233 288 349 423
#
# _framework density 24.862192
#
# number of rings (size 3 to 8) (size 9 to 14) (size 15 to 20)
#    0.750    1.000    1.250    3.750    1.750    4.000 
#    4.500    0.000    0.000    0.000    0.000    0.000 
#    0.000    0.000    0.000    0.000    0.000    0.000 
#
# Total GULP energy -89118.972715 kJ/mol
# GULP energy per Si atom -5569.935795 kJ/mol
# Density = 2.480560 g / cm^3
# Si number density = 24.862192 Si / 1000 Ang^3
#
#
#
# Elastic Constant Matrix: (Units=GPa)
#
#
# Indices 1 2 3 4 5 6 
#
# 1 128.0396 22.1650 21.3807 0.0000 13.4518 0.0000
# 2 22.1650 89.4701 11.1808 0.0000 -1.3945 0.0000
# 3 21.3807 11.1808 124.5381 0.0000 -26.6976 0.0000
# 4 0.0000 0.0000 0.0000 14.9356 0.0000 -16.3576
# 5 13.4518 -1.3945 -26.6976 0.0000 46.1460 0.0000
# 6 0.0000 0.0000 0.0000 -16.3576 0.0000 35.9875
#
#
#
# Elastic Compliance Matrix: (Units=1/GPa)
#
#
# Indices 1 2 3 4 5 6 
#
# 1 0.008937 -0.002001 -0.002199 0.000000 -0.003938 0.000000
# 2 -0.002001 0.011755 -0.000583 0.000000 0.000601 0.000000
# 3 -0.002199 -0.000583 0.009810 0.000000 0.006299 0.000000
# 4 0.000000 0.000000 0.000000 0.133324 0.000000 0.060600
# 5 -0.003938 0.000601 0.006299 0.000000 0.026481 0.000000
# 6 0.000000 0.000000 0.000000 0.060600 0.000000 0.055332
#
#
# Mechanical properties :
#
#
# Convention : Reuss Voigt Hill
#
# Bulk Modulus (GPa) = 47.76287 50.16675 48.96481
# Shear Modulus (GPa) = 19.07069 38.56859 28.81964
#
# Velocity S-wave (km/s) = 2.77258 3.94292 3.40836
# Velocity P-wave (km/s) = 5.43161 6.39926 5.93519
#
# Compressibility (1/GPa) = 0.02093677
#
# Stress axis : x y z
#
# Youngs Moduli (GPa) = 111.89026 85.07174 101.93865
#
# Poissons Ratio (x) = 0.17020 0.22416
# Poissons Ratio (y) = 0.22386 0.05943
# Poissons Ratio (z) = 0.24604 0.04959
#
# Static dielectric constant tensor:
#      x y z
#    x 1.951760 0.000000 0.028960 
#    y 0.000000 2.072640 0.000000 
#    z 0.028960 0.000000 2.017510 
# 
# From -- ./inp_files/11716.got.cif
#   From: 2010.05.17/outbox.cif.g08.bks.cpg/sg9_6_cif.got.tgz:11716.got - 2010.06.03 20:04:27.
