data_PCOD9134429
_publ_section_title
;
Structure prediction by ZEFSAII (Michael W. Deem and Ramdas Pophale) SiO2 
 PCOD9134429
Probable space group: C C
;
_chemical_formula_sum "Si O2"
_cell_formula_units_Z 28
_cell_length_a 12.030947
_cell_length_b 19.574203
_cell_length_c 5.606701
_cell_angle_alpha 90.000000
_cell_angle_beta 119.003357
_cell_angle_gamma 90.000000
_cell_volume 1154.772548
_symmetry_space_group_name_H-M "C C"
_symmetry_group_IT_number 9
_symmetry_cell_setting 'monoclinic'
loop_
_space_group_symop_operation_xyz
x,y,z
x,-y,1/2+z
1/2+x,1/2+y,z
1/2+x,1/2-y,1/2+z
loop_
_atom_site_type_symbol
_atom_site_label
_atom_site_fract_x
_atom_site_fract_y
_atom_site_fract_z
Si Si1 0.573270 0.611816 0.533950
Si Si2 0.200697 0.539005 0.598634
Si Si3 0.956493 0.615362 0.414732
Si Si4 0.486214 0.591737 0.943038
Si Si5 0.351492 0.730517 0.814623
Si Si6 0.866545 0.378880 0.321502
Si Si7 0.856566 0.772504 0.819538
O O1 0.540452 0.571682 0.256833
O O2 0.716703 0.635351 0.650622
O O3 0.464440 0.669685 0.432600
O O4 0.565135 0.577990 0.786564
O O5 0.179308 0.509354 0.309260
O O6 0.104902 0.601396 0.540778
O O7 0.346749 0.560980 0.765626
O O8 0.908475 0.693493 0.373867
O O9 0.912481 0.586208 0.625817
O O10 0.896838 0.586744 0.106067
O O11 0.463248 0.674024 0.931293
O O12 0.281806 0.721765 0.489919
O O13 0.281926 0.720513 0.993883
O O14 0.923094 0.301847 0.388412
#
# Coordination Sequence:
#
# PCOD9134429 Si02
#       7
#     4   4   4   4   4   4   4
#     4  10  19  36  58  89 130 169 213 268 325 397
#     4  12  26  46  72  96 132 182 228 284 320 396
#     4  10  21  40  61  97 127 173 218 272 337 390
#     4  10  21  40  61  97 127 173 218 272 337 390
#     4   8  16  34  52  86 122 158 206 258 324 380
#     4  10  19  36  58  89 130 169 213 268 325 397
#     4   8  16  30  46  86 120 172 202 240 318 390
#
# _framework density 24.247202000000001
#
# number of rings (size 3 to 8) (size 9 to 14) (size 15 to 20)
#    0.000    2.286    0.000    2.571    0.000    0.000 
#   46.286    0.000    0.000   17.143    0.000    0.000 
#    0.000    0.000    0.000    0.000    0.000    0.000 
#
# Total GULP energy -78068.820616 kJ/mol
# GULP energy per Si atom -5576.344330 kJ/mol
# Density = 2.419201 g / cm^3
# Si number density = 24.247202 Si / 1000 Ang^3
#
#
#
# Elastic Constant Matrix: (Units=GPa)
#
#
# Indices 1 2 3 4 5 6 
#
# 1 97.6133 15.1242 51.7715 0.0000 -42.3630 0.0000
# 2 15.1242 56.1538 -10.7557 0.0000 1.7947 0.0000
# 3 51.7715 -10.7557 138.3212 0.0000 -72.5791 0.0000
# 4 0.0000 0.0000 0.0000 -0.3290 0.0000 1.1617
# 5 -42.3630 1.7947 -72.5791 0.0000 62.3266 0.0000
# 6 0.0000 0.0000 0.0000 1.1617 0.0000 17.0247
#
#
#
# Elastic Compliance Matrix: (Units=1/GPa)
#
#
# Indices 1 2 3 4 5 6 
#
# 1 0.015726 -0.004811 -0.001488 0.000000 0.009095 0.000000
# 2 -0.004811 0.019751 0.003399 0.000000 0.000120 0.000000
# 3 -0.001488 0.003399 0.019201 0.000000 0.021251 0.000000
# 4 0.000000 0.000000 0.000000 -2.449159 0.000000 0.167115
# 5 0.009095 0.000120 0.021251 0.000000 0.046969 0.000000
# 6 0.000000 0.000000 0.000000 0.167115 0.000000 0.047335
#
#
# Mechanical properties :
#
#
# Convention : Reuss Voigt Hill
#
# Bulk Modulus (GPa) = 20.45869 44.92980 32.69424
# Shear Modulus (GPa) = -2.19483 31.53433 14.66975
#
# Velocity S-wave (km/s) = -0.95245 3.61021 2.46236
# Velocity P-wave (km/s) = 2.69190 5.99568 4.64729
#
# Compressibility (1/GPa) = 0.04887899
#
# Stress axis : x y z
#
# Youngs Moduli (GPa) = 63.58820 50.62927 52.07972
#
# Poissons Ratio (x) = 0.24359 0.07750
# Poissons Ratio (y) = 0.30594 -0.17704
# Poissons Ratio (z) = 0.09463 -0.17211
#
# Static dielectric constant tensor:
#      x y z
#    x 1.864260 0.000000 -0.108920 
#    y 0.000000 1.965400 0.000000 
#    z -0.108920 0.000000 2.005000 
# 
# From -- ./inp_files/2008.got.cif
#   From: 2010.05.17/outbox.cif.g08.bks.cpg/sg9_2_cif.got.tgz:2008.got - 2010.06.03 20:04:27.
