data_PCOD9134965
_publ_section_title
;
Structure prediction by ZEFSAII (Michael W. Deem and Ramdas Pophale) SiO2 
 PCOD9134965
Probable space group: C C
;
_chemical_formula_sum "Si O2"
_cell_formula_units_Z 24
_cell_length_a 13.258956
_cell_length_b 8.343013
_cell_length_c 18.544338
_cell_angle_alpha 90.000000
_cell_angle_beta 154.601195
_cell_angle_gamma 90.000000
_cell_volume 879.865173
_symmetry_space_group_name_H-M "C C"
_symmetry_group_IT_number 9
_symmetry_cell_setting 'monoclinic'
loop_
_space_group_symop_operation_xyz
x,y,z
x,-y,1/2+z
1/2+x,1/2+y,z
1/2+x,1/2-y,1/2+z
loop_
_atom_site_type_symbol
_atom_site_label
_atom_site_fract_x
_atom_site_fract_y
_atom_site_fract_z
Si Si1 0.855680 0.906723 0.870590
Si Si2 0.846715 0.642332 0.700481
Si Si3 0.359969 0.085494 0.334857
Si Si4 0.887397 0.813133 0.516267
Si Si5 0.863211 0.467100 0.557723
Si Si6 0.858481 0.892407 0.232496
O O1 0.588411 0.851851 0.708382
O O2 0.861193 0.963087 0.791363
O O3 0.884660 0.067570 0.943185
O O4 0.078174 0.791772 0.026025
O O5 0.829562 0.524441 0.619068
O O6 0.847477 0.570909 0.780037
O O7 0.116467 0.694729 0.865946
O O8 0.621823 0.099014 0.534304
O O9 0.346395 0.228095 0.267914
O O10 0.099800 0.112337 0.202678
O O11 0.935062 0.621256 0.555225
O O12 0.621951 0.397608 0.370940
#
# Coordination Sequence:
#
# PCOD9134965 Si02
#       6
#     4   4   4   4   4   4
#     4   9  19  37  59  88 124 154 195 245 297 352
#     4   9  21  37  58  90 124 154 200 248 294 355
#     4  11  22  38  61  88 122 159 205 246 298 359
#     4  10  20  37  66  90 114 164 198 243 301 363
#     4  10  20  35  64  89 118 158 202 244 299 356
#     4  11  22  36  60  91 120 157 204 250 295 353
#
# _framework density 27.276907000000001
#
# number of rings (size 3 to 8) (size 9 to 14) (size 15 to 20)
#    0.000    2.000    1.667    3.000    2.333    4.000 
#    0.000    0.000   33.000    0.000    0.000    0.000 
#    0.000    0.000    0.000    0.000    0.000    0.000 
#
# Total GULP energy -66827.398178 kJ/mol
# GULP energy per Si atom -5568.949848 kJ/mol
# Density = 2.721482 g / cm^3
# Si number density = 27.276907 Si / 1000 Ang^3
#
#
#
# Elastic Constant Matrix: (Units=GPa)
#
#
# Indices 1 2 3 4 5 6 
#
# 1 52.5101 13.2094 62.6844 0.0005 19.7334 0.0002
# 2 13.2094 56.5037 48.0187 -0.0037 -4.8002 0.0013
# 3 62.6844 48.0187 360.7426 -0.0007 33.9491 0.0031
# 4 0.0005 -0.0037 -0.0007 47.4059 0.0021 -6.1417
# 5 19.7334 -4.8002 33.9491 0.0021 58.8328 0.0000
# 6 0.0002 0.0013 0.0031 -6.1417 0.0000 33.8772
#
#
#
# Elastic Compliance Matrix: (Units=1/GPa)
#
#
# Indices 1 2 3 4 5 6 
#
# 1 0.026943 -0.003986 -0.003458 0.000000 -0.007367 0.000000
# 2 -0.003986 0.021187 -0.002555 0.000001 0.004540 0.000000
# 3 -0.003458 -0.002555 0.003832 0.000000 -0.001260 0.000000
# 4 0.000000 0.000001 0.000000 0.021602 -0.000001 0.003916
# 5 -0.007367 0.004540 -0.001260 -0.000001 0.020566 0.000000
# 6 0.000000 0.000000 0.000000 0.003916 0.000000 0.030228
#
#
# Mechanical properties :
#
#
# Convention : Reuss Voigt Hill
#
# Bulk Modulus (GPa) = 31.28526 79.73127 55.50827
# Shear Modulus (GPa) = 32.25624 51.07944 41.66784
#
# Velocity S-wave (km/s) = 3.44255 4.33208 3.91268
# Velocity P-wave (km/s) = 5.22455 7.36996 6.38797
#
# Compressibility (1/GPa) = 0.03196393
#
# Stress axis : x y z
#
# Youngs Moduli (GPa) = 37.11534 47.19968 260.99266
#
# Poissons Ratio (x) = 0.18814 0.90248
# Poissons Ratio (y) = 0.14794 0.66678
# Poissons Ratio (z) = 0.12834 0.12058
#
# Static dielectric constant tensor:
#      x y z
#    x 2.305340 0.000000 0.084760 
#    y 0.000000 2.184710 0.000000 
#    z 0.084760 0.000000 2.226150 
# 
# From -- ./inp_files/8796.got.cif
#   From: 2010.05.17/outbox.cif.g08.bks.cpg/sg9_5_cif.got.tgz:8796.got - 2010.06.03 20:04:27.
