data_PCOD9134949
_publ_section_title
;
Structure prediction by ZEFSAII (Michael W. Deem and Ramdas Pophale) SiO2 
 PCOD9134949
Probable space group: C C
;
_chemical_formula_sum "Si O2"
_cell_formula_units_Z 24
_cell_length_a 13.663996
_cell_length_b 6.679903
_cell_length_c 17.120326
_cell_angle_alpha 90.000000
_cell_angle_beta 37.049571
_cell_angle_gamma 90.000000
_cell_volume 941.501714
_symmetry_space_group_name_H-M "C C"
_symmetry_group_IT_number 9
_symmetry_cell_setting 'monoclinic'
loop_
_space_group_symop_operation_xyz
x,y,z
x,-y,1/2+z
1/2+x,1/2+y,z
1/2+x,1/2-y,1/2+z
loop_
_atom_site_type_symbol
_atom_site_label
_atom_site_fract_x
_atom_site_fract_y
_atom_site_fract_z
Si Si1 0.233410 0.839213 0.781690
Si Si2 0.068558 0.384236 0.518681
Si Si3 0.383131 0.763872 0.203946
Si Si4 0.605456 0.236128 0.703945
Si Si5 0.099687 0.660787 0.281690
Si Si6 0.790557 0.115764 0.018681
O O1 0.115101 0.702823 0.906461
O O2 0.418065 0.763409 0.651861
O O3 0.170011 0.868918 0.733589
O O4 0.267735 0.049026 0.803555
O O5 0.223751 0.364029 0.474487
O O6 0.005216 0.613293 0.567953
O O7 0.486181 0.688569 0.212058
O O8 0.259287 0.631083 0.233590
O O9 0.521634 0.049027 0.803554
O O10 0.755354 0.113293 0.567953
O O11 0.968453 0.797177 0.406461
O O12 0.174690 0.736591 0.151861
#
# Coordination Sequence:
#
# PCOD9134949 Si02
#       6
#     4   4   4   4   4   4
#     4  10  20  35  60  80 114 150 181 229 282 324
#     4   9  19  36  59  84 112 146 186 230 277 331
#     4   9  21  37  55  82 116 144 185 231 271 329
#     4   9  21  37  55  82 116 144 185 231 271 329
#     4  10  20  35  60  80 114 150 181 229 282 324
#     4   9  19  36  59  84 112 146 186 230 277 331
#
# _framework density 25.491192000000002
#
# number of rings (size 3 to 8) (size 9 to 14) (size 15 to 20)
#    2.000    0.667    0.000    2.000    4.667    0.000 
#    0.000    6.667    0.000    0.000    0.000    0.000 
#    0.000    0.000    0.000    0.000    0.000    0.000 
#
# Total GULP energy -66904.419692 kJ/mol
# GULP energy per Si atom -5575.368308 kJ/mol
# Density = 2.543317 g / cm^3
# Si number density = 25.491192 Si / 1000 Ang^3
#
#
#
# Elastic Constant Matrix: (Units=GPa)
#
#
# Indices 1 2 3 4 5 6 
#
# 1 157.9031 8.9556 11.0907 0.0000 10.8367 0.0000
# 2 8.9556 32.5505 21.1150 0.0000 -1.4143 0.0000
# 3 11.0907 21.1150 92.1557 0.0000 -3.1926 0.0000
# 4 0.0000 0.0000 0.0000 25.8853 0.0000 0.6876
# 5 10.8367 -1.4143 -3.1926 0.0000 28.4397 0.0000
# 6 0.0000 0.0000 0.0000 0.6876 0.0000 31.7998
#
#
#
# Elastic Compliance Matrix: (Units=1/GPa)
#
#
# Indices 1 2 3 4 5 6 
#
# 1 0.006644 -0.001604 -0.000525 0.000000 -0.002670 0.000000
# 2 -0.001604 0.036493 -0.008116 0.000000 0.001515 0.000000
# 3 -0.000525 -0.008116 0.012817 0.000000 0.001235 0.000000
# 4 0.000000 0.000000 0.000000 0.038654 0.000000 -0.000836
# 5 -0.002670 0.001515 0.001235 0.000000 0.036394 0.000000
# 6 0.000000 0.000000 0.000000 -0.000836 0.000000 0.031465
#
#
# Mechanical properties :
#
#
# Convention : Reuss Voigt Hill
#
# Bulk Modulus (GPa) = 28.19652 40.54801 34.37226
# Shear Modulus (GPa) = 25.67038 33.32148 29.49593
#
# Velocity S-wave (km/s) = 3.17682 3.61941 3.40531
# Velocity P-wave (km/s) = 4.95394 5.77997 5.38282
#
# Compressibility (1/GPa) = 0.03546537
#
# Stress axis : x y z
#
# Youngs Moduli (GPa) = 150.51036 27.40234 78.02323
#
# Poissons Ratio (x) = 0.04394 0.04094
# Poissons Ratio (y) = 0.24137 0.63324
# Poissons Ratio (z) = 0.07897 0.22240
#
# Static dielectric constant tensor:
#      x y z
#    x 1.928910 0.000000 -0.009710 
#    y 0.000000 2.121800 0.000000 
#    z -0.009710 0.000000 2.012390 
# 
# From -- ./inp_files/16023.got.cif
#   From: 2010.05.17/outbox.cif.g08.bks.cpg/sg9_9_cif.got.tgz:16023.got - 2010.06.03 20:04:27.
