data_PCOD9134575
_publ_section_title
;
Structure prediction by ZEFSAII (Michael W. Deem and Ramdas Pophale) SiO2 
 PCOD9134575
Probable space group: C C
;
_chemical_formula_sum "Si O2"
_cell_formula_units_Z 32
_cell_length_a 7.978373
_cell_length_b 11.301530
_cell_length_c 18.238393
_cell_angle_alpha 90.000000
_cell_angle_beta 46.961301
_cell_angle_gamma 90.000000
_cell_volume 1201.965186
_symmetry_space_group_name_H-M "C C"
_symmetry_group_IT_number 9
_symmetry_cell_setting 'monoclinic'
loop_
_space_group_symop_operation_xyz
x,y,z
x,-y,1/2+z
1/2+x,1/2+y,z
1/2+x,1/2-y,1/2+z
loop_
_atom_site_type_symbol
_atom_site_label
_atom_site_fract_x
_atom_site_fract_y
_atom_site_fract_z
Si Si1 0.873970 0.474392 0.372310
Si Si2 0.737117 0.725925 0.623016
Si Si3 0.390130 0.725825 0.314892
Si Si4 0.375310 0.532452 0.081878
Si Si5 0.237639 0.313546 0.025209
Si Si6 0.038141 0.589610 0.975663
Si Si7 0.602036 0.507061 0.172402
Si Si8 0.386804 0.227843 0.411199
O O1 0.969898 0.364046 0.296173
O O2 0.615686 0.430873 0.470179
O O3 0.838573 0.615639 0.371575
O O4 0.032643 0.470778 0.397900
O O5 0.685928 0.864645 0.638087
O O6 0.568558 0.628991 0.706695
O O7 0.780061 0.697517 0.523694
O O8 0.973052 0.720549 0.598025
O O9 0.327124 0.678167 0.415074
O O10 0.545226 0.622283 0.235822
O O11 0.157490 0.732958 0.338313
O O12 0.457630 0.512877 0.140226
O O13 0.284339 0.423644 0.062781
O O14 0.382627 0.206427 0.014671
O O15 0.277291 0.644012 0.927741
O O16 0.878781 0.510915 0.075290
#
# Coordination Sequence:
#
# PCOD9134575 Si02
#       8
#     4   4   4   4   4   4   4   4
#     4  10  19  39  59  90 124 161 217 260 311 395
#     4  11  21  37  63  93 121 166 221 254 314 399
#     4  10  24  43  60  96 140 159 210 289 335 365
#     4  11  20  40  65  90 125 169 222 256 314 399
#     4  10  20  40  66  91 118 169 220 254 310 400
#     4  10  19  37  68  88 119 168 218 252 311 391
#     4  11  23  44  60  98 140 161 210 289 328 376
#     4  11  20  38  65  90 119 177 222 254 313 403
#
# _framework density 26.623069000000001
#
# number of rings (size 3 to 8) (size 9 to 14) (size 15 to 20)
#    0.000    1.500    8.750    0.000    1.750    0.000 
#    6.750    2.500    0.000    0.000    0.000    0.000 
#    0.000    0.000    0.000    0.000    0.000    0.000 
#
# Total GULP energy -89516.137348 kJ/mol
# GULP energy per Si atom -5594.758584 kJ/mol
# Density = 2.656247 g / cm^3
# Si number density = 26.623069 Si / 1000 Ang^3
#
#
#
# Elastic Constant Matrix: (Units=GPa)
#
#
# Indices 1 2 3 4 5 6 
#
# 1 56.6368 17.9326 16.8916 0.0000 5.9627 0.0000
# 2 17.9326 104.4381 -6.3121 0.0001 14.8018 -0.0001
# 3 16.8916 -6.3121 88.8116 -0.0003 6.5093 0.0001
# 4 0.0000 0.0001 -0.0003 34.3025 0.0000 2.4095
# 5 5.9627 14.8018 6.5093 0.0000 13.9873 0.0000
# 6 0.0000 -0.0001 0.0001 2.4095 0.0000 56.3374
#
#
#
# Elastic Compliance Matrix: (Units=1/GPa)
#
#
# Indices 1 2 3 4 5 6 
#
# 1 0.020170 -0.003208 -0.003813 0.000000 -0.003430 0.000000
# 2 -0.003208 0.012038 0.002380 0.000000 -0.012480 0.000000
# 3 -0.003813 0.002380 0.012651 0.000000 -0.006781 0.000000
# 4 0.000000 0.000000 0.000000 0.029240 0.000000 -0.001251
# 5 -0.003430 -0.012480 -0.006781 0.000000 0.089317 0.000000
# 6 0.000000 0.000000 0.000000 -0.001251 0.000000 0.017804
#
#
# Mechanical properties :
#
#
# Convention : Reuss Voigt Hill
#
# Bulk Modulus (GPa) = 28.10616 34.10117 31.10367
# Shear Modulus (GPa) = 24.70826 35.68375 30.19601
#
# Velocity S-wave (km/s) = 3.04974 3.66503 3.37145
# Velocity P-wave (km/s) = 4.79387 5.54496 5.18304
#
# Compressibility (1/GPa) = 0.03557939
#
# Stress axis : x y z
#
# Youngs Moduli (GPa) = 49.57798 83.06721 79.04397
#
# Poissons Ratio (x) = 0.26646 0.30139
# Poissons Ratio (y) = 0.15903 -0.18816
# Poissons Ratio (z) = 0.18904 -0.19773
#
# Static dielectric constant tensor:
#      x y z
#    x 2.042760 0.000000 0.021980 
#    y 0.000000 2.146460 0.000000 
#    z 0.021980 0.000000 2.185640 
# 
# From -- ./inp_files/29189.got.cif
#   From: 2010.05.17/outbox.cif.g08.bks.cpg/sg9_15_cif.got.tgz:29189.got - 2010.06.03 20:04:27.
