data_PCOD9134634
_publ_section_title
;
Structure prediction by ZEFSAII (Michael W. Deem and Ramdas Pophale) SiO2 
 PCOD9134634
Probable space group: C C
;
_chemical_formula_sum "Si O2"
_cell_formula_units_Z 28
_cell_length_a 6.683001
_cell_length_b 13.361585
_cell_length_c 12.657376
_cell_angle_alpha 90.000000
_cell_angle_beta 96.252614
_cell_angle_gamma 90.000000
_cell_volume 1123.523122
_symmetry_space_group_name_H-M "C C"
_symmetry_group_IT_number 9
_symmetry_cell_setting 'monoclinic'
loop_
_space_group_symop_operation_xyz
x,y,z
x,-y,1/2+z
1/2+x,1/2+y,z
1/2+x,1/2-y,1/2+z
loop_
_atom_site_type_symbol
_atom_site_label
_atom_site_fract_x
_atom_site_fract_y
_atom_site_fract_z
Si Si1 0.808830 0.134588 0.880230
Si Si2 0.581724 0.576612 0.231678
Si Si3 0.024187 0.805023 0.172273
Si Si4 0.110273 0.405996 0.727499
Si Si5 0.854851 0.345368 0.904670
Si Si6 0.063217 0.976137 0.018384
Si Si7 0.395792 0.090277 0.766380
O O1 0.871861 0.233519 0.950029
O O2 0.567262 0.121526 0.858464
O O3 0.900319 0.159963 0.768960
O O4 0.516066 0.185956 0.156597
O O5 0.346048 0.583327 0.231111
O O6 0.681321 0.664867 0.303253
O O7 0.617061 0.557395 0.110748
O O8 0.712099 0.483848 0.288255
O O9 0.263986 0.821922 0.209829
O O10 0.967041 0.880863 0.075417
O O11 0.019447 0.514843 0.698060
O O12 0.044929 0.379913 0.845519
O O13 0.410467 0.535286 0.934124
O O14 0.760272 0.424182 0.979705
#
# Coordination Sequence:
#
# PCOD9134634 Si02
#       7
#     4   4   4   4   4   4   4
#     4  11  23  43  68 102 150 194 237 305 374 435
#     4  10  22  42  70  99 142 187 238 304 357 434
#     4  10  23  41  69 102 143 185 242 303 361 433
#     4  10  20  40  69  94 136 190 230 290 370 425
#     4  10  23  43  68 102 147 190 244 298 381 439
#     4  11  22  41  73 109 140 183 251 306 355 439
#     4  10  19  38  67  92 132 191 226 284 362 421
#
# _framework density 24.921603999999999
#
# number of rings (size 3 to 8) (size 9 to 14) (size 15 to 20)
#    0.000    1.714    0.000    6.000    2.000    0.000 
#    0.000   28.571   53.429    0.000    0.000    0.000 
#    0.000    0.000    0.000    0.000    0.000    0.000 
#
# Total GULP energy -78022.650047 kJ/mol
# GULP energy per Si atom -5573.046432 kJ/mol
# Density = 2.486488 g / cm^3
# Si number density = 24.921604 Si / 1000 Ang^3
#
#
#
# Elastic Constant Matrix: (Units=GPa)
#
#
# Indices 1 2 3 4 5 6 
#
# 1 165.5642 36.6551 25.4310 0.0000 -12.9055 0.0000
# 2 36.6551 111.6924 27.1673 0.0000 -5.9533 0.0000
# 3 25.4310 27.1673 82.8888 0.0000 -10.1490 0.0000
# 4 0.0000 0.0000 0.0000 31.3168 0.0000 1.0550
# 5 -12.9055 -5.9533 -10.1490 0.0000 21.3440 0.0000
# 6 0.0000 0.0000 0.0000 1.0550 0.0000 34.7212
#
#
#
# Elastic Compliance Matrix: (Units=1/GPa)
#
#
# Indices 1 2 3 4 5 6 
#
# 1 0.006856 -0.001810 -0.001130 0.000000 0.003103 0.000000
# 2 -0.001810 0.010239 -0.002745 0.000000 0.000457 0.000000
# 3 -0.001130 -0.002745 0.013945 0.000000 0.005182 0.000000
# 4 0.000000 0.000000 0.000000 0.031964 0.000000 -0.000971
# 5 0.003103 0.000457 0.005182 0.000000 0.051319 0.000000
# 6 0.000000 0.000000 0.000000 -0.000971 0.000000 0.028830
#
#
# Mechanical properties :
#
#
# Convention : Reuss Voigt Hill
#
# Bulk Modulus (GPa) = 50.83715 59.85026 55.34370
# Shear Modulus (GPa) = 31.04026 35.53586 33.28806
#
# Velocity S-wave (km/s) = 3.53302 3.78021 3.65870
# Velocity P-wave (km/s) = 6.08983 6.56665 6.33273
#
# Compressibility (1/GPa) = 0.01967066
#
# Stress axis : x y z
#
# Youngs Moduli (GPa) = 145.85475 97.66568 71.70894
#
# Poissons Ratio (x) = 0.17674 0.08106
# Poissons Ratio (y) = 0.26395 0.19683
# Poissons Ratio (z) = 0.16488 0.26807
#
# Static dielectric constant tensor:
#      x y z
#    x 1.985310 0.000000 -0.016320 
#    y 0.000000 2.131580 0.000000 
#    z -0.016320 0.000000 2.083460 
# 
# From -- ./inp_files/13177.got.cif
#   From: 2010.05.17/outbox.cif.g08.bks.cpg/sg9_7_cif.got.tgz:13177.got - 2010.06.03 20:04:27.
