data_PCOD9134858
_publ_section_title
;
Structure prediction by ZEFSAII (Michael W. Deem and Ramdas Pophale) SiO2 
 PCOD9134858
Probable space group: C C
;
_chemical_formula_sum "Si O2"
_cell_formula_units_Z 28
_cell_length_a 17.557172
_cell_length_b 5.222531
_cell_length_c 13.321644
_cell_angle_alpha 90.000000
_cell_angle_beta 117.623836
_cell_angle_gamma 90.000000
_cell_volume 1082.262005
_symmetry_space_group_name_H-M "C C"
_symmetry_group_IT_number 9
_symmetry_cell_setting 'monoclinic'
loop_
_space_group_symop_operation_xyz
x,y,z
x,-y,1/2+z
1/2+x,1/2+y,z
1/2+x,1/2-y,1/2+z
loop_
_atom_site_type_symbol
_atom_site_label
_atom_site_fract_x
_atom_site_fract_y
_atom_site_fract_z
Si Si1 0.385880 0.097140 0.501350
Si Si2 0.473437 0.606661 0.570675
Si Si3 0.156043 0.626845 0.153092
Si Si4 0.927112 0.357039 0.732663
Si Si5 0.111511 0.440563 0.393270
Si Si6 0.698758 0.553373 0.922317
Si Si7 0.745447 0.621228 0.188358
O O1 0.446831 0.334137 0.510274
O O2 0.401511 0.063687 0.631394
O O3 0.419806 0.826895 0.480593
O O4 0.283272 0.087788 0.430063
O O5 0.568419 0.726139 0.629411
O O6 0.442264 0.618104 0.667318
O O7 0.184879 0.340228 0.198395
O O8 0.228612 0.836969 0.217144
O O9 0.143807 0.590451 0.026012
O O10 0.845969 0.311241 0.753656
O O11 0.015546 0.450951 0.833288
O O12 0.169057 0.660102 0.374070
O O13 0.122676 0.151717 0.360731
O O14 0.720451 0.597447 0.054149
#
# Coordination Sequence:
#
# PCOD9134858 Si02
#       7
#     4   4   4   4   4   4   4
#     4   9  19  33  57  78 106 144 182 220 261 330
#     4  10  20  33  59  78 110 139 190 221 270 322
#     4  10  20  36  55  80 108 143 182 222 273 322
#     4   9  22  33  59  81 109 140 189 225 274 315
#     4  10  20  32  56  81 110 138 181 233 271 319
#     4   9  18  32  52  82 104 137 182 223 265 319
#     4   9  19  33  56  76 107 145 182 216 264 339
#
# _framework density 25.871737
#
# number of rings (size 3 to 8) (size 9 to 14) (size 15 to 20)
#    0.857    1.714    0.000    1.714    8.000    0.000 
#    0.000    0.000    9.429    0.000    0.000    0.000 
#    0.000    0.000    0.000    0.000    0.000    0.000 
#
# Total GULP energy -78149.971717 kJ/mol
# GULP energy per Si atom -5582.140837 kJ/mol
# Density = 2.581285 g / cm^3
# Si number density = 25.871737 Si / 1000 Ang^3
#
#
#
# Elastic Constant Matrix: (Units=GPa)
#
#
# Indices 1 2 3 4 5 6 
#
# 1 87.9776 22.9021 17.7320 0.0000 7.9026 0.0000
# 2 22.9021 146.5155 46.5324 0.0000 6.2248 0.0000
# 3 17.7320 46.5324 86.0191 0.0000 12.3877 0.0000
# 4 0.0000 0.0000 0.0000 31.2801 0.0000 1.9672
# 5 7.9026 6.2248 12.3877 0.0000 37.5375 0.0000
# 6 0.0000 0.0000 0.0000 1.9672 0.0000 30.7744
#
#
#
# Elastic Compliance Matrix: (Units=1/GPa)
#
#
# Indices 1 2 3 4 5 6 
#
# 1 0.012188 -0.001344 -0.001520 0.000000 -0.001841 0.000000
# 2 -0.001344 0.008390 -0.004306 0.000000 0.000313 0.000000
# 3 -0.001520 -0.004306 0.014824 0.000000 -0.003858 0.000000
# 4 0.000000 0.000000 0.000000 0.032098 0.000000 -0.002052
# 5 -0.001841 0.000313 -0.003858 0.000000 0.028249 0.000000
# 6 0.000000 0.000000 0.000000 -0.002052 0.000000 0.032626
#
#
# Mechanical properties :
#
#
# Convention : Reuss Voigt Hill
#
# Bulk Modulus (GPa) = 47.48275 54.98279 51.23277
# Shear Modulus (GPa) = 33.39205 35.47479 34.43342
#
# Velocity S-wave (km/s) = 3.59650 3.70696 3.65215
# Velocity P-wave (km/s) = 5.96987 6.29446 6.13432
#
# Compressibility (1/GPa) = 0.02106028
#
# Stress axis : x y z
#
# Youngs Moduli (GPa) = 82.04638 119.19346 67.45886
#
# Poissons Ratio (x) = 0.16021 0.10255
# Poissons Ratio (y) = 0.11028 0.29051
# Poissons Ratio (z) = 0.12473 0.51330
#
# Static dielectric constant tensor:
#      x y z
#    x 2.160290 0.000000 -0.067800 
#    y 0.000000 1.952110 0.000000 
#    z -0.067800 0.000000 2.054090 
# 
# From -- ./inp_files/31741.got.cif
#   From: 2010.05.17/outbox.cif.g08.bks.cpg/sg9_16_cif.got.tgz:31741.got - 2010.06.03 20:04:27.
