data_PCOD9134566
_publ_section_title
;
Structure prediction by ZEFSAII (Michael W. Deem and Ramdas Pophale) SiO2 
 PCOD9134566
Probable space group: C C
;
_chemical_formula_sum "Si O2"
_cell_formula_units_Z 32
_cell_length_a 12.119614
_cell_length_b 8.517496
_cell_length_c 14.031155
_cell_angle_alpha 90.000000
_cell_angle_beta 75.496866
_cell_angle_gamma 90.000000
_cell_volume 1402.263390
_symmetry_space_group_name_H-M "C C"
_symmetry_group_IT_number 9
_symmetry_cell_setting 'monoclinic'
loop_
_space_group_symop_operation_xyz
x,y,z
x,-y,1/2+z
1/2+x,1/2+y,z
1/2+x,1/2-y,1/2+z
loop_
_atom_site_type_symbol
_atom_site_label
_atom_site_fract_x
_atom_site_fract_y
_atom_site_fract_z
Si Si1 0.514110 0.705616 0.577550
Si Si2 0.867582 0.493047 0.116903
Si Si3 0.900023 0.814576 0.703001
Si Si4 0.793905 0.006934 0.569705
Si Si5 0.686752 0.454138 0.900690
Si Si6 0.661201 0.688191 0.071770
Si Si7 0.375295 0.228673 0.431643
Si Si8 0.023303 0.943075 0.282330
O O1 0.468658 0.880802 0.600855
O O2 0.408309 0.610883 0.554351
O O3 0.615647 0.665313 0.484211
O O4 0.542546 0.635611 0.675399
O O5 0.751199 0.588139 0.117206
O O6 0.866756 0.368003 0.204106
O O7 0.890371 0.382873 0.019438
O O8 0.026954 0.824952 0.625773
O O9 0.926448 0.921090 0.789281
O O10 0.802383 0.905546 0.664845
O O11 0.694596 0.130751 0.576944
O O12 0.984100 0.804580 0.360348
O O13 0.805998 0.879404 0.484924
O O14 0.808469 0.372918 0.868656
O O15 0.625757 0.475360 0.814608
O O16 0.684702 0.614826 0.962443
#
# Coordination Sequence:
#
# PCOD9134566 Si02
#       8
#     4   4   4   4   4   4   4   4
#     4  10  20  41  66  89 131 174 205 272 322 376
#     4   9  21  39  65  92 121 167 222 255 319 388
#     4  10  20  39  62  89 126 164 204 270 315 374
#     4   9  18  37  64  89 119 163 212 251 320 374
#     4  11  21  39  64  91 129 170 212 263 325 385
#     4  10  19  37  66  91 117 171 207 256 325 375
#     4  10  21  39  62  93 128 168 212 274 313 385
#     4  11  22  41  65  92 133 167 214 265 327 377
#
# _framework density 22.820247999999999
#
# number of rings (size 3 to 8) (size 9 to 14) (size 15 to 20)
#    0.000    2.000    3.750    0.750    1.750    3.000 
#    2.250    1.250    2.750    0.000    0.000    0.000 
#    0.000    0.000    0.000    0.000    0.000    0.000 
#
# Total GULP energy -89317.076404 kJ/mol
# GULP energy per Si atom -5582.317275 kJ/mol
# Density = 2.276831 g / cm^3
# Si number density = 22.820248 Si / 1000 Ang^3
#
#
#
# Elastic Constant Matrix: (Units=GPa)
#
#
# Indices 1 2 3 4 5 6 
#
# 1 46.4626 31.8327 30.7983 0.0000 18.9062 0.0000
# 2 31.8327 147.4175 40.7130 0.0000 12.2094 0.0000
# 3 30.7983 40.7130 87.6721 0.0000 17.4642 0.0000
# 4 0.0000 0.0000 0.0000 14.9974 0.0000 7.6962
# 5 18.9062 12.2094 17.4642 0.0000 26.9681 0.0000
# 6 0.0000 0.0000 0.0000 7.6962 0.0000 49.5350
#
#
#
# Elastic Compliance Matrix: (Units=1/GPa)
#
#
# Indices 1 2 3 4 5 6 
#
# 1 0.037220 -0.004457 -0.007129 0.000000 -0.019459 0.000000
# 2 -0.004457 0.008359 -0.002508 0.000000 0.000964 0.000000
# 3 -0.007129 -0.002508 0.015905 0.000000 -0.004167 0.000000
# 4 0.000000 0.000000 0.000000 0.072455 0.000000 -0.011257
# 5 -0.019459 0.000964 -0.004167 0.000000 0.052984 0.000000
# 6 0.000000 0.000000 0.000000 -0.011257 0.000000 0.021937
#
#
# Mechanical properties :
#
#
# Convention : Reuss Voigt Hill
#
# Bulk Modulus (GPa) = 30.03383 54.24893 42.14138
# Shear Modulus (GPa) = 20.14944 30.18063 25.16504
#
# Velocity S-wave (km/s) = 2.97469 3.64062 3.32437
# Velocity P-wave (km/s) = 4.99880 6.44174 5.76559
#
# Compressibility (1/GPa) = 0.03329579
#
# Stress axis : x y z
#
# Youngs Moduli (GPa) = 26.86750 119.63734 62.87237
#
# Poissons Ratio (x) = 0.53317 0.44823
# Poissons Ratio (y) = 0.11974 0.15769
# Poissons Ratio (z) = 0.19154 0.30006
#
# Static dielectric constant tensor:
#      x y z
#    x 1.859410 0.000000 -0.028150 
#    y 0.000000 1.867890 0.000000 
#    z -0.028150 0.000000 1.910230 
# 
# From -- ./inp_files/17940.got.cif
#   From: 2010.05.17/outbox.cif.g08.bks.cpg/sg9_9_cif.got.tgz:17940.got - 2010.06.03 20:04:27.
