data_PCOD9134115
_publ_section_title
;
Structure prediction by ZEFSAII (Michael W. Deem and Ramdas Pophale) SiO2 
 PCOD9134115
Probable space group: C C
;
_chemical_formula_sum "Si O2"
_cell_formula_units_Z 28
_cell_length_a 22.950037
_cell_length_b 7.365095
_cell_length_c 16.618913
_cell_angle_alpha 90.000000
_cell_angle_beta 26.099308
_cell_angle_gamma 90.000000
_cell_volume 1235.794566
_symmetry_space_group_name_H-M "C C"
_symmetry_group_IT_number 9
_symmetry_cell_setting 'monoclinic'
loop_
_space_group_symop_operation_xyz
x,y,z
x,-y,1/2+z
1/2+x,1/2+y,z
1/2+x,1/2-y,1/2+z
loop_
_atom_site_type_symbol
_atom_site_label
_atom_site_fract_x
_atom_site_fract_y
_atom_site_fract_z
Si Si1 0.718590 0.684843 0.496780
Si Si2 0.596193 0.165629 0.315212
Si Si3 0.798969 0.762150 0.700887
Si Si4 0.391790 0.359872 0.894566
Si Si5 0.689866 0.256875 0.509156
Si Si6 0.956341 0.732065 0.281868
Si Si7 0.889604 0.555910 0.005275
O O1 0.665517 0.746903 0.651074
O O2 0.715360 0.470825 0.490069
O O3 0.871088 0.735501 0.307143
O O4 0.611935 0.782576 0.573468
O O5 0.701066 0.151749 0.256454
O O6 0.460014 0.281416 0.499532
O O7 0.532167 0.971158 0.370786
O O8 0.747240 0.801603 0.852878
O O9 0.788986 0.546745 0.689190
O O10 0.529738 0.251854 0.704466
O O11 0.276817 0.338225 0.970896
O O12 0.431175 0.569811 0.852493
O O13 0.350775 0.254292 0.026016
O O14 0.905176 0.578299 0.407388
#
# Coordination Sequence:
#
# PCOD9134115 Si02
#       7
#     4   4   4   4   4   4   4
#     4  10  18  37  57  87 111 158 197 244 293 351
#     4   9  17  33  62  81 109 166 197 235 296 366
#     4  10  19  34  60  86 120 162 193 241 319 341
#     4  11  23  36  61  93 115 157 213 241 294 363
#     4  11  23  35  57  95 125 152 197 259 295 362
#     4  10  20  34  63  85 112 151 207 246 286 350
#     4   9  20  37  62  81 116 156 198 246 289 357
#
# _framework density 22.657485999999999
#
# number of rings (size 3 to 8) (size 9 to 14) (size 15 to 20)
#    0.857    1.143    2.857    0.857    4.000    0.000 
#    0.000    0.000    3.143    6.857    0.000    0.000 
#    0.000    0.000    0.000    0.000    0.000    0.000 
#
# Total GULP energy -77973.618651 kJ/mol
# GULP energy per Si atom -5569.544189 kJ/mol
# Density = 2.260592 g / cm^3
# Si number density = 22.657486 Si / 1000 Ang^3
#
#
#
# Elastic Constant Matrix: (Units=GPa)
#
#
# Indices 1 2 3 4 5 6 
#
# 1 117.9381 14.1218 54.0392 -0.0005 -39.7588 0.0003
# 2 14.1218 71.5037 1.2751 -0.0002 -2.3036 0.0003
# 3 54.0392 1.2751 81.2265 0.0000 -37.8049 0.0001
# 4 -0.0005 -0.0002 0.0000 21.9406 0.0002 -14.1770
# 5 -39.7588 -2.3036 -37.8049 0.0002 41.1148 -0.0002
# 6 0.0003 0.0003 0.0001 -14.1770 -0.0002 12.7871
#
#
#
# Elastic Compliance Matrix: (Units=1/GPa)
#
#
# Indices 1 2 3 4 5 6 
#
# 1 0.014119 -0.002416 -0.005356 0.000001 0.008594 0.000001
# 2 -0.002416 0.014427 0.001171 0.000000 -0.000452 -0.000001
# 3 -0.005356 0.001171 0.023558 -0.000001 0.016548 -0.000001
# 4 0.000001 0.000000 -0.000001 0.160703 0.000000 0.178171
# 5 0.008594 -0.000452 0.016548 0.000000 0.047823 0.000000
# 6 0.000001 -0.000001 -0.000001 0.178171 0.000000 0.275741
#
#
# Mechanical properties :
#
#
# Convention : Reuss Voigt Hill
#
# Bulk Modulus (GPa) = 25.70581 45.50451 35.60516
# Shear Modulus (GPa) = 8.88824 28.58397 18.73611
#
# Velocity S-wave (km/s) = 1.98277 3.55571 2.87875
# Velocity P-wave (km/s) = 4.07577 6.08150 5.17671
#
# Compressibility (1/GPa) = 0.03890171
#
# Stress axis : x y z
#
# Youngs Moduli (GPa) = 70.82425 69.31427 42.44879
#
# Poissons Ratio (x) = 0.16748 0.22735
# Poissons Ratio (y) = 0.17112 -0.04970
# Poissons Ratio (z) = 0.37933 -0.08115
#
# Static dielectric constant tensor:
#      x y z
#    x 1.905940 0.000000 -0.078740 
#    y 0.000000 1.854800 0.000000 
#    z -0.078740 0.000000 1.907600 
# 
# From -- ./inp_files/19885.got.cif
#   From: 2010.05.17/outbox.cif.g08.bks.cpg/sg9_10_cif.got.tgz:19885.got - 2010.06.03 20:04:27.
