data_PCOD9134305
_publ_section_title
;
Structure prediction by ZEFSAII (Michael W. Deem and Ramdas Pophale) SiO2 
 PCOD9134305
Probable space group: C C
;
_chemical_formula_sum "Si O2"
_cell_formula_units_Z 32
_cell_length_a 18.051695
_cell_length_b 5.020437
_cell_length_c 14.686149
_cell_angle_alpha 90.000000
_cell_angle_beta 78.057284
_cell_angle_gamma 90.000000
_cell_volume 1302.158647
_symmetry_space_group_name_H-M "C C"
_symmetry_group_IT_number 9
_symmetry_cell_setting 'monoclinic'
loop_
_space_group_symop_operation_xyz
x,y,z
x,-y,1/2+z
1/2+x,1/2+y,z
1/2+x,1/2-y,1/2+z
loop_
_atom_site_type_symbol
_atom_site_label
_atom_site_fract_x
_atom_site_fract_y
_atom_site_fract_z
Si Si1 0.202620 0.296915 0.492770
Si Si2 0.450487 0.030443 0.931353
Si Si3 0.849034 0.791954 0.174631
Si Si4 0.432346 0.213925 0.631741
Si Si5 0.182392 0.240535 0.286329
Si Si6 0.053368 0.047501 0.519367
Si Si7 0.299656 0.190511 0.991879
Si Si8 0.587401 0.257591 0.331097
O O1 0.200107 0.210764 0.388410
O O2 0.117036 0.240575 0.545384
O O3 0.237447 0.589339 0.485205
O O4 0.257692 0.084429 0.525565
O O5 0.426576 0.841527 0.023039
O O6 0.501796 0.262555 0.966249
O O7 0.371461 0.131316 0.908794
O O8 0.503590 0.868172 0.848214
O O9 0.913678 0.573979 0.177426
O O10 0.764401 0.712573 0.222128
O O11 0.843132 0.805629 0.067362
O O12 0.873012 0.087332 0.193990
O O13 0.509524 0.383579 0.608030
O O14 0.145938 0.530634 0.286787
O O15 0.118540 0.024992 0.277059
O O16 0.088066 0.830838 0.439775
#
# Coordination Sequence:
#
# PCOD9134305 Si02
#       8
#     4   4   4   4   4   4   4   4
#     4  11  23  36  58  93 121 146 191 255 305 327
#     4  10  19  35  61  86 118 150 204 245 282 353
#     4  11  22  38  59  88 121 159 197 239 294 371
#     4  10  19  33  59  88 106 153 210 238 278 340
#     4  11  22  38  59  88 121 159 197 239 294 371
#     4  10  19  35  61  86 118 150 204 245 282 353
#     4  11  23  36  58  93 121 146 191 255 305 327
#     4  10  19  33  59  88 106 153 210 238 278 340
#
# _framework density 24.574580000000001
#
# number of rings (size 3 to 8) (size 9 to 14) (size 15 to 20)
#    0.000    1.500    5.000    3.750    3.500    0.000 
#    0.000    0.000    0.000    6.000    0.000    0.000 
#    0.000    0.000    0.000    0.000    0.000    0.000 
#
# Total GULP energy -89212.819849 kJ/mol
# GULP energy per Si atom -5575.801241 kJ/mol
# Density = 2.451865 g / cm^3
# Si number density = 24.574580 Si / 1000 Ang^3
#
#
#
# Elastic Constant Matrix: (Units=GPa)
#
#
# Indices 1 2 3 4 5 6 
#
# 1 85.8446 35.9314 15.3493 0.0000 -34.0648 0.0000
# 2 35.9314 149.1779 20.2314 0.0000 -25.6319 0.0000
# 3 15.3493 20.2314 42.9844 0.0000 -22.4320 0.0000
# 4 0.0000 0.0000 0.0000 21.8137 0.0000 -23.0083
# 5 -34.0648 -25.6319 -22.4320 0.0000 39.4814 0.0000
# 6 0.0000 0.0000 0.0000 -23.0083 0.0000 32.1685
#
#
#
# Elastic Compliance Matrix: (Units=1/GPa)
#
#
# Indices 1 2 3 4 5 6 
#
# 1 0.018413 -0.002040 0.002821 0.000000 0.016166 0.000000
# 2 -0.002040 0.007832 -0.001738 0.000000 0.002337 0.000000
# 3 0.002821 -0.001738 0.033769 0.000000 0.020492 0.000000
# 4 0.000000 0.000000 0.000000 0.186666 0.000000 0.133512
# 5 0.016166 0.002337 0.020492 0.000000 0.052436 0.000000
# 6 0.000000 0.000000 0.000000 0.133512 0.000000 0.126580
#
#
# Mechanical properties :
#
#
# Convention : Reuss Voigt Hill
#
# Bulk Modulus (GPa) = 17.21169 46.78125 31.99647
# Shear Modulus (GPa) = 11.18626 32.45904 21.82265
#
# Velocity S-wave (km/s) = 2.13585 3.63828 2.98319
# Velocity P-wave (km/s) = 3.61960 6.06029 4.99143
#
# Compressibility (1/GPa) = 0.05810003
#
# Stress axis : x y z
#
# Youngs Moduli (GPa) = 54.30887 127.68045 29.61290
#
# Poissons Ratio (x) = 0.26048 -0.08354
# Poissons Ratio (y) = 0.11079 0.05148
# Poissons Ratio (z) = -0.15322 0.22195
#
# Static dielectric constant tensor:
#      x y z
#    x 2.081540 0.000000 -0.085180 
#    y 0.000000 2.057840 0.000000 
#    z -0.085180 0.000000 2.024430 
# 
# From -- ./inp_files/35683.got.cif
#   From: 2010.05.17/outbox.cif.g08.bks.cpg/sg9_18_cif.got.tgz:35683.got - 2010.06.03 20:04:27.
