data_PCOD9134961
_publ_section_title
;
Structure prediction by ZEFSAII (Michael W. Deem and Ramdas Pophale) SiO2 
 PCOD9134961
Probable space group: C C
;
_chemical_formula_sum "Si O2"
_cell_formula_units_Z 32
_cell_length_a 21.682175
_cell_length_b 14.651896
_cell_length_c 7.971669
_cell_angle_alpha 90.000000
_cell_angle_beta 33.235155
_cell_angle_gamma 90.000000
_cell_volume 1387.992561
_symmetry_space_group_name_H-M "C C"
_symmetry_group_IT_number 9
_symmetry_cell_setting 'monoclinic'
loop_
_space_group_symop_operation_xyz
x,y,z
x,-y,1/2+z
1/2+x,1/2+y,z
1/2+x,1/2-y,1/2+z
loop_
_atom_site_type_symbol
_atom_site_label
_atom_site_fract_x
_atom_site_fract_y
_atom_site_fract_z
Si Si1 0.670250 0.947251 0.737960
Si Si2 0.490958 0.435552 0.133795
Si Si3 0.789725 0.186093 0.199310
Si Si4 0.831580 0.378044 0.032365
Si Si5 0.772044 0.745725 0.121176
Si Si6 0.394693 0.600976 0.518653
Si Si7 0.748465 0.446888 0.569843
Si Si8 0.578306 0.124495 0.125953
O O1 0.695843 0.881583 0.837975
O O2 0.783826 0.937840 0.367275
O O3 0.575706 0.912003 0.823430
O O4 0.643736 0.046974 0.868714
O O5 0.409273 0.365764 0.416195
O O6 0.430080 0.532974 0.291671
O O7 0.488336 0.400848 0.949050
O O8 0.616313 0.449668 0.911244
O O9 0.791772 0.276489 0.078208
O O10 0.774081 0.220868 0.423020
O O11 0.760894 0.415493 0.350466
O O12 0.813277 0.458254 0.942181
O O13 0.957762 0.366739 0.815145
O O14 0.863625 0.801735 0.016506
O O15 0.792305 0.638332 0.079157
O O16 0.650730 0.782592 0.459831
#
# Coordination Sequence:
#
# PCOD9134961 Si02
#       8
#     4   4   4   4   4   4   4   4
#     4  10  20  35  62  93 116 144 191 245 292 342
#     4  11  20  38  62  88 116 154 191 236 292 345
#     4  10  21  39  61  88 117 148 192 244 291 343
#     4  11  25  42  58  83 120 158 196 237 284 344
#     4  10  21  39  61  88 117 148 192 244 291 343
#     4  10  20  35  62  93 116 144 191 245 292 342
#     4  11  25  42  58  83 120 158 196 237 284 344
#     4  11  20  38  62  88 116 154 191 236 292 345
#
# _framework density 23.054877000000001
#
# number of rings (size 3 to 8) (size 9 to 14) (size 15 to 20)
#    0.000    1.500    0.000    7.500    0.000    3.000 
#    0.000   13.750    0.000    0.000    0.000    1.750 
#    0.000    0.000    0.000    0.000    0.000    0.000 
#
# Total GULP energy -89456.599904 kJ/mol
# GULP energy per Si atom -5591.037494 kJ/mol
# Density = 2.300240 g / cm^3
# Si number density = 23.054877 Si / 1000 Ang^3
#
#
#
# Elastic Constant Matrix: (Units=GPa)
#
#
# Indices 1 2 3 4 5 6 
#
# 1 74.5131 13.2261 -2.1857 0.0000 -2.4329 0.0000
# 2 13.2261 73.9803 3.9316 0.0000 -15.6756 0.0000
# 3 -2.1857 3.9316 28.4065 0.0000 -8.4377 0.0000
# 4 0.0000 0.0000 0.0000 17.2562 0.0000 5.4833
# 5 -2.4329 -15.6756 -8.4377 0.0000 29.3531 0.0000
# 6 0.0000 0.0000 0.0000 5.4833 0.0000 25.4299
#
#
#
# Elastic Compliance Matrix: (Units=1/GPa)
#
#
# Indices 1 2 3 4 5 6 
#
# 1 0.013919 -0.002517 0.001490 0.000000 0.000238 0.000000
# 2 -0.002517 0.015700 0.000068 0.000000 0.008195 0.000000
# 3 0.001490 0.000068 0.038657 0.000000 0.011272 0.000000
# 4 0.000000 0.000000 0.000000 0.062213 0.000000 -0.013415
# 5 0.000238 0.008195 0.011272 0.000000 0.041704 0.000000
# 6 0.000000 0.000000 0.000000 -0.013415 0.000000 0.042216
#
#
# Mechanical properties :
#
#
# Convention : Reuss Voigt Hill
#
# Bulk Modulus (GPa) = 15.07025 22.98268 19.02646
# Shear Modulus (GPa) = 20.96906 25.20303 23.08604
#
# Velocity S-wave (km/s) = 3.01911 3.30991 3.16785
# Velocity P-wave (km/s) = 4.32484 4.95960 4.65306
#
# Compressibility (1/GPa) = 0.06635591
#
# Stress axis : x y z
#
# Youngs Moduli (GPa) = 71.84568 63.69427 25.86882
#
# Poissons Ratio (x) = 0.16033 -0.03854
# Poissons Ratio (y) = 0.18085 -0.00175
# Poissons Ratio (z) = -0.10704 -0.00430
#
# Static dielectric constant tensor:
#      x y z
#    x 1.911950 0.000000 0.006980 
#    y 0.000000 1.870560 0.000000 
#    z 0.006980 0.000000 1.881110 
# 
# From -- ./inp_files/12251.got.cif
#   From: 2010.05.17/outbox.cif.g08.bks.cpg/sg9_7_cif.got.tgz:12251.got - 2010.06.03 20:04:27.
