data_PCOD9134970
_publ_section_title
;
Structure prediction by ZEFSAII (Michael W. Deem and Ramdas Pophale) SiO2 
 PCOD9134970
Probable space group: C C
;
_chemical_formula_sum "Si O2"
_cell_formula_units_Z 28
_cell_length_a 13.116258
_cell_length_b 17.812630
_cell_length_c 5.294032
_cell_angle_alpha 90.000000
_cell_angle_beta 110.037366
_cell_angle_gamma 90.000000
_cell_volume 1162.002827
_symmetry_space_group_name_H-M "C C"
_symmetry_group_IT_number 9
_symmetry_cell_setting 'monoclinic'
loop_
_space_group_symop_operation_xyz
x,y,z
x,-y,1/2+z
1/2+x,1/2+y,z
1/2+x,1/2-y,1/2+z
loop_
_atom_site_type_symbol
_atom_site_label
_atom_site_fract_x
_atom_site_fract_y
_atom_site_fract_z
Si Si1 0.507300 0.546278 0.738210
Si Si2 0.223615 0.771500 0.994105
Si Si3 0.437777 0.024754 0.527018
Si Si4 0.634724 0.799518 0.927054
Si Si5 0.902059 0.316012 0.853961
Si Si6 0.269227 0.551474 0.616280
Si Si7 0.244313 0.095007 0.849502
O O1 0.504929 0.519694 0.445372
O O2 0.392386 0.585884 0.696387
O O3 0.626776 0.581036 0.869346
O O4 0.191518 0.728863 0.220449
O O5 0.221650 0.859248 0.072880
O O6 0.150542 0.748941 0.695729
O O7 0.344190 0.756732 0.985489
O O8 0.432929 0.113054 0.555458
O O9 0.495406 0.010656 0.312365
O O10 0.323288 0.978104 0.387947
O O11 0.685041 0.880586 0.029279
O O12 0.505996 0.796147 0.781053
O O13 0.813917 0.350770 0.588337
O O14 0.259743 0.494355 0.370588
#
# Coordination Sequence:
#
# PCOD9134970 Si02
#       7
#     4   4   4   4   4   4   4
#     4  10  22  38  68 103 139 177 232 300 354 424
#     4  12  27  48  67 105 148 192 241 293 358 464
#     4  10  20  35  66 101 138 174 225 303 359 414
#     4  12  29  47  75 104 147 197 242 300 372 452
#     4  11  26  47  71 108 148 185 251 304 369 431
#     4  10  23  48  71 102 139 185 247 295 361 437
#     4  11  23  43  72 107 141 188 242 303 377 422
#
# _framework density 24.096326000000001
#
# number of rings (size 3 to 8) (size 9 to 14) (size 15 to 20)
#    0.000    1.143    2.857    2.571    4.000    4.571 
#    0.000    0.000    0.000    0.000    0.000    0.000 
#    0.000    0.000    0.000    0.000    0.000    0.000 
#
# Total GULP energy -78193.866473 kJ/mol
# GULP energy per Si atom -5585.276177 kJ/mol
# Density = 2.404148 g / cm^3
# Si number density = 24.096326 Si / 1000 Ang^3
#
#
#
# Elastic Constant Matrix: (Units=GPa)
#
#
# Indices 1 2 3 4 5 6 
#
# 1 153.0244 32.8286 27.3120 0.0000 7.6156 0.0000
# 2 32.8286 33.0211 9.4237 0.0000 -8.6505 0.0000
# 3 27.3120 9.4237 86.6706 0.0000 -22.7253 0.0000
# 4 0.0000 0.0000 0.0000 41.1049 0.0000 -6.0606
# 5 7.6156 -8.6505 -22.7253 0.0000 24.5185 0.0000
# 6 0.0000 0.0000 0.0000 -6.0606 0.0000 30.0266
#
#
#
# Elastic Compliance Matrix: (Units=1/GPa)
#
#
# Indices 1 2 3 4 5 6 
#
# 1 0.010840 -0.012592 -0.005409 0.000000 -0.012823 0.000000
# 2 -0.012592 0.048029 0.005568 0.000000 0.026017 0.000000
# 3 -0.005409 0.005568 0.017957 0.000000 0.020288 0.000000
# 4 0.000000 0.000000 0.000000 0.025074 0.000000 0.005061
# 5 -0.012823 0.026017 0.020288 0.000000 0.072752 0.000000
# 6 0.000000 0.000000 0.000000 0.005061 0.000000 0.034325
#
#
# Mechanical properties :
#
#
# Convention : Reuss Voigt Hill
#
# Bulk Modulus (GPa) = 19.24608 45.76053 32.50330
# Shear Modulus (GPa) = 19.90728 32.67345 26.29037
#
# Velocity S-wave (km/s) = 2.87741 3.68632 3.30669
# Velocity P-wave (km/s) = 4.36392 6.09512 5.30067
#
# Compressibility (1/GPa) = 0.05195863
#
# Stress axis : x y z
#
# Youngs Moduli (GPa) = 92.25111 20.82056 55.68980
#
# Poissons Ratio (x) = 0.26218 0.30123
# Poissons Ratio (y) = 1.16166 -0.31007
# Poissons Ratio (z) = 0.49899 -0.11592
#
# Static dielectric constant tensor:
#      x y z
#    x 2.032260 0.000000 0.001580 
#    y 0.000000 1.966870 0.000000 
#    z 0.001580 0.000000 1.936500 
# 
# From -- ./inp_files/1736.got.cif
#   From: 2010.05.17/outbox.cif.g08.bks.cpg/sg9_1_cif.got.tgz:1736.got - 2010.06.03 20:04:27.
