data_PCOD9134759
_publ_section_title
;
Structure prediction by ZEFSAII (Michael W. Deem and Ramdas Pophale) SiO2 
 PCOD9134759
Probable space group: C C
;
_chemical_formula_sum "Si O2"
_cell_formula_units_Z 28
_cell_length_a 5.293374
_cell_length_b 28.970326
_cell_length_c 9.403159
_cell_angle_alpha 90.000000
_cell_angle_beta 132.857589
_cell_angle_gamma 90.000000
_cell_volume 1057.039730
_symmetry_space_group_name_H-M "C C"
_symmetry_group_IT_number 9
_symmetry_cell_setting 'monoclinic'
loop_
_space_group_symop_operation_xyz
x,y,z
x,-y,1/2+z
1/2+x,1/2+y,z
1/2+x,1/2-y,1/2+z
loop_
_atom_site_type_symbol
_atom_site_label
_atom_site_fract_x
_atom_site_fract_y
_atom_site_fract_z
Si Si1 0.886030 0.050851 0.943970
Si Si2 0.626067 0.479224 0.230949
Si Si3 0.057549 0.690581 0.589604
Si Si4 0.195207 0.321950 0.735582
Si Si5 0.832612 0.110676 0.539430
Si Si6 0.654211 0.255803 0.413875
Si Si7 0.099324 0.354043 0.388748
O O1 0.490924 0.033734 0.801050
O O2 0.856825 0.106041 0.931722
O O3 0.085919 0.030682 0.883653
O O4 0.043702 0.030716 0.149250
O O5 0.341289 0.444216 0.053167
O O6 0.060728 0.638385 0.532957
O O7 0.897514 0.723598 0.409159
O O8 0.039705 0.685440 0.749919
O O9 0.433867 0.714235 0.717882
O O10 0.829383 0.296423 0.572378
O O11 0.366897 0.280900 0.897370
O O12 0.252249 0.336158 0.594977
O O13 0.261859 0.366682 0.858517
O O14 0.214994 0.123510 0.747364
#
# Coordination Sequence:
#
# PCOD9134759 Si02
#       7
#     4   4   4   4   4   4   4
#     4  11  25  45  74 104 144 183 234 290 358 424
#     4  11  24  47  71 106 142 183 233 292 354 431
#     4  10  19  41  57  89 126 163 216 279 330 396
#     4  10  21  40  64  90 127 177 220 276 346 399
#     4  10  22  43  65  89 134 169 223 279 343 408
#     4   9  20  39  63  87 128 174 220 277 339 411
#     4  11  23  41  66  95 129 173 228 283 346 407
#
# _framework density 26.489070000000002
#
# number of rings (size 3 to 8) (size 9 to 14) (size 15 to 20)
#    0.000    1.714    2.857    0.857    2.000    1.143 
#   10.286    0.000    0.000    0.000    0.000    0.000 
#    0.000    0.000    0.000    0.000    0.000    0.000 
#
# Total GULP energy -78040.681210 kJ/mol
# GULP energy per Si atom -5574.334372 kJ/mol
# Density = 2.642878 g / cm^3
# Si number density = 26.489070 Si / 1000 Ang^3
#
#
#
# Elastic Constant Matrix: (Units=GPa)
#
#
# Indices 1 2 3 4 5 6 
#
# 1 60.7112 12.7966 37.4415 0.0000 -40.5774 0.0000
# 2 12.7966 75.5254 28.3741 0.0000 -12.5043 0.0000
# 3 37.4415 28.3741 146.6270 0.0000 -40.1596 0.0000
# 4 0.0000 0.0000 0.0000 56.5093 0.0000 -9.0292
# 5 -40.5774 -12.5043 -40.1596 0.0000 50.0937 0.0000
# 6 0.0000 0.0000 0.0000 -9.0292 0.0000 7.6692
#
#
#
# Elastic Compliance Matrix: (Units=1/GPa)
#
#
# Indices 1 2 3 4 5 6 
#
# 1 0.036257 -0.000981 -0.001399 0.000000 0.028003 0.000000
# 2 -0.000981 0.014423 -0.002271 0.000000 0.000985 0.000000
# 3 -0.001399 -0.002271 0.009163 0.000000 0.005646 0.000000
# 4 0.000000 0.000000 0.000000 0.021797 0.000000 0.025662
# 5 0.028003 0.000985 0.005646 0.000000 0.047418 0.000000
# 6 0.000000 0.000000 0.000000 0.025662 0.000000 0.160604
#
#
# Mechanical properties :
#
#
# Convention : Reuss Voigt Hill
#
# Bulk Modulus (GPa) = 19.78562 48.89867 34.34215
# Shear Modulus (GPa) = 15.83224 36.47120 26.15172
#
# Velocity S-wave (km/s) = 2.44742 3.71460 3.14549
# Velocity P-wave (km/s) = 3.93345 6.07435 5.11712
#
# Compressibility (1/GPa) = 0.05054176
#
# Stress axis : x y z
#
# Youngs Moduli (GPa) = 27.58065 69.33376 109.13468
#
# Poissons Ratio (x) = 0.06805 0.15264
# Poissons Ratio (y) = 0.02707 0.24781
# Poissons Ratio (z) = 0.03858 0.15743
#
# Static dielectric constant tensor:
#      x y z
#    x 2.190820 0.000000 0.065470 
#    y 0.000000 2.140180 0.000000 
#    z 0.065470 0.000000 2.318340 
# 
# From -- ./inp_files/4278.got.cif
#   From: 2010.05.17/outbox.cif.g08.bks.cpg/sg9_3_cif.got.tgz:4278.got - 2010.06.03 20:04:27.
