data_PCOD9134878
_publ_section_title
;
Structure prediction by ZEFSAII (Michael W. Deem and Ramdas Pophale) SiO2 
 PCOD9134878
Probable space group: C C
;
_chemical_formula_sum "Si O2"
_cell_formula_units_Z 24
_cell_length_a 9.993011
_cell_length_b 19.789641
_cell_length_c 9.376213
_cell_angle_alpha 90.000000
_cell_angle_beta 149.710046
_cell_angle_gamma 90.000000
_cell_volume 935.225541
_symmetry_space_group_name_H-M "C C"
_symmetry_group_IT_number 9
_symmetry_cell_setting 'monoclinic'
loop_
_space_group_symop_operation_xyz
x,y,z
x,-y,1/2+z
1/2+x,1/2+y,z
1/2+x,1/2-y,1/2+z
loop_
_atom_site_type_symbol
_atom_site_label
_atom_site_fract_x
_atom_site_fract_y
_atom_site_fract_z
Si Si1 0.619420 0.979027 0.263330
Si Si2 0.529283 0.573239 0.979095
Si Si3 0.711801 0.134647 0.264097
Si Si4 0.078202 0.940728 0.905875
Si Si5 0.207718 0.211773 0.225100
Si Si6 0.676233 0.670708 0.880090
O O1 0.713840 0.935682 0.211437
O O2 0.858948 0.969243 0.595611
O O3 0.627002 0.058113 0.231510
O O4 0.363671 0.944674 0.096171
O O5 0.623545 0.496102 0.075558
O O6 0.614349 0.634843 0.159610
O O7 0.631437 0.598497 0.920654
O O8 0.921253 0.122646 0.328373
O O9 0.894821 0.175492 0.543357
O O10 0.424115 0.170012 0.000130
O O11 0.236308 0.213396 0.078212
O O12 0.974383 0.264269 0.043580
#
# Coordination Sequence:
#
# PCOD9134878 Si02
#       6
#     4   4   4   4   4   4
#     4  11  19  34  48  76 108 143 173 200 250 315
#     4   9  22  33  54  77 112 132 171 219 255 303
#     4  11  19  34  50  75 109 143 166 210 248 313
#     4  11  22  32  53  78 109 145 170 194 255 320
#     4  10  20  34  53  80 102 130 173 218 268 299
#     4  10  20  35  52  76 106 133 169 213 266 294
#
# _framework density 25.662261000000001
#
# number of rings (size 3 to 8) (size 9 to 14) (size 15 to 20)
#    1.000    0.667    3.333    2.000    0.000    8.000 
#    0.000    0.000    0.000    0.000    0.000   23.333 
#    0.000    0.000    0.000    0.000    0.000    0.000 
#
# Total GULP energy -66855.864773 kJ/mol
# GULP energy per Si atom -5571.322064 kJ/mol
# Density = 2.560385 g / cm^3
# Si number density = 25.662261 Si / 1000 Ang^3
#
#
#
# Elastic Constant Matrix: (Units=GPa)
#
#
# Indices 1 2 3 4 5 6 
#
# 1 93.2727 10.5635 41.0202 0.0001 50.7958 0.0000
# 2 10.5635 69.0194 12.9935 -0.0001 12.7624 0.0000
# 3 41.0202 12.9935 125.9445 0.0006 43.5150 0.0000
# 4 0.0001 -0.0001 0.0006 16.5724 0.0001 -2.1261
# 5 50.7958 12.7624 43.5150 0.0001 59.1311 0.0000
# 6 0.0000 0.0000 0.0000 -2.1261 0.0000 32.4493
#
#
#
# Elastic Compliance Matrix: (Units=1/GPa)
#
#
# Indices 1 2 3 4 5 6 
#
# 1 0.020205 0.000165 -0.000789 0.000000 -0.016812 0.000000
# 2 0.000165 0.015124 -0.000586 0.000000 -0.002974 0.000000
# 3 -0.000789 -0.000586 0.010700 0.000000 -0.007070 0.000000
# 4 0.000000 0.000000 0.000000 0.060853 0.000000 0.003987
# 5 -0.016812 -0.002974 -0.007070 0.000000 0.037198 0.000000
# 6 0.000000 0.000000 0.000000 0.003987 0.000000 0.031079
#
#
# Mechanical properties :
#
#
# Convention : Reuss Voigt Hill
#
# Bulk Modulus (GPa) = 22.93162 46.37678 34.65420
# Shear Modulus (GPa) = 26.02589 36.54120 31.28354
#
# Velocity S-wave (km/s) = 3.18806 3.77759 3.49528
# Velocity P-wave (km/s) = 4.74415 6.09411 5.46100
#
# Compressibility (1/GPa) = 0.04360791
#
# Stress axis : x y z
#
# Youngs Moduli (GPa) = 49.49189 66.12087 93.45573
#
# Poissons Ratio (x) = -0.01090 0.07376
# Poissons Ratio (y) = -0.00816 0.05480
# Poissons Ratio (z) = 0.03906 0.03877
#
# Static dielectric constant tensor:
#      x y z
#    x 2.201050 0.000000 -0.042140 
#    y 0.000000 2.106090 0.000000 
#    z -0.042140 0.000000 1.999070 
# 
# From -- ./inp_files/17217.got.cif
#   From: 2010.05.17/outbox.cif.g08.bks.cpg/sg9_9_cif.got.tgz:17217.got - 2010.06.03 20:04:27.
