data_PCOD9134655
_publ_section_title
;
Structure prediction by ZEFSAII (Michael W. Deem and Ramdas Pophale) SiO2 
 PCOD9134655
Probable space group: C C
;
_chemical_formula_sum "Si O2"
_cell_formula_units_Z 32
_cell_length_a 26.278270
_cell_length_b 10.048364
_cell_length_c 12.818242
_cell_angle_alpha 90.000000
_cell_angle_beta 149.040592
_cell_angle_gamma 90.000000
_cell_volume 1741.195163
_symmetry_space_group_name_H-M "C C"
_symmetry_group_IT_number 9
_symmetry_cell_setting 'monoclinic'
loop_
_space_group_symop_operation_xyz
x,y,z
x,-y,1/2+z
1/2+x,1/2+y,z
1/2+x,1/2-y,1/2+z
loop_
_atom_site_type_symbol
_atom_site_label
_atom_site_fract_x
_atom_site_fract_y
_atom_site_fract_z
Si Si1 0.710250 0.160936 0.511750
Si Si2 0.843073 0.289334 0.117066
Si Si3 0.767866 0.383573 0.777400
Si Si4 0.846612 0.021668 0.584271
Si Si5 0.074414 0.010495 0.467584
Si Si6 0.715731 0.369427 0.072029
Si Si7 0.063511 0.284559 0.571821
Si Si8 0.200619 0.582101 0.148091
O O1 0.753460 0.277698 0.660073
O O2 0.616700 0.203455 0.276622
O O3 0.794132 0.113472 0.577745
O O4 0.681402 0.037580 0.535133
O O5 0.826224 0.131168 0.080339
O O6 0.756407 0.362647 0.027647
O O7 0.946494 0.307895 0.358941
O O8 0.843658 0.341021 0.999446
O O9 0.658251 0.401140 0.635672
O O10 0.785376 0.529850 0.760292
O O11 0.963765 0.039972 0.780507
O O12 0.796370 0.047113 0.384834
O O13 0.108393 0.068664 0.413269
O O14 0.083719 0.137041 0.560690
O O15 0.717667 0.220026 0.117863
O O16 0.115523 0.387840 0.583468
#
# Coordination Sequence:
#
# PCOD9134655 Si02
#       8
#     4   4   4   4   4   4   4   4
#     4  11  21  38  63  93 117 157 207 254 298 355
#     4  11  20  39  60  92 122 160 199 252 304 362
#     4  10  23  38  60  91 124 154 202 253 294 363
#     4  10  20  38  65  88 117 161 206 245 298 367
#     4   8  20  41  57  88 117 165 197 243 296 367
#     4   9  21  38  60  84 123 162 189 248 315 343
#     4   9  22  37  61  84 126 159 199 245 311 356
#     4  10  19  39  60  86 120 158 201 254 294 359
#
# _framework density 18.378181999999999
#
# number of rings (size 3 to 8) (size 9 to 14) (size 15 to 20)
#    0.750    1.500    2.500    0.000    1.750    2.000 
#    2.250    1.250    0.000    0.000    0.000    0.000 
#    0.000    0.000    0.000    0.000    0.000    0.000 
#
# Total GULP energy -89094.739055 kJ/mol
# GULP energy per Si atom -5568.421191 kJ/mol
# Density = 1.833635 g / cm^3
# Si number density = 18.378182 Si / 1000 Ang^3
#
#
#
# Elastic Constant Matrix: (Units=GPa)
#
#
# Indices 1 2 3 4 5 6 
#
# 1 52.2652 2.3949 24.7523 0.0000 -8.9622 0.0000
# 2 2.3949 25.3120 -0.2470 0.0000 6.0106 0.0000
# 3 24.7523 -0.2470 68.1066 0.0000 -3.3200 0.0000
# 4 0.0000 0.0000 0.0000 9.9534 0.0000 3.3395
# 5 -8.9622 6.0106 -3.3200 0.0000 21.7665 0.0000
# 6 0.0000 0.0000 0.0000 3.3395 0.0000 22.4383
#
#
#
# Elastic Compliance Matrix: (Units=1/GPa)
#
#
# Indices 1 2 3 4 5 6 
#
# 1 0.025268 -0.004956 -0.008692 0.000000 0.010447 0.000000
# 2 -0.004956 0.043263 0.001286 0.000000 -0.013791 0.000000
# 3 -0.008692 0.001286 0.017787 0.000000 -0.001221 0.000000
# 4 0.000000 0.000000 0.000000 0.105749 0.000000 -0.015739
# 5 0.010447 -0.013791 -0.001221 0.000000 0.053866 0.000000
# 6 0.000000 0.000000 0.000000 -0.015739 0.000000 0.046909
#
#
# Mechanical properties :
#
#
# Convention : Reuss Voigt Hill
#
# Bulk Modulus (GPa) = 16.23545 22.16490 19.20018
# Shear Modulus (GPa) = 14.78863 18.75056 16.76959
#
# Velocity S-wave (km/s) = 2.83977 3.19762 3.02399
# Velocity P-wave (km/s) = 4.42783 5.07145 4.76053
#
# Compressibility (1/GPa) = 0.06159363
#
# Stress axis : x y z
#
# Youngs Moduli (GPa) = 39.57550 23.11428 56.22078
#
# Poissons Ratio (x) = 0.11456 0.48867
# Poissons Ratio (y) = 0.19615 -0.07229
# Poissons Ratio (z) = 0.34399 -0.02972
#
# Static dielectric constant tensor:
#      x y z
#    x 1.652930 0.000000 0.004010 
#    y 0.000000 1.627410 0.000000 
#    z 0.004010 0.000000 1.621720 
# 
# From -- ./inp_files/21244.got.cif
#   From: 2010.05.17/outbox.cif.g08.bks.cpg/sg9_11_cif.got.tgz:21244.got - 2010.06.03 20:04:27.
