data_PCOD9134743
_publ_section_title
;
Structure prediction by ZEFSAII (Michael W. Deem and Ramdas Pophale) SiO2 
 PCOD9134743
Probable space group: C C
;
_chemical_formula_sum "Si O2"
_cell_formula_units_Z 32
_cell_length_a 13.158911
_cell_length_b 5.626835
_cell_length_c 29.748555
_cell_angle_alpha 90.000000
_cell_angle_beta 144.444327
_cell_angle_gamma 90.000000
_cell_volume 1280.840490
_symmetry_space_group_name_H-M "C C"
_symmetry_group_IT_number 9
_symmetry_cell_setting 'monoclinic'
loop_
_space_group_symop_operation_xyz
x,y,z
x,-y,1/2+z
1/2+x,1/2+y,z
1/2+x,1/2-y,1/2+z
loop_
_atom_site_type_symbol
_atom_site_label
_atom_site_fract_x
_atom_site_fract_y
_atom_site_fract_z
Si Si1 0.822700 0.990598 0.767720
Si Si2 0.859161 0.726350 0.465515
Si Si3 0.848316 0.241250 0.511258
Si Si4 0.456109 0.242150 0.227696
Si Si5 0.199906 0.891378 0.172412
Si Si6 0.736619 0.915340 0.067848
Si Si7 0.997781 0.234887 0.165943
Si Si8 0.234139 0.628448 0.824145
O O1 0.905053 0.121754 0.754889
O O2 0.609045 0.026684 0.693669
O O3 0.876718 0.087151 0.835771
O O4 0.830675 0.718922 0.756701
O O5 0.792057 0.486430 0.466402
O O6 0.782555 0.758394 0.388166
O O7 0.061977 0.667003 0.528762
O O8 0.831670 0.983560 0.479822
O O9 0.755843 0.204013 0.526230
O O10 0.058347 0.267028 0.595659
O O11 0.394168 0.353685 0.158725
O O12 0.325295 0.015746 0.182574
O O13 0.647832 0.131425 0.299764
O O14 0.081032 0.072300 0.157020
O O15 0.791103 0.197198 0.084347
O O16 0.091385 0.204326 0.248232
#
# Coordination Sequence:
#
# PCOD9134743 Si02
#       8
#     4   4   4   4   4   4   4   4
#     4   9  21  39  65 101 134 169 230 300 340 408
#     4  12  28  50  68 105 147 194 229 288 357 429
#     4  11  27  45  73 102 149 180 243 291 344 425
#     4  11  22  39  68 102 127 179 234 286 354 405
#     4  10  19  40  68 101 136 170 234 302 339 402
#     4  11  24  44  75 102 139 188 239 291 361 410
#     4   8  21  39  63  99 128 173 229 293 339 403
#     4  10  24  44  66 100 140 179 236 283 358 414
#
# _framework density 24.983592999999999
#
# number of rings (size 3 to 8) (size 9 to 14) (size 15 to 20)
#    0.750    1.000    1.250    2.250    7.000    4.000 
#    2.250    0.000    0.000    0.000    0.000    0.000 
#    0.000    0.000    0.000    0.000    0.000    0.000 
#
# Total GULP energy -89126.513402 kJ/mol
# GULP energy per Si atom -5570.407088 kJ/mol
# Density = 2.492673 g / cm^3
# Si number density = 24.983593 Si / 1000 Ang^3
#
#
#
# Elastic Constant Matrix: (Units=GPa)
#
#
# Indices 1 2 3 4 5 6 
#
# 1 96.1800 39.9526 33.8678 0.0001 -30.1165 -0.0004
# 2 39.9526 80.1768 36.0381 0.0001 -19.3390 -0.0003
# 3 33.8678 36.0381 82.7640 0.0002 -32.9481 0.0001
# 4 0.0001 0.0001 0.0002 23.1093 0.0001 -5.8168
# 5 -30.1165 -19.3390 -32.9481 0.0001 41.2708 0.0001
# 6 -0.0004 -0.0003 0.0001 -5.8168 0.0001 26.5105
#
#
#
# Elastic Compliance Matrix: (Units=1/GPa)
#
#
# Indices 1 2 3 4 5 6 
#
# 1 0.015455 -0.005408 -0.000716 0.000000 0.008172 0.000000
# 2 -0.005408 0.017616 -0.005486 0.000000 -0.000072 0.000000
# 3 -0.000716 -0.005486 0.019838 0.000000 0.012744 0.000000
# 4 0.000000 0.000000 0.000000 0.045802 0.000000 0.010050
# 5 0.008172 -0.000072 0.012744 0.000000 0.040334 0.000000
# 6 0.000000 0.000000 0.000000 0.010050 0.000000 0.039926
#
#
# Mechanical properties :
#
#
# Convention : Reuss Voigt Hill
#
# Bulk Modulus (GPa) = 33.68388 53.20420 43.44404
# Shear Modulus (GPa) = 23.57523 28.12894 25.85208
#
# Velocity S-wave (km/s) = 3.07519 3.35908 3.22026
# Velocity P-wave (km/s) = 5.11084 6.03212 5.59049
#
# Compressibility (1/GPa) = 0.02968779
#
# Stress axis : x y z
#
# Youngs Moduli (GPa) = 64.70529 56.76668 50.40906
#
# Poissons Ratio (x) = 0.30701 0.03610
# Poissons Ratio (y) = 0.34994 0.27654
# Poissons Ratio (z) = 0.04634 0.31142
#
# Static dielectric constant tensor:
#      x y z
#    x 2.054830 0.000000 0.033930 
#    y 0.000000 2.204560 0.000000 
#    z 0.033930 0.000000 2.062170 
# 
# From -- ./inp_files/37374.got.cif
#   From: 2010.05.17/outbox.cif.g08.bks.cpg/sg9_19_cif.got.tgz:37374.got - 2010.06.03 20:04:27.
