data_PCOD9134343
_publ_section_title
;
Structure prediction by ZEFSAII (Michael W. Deem and Ramdas Pophale) SiO2 
 PCOD9134343
Probable space group: C C
;
_chemical_formula_sum "Si O2"
_cell_formula_units_Z 32
_cell_length_a 15.808292
_cell_length_b 10.146139
_cell_length_c 20.686642
_cell_angle_alpha 90.000000
_cell_angle_beta 23.881531
_cell_angle_gamma 90.000000
_cell_volume 1343.279948
_symmetry_space_group_name_H-M "C C"
_symmetry_group_IT_number 9
_symmetry_cell_setting 'monoclinic'
loop_
_space_group_symop_operation_xyz
x,y,z
x,-y,1/2+z
1/2+x,1/2+y,z
1/2+x,1/2-y,1/2+z
loop_
_atom_site_type_symbol
_atom_site_label
_atom_site_fract_x
_atom_site_fract_y
_atom_site_fract_z
Si Si1 0.801210 0.058517 0.238440
Si Si2 0.191621 0.176951 0.605933
Si Si3 0.818410 0.493996 0.728738
Si Si4 0.038853 0.775148 0.462485
Si Si5 0.208649 0.786821 0.690601
Si Si6 0.065997 0.145593 0.508041
Si Si7 0.231269 0.384939 0.469071
Si Si8 0.910709 0.429959 0.435679
O O1 0.701538 0.155438 0.360380
O O2 0.604778 0.988183 0.341228
O O3 0.949447 0.933615 0.146567
O O4 0.936961 0.145720 0.092973
O O5 0.348357 0.215197 0.554594
O O6 0.178127 0.311162 0.573712
O O7 0.307521 0.063864 0.481795
O O8 0.979778 0.115639 0.784015
O O9 0.678971 0.624842 0.821403
O O10 0.743577 0.392573 0.724644
O O11 0.068657 0.502437 0.566044
O O12 0.742380 0.435059 0.849813
O O13 0.396196 0.682896 0.571953
O O14 0.246421 0.865134 0.599190
O O15 0.004928 0.694059 0.831368
O O16 0.155987 0.280013 0.469129
#
# Coordination Sequence:
#
# PCOD9134343 Si02
#       8
#     4   4   4   4   4   4   4   4
#     4   9  20  35  59  89 124 151 207 255 300 354
#     4  11  23  38  61  90 125 162 202 250 316 371
#     4  10  20  35  62  89 118 162 208 252 295 367
#     4  10  21  38  59  92 124 158 210 254 305 361
#     4  10  19  34  60  89 118 148 209 261 300 349
#     4   9  18  37  58  88 113 158 203 251 295 364
#     4  11  22  39  61  86 126 163 202 247 312 375
#     4  10  21  36  58  89 122 158 201 254 309 365
#
# _framework density 23.822286999999999
#
# number of rings (size 3 to 8) (size 9 to 14) (size 15 to 20)
#    0.000    2.000    2.500    1.500    5.250    0.000 
#    0.000    0.000    2.750    0.000    0.000    0.000 
#    0.000    0.000    0.000    0.000    0.000    0.000 
#
# Total GULP energy -89173.415315 kJ/mol
# GULP energy per Si atom -5573.338457 kJ/mol
# Density = 2.376807 g / cm^3
# Si number density = 23.822287 Si / 1000 Ang^3
#
#
#
# Elastic Constant Matrix: (Units=GPa)
#
#
# Indices 1 2 3 4 5 6 
#
# 1 19.3351 -2.4300 21.7226 -0.0147 -3.3349 0.0118
# 2 -2.4300 71.7770 50.6466 -0.0275 3.0629 0.0114
# 3 21.7226 50.6466 129.7531 -0.0282 -6.8321 0.0160
# 4 -0.0147 -0.0275 -0.0282 -2.7254 0.0067 83.4494
# 5 -3.3349 3.0629 -6.8321 0.0067 30.9605 -0.0088
# 6 0.0118 0.0114 0.0160 83.4494 -0.0088 -67.5476
#
#
#
# Elastic Compliance Matrix: (Units=1/GPa)
#
#
# Indices 1 2 3 4 5 6 
#
# 1 0.074752 0.015408 -0.018399 0.000001 0.002467 0.000012
# 2 0.015408 0.022809 -0.011649 0.000002 -0.003167 0.000007
# 3 -0.018399 -0.011649 0.015470 0.000000 0.002584 -0.000002
# 4 0.000001 0.000002 0.000000 0.009963 0.000001 0.012309
# 5 0.002467 -0.003167 0.002584 0.000001 0.033449 -0.000002
# 6 0.000012 0.000007 -0.000002 0.012309 -0.000002 0.000402
#
#
# Mechanical properties :
#
#
# Convention : Reuss Voigt Hill
#
# Bulk Modulus (GPa) = 11.94023 40.08262 26.01143
# Shear Modulus (GPa) = 23.35992 2.19924 12.77958
#
# Velocity S-wave (km/s) = 3.13484 0.96187 2.31866
# Velocity P-wave (km/s) = 4.25747 4.25391 4.25569
#
# Compressibility (1/GPa) = 0.08375046
#
# Stress axis : x y z
#
# Youngs Moduli (GPa) = 13.37758 43.84317 64.64016
#
# Poissons Ratio (x) = -0.67552 1.18930
# Poissons Ratio (y) = -0.20612 0.75300
# Poissons Ratio (z) = 0.24613 0.51074
#
# Static dielectric constant tensor:
#      x y z
#    x 1.908330 0.000000 -0.005280 
#    y 0.000000 2.008360 0.000010 
#    z -0.005280 0.000010 1.981530 
# 
# From -- ./inp_files/10746.got.cif
#   From: 2010.05.17/outbox.cif.g08.bks.cpg/sg9_6_cif.got.tgz:10746.got - 2010.06.03 20:04:27.
