data_PCOD9134620
_publ_section_title
;
Structure prediction by ZEFSAII (Michael W. Deem and Ramdas Pophale) SiO2 
 PCOD9134620
Probable space group: C C
;
_chemical_formula_sum "Si O2"
_cell_formula_units_Z 24
_cell_length_a 6.497203
_cell_length_b 27.913584
_cell_length_c 5.260612
_cell_angle_alpha 90.000000
_cell_angle_beta 79.859078
_cell_angle_gamma 90.000000
_cell_volume 939.161036
_symmetry_space_group_name_H-M "C C"
_symmetry_group_IT_number 9
_symmetry_cell_setting 'monoclinic'
loop_
_space_group_symop_operation_xyz
x,y,z
x,-y,1/2+z
1/2+x,1/2+y,z
1/2+x,1/2-y,1/2+z
loop_
_atom_site_type_symbol
_atom_site_label
_atom_site_fract_x
_atom_site_fract_y
_atom_site_fract_z
Si Si1 0.508570 0.897449 0.139650
Si Si2 0.718749 0.316755 0.115967
Si Si3 0.860600 0.777243 0.881319
Si Si4 0.785181 0.832480 0.391914
Si Si5 0.771888 0.980940 0.876773
Si Si6 0.804496 0.520451 0.946364
O O1 0.397066 0.854617 0.012919
O O2 0.627535 0.874233 0.354330
O O3 0.320141 0.931114 0.281384
O O4 0.687194 0.927640 0.950454
O O5 0.803183 0.275403 0.288882
O O6 0.528986 0.344642 0.296138
O O7 0.599299 0.292165 0.903885
O O8 0.775667 0.809980 0.670582
O O9 0.756399 0.793354 0.170109
O O10 0.881762 0.992849 0.588740
O O11 0.555956 0.011033 0.914223
O O12 0.738902 0.479941 0.754473
#
# Coordination Sequence:
#
# PCOD9134620 Si02
#       6
#     4   4   4   4   4   4
#     4  10  19  38  65  87 115 156 194 245 279 343
#     4  10  24  41  60  87 115 155 199 238 290 346
#     4  10  24  42  57  79 125 149 191 243 295 334
#     4  10  25  41  56  91 111 152 198 240 286 345
#     4   8  16  32  53  86 112 150 186 225 288 346
#     4   8  16  32  53  86 112 150 186 225 288 346
#
# _framework density 25.554722000000002
#
# number of rings (size 3 to 8) (size 9 to 14) (size 15 to 20)
#    1.000    2.000    0.000    1.000    4.667    5.333 
#   15.000    0.000    0.000   18.000    0.000    0.000 
#    0.000    0.000    0.000    0.000    0.000    0.000 
#
# Total GULP energy -66837.794127 kJ/mol
# GULP energy per Si atom -5569.816177 kJ/mol
# Density = 2.549656 g / cm^3
# Si number density = 25.554722 Si / 1000 Ang^3
#
#
#
# Elastic Constant Matrix: (Units=GPa)
#
#
# Indices 1 2 3 4 5 6 
#
# 1 41.5424 17.0589 25.1174 0.0000 12.1217 0.0000
# 2 17.0589 102.7847 45.0754 0.0000 10.0777 0.0000
# 3 25.1174 45.0754 192.8584 0.0000 -1.0339 0.0000
# 4 0.0000 0.0000 0.0000 36.7494 0.0000 8.5689
# 5 12.1217 10.0777 -1.0339 0.0000 45.8581 0.0000
# 6 0.0000 0.0000 0.0000 8.5689 0.0000 10.3845
#
#
#
# Elastic Compliance Matrix: (Units=1/GPa)
#
#
# Indices 1 2 3 4 5 6 
#
# 1 0.029236 -0.002741 -0.003206 0.000000 -0.007198 0.000000
# 2 -0.002741 0.011377 -0.002312 0.000000 -0.001828 0.000000
# 3 -0.003206 -0.002312 0.006151 0.000000 0.001494 0.000000
# 4 0.000000 0.000000 0.000000 0.033694 0.000000 -0.027803
# 5 -0.007198 -0.001828 0.001494 0.000000 0.024144 0.000000
# 6 0.000000 0.000000 0.000000 -0.027803 0.000000 0.119240
#
#
# Mechanical properties :
#
#
# Convention : Reuss Voigt Hill
#
# Bulk Modulus (GPa) = 33.06076 56.85429 44.95753
# Shear Modulus (GPa) = 19.96477 35.26066 27.61271
#
# Velocity S-wave (km/s) = 2.79813 3.71861 3.29071
# Velocity P-wave (km/s) = 4.83784 6.38230 5.66297
#
# Compressibility (1/GPa) = 0.03024733
#
# Stress axis : x y z
#
# Youngs Moduli (GPa) = 34.20479 87.89644 162.57507
#
# Poissons Ratio (x) = 0.24089 0.52115
# Poissons Ratio (y) = 0.09374 0.37586
# Poissons Ratio (z) = 0.10965 0.20321
#
# Static dielectric constant tensor:
#      x y z
#    x 2.137070 0.000000 -0.020190 
#    y 0.000000 2.049930 0.000000 
#    z -0.020190 0.000000 2.086960 
# 
# From -- ./inp_files/934.got.cif
#   From: 2010.05.17/outbox.cif.g08.bks.cpg/sg9_1_cif.got.tgz:934.got - 2010.06.03 20:04:27.
