data_PCOD9134840
_publ_section_title
;
Structure prediction by ZEFSAII (Michael W. Deem and Ramdas Pophale) SiO2 
 PCOD9134840
Probable space group: C C
;
_chemical_formula_sum "Si O2"
_cell_formula_units_Z 24
_cell_length_a 7.051825
_cell_length_b 15.017965
_cell_length_c 9.869897
_cell_angle_alpha 90.000000
_cell_angle_beta 125.215237
_cell_angle_gamma 90.000000
_cell_volume 853.970391
_symmetry_space_group_name_H-M "C C"
_symmetry_group_IT_number 9
_symmetry_cell_setting 'monoclinic'
loop_
_space_group_symop_operation_xyz
x,y,z
x,-y,1/2+z
1/2+x,1/2+y,z
1/2+x,1/2-y,1/2+z
loop_
_atom_site_type_symbol
_atom_site_label
_atom_site_fract_x
_atom_site_fract_y
_atom_site_fract_z
Si Si1 0.971710 0.896945 0.645310
Si Si2 0.969773 0.897913 0.196156
Si Si3 0.584912 0.826681 0.877063
Si Si4 0.716811 0.173379 0.822740
Si Si5 0.831853 0.397844 0.003664
Si Si6 0.829881 0.602969 0.054501
O O1 0.740970 0.853598 0.488073
O O2 0.150822 0.868298 0.599903
O O3 0.969785 0.003693 0.637411
O O4 0.081769 0.872619 0.836406
O O5 0.816390 0.906647 0.270068
O O6 0.219907 0.872735 0.363409
O O7 0.845560 0.826903 0.045543
O O8 0.400908 0.750008 0.849896
O O9 0.560686 0.853699 0.711717
O O10 0.485238 0.906659 0.929761
O O11 0.456169 0.173173 0.654258
O O12 0.831686 0.496219 0.062422
#
# Coordination Sequence:
#
# PCOD9134840 Si02
#       6
#     4   4   4   4   4   4
#     4   9  18  33  51  73 103 136 176 210 261 321
#     4   9  19  31  49  76 102 137 169 216 263 314
#     4  10  20  30  52  80 104 130 175 226 266 300
#     4  10  20  30  52  80 104 130 175 226 266 300
#     4   9  19  31  49  76 102 137 169 216 263 314
#     4   9  18  33  51  73 103 136 176 210 261 321
#
# _framework density 28.104018
#
# number of rings (size 3 to 8) (size 9 to 14) (size 15 to 20)
#    0.000    2.667    0.000    1.000   14.000    0.000 
#    0.000    0.000    0.000    2.000    8.667    0.000 
#    0.000    0.000    0.000    0.000    0.000    0.000 
#
# Total GULP energy -66852.150317 kJ/mol
# GULP energy per Si atom -5571.012526 kJ/mol
# Density = 2.804005 g / cm^3
# Si number density = 28.104018 Si / 1000 Ang^3
#
#
#
# Elastic Constant Matrix: (Units=GPa)
#
#
# Indices 1 2 3 4 5 6 
#
# 1 66.3243 13.7513 29.5232 0.0000 6.8135 0.0000
# 2 13.7513 121.7618 120.1371 0.0000 14.5235 0.0000
# 3 29.5232 120.1371 374.6196 0.0000 46.1828 0.0000
# 4 0.0000 0.0000 0.0000 53.7564 0.0000 -2.6662
# 5 6.8135 14.5235 46.1828 0.0000 39.6809 0.0000
# 6 0.0000 0.0000 0.0000 -2.6662 0.0000 27.3876
#
#
#
# Elastic Compliance Matrix: (Units=1/GPa)
#
#
# Indices 1 2 3 4 5 6 
#
# 1 0.015753 -0.000816 -0.000798 0.000000 -0.001478 0.000000
# 2 -0.000816 0.012057 -0.003824 0.000000 0.000178 0.000000
# 3 -0.000798 -0.003824 0.004401 0.000000 -0.003585 0.000000
# 4 0.000000 0.000000 0.000000 0.018693 0.000000 0.001820
# 5 -0.001478 0.000178 -0.003585 0.000000 0.029562 0.000000
# 6 0.000000 0.000000 0.000000 0.001820 0.000000 0.036690
#
#
# Mechanical properties :
#
#
# Convention : Reuss Voigt Hill
#
# Bulk Modulus (GPa) = 46.87008 98.83654 72.85331
# Shear Modulus (GPa) = 36.99792 50.78460 43.89126
#
# Velocity S-wave (km/s) = 3.63225 4.25552 3.95618
# Velocity P-wave (km/s) = 5.85701 7.70652 6.84452
#
# Compressibility (1/GPa) = 0.02133557
#
# Stress axis : x y z
#
# Youngs Moduli (GPa) = 63.47800 82.94088 227.24392
#
# Poissons Ratio (x) = 0.06766 0.18127
# Poissons Ratio (y) = 0.05179 0.86901
# Poissons Ratio (z) = 0.05063 0.31718
#
# Static dielectric constant tensor:
#      x y z
#    x 2.233300 0.000000 0.195060 
#    y 0.000000 2.196380 0.000000 
#    z 0.195060 0.000000 2.489040 
# 
# From -- ./inp_files/7116.got.cif
#   From: 2010.05.17/outbox.cif.g08.bks.cpg/sg9_4_cif.got.tgz:7116.got - 2010.06.03 20:04:27.
