data_PCOD9134482
_publ_section_title
;
Structure prediction by ZEFSAII (Michael W. Deem and Ramdas Pophale) SiO2 
 PCOD9134482
Probable space group: C C
;
_chemical_formula_sum "Si O2"
_cell_formula_units_Z 20
_cell_length_a 8.768919
_cell_length_b 17.523548
_cell_length_c 5.302182
_cell_angle_alpha 90.000000
_cell_angle_beta 96.669982
_cell_angle_gamma 90.000000
_cell_volume 809.232427
_symmetry_space_group_name_H-M "C C"
_symmetry_group_IT_number 9
_symmetry_cell_setting 'monoclinic'
loop_
_space_group_symop_operation_xyz
x,y,z
x,-y,1/2+z
1/2+x,1/2+y,z
1/2+x,1/2-y,1/2+z
loop_
_atom_site_type_symbol
_atom_site_label
_atom_site_fract_x
_atom_site_fract_y
_atom_site_fract_z
Si Si1 0.656870 0.734111 0.000000
Si Si2 0.333994 0.470751 0.380145
Si Si3 0.869453 0.596621 0.137826
Si Si4 0.493620 0.064786 0.667905
Si Si5 0.306649 0.698932 0.014609
O O1 0.728293 0.763317 0.746894
O O2 0.721519 0.649165 0.086603
O O3 0.475182 0.729487 0.980366
O O4 0.713692 0.786357 0.240144
O O5 0.404210 0.526733 0.609235
O O6 0.330910 0.391851 0.534036
O O7 0.154988 0.476696 0.252227
O O8 0.968913 0.609686 0.406919
O O9 0.867085 0.503939 0.130170
O O10 0.961459 0.615739 0.902808
#
# Coordination Sequence:
#
# PCOD9134482 Si02
#       5
#     4   4   4   4   4
#     4  12  28  50  73 110 153 201 252 315 373 460
#     4  12  23  44  72 105 148 191 252 301 373 444
#     4  10  20  38  65 101 140 175 248 284 363 426
#     4  10  19  36  68 106 130 190 235 296 354 445
#     4  12  30  48  76 110 151 203 253 310 385 443
#
# _framework density 24.714776000000001
#
# number of rings (size 3 to 8) (size 9 to 14) (size 15 to 20)
#    0.000    0.800    4.000    3.600    8.400    0.000 
#    7.200    0.000    0.000    0.000    0.000    0.000 
#    0.000    0.000    0.000    0.000    0.000    0.000 
#
# Total GULP energy -55763.744873 kJ/mol
# GULP energy per Si atom -5576.374487 kJ/mol
# Density = 2.465852 g / cm^3
# Si number density = 24.714776 Si / 1000 Ang^3
#
#
#
# Elastic Constant Matrix: (Units=GPa)
#
#
# Indices 1 2 3 4 5 6 
#
# 1 92.5329 20.3222 57.3741 0.0000 -9.7805 0.0000
# 2 20.3222 92.1098 14.1161 0.0000 -2.2472 0.0000
# 3 57.3741 14.1161 252.1934 0.0000 -26.9062 0.0000
# 4 0.0000 0.0000 0.0000 34.1147 0.0000 7.5725
# 5 -9.7805 -2.2472 -26.9062 0.0000 25.6113 0.0000
# 6 0.0000 0.0000 0.0000 7.5725 0.0000 36.2650
#
#
#
# Elastic Compliance Matrix: (Units=1/GPa)
#
#
# Indices 1 2 3 4 5 6 
#
# 1 0.013205 -0.002458 -0.002648 0.000000 0.002045 0.000000
# 2 -0.002458 0.011411 -0.000082 0.000000 -0.000024 0.000000
# 3 -0.002648 -0.000082 0.005027 0.000000 0.004263 0.000000
# 4 0.000000 0.000000 0.000000 0.030738 0.000000 -0.006418
# 5 0.002045 -0.000024 0.004263 0.000000 0.044302 0.000000
# 6 0.000000 0.000000 0.000000 -0.006418 0.000000 0.028915
#
#
# Mechanical properties :
#
#
# Convention : Reuss Voigt Hill
#
# Bulk Modulus (GPa) = 51.90333 68.94011 60.42172
# Shear Modulus (GPa) = 33.24551 42.19979 37.72265
#
# Velocity S-wave (km/s) = 3.67163 4.13664 3.91105
# Velocity P-wave (km/s) = 6.24668 7.12535 6.70043
#
# Compressibility (1/GPa) = 0.01926659
#
# Stress axis : x y z
#
# Youngs Moduli (GPa) = 75.72904 87.63585 198.92182
#
# Poissons Ratio (x) = 0.21538 0.52683
# Poissons Ratio (y) = 0.18612 0.01633
# Poissons Ratio (z) = 0.20056 0.00719
#
# Static dielectric constant tensor:
#      x y z
#    x 2.061160 0.000000 -0.035680 
#    y 0.000000 2.174060 0.000000 
#    z -0.035680 0.000000 2.026840 
# 
# From -- ./inp_files/497.got.cif
#   From: 2010.05.17/outbox.cif.g08.bks.cpg/sg9_1_cif.got.tgz:497.got - 2010.06.03 20:04:27.
