data_PCOD9134079
_publ_section_title
;
Structure prediction by ZEFSAII (Michael W. Deem and Ramdas Pophale) SiO2 
 PCOD9134079
Probable space group: C C
;
_chemical_formula_sum "Si O2"
_cell_formula_units_Z 32
_cell_length_a 13.990406
_cell_length_b 11.275296
_cell_length_c 12.687069
_cell_angle_alpha 90.000000
_cell_angle_beta 144.901659
_cell_angle_gamma 90.000000
_cell_volume 1150.730145
_symmetry_space_group_name_H-M "C C"
_symmetry_group_IT_number 9
_symmetry_cell_setting 'monoclinic'
loop_
_space_group_symop_operation_xyz
x,y,z
x,-y,1/2+z
1/2+x,1/2+y,z
1/2+x,1/2-y,1/2+z
loop_
_atom_site_type_symbol
_atom_site_label
_atom_site_fract_x
_atom_site_fract_y
_atom_site_fract_z
Si Si1 0.586900 0.453991 0.598020
Si Si2 0.588634 0.195136 0.710256
Si Si3 0.408705 0.104288 0.926095
Si Si4 0.285441 0.628608 0.283378
Si Si5 0.829949 0.763288 0.115900
Si Si6 0.117935 0.066704 0.870573
Si Si7 0.876855 0.146833 0.126890
Si Si8 0.020722 0.604046 0.427258
O O1 0.596912 0.321345 0.654834
O O2 0.415926 0.531414 0.445362
O O3 0.611306 0.440590 0.493592
O O4 0.734802 0.529480 0.787957
O O5 0.451832 0.222162 0.675856
O O6 0.543962 0.111336 0.573730
O O7 0.744738 0.145151 0.913582
O O8 0.593686 0.117651 0.146251
O O9 0.457436 0.029557 0.861547
O O10 0.351287 0.239066 0.860805
O O11 0.294806 0.620419 0.164411
O O12 0.979588 0.839257 0.207681
O O13 0.681517 0.854127 0.007492
O O14 0.892106 0.706782 0.281204
O O15 0.786227 0.645278 0.010424
O O16 0.035402 0.941898 0.766135
#
# Coordination Sequence:
#
# PCOD9134079 Si02
#       8
#     4   4   4   4   4   4   4   4
#     4  11  22  42  69 101 137 180 242 295 342 415
#     4  12  24  42  68 102 145 175 228 290 365 417
#     4  12  22  39  70  96 137 176 244 288 341 405
#     4  11  25  43  67 101 137 191 231 287 354 424
#     4  10  18  35  66  95 129 165 241 284 332 394
#     4  10  21  40  64  98 133 178 233 289 339 417
#     4  11  26  41  63 101 149 178 218 291 370 419
#     4  11  20  34  63 104 121 173 223 294 329 403
#
# _framework density 27.808432
#
# number of rings (size 3 to 8) (size 9 to 14) (size 15 to 20)
#    0.000    1.000    5.000    3.750    3.500    0.000 
#    0.000    0.000    5.500    0.000    0.000    0.000 
#    0.000    0.000    0.000    0.000    0.000    0.000 
#
# Total GULP energy -89342.711273 kJ/mol
# GULP energy per Si atom -5583.919455 kJ/mol
# Density = 2.774514 g / cm^3
# Si number density = 27.808432 Si / 1000 Ang^3
#
#
#
# Elastic Constant Matrix: (Units=GPa)
#
#
# Indices 1 2 3 4 5 6 
#
# 1 49.1950 8.1568 51.3469 0.0000 9.7122 0.0000
# 2 8.1568 104.2303 41.3696 0.0000 -13.8023 0.0000
# 3 51.3469 41.3696 156.6880 0.0000 4.3336 0.0000
# 4 0.0000 0.0000 0.0000 68.7595 0.0000 13.4586
# 5 9.7122 -13.8023 4.3336 0.0000 65.8520 0.0000
# 6 0.0000 0.0000 0.0000 13.4586 0.0000 25.8692
#
#
#
# Elastic Compliance Matrix: (Units=1/GPa)
#
#
# Indices 1 2 3 4 5 6 
#
# 1 0.032067 0.001254 -0.010735 0.000000 -0.003760 0.000000
# 2 0.001254 0.011171 -0.003426 0.000000 0.002382 0.000000
# 3 -0.010735 -0.003426 0.010800 0.000000 0.000154 0.000000
# 4 0.000000 0.000000 0.000000 0.016192 0.000000 -0.008424
# 5 -0.003760 0.002382 0.000154 0.000000 0.016229 0.000000
# 6 0.000000 0.000000 0.000000 -0.008424 0.000000 0.043039
#
#
# Mechanical properties :
#
#
# Convention : Reuss Voigt Hill
#
# Bulk Modulus (GPa) = 35.43272 56.87334 46.15303
# Shear Modulus (GPa) = 30.35420 46.04547 38.19983
#
# Velocity S-wave (km/s) = 3.30744 4.07358 3.71034
# Velocity P-wave (km/s) = 5.23019 6.52852 5.91509
#
# Compressibility (1/GPa) = 0.02822250
#
# Stress axis : x y z
#
# Youngs Moduli (GPa) = 31.18512 89.51468 92.58923
#
# Poissons Ratio (x) = -0.11221 0.99397
# Poissons Ratio (y) = -0.03909 0.31723
# Poissons Ratio (z) = 0.33478 0.30669
#
# Static dielectric constant tensor:
#      x y z
#    x 2.502950 0.000000 -0.025610 
#    y 0.000000 2.539430 0.000000 
#    z -0.025610 0.000000 2.231130 
# 
# From -- ./inp_files/26847.got.cif
#   From: 2010.05.17/outbox.cif.g08.bks.cpg/sg9_14_cif.got.tgz:26847.got - 2010.06.03 20:04:27.
