data_PCOD9134872
_publ_section_title
;
Structure prediction by ZEFSAII (Michael W. Deem and Ramdas Pophale) SiO2 
 PCOD9134872
Probable space group: C C
;
_chemical_formula_sum "Si O2"
_cell_formula_units_Z 28
_cell_length_a 5.769998
_cell_length_b 13.170620
_cell_length_c 17.285847
_cell_angle_alpha 90.000000
_cell_angle_beta 55.910150
_cell_angle_gamma 90.000000
_cell_volume 1087.894067
_symmetry_space_group_name_H-M "C C"
_symmetry_group_IT_number 9
_symmetry_cell_setting 'monoclinic'
loop_
_space_group_symop_operation_xyz
x,y,z
x,-y,1/2+z
1/2+x,1/2+y,z
1/2+x,1/2-y,1/2+z
loop_
_atom_site_type_symbol
_atom_site_label
_atom_site_fract_x
_atom_site_fract_y
_atom_site_fract_z
Si Si1 0.407580 0.049530 0.440200
Si Si2 0.348047 0.809238 0.451480
Si Si3 0.476847 0.555566 0.938040
Si Si4 0.450282 0.974658 0.098901
Si Si5 0.824228 0.768723 0.257019
Si Si6 0.411998 0.501370 0.772935
Si Si7 0.488036 0.233626 0.663703
O O1 0.443733 0.926361 0.448561
O O2 0.654772 0.074041 0.335409
O O3 0.117101 0.043474 0.452660
O O4 0.425001 0.089451 0.522950
O O5 0.615185 0.749167 0.369151
O O6 0.129079 0.837152 0.423688
O O7 0.183282 0.771055 0.556302
O O8 0.193607 0.554832 0.040136
O O9 0.499442 0.527500 0.844474
O O10 0.493477 0.889964 0.155672
O O11 0.164130 0.030628 0.172073
O O12 0.824709 0.891656 0.252728
O O13 0.648452 0.738198 0.213504
O O14 0.153825 0.740290 0.209611
#
# Coordination Sequence:
#
# PCOD9134872 Si02
#       7
#     4   4   4   4   4   4   4
#     4   8  19  35  57  82 111 154 198 230 296 352
#     4   9  20  42  63  83 124 160 202 251 293 368
#     4   9  19  36  60  83 114 159 203 232 298 354
#     4  10  20  33  60  87 119 145 204 250 299 340
#     4  10  22  38  64  89 120 162 212 232 304 372
#     4   9  18  34  58  85 112 158 199 240 281 371
#     4  11  24  38  64  95 118 160 202 257 301 353
#
# _framework density 25.7378
#
# number of rings (size 3 to 8) (size 9 to 14) (size 15 to 20)
#    0.857    1.714    0.000    1.714    4.000    4.571 
#    0.000    5.714    0.000    0.000    0.000    0.000 
#    0.000    0.000    0.000    0.000    0.000    0.000 
#
# Total GULP energy -77957.951808 kJ/mol
# GULP energy per Si atom -5568.425129 kJ/mol
# Density = 2.567922 g / cm^3
# Si number density = 25.737800 Si / 1000 Ang^3
#
#
#
# Elastic Constant Matrix: (Units=GPa)
#
#
# Indices 1 2 3 4 5 6 
#
# 1 121.5490 9.3544 82.2935 0.0000 -20.5135 -0.0001
# 2 9.3544 59.1012 22.5961 0.0000 6.6233 0.0000
# 3 82.2935 22.5961 164.4780 0.0000 -55.7844 0.0000
# 4 0.0000 0.0000 0.0000 36.1819 0.0000 5.6240
# 5 -20.5135 6.6233 -55.7844 0.0000 50.9249 0.0000
# 6 -0.0001 0.0000 0.0000 5.6240 0.0000 7.4189
#
#
#
# Elastic Compliance Matrix: (Units=1/GPa)
#
#
# Indices 1 2 3 4 5 6 
#
# 1 0.012803 0.001355 -0.007801 0.000000 -0.003564 0.000000
# 2 0.001355 0.020297 -0.006646 0.000000 -0.009374 0.000000
# 3 -0.007801 -0.006646 0.016107 0.000000 0.015367 0.000000
# 4 0.000000 0.000000 0.000000 0.031330 0.000000 -0.023750
# 5 -0.003564 -0.009374 0.015367 0.000000 0.036253 0.000000
# 6 0.000000 0.000000 0.000000 -0.023750 0.000000 0.152795
#
#
# Mechanical properties :
#
#
# Convention : Reuss Voigt Hill
#
# Bulk Modulus (GPa) = 43.43067 63.73512 53.58289
# Shear Modulus (GPa) = 16.47763 34.29742 25.38753
#
# Velocity S-wave (km/s) = 2.53298 3.65440 3.14409
# Velocity P-wave (km/s) = 5.04634 6.52864 5.83476
#
# Compressibility (1/GPa) = 0.02302520
#
# Stress axis : x y z
#
# Youngs Moduli (GPa) = 78.10920 49.26842 62.08307
#
# Poissons Ratio (x) = -0.06678 0.48428
# Poissons Ratio (y) = -0.10587 0.41259
# Poissons Ratio (z) = 0.60929 0.32743
#
# Static dielectric constant tensor:
#      x y z
#    x 2.348880 0.000000 -0.034100 
#    y 0.000000 2.072360 0.000000 
#    z -0.034100 0.000000 2.041120 
# 
# From -- ./inp_files/13405.got.cif
#   From: 2010.05.17/outbox.cif.g08.bks.cpg/sg9_7_cif.got.tgz:13405.got - 2010.06.03 20:04:27.
