data_PCOD9134964
_publ_section_title
;
Structure prediction by ZEFSAII (Michael W. Deem and Ramdas Pophale) SiO2 
 PCOD9134964
Probable space group: C C
;
_chemical_formula_sum "Si O2"
_cell_formula_units_Z 32
_cell_length_a 26.701763
_cell_length_b 9.201389
_cell_length_c 20.625092
_cell_angle_alpha 90.000000
_cell_angle_beta 17.767626
_cell_angle_gamma 90.000000
_cell_volume 1546.368328
_symmetry_space_group_name_H-M "C C"
_symmetry_group_IT_number 9
_symmetry_cell_setting 'monoclinic'
loop_
_space_group_symop_operation_xyz
x,y,z
x,-y,1/2+z
1/2+x,1/2+y,z
1/2+x,1/2-y,1/2+z
loop_
_atom_site_type_symbol
_atom_site_label
_atom_site_fract_x
_atom_site_fract_y
_atom_site_fract_z
Si Si1 0.523660 0.152494 0.407880
Si Si2 0.852084 0.673197 0.342393
Si Si3 0.083915 0.482276 0.964044
Si Si4 0.099573 0.901969 0.060596
Si Si5 0.677983 0.593912 0.280883
Si Si6 0.673034 0.668304 0.888875
Si Si7 0.339598 0.714635 0.672744
Si Si8 0.321965 0.877459 0.025338
O O1 0.558083 0.024904 0.417992
O O2 0.361697 0.216888 0.643641
O O3 0.456300 0.123953 0.417978
O O4 0.688633 0.247747 0.199714
O O5 0.664377 0.642152 0.552217
O O6 0.886112 0.625471 0.373752
O O7 0.956633 0.576963 0.162822
O O8 0.921597 0.839173 0.259131
O O9 0.076115 0.316699 0.999061
O O10 0.257741 0.558526 0.762504
O O11 0.222762 0.804056 0.865071
O O12 0.131836 0.070260 0.002615
O O13 0.647306 0.454160 0.364859
O O14 0.519045 0.691996 0.477778
O O15 0.826486 0.689972 0.124382
O O16 0.719550 0.525302 0.161317
#
# Coordination Sequence:
#
# PCOD9134964 Si02
#       8
#     4   4   4   4   4   4   4   4
#     4  11  20  37  64  88 116 157 207 256 292 359
#     4  11  23  40  60  88 125 164 197 250 315 367
#     4  11  21  36  66  91 118 154 207 255 302 359
#     4  10  20  38  61  87 123 155 200 249 304 364
#     4  10  21  36  59  85 123 152 202 247 306 358
#     4  10  20  35  63  95 115 148 208 262 289 352
#     4  10  21  35  61  93 114 156 199 257 299 351
#     4  11  24  39  60  87 128 162 204 252 311 370
#
# _framework density 20.693646000000001
#
# number of rings (size 3 to 8) (size 9 to 14) (size 15 to 20)
#    0.000    1.500    3.750    3.750    3.500    0.000 
#    0.000    1.250    0.000    0.000    0.000    0.000 
#    0.000    0.000    0.000    0.000    0.000    0.000 
#
# Total GULP energy -89116.908419 kJ/mol
# GULP energy per Si atom -5569.806776 kJ/mol
# Density = 2.064655 g / cm^3
# Si number density = 20.693646 Si / 1000 Ang^3
#
#
#
# Elastic Constant Matrix: (Units=GPa)
#
#
# Indices 1 2 3 4 5 6 
#
# 1 125.5136 42.4308 24.8163 0.0002 -3.8897 -0.0001
# 2 42.4308 117.3337 17.5860 0.0004 -6.6749 -0.0002
# 3 24.8163 17.5860 20.5743 0.0006 -7.6962 -0.0004
# 4 0.0002 0.0004 0.0006 22.4133 -0.0004 -4.0214
# 5 -3.8897 -6.6749 -7.6962 -0.0004 31.0260 0.0003
# 6 -0.0001 -0.0002 -0.0004 -4.0214 0.0003 26.5307
#
#
#
# Elastic Compliance Matrix: (Units=1/GPa)
#
#
# Indices 1 2 3 4 5 6 
#
# 1 0.011094 -0.002303 -0.012211 0.000000 -0.002134 0.000000
# 2 -0.002303 0.010253 -0.005808 0.000000 0.000476 0.000000
# 3 -0.012211 -0.005808 0.074137 -0.000002 0.015610 0.000001
# 4 0.000000 0.000000 -0.000002 0.045864 0.000000 0.006952
# 5 -0.002134 0.000476 0.015610 0.000000 0.035938 0.000000
# 6 0.000000 0.000000 0.000001 0.006952 0.000000 0.038746
#
#
# Mechanical properties :
#
#
# Convention : Reuss Voigt Hill
#
# Bulk Modulus (GPa) = 18.23486 48.12088 33.17787
# Shear Modulus (GPa) = 18.18477 27.89991 23.04234
#
# Velocity S-wave (km/s) = 2.96761 3.67582 3.34053
# Velocity P-wave (km/s) = 4.53577 6.42806 5.56296
#
# Compressibility (1/GPa) = 0.05484001
#
# Stress axis : x y z
#
# Youngs Moduli (GPa) = 90.13834 97.53122 13.48860
#
# Poissons Ratio (x) = 0.22462 0.16471
# Poissons Ratio (y) = 0.20759 0.07834
# Poissons Ratio (z) = 1.10068 0.56644
#
# Static dielectric constant tensor:
#      x y z
#    x 1.863160 0.000000 -0.046240 
#    y 0.000000 1.755590 0.000000 
#    z -0.046240 0.000000 1.797860 
# 
# From -- ./inp_files/34029.got.cif
#   From: 2010.05.17/outbox.cif.g08.bks.cpg/sg9_18_cif.got.tgz:34029.got - 2010.06.03 20:04:27.
