data_PCOD9134060
_publ_section_title
;
Structure prediction by ZEFSAII (Michael W. Deem and Ramdas Pophale) SiO2 
 PCOD9134060
Probable space group: C C
;
_chemical_formula_sum "Si O2"
_cell_formula_units_Z 32
_cell_length_a 11.921808
_cell_length_b 17.872726
_cell_length_c 13.984876
_cell_angle_alpha 90.000000
_cell_angle_beta 148.261386
_cell_angle_gamma 90.000000
_cell_volume 1567.524649
_symmetry_space_group_name_H-M "C C"
_symmetry_group_IT_number 9
_symmetry_cell_setting 'monoclinic'
loop_
_space_group_symop_operation_xyz
x,y,z
x,-y,1/2+z
1/2+x,1/2+y,z
1/2+x,1/2-y,1/2+z
loop_
_atom_site_type_symbol
_atom_site_label
_atom_site_fract_x
_atom_site_fract_y
_atom_site_fract_z
Si Si1 0.550490 0.515879 0.934260
Si Si2 0.064620 0.313257 0.215055
Si Si3 0.907160 0.843908 0.625592
Si Si4 0.656243 0.532490 0.218666
Si Si5 0.690597 0.346909 0.078056
Si Si6 0.532987 0.187331 0.990521
Si Si7 0.600279 0.938259 0.093477
Si Si8 0.356020 0.070979 0.998110
O O1 0.327189 0.534468 0.721945
O O2 0.732916 0.559687 0.007837
O O3 0.534341 0.543192 0.032157
O O4 0.599600 0.428602 0.990131
O O5 0.230427 0.341900 0.414069
O O6 0.106120 0.358361 0.148862
O O7 0.066872 0.223870 0.216426
O O8 0.826538 0.327997 0.081773
O O9 0.769592 0.833802 0.622411
O O10 0.043069 0.918377 0.717173
O O11 0.687875 0.452275 0.291672
O O12 0.900410 0.558585 0.377224
O O13 0.533618 0.277739 0.988463
O O14 0.866365 0.342736 0.290278
O O15 0.469518 0.146370 0.043302
O O16 0.525253 0.002505 0.114646
#
# Coordination Sequence:
#
# PCOD9134060 Si02
#       8
#     4   4   4   4   4   4   4   4
#     4  12  22  42  64  90 130 171 209 270 321 382
#     4  10  18  35  58  96 118 163 204 274 315 379
#     4  10  20  34  64  89 131 151 211 269 330 362
#     4  10  22  39  59  92 122 164 205 268 307 393
#     4  10  20  37  62  91 128 162 215 261 329 374
#     4  10  22  37  63  96 125 167 206 276 327 383
#     4  10  22  37  61  90 121 164 215 255 327 375
#     4  10  24  39  61  92 133 158 223 255 322 392
#
# _framework density 20.414351
#
# number of rings (size 3 to 8) (size 9 to 14) (size 15 to 20)
#    0.750    1.000    3.750    0.750    3.500    2.000 
#    2.250    0.000    2.750    0.000    0.000    0.000 
#    0.000    0.000    0.000    0.000    0.000    0.000 
#
# Total GULP energy -89128.218487 kJ/mol
# GULP energy per Si atom -5570.513655 kJ/mol
# Density = 2.036789 g / cm^3
# Si number density = 20.414351 Si / 1000 Ang^3
#
#
#
# Elastic Constant Matrix: (Units=GPa)
#
#
# Indices 1 2 3 4 5 6 
#
# 1 70.0642 38.9423 1.5587 0.0005 10.1305 0.0002
# 2 38.9423 106.6292 13.9868 0.0005 19.2276 0.0002
# 3 1.5587 13.9868 53.6817 0.0025 6.1091 0.0011
# 4 0.0005 0.0005 0.0025 26.2508 0.0005 6.7022
# 5 10.1305 19.2276 6.1091 0.0005 28.1204 0.0002
# 6 0.0002 0.0002 0.0011 6.7022 0.0002 29.2826
#
#
#
# Elastic Compliance Matrix: (Units=1/GPa)
#
#
# Indices 1 2 3 4 5 6 
#
# 1 0.018136 -0.006360 0.001414 0.000000 -0.002492 0.000000
# 2 -0.006360 0.013142 -0.002540 0.000000 -0.006143 0.000000
# 3 0.001414 -0.002540 0.019594 -0.000002 -0.003029 0.000000
# 4 0.000000 0.000000 -0.000002 0.040458 0.000000 -0.009260
# 5 -0.002492 -0.006143 -0.003029 0.000000 0.041318 0.000000
# 6 0.000000 0.000000 0.000000 -0.009260 0.000000 0.036269
#
#
# Mechanical properties :
#
#
# Convention : Reuss Voigt Hill
#
# Bulk Modulus (GPa) = 27.85514 37.70563 32.78039
# Shear Modulus (GPa) = 25.52896 28.45657 26.99277
#
# Velocity S-wave (km/s) = 3.54013 3.73761 3.64021
# Velocity P-wave (km/s) = 5.51222 6.09398 5.81039
#
# Compressibility (1/GPa) = 0.03590001
#
# Stress axis : x y z
#
# Youngs Moduli (GPa) = 55.13811 76.09284 51.03639
#
# Poissons Ratio (x) = 0.48392 -0.07217
# Poissons Ratio (y) = 0.35066 0.12965
# Poissons Ratio (z) = -0.07797 0.19330
#
# Static dielectric constant tensor:
#      x y z
#    x 1.715810 0.000000 -0.006130 
#    y 0.000000 1.767280 0.000000 
#    z -0.006130 0.000000 1.787460 
# 
# From -- ./inp_files/25059.got.cif
#   From: 2010.05.17/outbox.cif.g08.bks.cpg/sg9_13_cif.got.tgz:25059.got - 2010.06.03 20:04:27.
