data_PCOD9134147
_publ_section_title
;
Structure prediction by ZEFSAII (Michael W. Deem and Ramdas Pophale) SiO2 
 PCOD9134147
Probable space group: C C
;
_chemical_formula_sum "Si O2"
_cell_formula_units_Z 32
_cell_length_a 18.735415
_cell_length_b 13.388985
_cell_length_c 11.863301
_cell_angle_alpha 90.000000
_cell_angle_beta 27.108690
_cell_angle_gamma 90.000000
_cell_volume 1356.052217
_symmetry_space_group_name_H-M "C C"
_symmetry_group_IT_number 9
_symmetry_cell_setting 'monoclinic'
loop_
_space_group_symop_operation_xyz
x,y,z
x,-y,1/2+z
1/2+x,1/2+y,z
1/2+x,1/2-y,1/2+z
loop_
_atom_site_type_symbol
_atom_site_label
_atom_site_fract_x
_atom_site_fract_y
_atom_site_fract_z
Si Si1 0.404200 0.470875 0.991500
Si Si2 0.061134 0.158561 0.457814
Si Si3 0.628561 0.378361 0.478518
Si Si4 0.320998 0.868295 0.004855
Si Si5 0.865328 0.255982 0.296915
Si Si6 0.618833 0.130124 0.790139
Si Si7 0.396610 0.926470 0.409866
Si Si8 0.529394 0.320742 0.265678
O O1 0.527943 0.431755 0.719309
O O2 0.429096 0.589018 0.960452
O O3 0.446327 0.410835 0.046062
O O4 0.227215 0.441593 0.211117
O O5 0.034759 0.276567 0.469832
O O6 0.230638 0.124149 0.175670
O O7 0.052988 0.146978 0.602416
O O8 0.734624 0.425722 0.231577
O O9 0.754420 0.309021 0.364038
O O10 0.506066 0.317898 0.573601
O O11 0.195463 0.819576 0.096845
O O12 0.395689 0.967683 0.846979
O O13 0.439316 0.784872 0.884673
O O14 0.747180 0.188650 0.535006
O O15 0.953803 0.341942 0.242944
O O16 0.504248 0.072498 0.868387
#
# Coordination Sequence:
#
# PCOD9134147 Si02
#       8
#     4   4   4   4   4   4   4   4
#     4  11  23  44  72 101 131 179 229 278 343 398
#     4  11  22  46  73 100 137 175 226 285 340 405
#     4  11  20  41  68  96 129 173 219 278 330 400
#     4  12  28  46  66  96 143 187 221 272 345 408
#     4  10  18  37  68 100 128 158 220 282 329 385
#     4  10  21  38  71 108 126 162 230 289 331 387
#     4  11  21  42  69 102 131 170 229 274 338 395
#     4  12  29  48  65  97 145 186 224 274 348 410
#
# _framework density 23.597912000000001
#
# number of rings (size 3 to 8) (size 9 to 14) (size 15 to 20)
#    0.000    1.000    5.000    3.000    5.250    0.000 
#    0.000    0.000    0.000    0.000    0.000    0.000 
#    0.000    0.000    0.000    0.000    0.000    0.000 
#
# Total GULP energy -89355.207843 kJ/mol
# GULP energy per Si atom -5584.700490 kJ/mol
# Density = 2.354420 g / cm^3
# Si number density = 23.597912 Si / 1000 Ang^3
#
#
#
# Elastic Constant Matrix: (Units=GPa)
#
#
# Indices 1 2 3 4 5 6 
#
# 1 118.3876 32.3987 28.2577 0.0000 -29.5364 0.0000
# 2 32.3987 109.9992 20.5887 0.0000 -17.4283 0.0000
# 3 28.2577 20.5887 26.3508 0.0000 -9.8583 0.0000
# 4 0.0000 0.0000 0.0000 7.6737 0.0000 -5.0339
# 5 -29.5364 -17.4283 -9.8583 0.0000 46.8225 0.0000
# 6 0.0000 0.0000 0.0000 -5.0339 0.0000 34.5333
#
#
#
# Elastic Compliance Matrix: (Units=1/GPa)
#
#
# Indices 1 2 3 4 5 6 
#
# 1 0.012603 -0.000830 -0.010863 0.000000 0.005354 0.000000
# 2 -0.000830 0.010958 -0.006883 0.000000 0.002106 0.000000
# 3 -0.010863 -0.006883 0.055854 0.000000 0.002345 0.000000
# 4 0.000000 0.000000 0.000000 0.144095 0.000000 0.021005
# 5 0.005354 0.002106 0.002345 0.000000 0.026012 0.000000
# 6 0.000000 0.000000 0.000000 0.021005 0.000000 0.032019
#
#
# Mechanical properties :
#
#
# Convention : Reuss Voigt Hill
#
# Bulk Modulus (GPa) = 23.66240 46.35864 35.01052
# Shear Modulus (GPa) = 15.02492 29.37206 22.19849
#
# Velocity S-wave (km/s) = 2.52604 3.53184 3.07041
# Velocity P-wave (km/s) = 4.30778 6.02659 5.23816
#
# Compressibility (1/GPa) = 0.04226114
#
# Stress axis : x y z
#
# Youngs Moduli (GPa) = 79.34864 91.26157 17.90382
#
# Poissons Ratio (x) = 0.07579 0.19449
# Poissons Ratio (y) = 0.06590 0.12324
# Poissons Ratio (z) = 0.86195 0.62817
#
# Static dielectric constant tensor:
#      x y z
#    x 1.899780 0.000000 0.058690 
#    y 0.000000 1.970340 0.000000 
#    z 0.058690 0.000000 1.934000 
# 
# From -- ./inp_files/7412.got.cif
#   From: 2010.05.17/outbox.cif.g08.bks.cpg/sg9_4_cif.got.tgz:7412.got - 2010.06.03 20:04:27.
