data_PCOD9134336
_publ_section_title
;
Structure prediction by ZEFSAII (Michael W. Deem and Ramdas Pophale) SiO2 
 PCOD9134336
Probable space group: C C
;
_chemical_formula_sum "Si O2"
_cell_formula_units_Z 32
_cell_length_a 8.269302
_cell_length_b 15.705322
_cell_length_c 14.154738
_cell_angle_alpha 90.000000
_cell_angle_beta 61.870394
_cell_angle_gamma 90.000000
_cell_volume 1621.170469
_symmetry_space_group_name_H-M "C C"
_symmetry_group_IT_number 9
_symmetry_cell_setting 'monoclinic'
loop_
_space_group_symop_operation_xyz
x,y,z
x,-y,1/2+z
1/2+x,1/2+y,z
1/2+x,1/2-y,1/2+z
loop_
_atom_site_type_symbol
_atom_site_label
_atom_site_fract_x
_atom_site_fract_y
_atom_site_fract_z
Si Si1 0.328030 0.495687 0.125000
Si Si2 0.150966 0.886036 0.485437
Si Si3 0.393578 0.061245 0.419119
Si Si4 0.104132 0.901890 0.291157
Si Si5 0.930818 0.534649 0.192613
Si Si6 0.948008 0.667599 0.029522
Si Si7 0.223605 0.466155 0.371464
Si Si8 0.075774 0.159787 0.587935
O O1 0.260499 0.476781 0.249766
O O2 0.449438 0.412369 0.072660
O O3 0.141967 0.507700 0.118329
O O4 0.458940 0.578581 0.079775
O O5 0.126790 0.855118 0.384659
O O6 0.272437 0.819932 0.510692
O O7 0.278192 0.972028 0.452029
O O8 0.423730 0.075558 0.299354
O O9 0.278688 0.134535 0.499411
O O10 0.578223 0.041538 0.426043
O O11 0.066013 0.851021 0.204729
O O12 0.926510 0.962577 0.358161
O O13 0.286147 0.958113 0.226958
O O14 0.880172 0.601674 0.127317
O O15 0.115161 0.620521 0.928222
O O16 0.017630 0.750147 0.064013
#
# Coordination Sequence:
#
# PCOD9134336 Si02
#       8
#     4   4   4   4   4   4   4   4
#     4   9  18  36  59  83 109 147 195 243 286 343
#     4   9  18  34  57  83 112 149 198 238 283 344
#     4   8  17  33  54  83 111 145 193 240 281 342
#     4  10  19  35  61  86 112 153 199 247 289 344
#     4  10  19  34  59  84 111 150 198 239 285 346
#     4  11  21  34  56  86 118 155 189 240 298 353
#     4   9  17  32  57  82 109 146 189 236 285 337
#     4  10  21  36  57  85 118 151 191 243 301 349
#
# _framework density 19.738824999999999
#
# number of rings (size 3 to 8) (size 9 to 14) (size 15 to 20)
#    0.000    2.500    0.000    4.500    0.000    2.000 
#    0.000    2.500    0.000   21.000    0.000    0.000 
#    0.000    0.000    0.000    0.000    0.000    0.000 
#
# Total GULP energy -89140.996382 kJ/mol
# GULP energy per Si atom -5571.312274 kJ/mol
# Density = 1.969390 g / cm^3
# Si number density = 19.738825 Si / 1000 Ang^3
#
#
#
# Elastic Constant Matrix: (Units=GPa)
#
#
# Indices 1 2 3 4 5 6 
#
# 1 137.0177 26.0164 46.5744 0.0000 2.3093 0.0000
# 2 26.0164 48.5431 34.9661 0.0000 6.2058 0.0000
# 3 46.5744 34.9661 99.8712 0.0000 8.1695 0.0000
# 4 0.0000 0.0000 0.0000 11.0274 0.0000 10.2586
# 5 2.3093 6.2058 8.1695 0.0000 43.5239 0.0000
# 6 0.0000 0.0000 0.0000 10.2586 0.0000 21.6120
#
#
#
# Elastic Compliance Matrix: (Units=1/GPa)
#
#
# Indices 1 2 3 4 5 6 
#
# 1 0.008884 -0.002422 -0.003336 0.000000 0.000500 0.000000
# 2 -0.002422 0.028408 -0.008628 0.000000 -0.002302 0.000000
# 3 -0.003336 -0.008628 0.014700 0.000000 -0.001352 0.000000
# 4 0.000000 0.000000 0.000000 0.162392 0.000000 -0.077083
# 5 0.000500 -0.002302 -0.001352 0.000000 0.023531 0.000000
# 6 0.000000 0.000000 0.000000 -0.077083 0.000000 0.082859
#
#
# Mechanical properties :
#
#
# Convention : Reuss Voigt Hill
#
# Bulk Modulus (GPa) = 43.06765 55.61620 49.34193
# Shear Modulus (GPa) = 13.99441 27.09099 20.54270
#
# Velocity S-wave (km/s) = 2.66555 3.70871 3.22953
# Velocity P-wave (km/s) = 5.59819 6.82470 6.24164
#
# Compressibility (1/GPa) = 0.02321929
#
# Stress axis : x y z
#
# Youngs Moduli (GPa) = 112.56570 35.20184 68.02829
#
# Poissons Ratio (x) = 0.08527 0.22692
# Poissons Ratio (y) = 0.27268 0.58694
# Poissons Ratio (z) = 0.37548 0.30372
#
# Static dielectric constant tensor:
#      x y z
#    x 1.780200 0.000000 0.009200 
#    y 0.000000 1.664320 0.000000 
#    z 0.009200 0.000000 1.755530 
# 
# From -- ./inp_files/23376.got.cif
#   From: 2010.05.17/outbox.cif.g08.bks.cpg/sg9_12_cif.got.tgz:23376.got - 2010.06.03 20:04:27.
