data_PCOD9134353
_publ_section_title
;
Structure prediction by ZEFSAII (Michael W. Deem and Ramdas Pophale) SiO2 
 PCOD9134353
Probable space group: C C
;
_chemical_formula_sum "Si O2"
_cell_formula_units_Z 32
_cell_length_a 24.298522
_cell_length_b 8.128324
_cell_length_c 8.958116
_cell_angle_alpha 90.000000
_cell_angle_beta 123.762523
_cell_angle_gamma 90.000000
_cell_volume 1470.890989
_symmetry_space_group_name_H-M "C C"
_symmetry_group_IT_number 9
_symmetry_cell_setting 'monoclinic'
loop_
_space_group_symop_operation_xyz
x,y,z
x,-y,1/2+z
1/2+x,1/2+y,z
1/2+x,1/2-y,1/2+z
loop_
_atom_site_type_symbol
_atom_site_label
_atom_site_fract_x
_atom_site_fract_y
_atom_site_fract_z
Si Si1 0.583820 0.449416 0.416480
Si Si2 0.958611 0.727442 0.335180
Si Si3 0.848629 0.070572 0.853917
Si Si4 0.653455 0.342466 0.785885
Si Si5 0.055492 0.553379 0.707362
Si Si6 0.903684 0.270675 0.455118
Si Si7 0.037096 0.290331 0.483831
Si Si8 0.793756 0.788684 0.578013
O O1 0.518756 0.337999 0.353746
O O2 0.645686 0.374962 0.599299
O O3 0.611633 0.509555 0.299622
O O4 0.564325 0.625610 0.456394
O O5 0.901111 0.828591 0.333975
O O6 0.992815 0.618230 0.516186
O O7 0.924419 0.641425 0.139375
O O8 0.889110 0.916794 0.984057
O O9 0.796625 0.967927 0.669418
O O10 0.819862 0.173032 0.949616
O O11 0.614355 0.174784 0.757292
O O12 0.725468 0.307863 0.958182
O O13 0.072662 0.370893 0.679792
O O14 0.042397 0.575618 0.860880
O O15 0.841393 0.317599 0.259318
O O16 0.963603 0.261299 0.430102
#
# Coordination Sequence:
#
# PCOD9134353 Si02
#       8
#     4   4   4   4   4   4   4   4
#     4  10  21  38  66  86 120 159 203 261 308 370
#     4  11  19  37  65  99 115 152 214 256 322 362
#     4  10  19  35  61  90 115 162 200 257 296 367
#     4  10  23  42  59  88 119 164 208 248 301 378
#     4  10  24  35  60  92 129 158 192 261 316 364
#     4  10  19  34  63  87 119 156 201 251 303 364
#     4  11  20  38  57  92 127 154 200 256 321 370
#     4  10  21  37  57  88 122 159 214 246 297 361
#
# _framework density 21.755521000000002
#
# number of rings (size 3 to 8) (size 9 to 14) (size 15 to 20)
#    0.750    1.000    2.500    2.250    3.500    3.000 
#    0.000    6.250    0.000    0.000    0.000    0.000 
#    0.000    0.000    0.000    0.000    0.000    0.000 
#
# Total GULP energy -89137.182673 kJ/mol
# GULP energy per Si atom -5571.073917 kJ/mol
# Density = 2.170600 g / cm^3
# Si number density = 21.755521 Si / 1000 Ang^3
#
#
#
# Elastic Constant Matrix: (Units=GPa)
#
#
# Indices 1 2 3 4 5 6 
#
# 1 47.2572 9.6539 33.8578 0.0000 -11.7546 0.0000
# 2 9.6539 32.1971 -1.4293 0.0000 -6.4365 0.0000
# 3 33.8578 -1.4293 108.4953 0.0000 -0.8255 0.0000
# 4 0.0000 0.0000 0.0000 28.0018 0.0000 -7.6557
# 5 -11.7546 -6.4365 -0.8255 0.0000 36.4024 0.0000
# 6 0.0000 0.0000 0.0000 -7.6557 0.0000 17.0326
#
#
#
# Elastic Compliance Matrix: (Units=1/GPa)
#
#
# Indices 1 2 3 4 5 6 
#
# 1 0.032295 -0.008390 -0.010122 0.000000 0.008715 0.000000
# 2 -0.008390 0.034400 0.003098 0.000000 0.003443 0.000000
# 3 -0.010122 0.003098 0.012398 0.000000 -0.002440 0.000000
# 4 0.000000 0.000000 0.000000 0.040715 0.000000 0.018301
# 5 0.008715 0.003443 -0.002440 0.000000 0.030838 0.000000
# 6 0.000000 0.000000 0.000000 0.018301 0.000000 0.066937
#
#
# Mechanical properties :
#
#
# Convention : Reuss Voigt Hill
#
# Bulk Modulus (GPa) = 20.71964 30.23492 25.47728
# Shear Modulus (GPa) = 18.90348 26.01183 22.45766
#
# Velocity S-wave (km/s) = 2.95092 3.46156 3.21639
# Velocity P-wave (km/s) = 4.59947 5.46848 5.05269
#
# Compressibility (1/GPa) = 0.04826339
#
# Stress axis : x y z
#
# Youngs Moduli (GPa) = 30.96468 29.06948 80.65751
#
# Poissons Ratio (x) = 0.24390 0.81645
# Poissons Ratio (y) = 0.25980 -0.24986
# Poissons Ratio (z) = 0.31344 -0.09005
#
# Static dielectric constant tensor:
#      x y z
#    x 1.767700 0.000000 -0.013070 
#    y 0.000000 1.840440 0.000000 
#    z -0.013070 0.000000 1.830670 
# 
# From -- ./inp_files/12079.got.cif
#   From: 2010.05.17/outbox.cif.g08.bks.cpg/sg9_7_cif.got.tgz:12079.got - 2010.06.03 20:04:27.
