data_PCOD9134445
_publ_section_title
;
Structure prediction by ZEFSAII (Michael W. Deem and Ramdas Pophale) SiO2 
 PCOD9134445
Probable space group: C C
;
_chemical_formula_sum "Si O2"
_cell_formula_units_Z 28
_cell_length_a 5.043984
_cell_length_b 19.302129
_cell_length_c 14.903717
_cell_angle_alpha 90.000000
_cell_angle_beta 72.402810
_cell_angle_gamma 90.000000
_cell_volume 1383.120592
_symmetry_space_group_name_H-M "C C"
_symmetry_group_IT_number 9
_symmetry_cell_setting 'monoclinic'
loop_
_space_group_symop_operation_xyz
x,y,z
x,-y,1/2+z
1/2+x,1/2+y,z
1/2+x,1/2-y,1/2+z
loop_
_atom_site_type_symbol
_atom_site_label
_atom_site_fract_x
_atom_site_fract_y
_atom_site_fract_z
Si Si1 0.944830 0.455751 0.718870
Si Si2 0.825056 0.699681 0.216212
Si Si3 0.934935 0.251258 0.115807
Si Si4 0.369468 0.528765 0.798041
Si Si5 0.572189 0.165424 0.765250
Si Si6 0.201856 0.163865 0.962084
Si Si7 0.168021 0.575187 0.004651
O O1 0.867661 0.376277 0.748873
O O2 0.691754 0.507940 0.765310
O O3 0.208052 0.475423 0.751381
O O4 0.022858 0.458249 0.605500
O O5 0.591827 0.694826 0.162754
O O6 0.706306 0.762461 0.287760
O O7 0.112502 0.731472 0.147927
O O8 0.004515 0.319677 0.167240
O O9 0.087378 0.238186 0.006212
O O10 0.279736 0.602950 0.764842
O O11 0.242565 0.528150 0.911440
O O12 0.288554 0.158300 0.849642
O O13 0.471857 0.136294 0.986573
O O14 0.954514 0.110249 0.005491
#
# Coordination Sequence:
#
# PCOD9134445 Si02
#       7
#     4   4   4   4   4   4   4
#     4  12  22  42  65  89 126 169 207 264 311 374
#     4  10  21  38  64  84 125 155 209 249 308 369
#     4  10  19  36  60  91 116 156 207 257 296 359
#     4  11  25  38  65  93 126 163 211 262 322 363
#     4   9  24  37  63  90 125 153 208 259 308 367
#     4  11  19  37  65  90 117 166 212 253 293 382
#     4  11  22  40  62  91 121 168 220 242 304 400
#
# _framework density 20.244077999999998
#
# number of rings (size 3 to 8) (size 9 to 14) (size 15 to 20)
#    0.857    0.571    2.857    3.429    6.000    0.000 
#    0.000    2.857    0.000    0.000    0.000    0.000 
#    0.000    0.000    0.000    0.000    0.000    0.000 
#
# Total GULP energy -78013.241016 kJ/mol
# GULP energy per Si atom -5572.374358 kJ/mol
# Density = 2.019800 g / cm^3
# Si number density = 20.244078 Si / 1000 Ang^3
#
#
#
# Elastic Constant Matrix: (Units=GPa)
#
#
# Indices 1 2 3 4 5 6 
#
# 1 73.7487 -6.0345 6.0468 0.0000 -7.4144 0.0000
# 2 -6.0345 65.7727 21.7741 0.0000 -2.8450 0.0000
# 3 6.0468 21.7741 35.5741 0.0000 -20.6159 0.0000
# 4 0.0000 0.0000 0.0000 24.8177 0.0000 4.4269
# 5 -7.4144 -2.8450 -20.6159 0.0000 33.4752 0.0000
# 6 0.0000 0.0000 0.0000 4.4269 0.0000 28.4009
#
#
#
# Elastic Compliance Matrix: (Units=1/GPa)
#
#
# Indices 1 2 3 4 5 6 
#
# 1 0.014146 0.002346 -0.002968 0.000000 0.001504 0.000000
# 2 0.002346 0.021219 -0.018722 0.000000 -0.009207 0.000000
# 3 -0.002968 -0.018722 0.060288 0.000000 0.034880 0.000000
# 4 0.000000 0.000000 0.000000 0.041446 0.000000 -0.006460
# 5 0.001504 -0.009207 0.034880 0.000000 0.050905 0.000000
# 6 0.000000 0.000000 0.000000 -0.006460 0.000000 0.036217
#
#
# Mechanical properties :
#
#
# Convention : Reuss Voigt Hill
#
# Bulk Modulus (GPa) = 17.55517 24.29649 20.92583
# Shear Modulus (GPa) = 17.73694 27.55935 22.64815
#
# Velocity S-wave (km/s) = 2.96320 3.69366 3.34841
# Velocity P-wave (km/s) = 4.51641 5.49715 5.03074
#
# Compressibility (1/GPa) = 0.05696329
#
# Stress axis : x y z
#
# Youngs Moduli (GPa) = 70.69067 47.12815 16.58714
#
# Poissons Ratio (x) = -0.11055 0.04924
# Poissons Ratio (y) = -0.16581 0.31054
# Poissons Ratio (z) = 0.20984 0.88233
#
# Static dielectric constant tensor:
#      x y z
#    x 1.700800 0.000000 0.020500 
#    y 0.000000 1.735990 0.000000 
#    z 0.020500 0.000000 1.802080 
# 
# From -- ./inp_files/22133.got.cif
#   From: 2010.05.17/outbox.cif.g08.bks.cpg/sg9_12_cif.got.tgz:22133.got - 2010.06.03 20:04:27.
