data_PCOD9134915
_publ_section_title
;
Structure prediction by ZEFSAII (Michael W. Deem and Ramdas Pophale) SiO2 
 PCOD9134915
Probable space group: C C
;
_chemical_formula_sum "Si O2"
_cell_formula_units_Z 32
_cell_length_a 10.339215
_cell_length_b 21.776259
_cell_length_c 8.035149
_cell_angle_alpha 90.000000
_cell_angle_beta 40.528779
_cell_angle_gamma 90.000000
_cell_volume 1175.613246
_symmetry_space_group_name_H-M "C C"
_symmetry_group_IT_number 9
_symmetry_cell_setting 'monoclinic'
loop_
_space_group_symop_operation_xyz
x,y,z
x,-y,1/2+z
1/2+x,1/2+y,z
1/2+x,1/2-y,1/2+z
loop_
_atom_site_type_symbol
_atom_site_label
_atom_site_fract_x
_atom_site_fract_y
_atom_site_fract_z
Si Si1 0.286560 0.802343 0.579510
Si Si2 0.189557 0.676938 0.540578
Si Si3 0.686382 0.577930 0.046006
Si Si4 0.095184 0.175924 0.631311
Si Si5 0.498550 0.803869 0.870124
Si Si6 0.094544 0.423441 0.592907
Si Si7 0.647122 0.947340 0.157007
Si Si8 0.628530 0.550205 0.487274
O O1 0.312816 0.733420 0.489381
O O2 0.512399 0.826094 0.351658
O O3 0.176162 0.847893 0.557574
O O4 0.190080 0.808239 0.855815
O O5 0.099278 0.695893 0.451398
O O6 0.272328 0.607951 0.450724
O O7 0.633191 0.562823 0.288168
O O8 0.586373 0.521974 0.045549
O O9 0.926020 0.563977 0.794323
O O10 0.272426 0.172691 0.592606
O O11 0.980887 0.236510 0.803813
O O12 0.011435 0.106920 0.689052
O O13 0.611210 0.855083 0.649709
O O14 0.155508 0.434147 0.343845
O O15 0.189324 0.480930 0.596988
O O16 0.854559 0.436971 0.829127
#
# Coordination Sequence:
#
# PCOD9134915 Si02
#       8
#     4   4   4   4   4   4   4   4
#     4  10  20  35  52  73 102 137 170 205 252 305
#     4  11  21  33  51  77 104 133 169 211 255 303
#     4   8  15  26  44  68  94 123 159 200 243 287
#     4  10  20  35  52  73 102 137 170 205 252 305
#     4  11  21  33  51  77 104 133 169 211 255 303
#     4   9  16  28  46  70  98 129 164 206 250 295
#     4   9  16  28  46  70  98 129 164 206 250 295
#     4   8  15  26  44  68  94 123 159 200 243 287
#
# _framework density 27.219835
#
# number of rings (size 3 to 8) (size 9 to 14) (size 15 to 20)
#    0.000    2.500    0.000    5.250    0.000    7.000 
#    0.000    0.000    0.000    1.500    0.000    7.000 
#    0.000    0.000    0.000    0.000    0.000    0.000 
#
# Total GULP energy -89441.653387 kJ/mol
# GULP energy per Si atom -5590.103337 kJ/mol
# Density = 2.715788 g / cm^3
# Si number density = 27.219835 Si / 1000 Ang^3
#
#
#
# Elastic Constant Matrix: (Units=GPa)
#
#
# Indices 1 2 3 4 5 6 
#
# 1 53.8327 36.5496 12.3944 0.0000 11.1003 0.0000
# 2 36.5496 246.6161 38.5964 0.0000 21.0510 0.0000
# 3 12.3944 38.5964 54.1939 0.0000 7.6921 0.0000
# 4 0.0000 0.0000 0.0000 48.8333 0.0000 -4.3003
# 5 11.1003 21.0510 7.6921 0.0000 36.6897 0.0000
# 6 0.0000 0.0000 0.0000 -4.3003 0.0000 47.0741
#
#
#
# Elastic Compliance Matrix: (Units=1/GPa)
#
#
# Indices 1 2 3 4 5 6 
#
# 1 0.021779 -0.002425 -0.002594 0.000000 -0.004654 0.000000
# 2 -0.002425 0.004980 -0.002773 0.000000 -0.001542 0.000000
# 3 -0.002594 -0.002773 0.021318 0.000000 -0.002093 0.000000
# 4 0.000000 0.000000 0.000000 0.020644 0.000000 0.001886
# 5 -0.004654 -0.001542 -0.002093 0.000000 0.029988 0.000000
# 6 0.000000 0.000000 0.000000 0.001886 0.000000 0.021415
#
#
# Mechanical properties :
#
#
# Convention : Reuss Voigt Hill
#
# Bulk Modulus (GPa) = 30.77509 58.85816 44.81662
# Shear Modulus (GPa) = 34.12097 44.32625 39.22361
#
# Velocity S-wave (km/s) = 3.54437 4.03979 3.80016
# Velocity P-wave (km/s) = 5.29913 6.59015 5.97958
#
# Compressibility (1/GPa) = 0.03249381
#
# Stress axis : x y z
#
# Youngs Moduli (GPa) = 45.91561 200.80785 46.90954
#
# Poissons Ratio (x) = 0.48687 0.12167
# Poissons Ratio (y) = 0.11132 0.13009
# Poissons Ratio (z) = 0.11909 0.55688
#
# Static dielectric constant tensor:
#      x y z
#    x 2.175770 0.000000 -0.182720 
#    y 0.000000 2.215810 0.000000 
#    z -0.182720 0.000000 2.212160 
# 
# From -- ./inp_files/8015.got.cif
#   From: 2010.05.17/outbox.cif.g08.bks.cpg/sg9_5_cif.got.tgz:8015.got - 2010.06.03 20:04:27.
