data_PCOD9134116
_publ_section_title
;
Structure prediction by ZEFSAII (Michael W. Deem and Ramdas Pophale) SiO2 
 PCOD9134116
Probable space group: C C
;
_chemical_formula_sum "Si O2"
_cell_formula_units_Z 28
_cell_length_a 9.976055
_cell_length_b 12.038227
_cell_length_c 15.629784
_cell_angle_alpha 90.000000
_cell_angle_beta 146.138183
_cell_angle_gamma 90.000000
_cell_volume 1045.873344
_symmetry_space_group_name_H-M "C C"
_symmetry_group_IT_number 9
_symmetry_cell_setting 'monoclinic'
loop_
_space_group_symop_operation_xyz
x,y,z
x,-y,1/2+z
1/2+x,1/2+y,z
1/2+x,1/2-y,1/2+z
loop_
_atom_site_type_symbol
_atom_site_label
_atom_site_fract_x
_atom_site_fract_y
_atom_site_fract_z
Si Si1 0.861690 0.325200 0.661180
Si Si2 0.728615 0.681891 0.919342
Si Si3 0.026416 0.469825 0.019982
Si Si4 0.103283 0.884821 0.113853
Si Si5 0.273233 0.495829 0.324201
Si Si6 0.644134 0.116645 0.926404
Si Si7 0.634750 0.622111 0.220341
O O1 0.660811 0.327522 0.482694
O O2 0.760696 0.336532 0.701485
O O3 0.009657 0.211166 0.743095
O O4 0.058909 0.417185 0.738514
O O5 0.870994 0.575366 0.966821
O O6 0.915922 0.784472 0.018175
O O7 0.827561 0.374668 0.898839
O O8 0.114980 0.506869 0.972392
O O9 0.219660 0.459955 0.198526
O O10 0.373020 0.839818 0.272360
O O11 0.086724 0.991476 0.168788
O O12 0.026108 0.943229 0.981731
O O13 0.230920 0.405320 0.375718
O O14 0.871311 0.175433 0.092577
#
# Coordination Sequence:
#
# PCOD9134116 Si02
#       7
#     4   4   4   4   4   4   4
#     4  10  18  37  57  89 121 157 200 258 304 366
#     4  10  21  36  64  91 121 156 211 254 309 360
#     4  10  20  36  58  94 118 160 207 253 304 365
#     4   9  18  35  58  86 119 159 198 256 303 358
#     4   9  18  32  57  84 117 151 203 251 297 349
#     4  10  19  36  55  84 121 158 196 255 296 364
#     4  10  20  36  59  88 125 161 199 247 313 362
#
# _framework density 26.771882000000002
#
# number of rings (size 3 to 8) (size 9 to 14) (size 15 to 20)
#    0.000    2.286    2.857    1.714    0.000    1.143 
#    2.571    1.429    0.000    0.000    0.000    0.000 
#    0.000    0.000    0.000    0.000    0.000    0.000 
#
# Total GULP energy -78173.779013 kJ/mol
# GULP energy per Si atom -5583.841358 kJ/mol
# Density = 2.671095 g / cm^3
# Si number density = 26.771882 Si / 1000 Ang^3
#
#
#
# Elastic Constant Matrix: (Units=GPa)
#
#
# Indices 1 2 3 4 5 6 
#
# 1 67.6635 17.4921 48.6692 0.0003 -0.9168 0.0001
# 2 17.4921 56.6773 6.2253 0.0003 -7.2191 0.0001
# 3 48.6692 6.2253 215.6868 0.0010 -33.0976 0.0003
# 4 0.0003 0.0003 0.0010 24.0720 0.0004 0.7101
# 5 -0.9168 -7.2191 -33.0976 0.0004 41.1968 0.0001
# 6 0.0001 0.0001 0.0003 0.7101 0.0001 19.1830
#
#
#
# Elastic Compliance Matrix: (Units=1/GPa)
#
#
# Indices 1 2 3 4 5 6 
#
# 1 0.019944 -0.006199 -0.005042 0.000000 -0.004693 0.000000
# 2 -0.006199 0.019974 0.001526 0.000000 0.004589 0.000000
# 3 -0.005042 0.001526 0.006563 0.000000 0.005428 0.000000
# 4 0.000000 0.000000 0.000000 0.041588 -0.000001 -0.001540
# 5 -0.004693 0.004589 0.005428 -0.000001 0.029334 0.000000
# 6 0.000000 0.000000 0.000000 -0.001540 0.000000 0.052187
#
#
# Mechanical properties :
#
#
# Convention : Reuss Voigt Hill
#
# Bulk Modulus (GPa) = 36.96569 53.86674 45.41622
# Shear Modulus (GPa) = 25.24799 34.73309 29.99054
#
# Velocity S-wave (km/s) = 3.07429 3.60581 3.35061
# Velocity P-wave (km/s) = 5.14192 6.12374 5.65418
#
# Compressibility (1/GPa) = 0.02705211
#
# Stress axis : x y z
#
# Youngs Moduli (GPa) = 50.13935 50.06559 152.37300
#
# Poissons Ratio (x) = 0.31037 0.76821
# Poissons Ratio (y) = 0.31083 -0.23260
# Poissons Ratio (z) = 0.25278 -0.07642
#
# Static dielectric constant tensor:
#      x y z
#    x 2.119930 0.000000 0.037910 
#    y 0.000000 2.141410 0.000000 
#    z 0.037910 0.000000 2.160090 
# 
# From -- ./inp_files/5400.got.cif
#   From: 2010.05.17/outbox.cif.g08.bks.cpg/sg9_3_cif.got.tgz:5400.got - 2010.06.03 20:04:27.
