data_PCOD9134267
_publ_section_title
;
Structure prediction by ZEFSAII (Michael W. Deem and Ramdas Pophale) SiO2 
 PCOD9134267
Probable space group: C C
;
_chemical_formula_sum "Si O2"
_cell_formula_units_Z 32
_cell_length_a 11.921421
_cell_length_b 29.859289
_cell_length_c 5.121014
_cell_angle_alpha 90.000000
_cell_angle_beta 115.667958
_cell_angle_gamma 90.000000
_cell_volume 1643.017424
_symmetry_space_group_name_H-M "C C"
_symmetry_group_IT_number 9
_symmetry_cell_setting 'monoclinic'
loop_
_space_group_symop_operation_xyz
x,y,z
x,-y,1/2+z
1/2+x,1/2+y,z
1/2+x,1/2-y,1/2+z
loop_
_atom_site_type_symbol
_atom_site_label
_atom_site_fract_x
_atom_site_fract_y
_atom_site_fract_z
Si Si1 0.029760 0.173352 0.723010
Si Si2 0.811394 0.654350 0.861406
Si Si3 0.642125 0.181235 0.721533
Si Si4 0.909973 0.386337 0.962161
Si Si5 0.039853 0.473267 0.276045
Si Si6 0.537022 0.224221 0.114701
Si Si7 0.405013 0.366642 0.596444
Si Si8 0.332523 0.530908 0.009858
O O1 0.001232 0.225619 0.652533
O O2 0.951537 0.145523 0.431666
O O3 0.175121 0.168512 0.807556
O O4 0.996104 0.154970 0.973673
O O5 0.860844 0.618093 0.120149
O O6 0.911463 0.694524 0.981768
O O7 0.815100 0.635109 0.573648
O O8 0.534883 0.143442 0.615875
O O9 0.629323 0.204489 0.427978
O O10 0.604812 0.217165 0.905943
O O11 0.772135 0.157281 0.909932
O O12 0.947003 0.435401 0.088017
O O13 0.023143 0.485066 0.562011
O O14 0.183616 0.459673 0.373463
O O15 0.394903 0.420379 0.559342
O O16 0.360791 0.500725 0.291659
#
# Coordination Sequence:
#
# PCOD9134267 Si02
#       8
#     4   4   4   4   4   4   4   4
#     4  12  26  41  61  91 123 170 210 254 297 373
#     4  10  23  39  61  81 119 165 202 239 301 361
#     4  10  21  38  62  89 119 156 198 248 309 369
#     4  10  19  39  60  84 118 157 191 247 300 360
#     4  10  19  32  58  93 121 144 189 251 316 369
#     4  10  23  41  61  87 119 160 205 255 304 347
#     4  12  24  40  65  95 126 162 207 261 312 373
#     4  10  21  38  62  92 127 158 196 261 325 374
#
# _framework density 19.476362000000002
#
# number of rings (size 3 to 8) (size 9 to 14) (size 15 to 20)
#    0.000    1.500    1.250    3.750    3.500    0.000 
#    0.000    0.000    0.000   15.000    0.000    0.000 
#    0.000    0.000    0.000    0.000    0.000    0.000 
#
# Total GULP energy -89403.921199 kJ/mol
# GULP energy per Si atom -5587.745075 kJ/mol
# Density = 1.943203 g / cm^3
# Si number density = 19.476362 Si / 1000 Ang^3
#
#
#
# Elastic Constant Matrix: (Units=GPa)
#
#
# Indices 1 2 3 4 5 6 
#
# 1 50.6297 -4.4219 -4.1574 0.0000 -4.1459 0.0000
# 2 -4.4219 81.1466 -5.8695 0.0000 4.5694 0.0000
# 3 -4.1574 -5.8695 52.9844 0.0000 -3.5656 0.0000
# 4 0.0000 0.0000 0.0000 17.6270 0.0000 -2.7161
# 5 -4.1459 4.5694 -3.5656 0.0000 25.5850 0.0000
# 6 0.0000 0.0000 0.0000 -2.7161 0.0000 11.4214
#
#
#
# Elastic Compliance Matrix: (Units=1/GPa)
#
#
# Indices 1 2 3 4 5 6 
#
# 1 0.020278 0.001055 0.001935 0.000000 0.003367 0.000000
# 2 0.001055 0.012585 0.001350 0.000000 -0.001889 0.000000
# 3 0.001935 0.001350 0.019361 0.000000 0.002771 0.000000
# 4 0.000000 0.000000 0.000000 0.058889 0.000000 0.014004
# 5 0.003367 -0.001889 0.002771 0.000000 0.040354 0.000000
# 6 0.000000 0.000000 0.000000 0.014004 0.000000 0.090885
#
#
# Mechanical properties :
#
#
# Convention : Reuss Voigt Hill
#
# Bulk Modulus (GPa) = 16.41937 17.31813 16.86875
# Shear Modulus (GPa) = 19.68705 24.20730 21.94717
#
# Velocity S-wave (km/s) = 3.18278 3.52931 3.36052
# Velocity P-wave (km/s) = 4.68567 5.05166 4.87210
#
# Compressibility (1/GPa) = 0.06090366
#
# Stress axis : x y z
#
# Youngs Moduli (GPa) = 49.31453 79.46050 51.64950
#
# Poissons Ratio (x) = -0.08386 -0.09992
# Poissons Ratio (y) = -0.05204 -0.06972
# Poissons Ratio (z) = -0.09540 -0.10726
#
# Static dielectric constant tensor:
#      x y z
#    x 1.662400 0.000000 -0.007350 
#    y 0.000000 1.663340 0.000000 
#    z -0.007350 0.000000 1.667330 
# 
# From -- ./inp_files/2094.got.cif
#   From: 2010.05.17/outbox.cif.g08.bks.cpg/sg9_2_cif.got.tgz:2094.got - 2010.06.03 20:04:27.
