data_PCOD9134938
_publ_section_title
;
Structure prediction by ZEFSAII (Michael W. Deem and Ramdas Pophale) SiO2 
 PCOD9134938
Probable space group: C C
;
_chemical_formula_sum "Si O2"
_cell_formula_units_Z 28
_cell_length_a 22.064266
_cell_length_b 10.560333
_cell_length_c 8.388214
_cell_angle_alpha 90.000000
_cell_angle_beta 139.187104
_cell_angle_gamma 90.000000
_cell_volume 1277.446271
_symmetry_space_group_name_H-M "C C"
_symmetry_group_IT_number 9
_symmetry_cell_setting 'monoclinic'
loop_
_space_group_symop_operation_xyz
x,y,z
x,-y,1/2+z
1/2+x,1/2+y,z
1/2+x,1/2-y,1/2+z
loop_
_atom_site_type_symbol
_atom_site_label
_atom_site_fract_x
_atom_site_fract_y
_atom_site_fract_z
Si Si1 0.665800 0.418170 0.151000
Si Si2 0.370984 0.448516 0.704947
Si Si3 0.890650 0.805628 0.409879
Si Si4 0.357284 0.068440 0.558317
Si Si5 0.560973 0.367590 0.255888
Si Si6 0.294967 0.233769 0.723781
Si Si7 0.465611 0.820400 0.778607
O O1 0.762930 0.489672 0.365793
O O2 0.630798 0.359957 0.246222
O O3 0.695131 0.315049 0.078692
O O4 0.595782 0.522507 0.943459
O O5 0.392538 0.394862 0.571707
O O6 0.348178 0.592915 0.700710
O O7 0.290524 0.365178 0.623568
O O8 0.464642 0.413267 0.987181
O O9 0.852792 0.673072 0.408491
O O10 0.974310 0.746471 0.469244
O O11 0.348321 0.142209 0.705910
O O12 0.444323 0.971231 0.734382
O O13 0.542951 0.238444 0.316672
O O14 0.367642 0.231888 0.012884
#
# Coordination Sequence:
#
# PCOD9134938 Si02
#       7
#     4   4   4   4   4   4   4
#     4  11  20  36  57  93 130 170 214 265 329 389
#     4  10  21  38  58  95 118 170 215 271 323 382
#     4  11  21  37  66  92 132 161 227 272 321 382
#     4  10  21  38  63  94 123 169 217 272 321 395
#     4  11  22  34  59  87 132 163 218 266 326 384
#     4   9  19  36  59  89 121 161 218 264 318 388
#     4  10  20  35  58  92 122 166 215 268 316 382
#
# _framework density 21.91873
#
# number of rings (size 3 to 8) (size 9 to 14) (size 15 to 20)
#    0.000    1.714    1.429    5.143    2.000    0.000 
#    0.000    0.000    0.000   10.286    0.000    0.000 
#    0.000    0.000    0.000    0.000    0.000    0.000 
#
# Total GULP energy -77939.577486 kJ/mol
# GULP energy per Si atom -5567.112678 kJ/mol
# Density = 2.186884 g / cm^3
# Si number density = 21.918730 Si / 1000 Ang^3
#
#
#
# Elastic Constant Matrix: (Units=GPa)
#
#
# Indices 1 2 3 4 5 6 
#
# 1 138.8062 107.2523 8.8508 0.0000 -0.9705 0.0000
# 2 107.2523 162.8862 14.4002 0.0000 -7.7476 0.0000
# 3 8.8508 14.4002 31.2336 0.0000 -4.8864 0.0000
# 4 0.0000 0.0000 0.0000 15.9483 0.0000 -4.2900
# 5 -0.9705 -7.7476 -4.8864 0.0000 20.3948 0.0000
# 6 0.0000 0.0000 0.0000 -4.2900 0.0000 47.9017
#
#
#
# Elastic Compliance Matrix: (Units=1/GPa)
#
#
# Indices 1 2 3 4 5 6 
#
# 1 0.014852 -0.009915 -0.000120 0.000000 -0.003089 0.000000
# 2 -0.009915 0.013084 -0.002617 0.000000 0.003871 0.000000
# 3 -0.000120 -0.002617 0.034390 0.000000 0.007240 0.000000
# 4 0.000000 0.000000 0.000000 0.064250 0.000000 0.005754
# 5 -0.003089 0.003871 0.007240 0.000000 0.052090 0.000000
# 6 0.000000 0.000000 0.000000 0.005754 0.000000 0.021391
#
#
# Mechanical properties :
#
#
# Convention : Reuss Voigt Hill
#
# Bulk Modulus (GPa) = 27.01216 65.99251 46.50234
# Shear Modulus (GPa) = 21.03469 30.34381 25.68925
#
# Velocity S-wave (km/s) = 3.10121 3.72476 3.42720
# Velocity P-wave (km/s) = 5.01736 6.97651 6.07641
#
# Compressibility (1/GPa) = 0.03702036
#
# Stress axis : x y z
#
# Youngs Moduli (GPa) = 67.33198 76.43193 29.07821
#
# Poissons Ratio (x) = 0.75785 0.00350
# Poissons Ratio (y) = 0.66763 0.07609
# Poissons Ratio (z) = 0.00810 0.20000
#
# Static dielectric constant tensor:
#      x y z
#    x 1.881130 0.000000 -0.057330 
#    y 0.000000 1.920050 0.000000 
#    z -0.057330 0.000000 1.831010 
# 
# From -- ./inp_files/11628.got.cif
#   From: 2010.05.17/outbox.cif.g08.bks.cpg/sg9_6_cif.got.tgz:11628.got - 2010.06.03 20:04:27.
