data_PCOD9134985
_publ_section_title
;
Structure prediction by ZEFSAII (Michael W. Deem and Ramdas Pophale) SiO2 
 PCOD9134985
Probable space group: C C
;
_chemical_formula_sum "Si O2"
_cell_formula_units_Z 28
_cell_length_a 7.122643
_cell_length_b 17.124516
_cell_length_c 11.752153
_cell_angle_alpha 90.000000
_cell_angle_beta 54.103195
_cell_angle_gamma 90.000000
_cell_volume 1161.186008
_symmetry_space_group_name_H-M "C C"
_symmetry_group_IT_number 9
_symmetry_cell_setting 'monoclinic'
loop_
_space_group_symop_operation_xyz
x,y,z
x,-y,1/2+z
1/2+x,1/2+y,z
1/2+x,1/2-y,1/2+z
loop_
_atom_site_type_symbol
_atom_site_label
_atom_site_fract_x
_atom_site_fract_y
_atom_site_fract_z
Si Si1 0.565360 0.697424 0.557470
Si Si2 0.541175 0.428483 0.568330
Si Si3 0.748745 0.836199 0.370284
Si Si4 0.290219 0.768738 0.455454
Si Si5 0.677031 0.559861 0.362711
Si Si6 0.260530 0.384876 0.860948
Si Si7 0.484840 0.018276 0.056131
O O1 0.718901 0.774741 0.484240
O O2 0.477128 0.675053 0.713773
O O3 0.343433 0.720308 0.554046
O O4 0.698459 0.624789 0.453084
O O5 0.609897 0.338640 0.526332
O O6 0.545339 0.484331 0.458356
O O7 0.305630 0.425038 0.723954
O O8 0.754829 0.465586 0.563689
O O9 0.539465 0.811131 0.358906
O O10 0.676006 0.920302 0.442626
O O11 0.226408 0.707190 0.381359
O O12 0.509877 0.602770 0.332669
O O13 0.902966 0.534565 0.213430
O O14 0.077130 0.432376 0.999677
#
# Coordination Sequence:
#
# PCOD9134985 Si02
#       7
#     4   4   4   4   4   4   4
#     4   9  16  29  51  77 104 136 176 222 262 309
#     4  10  20  36  56  81 111 142 180 226 272 323
#     4   9  16  29  51  77 104 136 176 222 262 309
#     4   8  18  30  56  78 104 138 182 226 262 322
#     4  10  21  34  53  82 112 142 182 225 269 323
#     4  10  20  36  56  81 111 142 180 226 272 323
#     4  10  21  34  53  82 112 142 182 225 269 323
#
# _framework density 24.113278999999999
#
# number of rings (size 3 to 8) (size 9 to 14) (size 15 to 20)
#    0.857    1.714    0.000    2.571    0.000    6.857 
#    0.000    0.000    3.143    0.000    0.000    0.000 
#    0.000    0.000    0.000    0.000    0.000    0.000 
#
# Total GULP energy -78120.817185 kJ/mol
# GULP energy per Si atom -5580.058370 kJ/mol
# Density = 2.405840 g / cm^3
# Si number density = 24.113279 Si / 1000 Ang^3
#
#
#
# Elastic Constant Matrix: (Units=GPa)
#
#
# Indices 1 2 3 4 5 6 
#
# 1 49.3766 -0.3723 -22.1461 0.0000 2.3529 0.0000
# 2 -0.3723 93.6193 -6.4633 0.0000 4.7951 0.0000
# 3 -22.1461 -6.4633 71.5278 0.0000 -0.6840 0.0000
# 4 0.0000 0.0000 0.0000 25.9743 0.0000 -3.4190
# 5 2.3529 4.7951 -0.6840 0.0000 8.3287 0.0000
# 6 0.0000 0.0000 0.0000 -3.4190 0.0000 21.3082
#
#
#
# Elastic Compliance Matrix: (Units=1/GPa)
#
#
# Indices 1 2 3 4 5 6 
#
# 1 0.023908 0.000950 0.007424 0.000000 -0.006692 0.000000
# 2 0.000950 0.011107 0.001235 0.000000 -0.006562 0.000000
# 3 0.007424 0.001235 0.016377 0.000000 -0.001464 0.000000
# 4 0.000000 0.000000 0.000000 0.039330 0.000000 0.006311
# 5 -0.006692 -0.006562 -0.001464 0.000000 0.125615 0.000000
# 6 0.000000 0.000000 0.000000 0.006311 0.000000 0.047943
#
#
# Mechanical properties :
#
#
# Convention : Reuss Voigt Hill
#
# Bulk Modulus (GPa) = 14.16197 17.39559 15.77878
# Shear Modulus (GPa) = 18.61517 27.35592 22.98554
#
# Velocity S-wave (km/s) = 2.78148 3.37185 3.09079
# Velocity P-wave (km/s) = 4.02509 4.73170 4.39263
#
# Compressibility (1/GPa) = 0.07061166
#
# Stress axis : x y z
#
# Youngs Moduli (GPa) = 41.82622 90.03581 61.06173
#
# Poissons Ratio (x) = -0.08557 -0.45334
# Poissons Ratio (y) = -0.03975 -0.07542
# Poissons Ratio (z) = -0.31053 -0.11121
#
# Static dielectric constant tensor:
#      x y z
#    x 1.991760 0.000000 0.062950 
#    y 0.000000 1.893770 0.000000 
#    z 0.062950 0.000000 1.954590 
# 
# From -- ./inp_files/15029.got.cif
#   From: 2010.05.17/outbox.cif.g08.bks.cpg/sg9_8_cif.got.tgz:15029.got - 2010.06.03 20:04:27.
