data_PCOD9134123
_publ_section_title
;
Structure prediction by ZEFSAII (Michael W. Deem and Ramdas Pophale) SiO2 
 PCOD9134123
Probable space group: C C
;
_chemical_formula_sum "Si O2"
_cell_formula_units_Z 24
_cell_length_a 12.051272
_cell_length_b 14.182848
_cell_length_c 9.030408
_cell_angle_alpha 90.000000
_cell_angle_beta 138.383695
_cell_angle_gamma 90.000000
_cell_volume 1025.091631
_symmetry_space_group_name_H-M "C C"
_symmetry_group_IT_number 9
_symmetry_cell_setting 'monoclinic'
loop_
_space_group_symop_operation_xyz
x,y,z
x,-y,1/2+z
1/2+x,1/2+y,z
1/2+x,1/2-y,1/2+z
loop_
_atom_site_type_symbol
_atom_site_label
_atom_site_fract_x
_atom_site_fract_y
_atom_site_fract_z
Si Si1 0.291220 0.895148 0.241980
Si Si2 0.092543 0.607296 0.540594
Si Si3 0.662740 0.560180 0.301313
Si Si4 0.492439 0.365994 0.140439
Si Si5 0.617207 0.092455 0.219437
Si Si6 0.946268 0.790997 0.409192
O O1 0.467361 0.859006 0.478466
O O2 0.269551 0.001316 0.287959
O O3 0.267374 0.903937 0.044718
O O4 0.132863 0.844032 0.158993
O O5 0.066934 0.585652 0.341535
O O6 0.125849 0.512335 0.661490
O O7 0.261214 0.668561 0.722784
O O8 0.954109 0.681394 0.456187
O O9 0.535936 0.475473 0.228790
O O10 0.556420 0.643053 0.123657
O O11 0.511601 0.303682 0.305687
O O12 0.302286 0.363984 0.895448
#
# Coordination Sequence:
#
# PCOD9134123 Si02
#       6
#     4   4   4   4   4   4
#     4  10  20  34  66  88 128 171 221 251 319 399
#     4  11  26  42  71  95 137 167 230 269 334 389
#     4  10  18  37  60  93 130 173 208 264 333 388
#     4   9  20  39  61  93 132 174 213 264 335 387
#     4  11  23  42  64  98 123 185 216 262 330 406
#     4  11  23  40  68  97 132 172 218 282 329 377
#
# _framework density 23.412541000000001
#
# number of rings (size 3 to 8) (size 9 to 14) (size 15 to 20)
#    1.000    0.667    3.333    1.000    7.000    0.000 
#    0.000    1.667    0.000    0.000    0.000    0.000 
#    0.000    0.000    0.000    0.000    0.000    0.000 
#
# Total GULP energy -67133.501089 kJ/mol
# GULP energy per Si atom -5594.458424 kJ/mol
# Density = 2.335925 g / cm^3
# Si number density = 23.412541 Si / 1000 Ang^3
#
#
#
# Elastic Constant Matrix: (Units=GPa)
#
#
# Indices 1 2 3 4 5 6 
#
# 1 74.5926 30.2396 56.4343 0.0000 2.3107 0.0000
# 2 30.2396 104.8209 42.2247 0.0000 -5.5350 0.0000
# 3 56.4343 42.2247 203.5556 0.0000 2.1281 0.0000
# 4 0.0000 0.0000 0.0000 24.2532 0.0000 9.2781
# 5 2.3107 -5.5350 2.1281 0.0000 34.8164 0.0000
# 6 0.0000 0.0000 0.0000 9.2781 0.0000 25.3305
#
#
#
# Elastic Compliance Matrix: (Units=1/GPa)
#
#
# Indices 1 2 3 4 5 6 
#
# 1 0.018139 -0.003594 -0.004267 0.000000 -0.001514 0.000000
# 2 -0.003594 0.011234 -0.001356 0.000000 0.002107 0.000000
# 3 -0.004267 -0.001356 0.006380 0.000000 -0.000322 0.000000
# 4 0.000000 0.000000 0.000000 0.047951 0.000000 -0.017563
# 5 -0.001514 0.002107 -0.000322 0.000000 0.029177 0.000000
# 6 0.000000 0.000000 0.000000 -0.017563 0.000000 0.045911
#
#
# Mechanical properties :
#
#
# Convention : Reuss Voigt Hill
#
# Bulk Modulus (GPa) = 57.74057 71.19625 64.46841
# Shear Modulus (GPa) = 27.32237 33.81804 30.57020
#
# Velocity S-wave (km/s) = 3.41984 3.80470 3.61739
# Velocity P-wave (km/s) = 6.34898 7.05525 6.71141
#
# Compressibility (1/GPa) = 0.01731885
#
# Stress axis : x y z
#
# Youngs Moduli (GPa) = 55.13108 89.01241 156.72813
#
# Poissons Ratio (x) = 0.31988 0.66884
# Poissons Ratio (y) = 0.19812 0.21254
# Poissons Ratio (z) = 0.23527 0.12071
#
# Static dielectric constant tensor:
#      x y z
#    x 1.947850 0.000000 0.064370 
#    y 0.000000 1.895150 0.000000 
#    z 0.064370 0.000000 1.818670 
# 
# From -- ./inp_files/7978.got.cif
#   From: 2010.05.17/outbox.cif.g08.bks.cpg/sg9_4_cif.got.tgz:7978.got - 2010.06.03 20:04:27.
