data_PCOD9134404
_publ_section_title
;
Structure prediction by ZEFSAII (Michael W. Deem and Ramdas Pophale) SiO2 
 PCOD9134404
Probable space group: C C
;
_chemical_formula_sum "Si O2"
_cell_formula_units_Z 32
_cell_length_a 14.212600
_cell_length_b 7.065069
_cell_length_c 22.672445
_cell_angle_alpha 90.000000
_cell_angle_beta 32.495617
_cell_angle_gamma 90.000000
_cell_volume 1223.073816
_symmetry_space_group_name_H-M "C C"
_symmetry_group_IT_number 9
_symmetry_cell_setting 'monoclinic'
loop_
_space_group_symop_operation_xyz
x,y,z
x,-y,1/2+z
1/2+x,1/2+y,z
1/2+x,1/2-y,1/2+z
loop_
_atom_site_type_symbol
_atom_site_label
_atom_site_fract_x
_atom_site_fract_y
_atom_site_fract_z
Si Si1 0.801490 0.995187 0.432800
Si Si2 0.911655 0.390326 0.096456
Si Si3 0.825864 0.888526 0.296804
Si Si4 0.219444 0.044405 0.295916
Si Si5 0.440296 0.084190 0.851167
Si Si6 0.546304 0.162044 0.406400
Si Si7 0.099968 0.429018 0.143896
Si Si8 0.564423 0.566195 0.085891
O O1 0.604717 0.031992 0.511196
O O2 0.878438 0.870935 0.337706
O O3 0.741766 0.951236 0.531533
O O4 0.912770 0.189747 0.375621
O O5 0.771777 0.528219 0.199753
O O6 0.081352 0.118891 0.877776
O O7 0.902025 0.374719 0.032230
O O8 0.731215 0.088966 0.336006
O O9 0.683887 0.738281 0.348022
O O10 0.979679 0.894853 0.166739
O O11 0.404203 0.987449 0.228098
O O12 0.577656 0.061225 0.725393
O O13 0.505866 0.956973 0.870132
O O14 0.232977 0.023082 0.956137
O O15 0.923362 0.817712 0.620767
O O16 0.123578 0.216073 0.105582
#
# Coordination Sequence:
#
# PCOD9134404 Si02
#       8
#     4   4   4   4   4   4   4   4
#     4   8  17  34  63  94 125 170 224 278 323 401
#     4   8  17  37  60  86 127 164 224 270 323 393
#     4  11  19  39  69  96 120 172 236 276 333 401
#     4  10  20  38  66  92 119 172 230 276 321 399
#     4  10  19  35  65  94 135 181 206 276 362 391
#     4  11  21  40  61  93 139 175 208 283 346 401
#     4   9  16  38  61  90 128 166 226 275 320 403
#     4   9  17  35  67  91 123 176 226 278 328 397
#
# _framework density 26.163589000000002
#
# number of rings (size 3 to 8) (size 9 to 14) (size 15 to 20)
#    0.000    3.000    3.750    1.500    0.000    0.000 
#   18.000    2.500    5.500    0.000    0.000    0.000 
#    0.000    0.000    0.000    0.000    0.000    0.000 
#
# Total GULP energy -89272.745233 kJ/mol
# GULP energy per Si atom -5579.546577 kJ/mol
# Density = 2.610404 g / cm^3
# Si number density = 26.163589 Si / 1000 Ang^3
#
#
#
# Elastic Constant Matrix: (Units=GPa)
#
#
# Indices 1 2 3 4 5 6 
#
# 1 74.1827 30.7583 66.9047 0.0000 22.6599 0.0001
# 2 30.7583 89.7163 46.1786 0.0001 16.5213 0.0002
# 3 66.9047 46.1786 152.1499 -0.0001 59.1474 0.0000
# 4 0.0000 0.0001 -0.0001 16.0350 0.0000 -8.3449
# 5 22.6599 16.5213 59.1474 0.0000 66.9778 0.0000
# 6 0.0001 0.0002 0.0000 -8.3449 0.0000 27.1694
#
#
#
# Elastic Compliance Matrix: (Units=1/GPa)
#
#
# Indices 1 2 3 4 5 6 
#
# 1 0.023205 -0.003173 -0.009888 0.000000 0.001664 0.000000
# 2 -0.003173 0.013652 -0.002827 0.000000 0.000202 0.000000
# 3 -0.009888 -0.002827 0.015543 0.000000 -0.009683 0.000000
# 4 0.000000 0.000000 0.000000 0.074229 0.000000 0.022799
# 5 0.001664 0.000202 -0.009683 0.000000 0.022868 0.000000
# 6 0.000000 0.000000 0.000000 0.022799 0.000000 0.043809
#
#
# Mechanical properties :
#
#
# Convention : Reuss Voigt Hill
#
# Bulk Modulus (GPa) = 48.48536 67.08136 57.78336
# Shear Modulus (GPa) = 21.55585 33.51691 27.53638
#
# Velocity S-wave (km/s) = 2.87346 3.58306 3.24770
# Velocity P-wave (km/s) = 5.43883 6.54314 6.01637
#
# Compressibility (1/GPa) = 0.02062478
#
# Stress axis : x y z
#
# Youngs Moduli (GPa) = 43.09364 73.25049 64.33915
#
# Poissons Ratio (x) = 0.23239 0.63618
# Poissons Ratio (y) = 0.13672 0.18189
# Poissons Ratio (z) = 0.42610 0.20708
#
# Static dielectric constant tensor:
#      x y z
#    x 2.124980 0.000000 0.061350 
#    y 0.000000 2.121240 0.000000 
#    z 0.061350 0.000000 2.177750 
# 
# From -- ./inp_files/35834.got.cif
#   From: 2010.05.17/outbox.cif.g08.bks.cpg/sg9_18_cif.got.tgz:35834.got - 2010.06.03 20:04:27.
