data_PCOD9134937
_publ_section_title
;
Structure prediction by ZEFSAII (Michael W. Deem and Ramdas Pophale) SiO2 
 PCOD9134937
Probable space group: C C
;
_chemical_formula_sum "Si O2"
_cell_formula_units_Z 24
_cell_length_a 16.260154
_cell_length_b 8.864962
_cell_length_c 21.785652
_cell_angle_alpha 90.000000
_cell_angle_beta 20.307614
_cell_angle_gamma 90.000000
_cell_volume 1089.875808
_symmetry_space_group_name_H-M "C C"
_symmetry_group_IT_number 9
_symmetry_cell_setting 'monoclinic'
loop_
_space_group_symop_operation_xyz
x,y,z
x,-y,1/2+z
1/2+x,1/2+y,z
1/2+x,1/2-y,1/2+z
loop_
_atom_site_type_symbol
_atom_site_label
_atom_site_fract_x
_atom_site_fract_y
_atom_site_fract_z
Si Si1 0.744250 0.672046 0.852760
Si Si2 0.743227 0.906934 0.941790
Si Si3 0.850826 0.467729 0.891371
Si Si4 0.568745 0.186889 0.126217
Si Si5 0.056434 0.891368 0.932133
Si Si6 0.579538 0.241899 0.790271
O O1 0.701800 0.844382 0.902062
O O2 0.724922 0.576610 0.929698
O O3 0.576170 0.572549 0.926640
O O4 0.012659 0.654596 0.640731
O O5 0.986877 0.833558 0.795708
O O6 0.731012 0.080846 0.968617
O O7 0.040910 0.380404 0.714526
O O8 0.962760 0.578337 0.862851
O O9 0.674287 0.351731 0.046332
O O10 0.306698 0.171114 0.280958
O O11 0.004312 0.845010 0.899172
O O12 0.851629 0.801023 0.109996
#
# Coordination Sequence:
#
# PCOD9134937 Si02
#       6
#     4   4   4   4   4   4
#     4   9  19  37  57  84 114 152 194 233 286 356
#     4   9  19  36  60  83 113 154 196 235 287 354
#     4   9  20  35  57  85 115 151 193 233 287 354
#     4  10  20  38  59  85 116 155 196 238 288 356
#     4  10  20  35  58  86 117 149 193 246 292 336
#     4  11  20  37  59  85 115 151 192 245 292 338
#
# _framework density 22.020855999999998
#
# number of rings (size 3 to 8) (size 9 to 14) (size 15 to 20)
#    0.000    2.667    0.000    5.000    0.000    4.000 
#    0.000   10.000    0.000    4.000    0.000    0.000 
#    0.000    0.000    0.000    0.000    0.000    0.000 
#
# Total GULP energy -66867.244838 kJ/mol
# GULP energy per Si atom -5572.270403 kJ/mol
# Density = 2.197074 g / cm^3
# Si number density = 22.020856 Si / 1000 Ang^3
#
#
#
# Elastic Constant Matrix: (Units=GPa)
#
#
# Indices 1 2 3 4 5 6 
#
# 1 73.2157 29.9021 10.2589 -0.0104 2.3617 -0.0029
# 2 29.9021 76.8040 27.0450 -0.0336 -11.7291 -0.0118
# 3 10.2589 27.0450 50.5887 -0.0576 -15.3911 -0.0081
# 4 -0.0104 -0.0336 -0.0576 30.9134 0.0043 5.6337
# 5 2.3617 -11.7291 -15.3911 0.0043 25.4368 -0.0006
# 6 -0.0029 -0.0118 -0.0081 5.6337 -0.0006 45.4763
#
#
#
# Elastic Compliance Matrix: (Units=1/GPa)
#
#
# Indices 1 2 3 4 5 6 
#
# 1 0.016867 -0.006922 -0.001431 -0.000004 -0.005624 -0.000001
# 2 -0.006922 0.019034 -0.007239 0.000004 0.005039 0.000003
# 3 -0.001431 -0.007239 0.028131 0.000043 0.013816 -0.000002
# 4 -0.000004 0.000004 0.000043 0.033096 0.000022 -0.004100
# 5 -0.005624 0.005039 0.013816 0.000022 0.050519 0.000001
# 6 -0.000001 0.000003 -0.000002 -0.004100 0.000001 0.022497
#
#
# Mechanical properties :
#
#
# Convention : Reuss Voigt Hill
#
# Bulk Modulus (GPa) = 30.44269 37.22449 33.83359
# Shear Modulus (GPa) = 23.55430 29.25878 26.40654
#
# Velocity S-wave (km/s) = 3.27408 3.64907 3.46665
# Velocity P-wave (km/s) = 5.30540 5.89026 5.60546
#
# Compressibility (1/GPa) = 0.03284861
#
# Stress axis : x y z
#
# Youngs Moduli (GPa) = 59.28689 52.53885 35.54834
#
# Poissons Ratio (x) = 0.36366 0.05087
# Poissons Ratio (y) = 0.41037 0.25732
# Poissons Ratio (z) = 0.08484 0.38031
#
# Static dielectric constant tensor:
#      x y z
#    x 1.889220 -0.000010 0.062880 
#    y -0.000010 1.864470 0.000010 
#    z 0.062880 0.000010 1.831130 
# 
# From -- ./inp_files/10292.got.cif
#   From: 2010.05.17/outbox.cif.g08.bks.cpg/sg9_6_cif.got.tgz:10292.got - 2010.06.03 20:04:27.
