data_PCOD9134125
_publ_section_title
;
Structure prediction by ZEFSAII (Michael W. Deem and Ramdas Pophale) SiO2 
 PCOD9134125
Probable space group: C C
;
_chemical_formula_sum "Si O2"
_cell_formula_units_Z 32
_cell_length_a 14.513636
_cell_length_b 12.077558
_cell_length_c 13.224372
_cell_angle_alpha 90.000000
_cell_angle_beta 50.720969
_cell_angle_gamma 90.000000
_cell_volume 1794.368979
_symmetry_space_group_name_H-M "C C"
_symmetry_group_IT_number 9
_symmetry_cell_setting 'monoclinic'
loop_
_space_group_symop_operation_xyz
x,y,z
x,-y,1/2+z
1/2+x,1/2+y,z
1/2+x,1/2-y,1/2+z
loop_
_atom_site_type_symbol
_atom_site_label
_atom_site_fract_x
_atom_site_fract_y
_atom_site_fract_z
Si Si1 0.549480 0.152386 0.332740
Si Si2 0.312468 0.654155 0.232190
Si Si3 0.099241 0.901232 0.228286
Si Si4 0.441819 0.658580 0.664200
Si Si5 0.991623 0.583677 0.154126
Si Si6 0.421524 0.497033 0.500578
Si Si7 0.261488 0.472641 0.423930
Si Si8 0.357051 0.894131 0.137238
O O1 0.685191 0.129345 0.268670
O O2 0.552125 0.281211 0.298737
O O3 0.505454 0.084259 0.266073
O O4 0.463787 0.132225 0.486161
O O5 0.302511 0.586703 0.342543
O O6 0.332603 0.784916 0.221752
O O7 0.412514 0.599725 0.090972
O O8 0.238540 0.910094 0.152258
O O9 0.053531 0.900644 0.144509
O O10 0.032233 0.987042 0.347773
O O11 0.461607 0.789526 0.646663
O O12 0.422367 0.606762 0.567509
O O13 0.330688 0.622806 0.812854
O O14 0.895105 0.498708 0.177655
O O15 0.121368 0.549607 0.020948
O O16 0.310178 0.478675 0.503610
#
# Coordination Sequence:
#
# PCOD9134125 Si02
#       8
#     4   4   4   4   4   4   4   4
#     4  10  19  35  58  82 113 153 197 237 285 346
#     4  10  19  36  60  85 113 155 197 242 282 350
#     4   9  20  34  57  86 111 151 197 243 282 346
#     4   9  22  36  60  86 115 157 196 243 293 350
#     4  11  22  37  60  91 117 155 195 249 295 350
#     4  10  18  37  61  82 113 157 196 241 292 348
#     4  10  20  37  62  86 117 154 205 236 298 354
#     4  11  22  36  58  88 121 150 199 241 293 348
#
# _framework density 17.833566999999999
#
# number of rings (size 3 to 8) (size 9 to 14) (size 15 to 20)
#    0.000    2.000    3.750    0.000    0.000    2.000 
#    2.250    0.000    8.250    0.000    0.000    0.000 
#    0.000    0.000    0.000    0.000    0.000    0.000 
#
# Total GULP energy -89172.454520 kJ/mol
# GULP energy per Si atom -5573.278407 kJ/mol
# Density = 1.779298 g / cm^3
# Si number density = 17.833567 Si / 1000 Ang^3
#
#
#
# Elastic Constant Matrix: (Units=GPa)
#
#
# Indices 1 2 3 4 5 6 
#
# 1 59.8987 42.1284 26.4045 0.0000 -4.8604 0.0000
# 2 42.1284 82.6982 37.7840 0.0000 -0.3710 0.0000
# 3 26.4045 37.7840 69.5726 0.0000 2.4449 0.0000
# 4 0.0000 0.0000 0.0000 17.8829 0.0000 2.1017
# 5 -4.8604 -0.3710 2.4449 0.0000 26.7957 0.0000
# 6 0.0000 0.0000 0.0000 2.1017 0.0000 28.0811
#
#
#
# Elastic Compliance Matrix: (Units=1/GPa)
#
#
# Indices 1 2 3 4 5 6 
#
# 1 0.027390 -0.012100 -0.004005 0.000000 0.005166 0.000000
# 2 -0.012100 0.021456 -0.007016 0.000000 -0.001258 0.000000
# 3 -0.004005 -0.007016 0.019796 0.000000 -0.002630 0.000000
# 4 0.000000 0.000000 0.000000 0.056416 0.000000 -0.004222
# 5 0.005166 -0.001258 -0.002630 0.000000 0.038479 0.000000
# 6 0.000000 0.000000 0.000000 -0.004222 0.000000 0.035927
#
#
# Mechanical properties :
#
#
# Convention : Reuss Voigt Hill
#
# Bulk Modulus (GPa) = 44.64365 47.20036 45.92201
# Shear Modulus (GPa) = 19.74930 21.60878 20.67904
#
# Velocity S-wave (km/s) = 3.33141 3.48471 3.40892
# Velocity P-wave (km/s) = 6.31550 6.53571 6.42655
#
# Compressibility (1/GPa) = 0.02239960
#
# Stress axis : x y z
#
# Youngs Moduli (GPa) = 36.50983 46.60681 50.51422
#
# Poissons Ratio (x) = 0.56394 0.20233
# Poissons Ratio (y) = 0.44176 0.35442
# Poissons Ratio (z) = 0.14624 0.32700
#
# Static dielectric constant tensor:
#      x y z
#    x 1.636400 0.000000 0.000230 
#    y 0.000000 1.617160 0.000000 
#    z 0.000230 0.000000 1.605370 
# 
# From -- ./inp_files/16797.got.cif
#   From: 2010.05.17/outbox.cif.g08.bks.cpg/sg9_9_cif.got.tgz:16797.got - 2010.06.03 20:04:27.
