data_PCOD9134045
_publ_section_title
;
Structure prediction by ZEFSAII (Michael W. Deem and Ramdas Pophale) SiO2 
 PCOD9134045
Probable space group: C C
;
_chemical_formula_sum "Si O2"
_cell_formula_units_Z 28
_cell_length_a 17.599810
_cell_length_b 5.145626
_cell_length_c 13.659809
_cell_angle_alpha 90.000000
_cell_angle_beta 58.409655
_cell_angle_gamma 90.000000
_cell_volume 1053.746679
_symmetry_space_group_name_H-M "C C"
_symmetry_group_IT_number 9
_symmetry_cell_setting 'monoclinic'
loop_
_space_group_symop_operation_xyz
x,y,z
x,-y,1/2+z
1/2+x,1/2+y,z
1/2+x,1/2-y,1/2+z
loop_
_atom_site_type_symbol
_atom_site_label
_atom_site_fract_x
_atom_site_fract_y
_atom_site_fract_z
Si Si1 0.479450 0.806389 0.535590
Si Si2 0.234905 0.069847 0.464474
Si Si3 0.692643 0.843112 0.741125
Si Si4 0.281910 0.847938 0.707527
Si Si5 0.023405 0.995959 0.817670
Si Si6 0.433876 0.017066 0.369620
Si Si7 0.145033 0.570154 0.504145
O O1 0.382571 0.746237 0.643039
O O2 0.516190 0.581224 0.438865
O O3 0.459731 0.023223 0.466417
O O4 0.550714 0.923171 0.561223
O O5 0.245584 0.113319 0.341051
O O6 0.330152 0.951856 0.430343
O O7 0.209466 0.360606 0.513496
O O8 0.158411 0.858186 0.536739
O O9 0.772669 0.638464 0.671969
O O10 0.609877 0.679732 0.754305
O O11 0.671692 0.887349 0.871405
O O12 0.720433 0.135618 0.695198
O O13 0.948725 0.190492 0.826153
O O14 0.998751 0.714089 0.787998
#
# Coordination Sequence:
#
# PCOD9134045 Si02
#       7
#     4   4   4   4   4   4   4
#     4  10  22  35  62  87 112 147 198 242 280 324
#     4  10  21  38  56  83 114 151 190 229 289 340
#     4  10  18  35  53  89 105 151 188 240 268 340
#     4  10  22  32  60  83 121 138 194 245 286 318
#     4  10  19  34  61  79 112 147 199 228 276 345
#     4  10  21  34  62  82 114 149 197 230 279 349
#     4  10  19  34  60  79 110 151 194 226 274 354
#
# _framework density 26.571849
#
# number of rings (size 3 to 8) (size 9 to 14) (size 15 to 20)
#    0.857    1.143    1.429    4.286    2.000    0.000 
#    0.000    0.000    9.429    0.000    0.000    0.000 
#    0.000    0.000    0.000    0.000    0.000    0.000 
#
# Total GULP energy -78138.026234 kJ/mol
# GULP energy per Si atom -5581.287588 kJ/mol
# Density = 2.651137 g / cm^3
# Si number density = 26.571849 Si / 1000 Ang^3
#
#
#
# Elastic Constant Matrix: (Units=GPa)
#
#
# Indices 1 2 3 4 5 6 
#
# 1 99.2605 52.2491 27.3056 -0.0001 -17.2560 0.0008
# 2 52.2491 181.7101 38.5436 -0.0061 -5.1343 0.0091
# 3 27.3056 38.5436 87.8839 -0.0010 -5.6809 0.0006
# 4 -0.0001 -0.0061 -0.0010 30.0538 0.0003 -4.9698
# 5 -17.2560 -5.1343 -5.6809 0.0003 43.1969 -0.0004
# 6 0.0008 0.0091 0.0006 -4.9698 -0.0004 42.9072
#
#
#
# Elastic Compliance Matrix: (Units=1/GPa)
#
#
# Indices 1 2 3 4 5 6 
#
# 1 0.013195 -0.003151 -0.002422 -0.000001 0.004578 0.000000
# 2 -0.003151 0.006826 -0.002061 0.000001 -0.000718 -0.000001
# 3 -0.002422 -0.002061 0.013068 0.000000 0.000506 0.000000
# 4 -0.000001 0.000001 0.000000 0.033923 0.000000 0.003929
# 5 0.004578 -0.000718 0.000506 0.000000 0.024960 0.000000
# 6 0.000000 -0.000001 0.000000 0.003929 0.000000 0.023761
#
#
# Mechanical properties :
#
#
# Convention : Reuss Voigt Hill
#
# Bulk Modulus (GPa) = 56.11350 67.22789 61.67070
# Shear Modulus (GPa) = 36.51166 39.94866 38.23016
#
# Velocity S-wave (km/s) = 3.71087 3.88160 3.79720
# Velocity P-wave (km/s) = 6.28683 6.74125 6.51800
#
# Compressibility (1/GPa) = 0.01782102
#
# Stress axis : x y z
#
# Youngs Moduli (GPa) = 75.78451 146.49311 76.52383
#
# Poissons Ratio (x) = 0.46162 0.18533
# Poissons Ratio (y) = 0.23881 0.15773
# Poissons Ratio (z) = 0.18354 0.30195
#
# Static dielectric constant tensor:
#      x y z
#    x 2.122240 0.000000 0.041430 
#    y 0.000000 2.018060 0.000000 
#    z 0.041430 0.000000 2.187850 
# 
# From -- ./inp_files/33916.got.cif
#   From: 2010.05.17/outbox.cif.g08.bks.cpg/sg9_17_cif.got.tgz:33916.got - 2010.06.03 20:04:27.
