data_PCOD9134331
_publ_section_title
;
Structure prediction by ZEFSAII (Michael W. Deem and Ramdas Pophale) SiO2 
 PCOD9134331
Probable space group: C C
;
_chemical_formula_sum "Si O2"
_cell_formula_units_Z 32
_cell_length_a 11.357544
_cell_length_b 14.898272
_cell_length_c 8.595867
_cell_angle_alpha 90.000000
_cell_angle_beta 100.825080
_cell_angle_gamma 90.000000
_cell_volume 1428.605159
_symmetry_space_group_name_H-M "C C"
_symmetry_group_IT_number 9
_symmetry_cell_setting 'monoclinic'
loop_
_space_group_symop_operation_xyz
x,y,z
x,-y,1/2+z
1/2+x,1/2+y,z
1/2+x,1/2-y,1/2+z
loop_
_atom_site_type_symbol
_atom_site_label
_atom_site_fract_x
_atom_site_fract_y
_atom_site_fract_z
Si Si1 0.981850 0.698970 0.664080
Si Si2 0.880377 0.844777 0.219318
Si Si3 0.733375 0.362027 0.013801
Si Si4 0.821308 0.202224 0.379106
Si Si5 0.105223 0.888025 0.654436
Si Si6 0.841006 0.044684 0.167186
Si Si7 0.655545 0.636907 0.837805
Si Si8 0.692794 0.829666 0.412430
O O1 0.879269 0.646748 0.542883
O O2 0.900832 0.748294 0.772068
O O3 0.060631 0.783335 0.621730
O O4 0.079319 0.641824 0.782739
O O5 0.800702 0.797699 0.327333
O O6 0.013447 0.865531 0.300015
O O7 0.817773 0.940751 0.179716
O O8 0.880112 0.791765 0.060669
O O9 0.674933 0.398675 0.837645
O O10 0.672916 0.261581 0.003920
O O11 0.701402 0.400200 0.180152
O O12 0.822505 0.099564 0.322917
O O13 0.701636 0.260372 0.356592
O O14 0.180713 0.907341 0.514887
O O15 0.978101 0.940441 0.641158
O O16 0.749070 0.093054 0.029565
#
# Coordination Sequence:
#
# PCOD9134331 Si02
#       8
#     4   4   4   4   4   4   4   4
#     4   9  18  34  57  80 114 160 197 250 309 354
#     4  12  23  34  60  90 122 160 203 259 316 366
#     4  10  19  36  58  84 118 154 203 260 305 350
#     4  10  21  35  58  88 117 158 202 251 310 366
#     4  10  19  34  57  86 120 155 199 257 308 365
#     4  11  21  38  54  90 129 157 194 258 326 366
#     4  11  20  36  58  89 118 155 213 256 303 362
#     4  11  19  35  56  83 122 157 199 255 307 371
#
# _framework density 22.399470999999998
#
# number of rings (size 3 to 8) (size 9 to 14) (size 15 to 20)
#    0.000    1.500    5.000    4.500    0.000    0.000 
#    0.000    0.000    0.000    3.000    0.000    0.000 
#    0.000    0.000    0.000    0.000    0.000    0.000 
#
# Total GULP energy -89205.995106 kJ/mol
# GULP energy per Si atom -5575.374694 kJ/mol
# Density = 2.234849 g / cm^3
# Si number density = 22.399471 Si / 1000 Ang^3
#
#
#
# Elastic Constant Matrix: (Units=GPa)
#
#
# Indices 1 2 3 4 5 6 
#
# 1 66.0580 5.3806 33.9458 0.0000 8.7535 0.0000
# 2 5.3806 37.6910 13.0978 0.0000 -4.9455 0.0000
# 3 33.9458 13.0978 149.4381 0.0000 -4.6671 0.0000
# 4 0.0000 0.0000 0.0000 10.3708 0.0000 -5.5568
# 5 8.7535 -4.9455 -4.6671 0.0000 53.3176 0.0000
# 6 0.0000 0.0000 0.0000 -5.5568 0.0000 13.3391
#
#
#
# Elastic Compliance Matrix: (Units=1/GPa)
#
#
# Indices 1 2 3 4 5 6 
#
# 1 0.017779 -0.001595 -0.004006 0.000000 -0.003417 0.000000
# 2 -0.001595 0.027801 -0.001991 0.000000 0.002666 0.000000
# 3 -0.004006 -0.001991 0.007812 0.000000 0.001157 0.000000
# 4 0.000000 0.000000 0.000000 0.124131 0.000000 0.051710
# 5 -0.003417 0.002666 0.001157 0.000000 0.019665 0.000000
# 6 0.000000 0.000000 0.000000 0.051710 0.000000 0.096509
#
#
# Mechanical properties :
#
#
# Convention : Reuss Voigt Hill
#
# Bulk Modulus (GPa) = 26.17130 39.78174 32.97652
# Shear Modulus (GPa) = 15.54642 28.78969 22.16806
#
# Velocity S-wave (km/s) = 2.63735 3.58898 3.14931
# Velocity P-wave (km/s) = 4.58076 5.91380 5.28944
#
# Compressibility (1/GPa) = 0.03820979
#
# Stress axis : x y z
#
# Youngs Moduli (GPa) = 56.24491 35.97003 128.00333
#
# Poissons Ratio (x) = 0.05736 0.51274
# Poissons Ratio (y) = 0.08968 0.25488
# Poissons Ratio (z) = 0.22530 0.07162
#
# Static dielectric constant tensor:
#      x y z
#    x 1.826720 0.000000 -0.011320 
#    y 0.000000 1.868360 0.000000 
#    z -0.011320 0.000000 1.955890 
# 
# From -- ./inp_files/7966.got.cif
#   From: 2010.05.17/outbox.cif.g08.bks.cpg/sg9_4_cif.got.tgz:7966.got - 2010.06.03 20:04:27.
