data_PCOD9134905
_publ_section_title
;
Structure prediction by ZEFSAII (Michael W. Deem and Ramdas Pophale) SiO2 
 PCOD9134905
Probable space group: C C
;
_chemical_formula_sum "Si O2"
_cell_formula_units_Z 28
_cell_length_a 16.722365
_cell_length_b 8.440290
_cell_length_c 13.452218
_cell_angle_alpha 90.000000
_cell_angle_beta 44.474677
_cell_angle_gamma 90.000000
_cell_volume 1330.195130
_symmetry_space_group_name_H-M "C C"
_symmetry_group_IT_number 9
_symmetry_cell_setting 'monoclinic'
loop_
_space_group_symop_operation_xyz
x,y,z
x,-y,1/2+z
1/2+x,1/2+y,z
1/2+x,1/2-y,1/2+z
loop_
_atom_site_type_symbol
_atom_site_label
_atom_site_fract_x
_atom_site_fract_y
_atom_site_fract_z
Si Si1 0.336090 0.049584 0.272550
Si Si2 0.629597 0.477217 0.603744
Si Si3 0.543192 0.946996 0.303401
Si Si4 0.423913 0.264155 0.749666
Si Si5 0.280867 0.483167 0.002649
Si Si6 0.959112 0.248093 0.821400
Si Si7 0.726228 0.257349 0.694737
O O1 0.230493 0.027606 0.442179
O O2 0.427943 0.157824 0.248189
O O3 0.287471 0.140469 0.221776
O O4 0.385486 0.873772 0.210024
O O5 0.535378 0.369396 0.630234
O O6 0.560599 0.623978 0.712127
O O7 0.682272 0.369525 0.644562
O O8 0.456861 0.835400 0.320411
O O9 0.612620 0.845802 0.323419
O O10 0.487419 0.114819 0.375737
O O11 0.645117 0.992111 0.134464
O O12 0.323658 0.385101 0.869218
O O13 0.348203 0.645574 0.946870
O O14 0.309069 0.375138 0.073991
#
# Coordination Sequence:
#
# PCOD9134905 Si02
#       7
#     4   4   4   4   4   4   4
#     4  11  20  38  61  91 121 152 205 250 288 361
#     4  10  20  39  59  85 123 163 190 242 308 354
#     4   8  17  33  54  86 113 154 195 231 301 351
#     4   9  16  33  63  82 116 161 190 232 309 354
#     4   9  17  35  58  82 121 158 192 242 295 353
#     4  10  20  34  61  86 116 161 198 237 302 359
#     4   9  20  38  60  84 124 157 198 246 301 350
#
# _framework density 21.049544999999998
#
# number of rings (size 3 to 8) (size 9 to 14) (size 15 to 20)
#    0.857    1.714    1.429    0.857    0.000    0.000 
#    7.714    4.286    0.000    0.000    0.000    0.000 
#    0.000    0.000    0.000    0.000    0.000    0.000 
#
# Total GULP energy -78004.517055 kJ/mol
# GULP energy per Si atom -5571.751218 kJ/mol
# Density = 2.100164 g / cm^3
# Si number density = 21.049545 Si / 1000 Ang^3
#
#
#
# Elastic Constant Matrix: (Units=GPa)
#
#
# Indices 1 2 3 4 5 6 
#
# 1 70.2206 31.5138 13.7620 0.0000 -1.4709 0.0000
# 2 31.5138 109.2465 12.1454 0.0000 -2.3944 0.0000
# 3 13.7620 12.1454 32.9815 0.0000 -11.8358 0.0000
# 4 0.0000 0.0000 0.0000 26.6497 0.0000 -29.4940
# 5 -1.4709 -2.3944 -11.8358 0.0000 23.0927 0.0000
# 6 0.0000 0.0000 0.0000 -29.4940 0.0000 16.5337
#
#
#
# Elastic Compliance Matrix: (Units=1/GPa)
#
#
# Indices 1 2 3 4 5 6 
#
# 1 0.017442 -0.004351 -0.006665 0.000000 -0.002756 0.000000
# 2 -0.004351 0.010648 -0.002217 0.000000 -0.000309 0.000000
# 3 -0.006665 -0.002217 0.041274 0.000000 0.020500 0.000000
# 4 0.000000 0.000000 0.000000 -0.038515 0.000000 -0.068706
# 5 -0.002756 -0.000309 0.020500 0.000000 0.053603 0.000000
# 6 0.000000 0.000000 0.000000 -0.068706 0.000000 -0.062081
#
#
# Mechanical properties :
#
#
# Convention : Reuss Voigt Hill
#
# Bulk Modulus (GPa) = 23.31028 36.36567 29.83797
# Shear Modulus (GPa) = 79.19421 23.59036 51.39229
#
# Velocity S-wave (km/s) = 6.14039 3.35133 4.94651
# Velocity P-wave (km/s) = 7.83394 5.68233 6.84323
#
# Compressibility (1/GPa) = 0.04289953
#
# Stress axis : x y z
#
# Youngs Moduli (GPa) = 57.33334 93.91138 24.22837
#
# Poissons Ratio (x) = 0.40859 0.16148
# Poissons Ratio (y) = 0.24945 0.05371
# Poissons Ratio (z) = 0.38211 0.20818
#
# Static dielectric constant tensor:
#      x y z
#    x 1.747760 0.000000 -0.014790 
#    y 0.000000 1.806150 0.000000 
#    z -0.014790 0.000000 1.770500 
# 
# From -- ./inp_files/26574.got.cif
#   From: 2010.05.17/outbox.cif.g08.bks.cpg/sg9_14_cif.got.tgz:26574.got - 2010.06.03 20:04:27.
