data_PCOD9134798
_publ_section_title
;
Structure prediction by ZEFSAII (Michael W. Deem and Ramdas Pophale) SiO2 
 PCOD9134798
Probable space group: C C
;
_chemical_formula_sum "Si O2"
_cell_formula_units_Z 32
_cell_length_a 5.583432
_cell_length_b 28.884053
_cell_length_c 9.708205
_cell_angle_alpha 90.000000
_cell_angle_beta 66.699458
_cell_angle_gamma 90.000000
_cell_volume 1437.971706
_symmetry_space_group_name_H-M "C C"
_symmetry_group_IT_number 9
_symmetry_cell_setting 'monoclinic'
loop_
_space_group_symop_operation_xyz
x,y,z
x,-y,1/2+z
1/2+x,1/2+y,z
1/2+x,1/2-y,1/2+z
loop_
_atom_site_type_symbol
_atom_site_label
_atom_site_fract_x
_atom_site_fract_y
_atom_site_fract_z
Si Si1 0.202250 0.800401 0.377010
Si Si2 0.171965 0.672039 0.118064
Si Si3 0.574708 0.271907 0.098652
Si Si4 0.154647 0.648392 0.669958
Si Si5 0.103419 0.298864 0.919489
Si Si6 0.964403 0.943181 0.053191
Si Si7 0.430437 0.471681 0.757270
Si Si8 0.417848 0.077826 0.253121
O O1 0.201019 0.781020 0.220896
O O2 0.430300 0.837990 0.328253
O O3 0.216586 0.750196 0.449300
O O4 0.934258 0.826543 0.470056
O O5 0.017728 0.717740 0.105569
O O6 0.261501 0.682371 0.254808
O O7 0.001324 0.626630 0.170093
O O8 0.360439 0.310550 0.141128
O O9 0.810371 0.284140 0.941749
O O10 0.072835 0.658981 0.531418
O O11 0.279485 0.598338 0.644302
O O12 0.981265 0.979262 0.173644
O O13 0.863858 0.969508 0.936646
O O14 0.236575 0.921539 0.933055
O O15 0.187819 0.447932 0.732305
O O16 0.712807 0.446037 0.694261
#
# Coordination Sequence:
#
# PCOD9134798 Si02
#       8
#     4   4   4   4   4   4   4   4
#     4   9  21  38  55 102 145 179 227 282 342 411
#     4  10  19  42  64  97 144 182 230 291 348 432
#     4   9  20  38  60  94 138 183 230 278 338 417
#     4  11  21  41  68  98 132 190 233 285 356 432
#     4   9  19  37  63  90 142 187 232 284 339 422
#     4  10  25  46  77 105 139 189 240 311 368 444
#     4  10  25  48  76 107 140 179 246 306 375 427
#     4  10  24  46  75 105 138 185 240 291 374 431
#
# _framework density 22.253565999999999
#
# number of rings (size 3 to 8) (size 9 to 14) (size 15 to 20)
#    0.750    1.500    0.000    2.250    1.750    5.000 
#   13.500    0.000    0.000    0.000    0.000    0.000 
#    0.000    0.000    0.000    0.000    0.000    0.000 
#
# Total GULP energy -89122.050654 kJ/mol
# GULP energy per Si atom -5570.128166 kJ/mol
# Density = 2.220292 g / cm^3
# Si number density = 22.253566 Si / 1000 Ang^3
#
#
#
# Elastic Constant Matrix: (Units=GPa)
#
#
# Indices 1 2 3 4 5 6 
#
# 1 87.1191 70.7893 34.2580 0.0000 -16.3545 0.0000
# 2 70.7893 185.3825 64.9159 0.0000 -21.8650 0.0000
# 3 34.2580 64.9159 83.8489 0.0000 -27.4956 0.0000
# 4 0.0000 0.0000 0.0000 32.8821 0.0000 -4.1710
# 5 -16.3545 -21.8650 -27.4956 0.0000 22.1867 0.0000
# 6 0.0000 0.0000 0.0000 -4.1710 0.0000 35.2779
#
#
#
# Elastic Compliance Matrix: (Units=1/GPa)
#
#
# Indices 1 2 3 4 5 6 
#
# 1 0.017614 -0.005742 -0.000588 0.000000 0.006596 0.000000
# 2 -0.005742 0.009274 -0.005432 0.000000 -0.001826 0.000000
# 3 -0.000588 -0.005432 0.024384 0.000000 0.024431 0.000000
# 4 0.000000 0.000000 0.000000 0.030875 0.000000 0.003650
# 5 0.006596 -0.001826 0.024431 0.000000 0.078412 0.000000
# 6 0.000000 0.000000 0.000000 0.003650 0.000000 0.028778
#
#
# Mechanical properties :
#
#
# Convention : Reuss Voigt Hill
#
# Bulk Modulus (GPa) = 36.04050 77.36409 56.70229
# Shear Modulus (GPa) = 22.51136 30.49516 26.50326
#
# Velocity S-wave (km/s) = 3.18399 3.70584 3.45478
# Velocity P-wave (km/s) = 5.45414 7.29049 6.43812
#
# Compressibility (1/GPa) = 0.02774656
#
# Stress axis : x y z
#
# Youngs Moduli (GPa) = 56.77375 107.82985 41.01100
#
# Poissons Ratio (x) = 0.61917 0.02411
# Poissons Ratio (y) = 0.32600 0.22279
# Poissons Ratio (z) = 0.03338 0.58578
#
# Static dielectric constant tensor:
#      x y z
#    x 1.957570 0.000000 0.079990 
#    y 0.000000 1.819710 0.000000 
#    z 0.079990 0.000000 1.907280 
# 
# From -- ./inp_files/13876.got.cif
#   From: 2010.05.17/outbox.cif.g08.bks.cpg/sg9_7_cif.got.tgz:13876.got - 2010.06.03 20:04:27.
