data_PCOD9134291
_publ_section_title
;
Structure prediction by ZEFSAII (Michael W. Deem and Ramdas Pophale) SiO2 
 PCOD9134291
Probable space group: C C
;
_chemical_formula_sum "Si O2"
_cell_formula_units_Z 32
_cell_length_a 10.755956
_cell_length_b 26.099115
_cell_length_c 5.109526
_cell_angle_alpha 90.000000
_cell_angle_beta 108.486295
_cell_angle_gamma 90.000000
_cell_volume 1360.337718
_symmetry_space_group_name_H-M "C C"
_symmetry_group_IT_number 9
_symmetry_cell_setting 'monoclinic'
loop_
_space_group_symop_operation_xyz
x,y,z
x,-y,1/2+z
1/2+x,1/2+y,z
1/2+x,1/2-y,1/2+z
loop_
_atom_site_type_symbol
_atom_site_label
_atom_site_fract_x
_atom_site_fract_y
_atom_site_fract_z
Si Si1 0.487470 0.363355 0.620810
Si Si2 0.385238 0.016923 0.999484
Si Si3 0.855950 0.741391 0.930207
Si Si4 0.309999 0.647167 0.504559
Si Si5 0.100811 0.028771 0.318089
Si Si6 0.519601 0.253282 0.553900
Si Si7 0.068240 0.356970 0.167084
Si Si8 0.898179 0.630691 0.055061
O O1 0.425715 0.361121 0.291139
O O2 0.572108 0.413268 0.727867
O O3 0.565779 0.309282 0.677254
O O4 0.370683 0.366180 0.761222
O O5 0.464989 0.999016 0.805078
O O6 0.257176 0.980764 0.928760
O O7 0.337156 0.075061 0.974227
O O8 0.776356 0.792168 0.946908
O O9 0.978356 0.747537 0.221374
O O10 0.816359 0.682193 0.941297
O O11 0.889858 0.747560 0.648385
O O12 0.188711 0.621223 0.576794
O O13 0.048277 0.009402 0.559724
O O14 0.595902 0.203853 0.705977
O O15 0.019627 0.371181 0.425151
O O16 0.947855 0.364850 0.885580
#
# Coordination Sequence:
#
# PCOD9134291 Si02
#       8
#     4   4   4   4   4   4   4   4
#     4  10  19  35  58  77 114 156 179 235 299 321
#     4  10  21  38  59  82 110 140 195 239 285 341
#     4   8  16  30  50  76 108 144 181 217 272 337
#     4  10  19  33  55  85 114 147 191 227 276 354
#     4  10  21  38  59  82 110 140 195 239 285 341
#     4   8  16  30  50  76 108 144 181 217 272 337
#     4  10  19  33  55  85 114 147 191 227 276 354
#     4  10  19  35  58  77 114 156 179 235 299 321
#
# _framework density 23.523569999999999
#
# number of rings (size 3 to 8) (size 9 to 14) (size 15 to 20)
#    0.000    2.500    0.000    2.250    0.000    0.000 
#    4.500    0.000   16.500   15.000    0.000    0.000 
#    0.000    0.000    0.000    0.000    0.000    0.000 
#
# Total GULP energy -89088.823960 kJ/mol
# GULP energy per Si atom -5568.051497 kJ/mol
# Density = 2.347003 g / cm^3
# Si number density = 23.523570 Si / 1000 Ang^3
#
#
#
# Elastic Constant Matrix: (Units=GPa)
#
#
# Indices 1 2 3 4 5 6 
#
# 1 41.0391 1.4410 -4.7469 0.0000 -14.1094 0.0000
# 2 1.4410 135.3023 3.8699 0.0000 10.2076 0.0000
# 3 -4.7469 3.8699 111.8788 0.0000 -23.5052 0.0000
# 4 0.0000 0.0000 0.0000 24.6715 0.0000 -5.7143
# 5 -14.1094 10.2076 -23.5052 0.0000 21.8632 0.0000
# 6 0.0000 0.0000 0.0000 -5.7143 0.0000 11.9191
#
#
#
# Elastic Compliance Matrix: (Units=1/GPa)
#
#
# Indices 1 2 3 4 5 6 
#
# 1 0.037978 -0.003395 0.009315 0.000000 0.036109 0.000000
# 2 -0.003395 0.008116 -0.002172 0.000000 -0.008315 0.000000
# 3 0.009315 -0.002172 0.014061 0.000000 0.022142 0.000000
# 4 0.000000 0.000000 0.000000 0.045596 0.000000 0.021860
# 5 0.036109 -0.008315 0.022142 0.000000 0.096729 0.000000
# 6 0.000000 0.000000 0.000000 0.021860 0.000000 0.094379
#
#
# Mechanical properties :
#
#
# Convention : Reuss Voigt Hill
#
# Bulk Modulus (GPa) = 14.78161 32.14981 23.46571
# Shear Modulus (GPa) = 16.03011 30.86784 23.44898
#
# Velocity S-wave (km/s) = 2.61329 3.62637 3.16069
# Velocity P-wave (km/s) = 3.92468 5.58846 4.82876
#
# Compressibility (1/GPa) = 0.06765161
#
# Stress axis : x y z
#
# Youngs Moduli (GPa) = 26.33096 123.20624 71.12093
#
# Poissons Ratio (x) = 0.41830 -0.66250
# Poissons Ratio (y) = 0.08940 0.15446
# Poissons Ratio (z) = -0.24528 0.26758
#
# Static dielectric constant tensor:
#      x y z
#    x 1.977060 0.000000 -0.069300 
#    y 0.000000 1.915050 0.000000 
#    z -0.069300 0.000000 2.068300 
# 
# From -- ./inp_files/1995.got.cif
#   From: 2010.05.17/outbox.cif.g08.bks.cpg/sg9_1_cif.got.tgz:1995.got - 2010.06.03 20:04:27.
