data_PCOD9134250
_publ_section_title
;
Structure prediction by ZEFSAII (Michael W. Deem and Ramdas Pophale) SiO2 
 PCOD9134250
Probable space group: C C
;
_chemical_formula_sum "Si O2"
_cell_formula_units_Z 28
_cell_length_a 5.454157
_cell_length_b 17.190821
_cell_length_c 12.222043
_cell_angle_alpha 90.000000
_cell_angle_beta 72.510018
_cell_angle_gamma 90.000000
_cell_volume 1092.978193
_symmetry_space_group_name_H-M "C C"
_symmetry_group_IT_number 9
_symmetry_cell_setting 'monoclinic'
loop_
_space_group_symop_operation_xyz
x,y,z
x,-y,1/2+z
1/2+x,1/2+y,z
1/2+x,1/2-y,1/2+z
loop_
_atom_site_type_symbol
_atom_site_label
_atom_site_fract_x
_atom_site_fract_y
_atom_site_fract_z
Si Si1 0.120880 0.687100 0.588870
Si Si2 0.624915 0.579382 0.153693
Si Si3 0.156891 0.257967 0.538011
Si Si4 0.302272 0.881020 0.380507
Si Si5 0.644396 0.987342 0.137148
Si Si6 0.472310 0.703723 0.352180
Si Si7 0.276793 0.574045 0.916704
O O1 0.363771 0.734269 0.608097
O O2 0.090881 0.604196 0.647856
O O3 0.228743 0.672642 0.451888
O O4 0.856881 0.732149 0.602316
O O5 0.688688 0.610750 0.021588
O O6 0.375521 0.524054 0.176920
O O7 0.549649 0.648242 0.245290
O O8 0.876921 0.535312 0.166579
O O9 0.198180 0.347348 0.497078
O O10 0.188732 0.211846 0.418351
O O11 0.391703 0.793641 0.341117
O O12 0.552419 0.934327 0.358759
O O13 0.063925 0.908226 0.340237
O O14 0.764886 0.002382 0.999090
#
# Coordination Sequence:
#
# PCOD9134250 Si02
#       7
#     4   4   4   4   4   4   4
#     4  10  19  32  53  78 105 141 186 221 272 321
#     4  10  21  33  55  83 112 142 190 224 275 334
#     4   9  17  30  54  79  95 143 182 222 267 328
#     4   9  17  31  51  80 106 138 179 228 268 315
#     4  10  21  33  51  82 106 142 178 232 269 323
#     4   9  20  32  59  78 110 146 189 220 279 329
#     4   9  15  31  49  76 104 132 180 209 274 318
#
# _framework density 25.618079999999999
#
# number of rings (size 3 to 8) (size 9 to 14) (size 15 to 20)
#    0.857    1.714    1.429    0.857    2.000    0.000 
#    0.000    0.000    0.000    8.571    0.000    0.000 
#    0.000    0.000    0.000    0.000    0.000    0.000 
#
# Total GULP energy -78216.457499 kJ/mol
# GULP energy per Si atom -5586.889821 kJ/mol
# Density = 2.555977 g / cm^3
# Si number density = 25.618080 Si / 1000 Ang^3
#
#
#
# Elastic Constant Matrix: (Units=GPa)
#
#
# Indices 1 2 3 4 5 6 
#
# 1 243.2492 63.0438 22.4347 0.0000 -11.1187 0.0000
# 2 63.0438 105.1582 22.8016 0.0000 -3.2606 0.0000
# 3 22.4347 22.8016 60.9457 0.0000 1.4755 0.0000
# 4 0.0000 0.0000 0.0000 36.3306 0.0000 -16.0360
# 5 -11.1187 -3.2606 1.4755 0.0000 29.0514 0.0000
# 6 0.0000 0.0000 0.0000 -16.0360 0.0000 36.9648
#
#
#
# Elastic Compliance Matrix: (Units=1/GPa)
#
#
# Indices 1 2 3 4 5 6 
#
# 1 0.004976 -0.002750 -0.000843 0.000000 0.001639 0.000000
# 2 -0.002750 0.011922 -0.003459 0.000000 0.000461 0.000000
# 3 -0.000843 -0.003459 0.018052 0.000000 -0.001628 0.000000
# 4 0.000000 0.000000 0.000000 0.034044 0.000000 0.014769
# 5 0.001639 0.000461 -0.001628 0.000000 0.035183 0.000000
# 6 0.000000 0.000000 0.000000 0.014769 0.000000 0.033460
#
#
# Mechanical properties :
#
#
# Convention : Reuss Voigt Hill
#
# Bulk Modulus (GPa) = 47.96923 69.54594 58.75758
# Shear Modulus (GPa) = 31.50783 40.54089 36.02436
#
# Velocity S-wave (km/s) = 3.51081 3.98239 3.75401
# Velocity P-wave (km/s) = 5.93294 6.95357 6.46343
#
# Compressibility (1/GPa) = 0.02084670
#
# Stress axis : x y z
#
# Youngs Moduli (GPa) = 200.95162 83.87520 55.39558
#
# Poissons Ratio (x) = 0.23064 0.04668
# Poissons Ratio (y) = 0.55258 0.19164
# Poissons Ratio (z) = 0.16934 0.29017
#
# Static dielectric constant tensor:
#      x y z
#    x 2.022220 0.000000 -0.000400 
#    y 0.000000 1.963280 0.000000 
#    z -0.000400 0.000000 2.148930 
# 
# From -- ./inp_files/21822.got.cif
#   From: 2010.05.17/outbox.cif.g08.bks.cpg/sg9_11_cif.got.tgz:21822.got - 2010.06.03 20:04:27.
