data_PCOD9134772
_publ_section_title
;
Structure prediction by ZEFSAII (Michael W. Deem and Ramdas Pophale) SiO2 
 PCOD9134772
Probable space group: C C
;
_chemical_formula_sum "Si O2"
_cell_formula_units_Z 32
_cell_length_a 8.942665
_cell_length_b 30.519726
_cell_length_c 5.343318
_cell_angle_alpha 90.000000
_cell_angle_beta 77.939323
_cell_angle_gamma 90.000000
_cell_volume 1426.149301
_symmetry_space_group_name_H-M "C C"
_symmetry_group_IT_number 9
_symmetry_cell_setting 'monoclinic'
loop_
_space_group_symop_operation_xyz
x,y,z
x,-y,1/2+z
1/2+x,1/2+y,z
1/2+x,1/2-y,1/2+z
loop_
_atom_site_type_symbol
_atom_site_label
_atom_site_fract_x
_atom_site_fract_y
_atom_site_fract_z
Si Si1 0.182800 0.106049 0.857890
Si Si2 0.353227 0.590226 0.088895
Si Si3 0.586862 0.694366 0.758049
Si Si4 0.311838 0.264278 0.592294
Si Si5 0.369557 0.100455 0.277604
Si Si6 0.112716 0.526785 0.349548
Si Si7 0.324651 0.329963 0.979600
Si Si8 0.623771 0.846939 0.441407
O O1 0.149866 0.157648 0.922378
O O2 0.263446 0.107135 0.558248
O O3 0.277810 0.087203 0.057991
O O4 0.018212 0.082697 0.913673
O O5 0.277837 0.549186 0.250523
O O6 0.361781 0.631362 0.275510
O O7 0.230003 0.609711 0.937454
O O8 0.727429 0.719018 0.583844
O O9 0.464608 0.669733 0.625774
O O10 0.480517 0.731067 0.922541
O O11 0.328056 0.280715 0.871037
O O12 0.205879 0.303618 0.520479
O O13 0.487923 0.063664 0.328644
O O14 0.469359 0.141439 0.136371
O O15 0.095922 0.509399 0.636822
O O16 0.151430 0.338660 0.138243
#
# Coordination Sequence:
#
# PCOD9134772 Si02
#       8
#     4   4   4   4   4   4   4   4
#     4  12  24  44  67 103 137 188 229 278 339 405
#     4  10  22  42  73  95 134 176 234 273 336 413
#     4  11  24  38  60  93 134 182 238 296 346 388
#     4  10  23  38  57  92 128 184 231 307 339 396
#     4  11  27  41  72 101 142 180 222 275 338 425
#     4  11  26  48  76 109 137 172 223 277 345 420
#     4  10  19  41  65  87 133 179 238 292 331 398
#     4   9  21  40  64  90 127 189 233 282 330 407
#
# _framework density 22.438043
#
# number of rings (size 3 to 8) (size 9 to 14) (size 15 to 20)
#    0.000    1.500    3.750    1.500   10.500    3.000 
#    0.000    3.750    0.000    0.000    0.000    0.000 
#    0.000    0.000    0.000    0.000    0.000    0.000 
#
# Total GULP energy -89221.199306 kJ/mol
# GULP energy per Si atom -5576.324957 kJ/mol
# Density = 2.238697 g / cm^3
# Si number density = 22.438043 Si / 1000 Ang^3
#
#
#
# Elastic Constant Matrix: (Units=GPa)
#
#
# Indices 1 2 3 4 5 6 
#
# 1 74.4228 6.8638 33.7043 0.0000 -22.9189 0.0000
# 2 6.8638 36.2573 -2.6817 0.0000 -8.9099 0.0000
# 3 33.7043 -2.6817 106.6975 0.0000 -22.2484 0.0000
# 4 0.0000 0.0000 0.0000 26.4646 0.0000 -6.5510
# 5 -22.9189 -8.9099 -22.2484 0.0000 36.2632 0.0000
# 6 0.0000 0.0000 0.0000 -6.5510 0.0000 20.5118
#
#
#
# Elastic Compliance Matrix: (Units=1/GPa)
#
#
# Indices 1 2 3 4 5 6 
#
# 1 0.018008 -0.001594 -0.003941 0.000000 0.008572 0.000000
# 2 -0.001594 0.030122 0.002974 0.000000 0.008218 0.000000
# 3 -0.003941 0.002974 0.011840 0.000000 0.005504 0.000000
# 4 0.000000 0.000000 0.000000 0.041030 0.000000 0.013104
# 5 0.008572 0.008218 0.005504 0.000000 0.038390 0.000000
# 6 0.000000 0.000000 0.000000 0.013104 0.000000 0.052938
#
#
# Mechanical properties :
#
#
# Convention : Reuss Voigt Hill
#
# Bulk Modulus (GPa) = 18.23225 32.57226 25.40226
# Shear Modulus (GPa) = 23.17683 28.61397 25.89540
#
# Velocity S-wave (km/s) = 3.21740 3.57493 3.40087
# Velocity P-wave (km/s) = 4.68460 5.62034 5.17367
#
# Compressibility (1/GPa) = 0.05484785
#
# Stress axis : x y z
#
# Youngs Moduli (GPa) = 55.52948 33.19830 84.46167
#
# Poissons Ratio (x) = 0.05292 0.33289
# Poissons Ratio (y) = 0.08852 -0.25122
# Poissons Ratio (z) = 0.21886 -0.09874
#
# Static dielectric constant tensor:
#      x y z
#    x 1.890220 0.000000 0.034480 
#    y 0.000000 1.823450 0.000000 
#    z 0.034480 0.000000 2.014290 
# 
# From -- ./inp_files/1388.got.cif
#   From: 2010.05.17/outbox.cif.g08.bks.cpg/sg9_1_cif.got.tgz:1388.got - 2010.06.03 20:04:27.
