data_PCOD9134604
_publ_section_title
;
Structure prediction by ZEFSAII (Michael W. Deem and Ramdas Pophale) SiO2 
 PCOD9134604
Probable space group: C C
;
_chemical_formula_sum "Si O2"
_cell_formula_units_Z 32
_cell_length_a 6.404892
_cell_length_b 27.185865
_cell_length_c 10.050874
_cell_angle_alpha 90.000000
_cell_angle_beta 70.119710
_cell_angle_gamma 90.000000
_cell_volume 1645.787656
_symmetry_space_group_name_H-M "C C"
_symmetry_group_IT_number 9
_symmetry_cell_setting 'monoclinic'
loop_
_space_group_symop_operation_xyz
x,y,z
x,-y,1/2+z
1/2+x,1/2+y,z
1/2+x,1/2-y,1/2+z
loop_
_atom_site_type_symbol
_atom_site_label
_atom_site_fract_x
_atom_site_fract_y
_atom_site_fract_z
Si Si1 0.653200 0.457273 0.302410
Si Si2 0.095783 0.796478 0.363300
Si Si3 0.737886 0.461843 0.577869
Si Si4 0.678329 0.913257 0.484600
Si Si5 0.941286 0.863347 0.638026
Si Si6 0.316088 0.292166 0.155442
Si Si7 0.440628 0.281638 0.841551
Si Si8 0.490889 0.127536 0.754144
O O1 0.706117 0.479823 0.434683
O O2 0.631599 0.499448 0.199670
O O3 0.419468 0.428902 0.374723
O O4 0.863173 0.420909 0.229443
O O5 0.201708 0.743504 0.366619
O O6 0.301213 0.831959 0.290026
O O7 0.995253 0.820918 0.517297
O O8 0.943389 0.796980 0.267067
O O9 0.618730 0.408102 0.608408
O O10 0.999636 0.455878 0.548247
O O11 0.725305 0.887154 0.615073
O O12 0.564372 0.882111 0.391191
O O13 0.933443 0.835504 0.779034
O O14 0.130706 0.250451 0.226803
O O15 0.200099 0.344603 0.145580
O O16 0.466450 0.279124 0.995647
#
# Coordination Sequence:
#
# PCOD9134604 Si02
#       8
#     4   4   4   4   4   4   4   4
#     4  10  21  40  62  92 121 165 214 260 319 391
#     4  11  21  40  65  89 121 174 213 254 322 390
#     4  10  23  41  62  95 125 167 215 265 324 388
#     4  10  19  40  70  83 124 172 198 265 325 369
#     4  11  21  42  62  92 126 170 218 260 322 392
#     4  11  24  39  63  92 126 173 206 272 321 376
#     4  11  26  40  61  97 131 163 221 265 316 392
#     4  10  19  38  63  88 120 158 217 251 321 384
#
# _framework density 19.443577999999999
#
# number of rings (size 3 to 8) (size 9 to 14) (size 15 to 20)
#    0.000    1.500    6.250    0.000    1.750    5.000 
#    9.000    0.000    0.000    0.000    0.000    0.000 
#    0.000    0.000    0.000    0.000    0.000    0.000 
#
# Total GULP energy -89118.726571 kJ/mol
# GULP energy per Si atom -5569.920411 kJ/mol
# Density = 1.939932 g / cm^3
# Si number density = 19.443578 Si / 1000 Ang^3
#
#
#
# Elastic Constant Matrix: (Units=GPa)
#
#
# Indices 1 2 3 4 5 6 
#
# 1 82.6443 19.5466 -0.9883 0.0000 14.1325 0.0000
# 2 19.5466 58.6803 27.4643 0.0000 7.9339 0.0000
# 3 -0.9883 27.4643 68.2009 0.0000 7.3869 0.0000
# 4 0.0000 0.0000 0.0000 33.5603 0.0000 0.6865
# 5 14.1325 7.9339 7.3869 0.0000 11.2769 0.0000
# 6 0.0000 0.0000 0.0000 0.6865 0.0000 14.6601
#
#
#
# Elastic Compliance Matrix: (Units=1/GPa)
#
#
# Indices 1 2 3 4 5 6 
#
# 1 0.016828 -0.004908 0.004446 0.000000 -0.020549 0.000000
# 2 -0.004908 0.023520 -0.009059 0.000000 -0.004462 0.000000
# 3 0.004446 -0.009059 0.019685 0.000000 -0.012093 0.000000
# 4 0.000000 0.000000 0.000000 0.029826 0.000000 -0.001397
# 5 -0.020549 -0.004462 -0.012093 0.000000 0.125490 0.000000
# 6 0.000000 0.000000 0.000000 -0.001397 0.000000 0.068278
#
#
# Mechanical properties :
#
#
# Convention : Reuss Voigt Hill
#
# Bulk Modulus (GPa) = 24.39617 33.50786 28.95202
# Shear Modulus (GPa) = 15.80619 22.79963 19.30291
#
# Velocity S-wave (km/s) = 2.85428 3.42805 3.15424
# Velocity P-wave (km/s) = 4.84117 5.73929 5.30926
#
# Compressibility (1/GPa) = 0.04099003
#
# Stress axis : x y z
#
# Youngs Moduli (GPa) = 59.42500 42.51765 50.80052
#
# Poissons Ratio (x) = 0.20868 -0.22586
# Poissons Ratio (y) = 0.29166 0.46021
# Poissons Ratio (z) = -0.26420 0.38517
#
# Static dielectric constant tensor:
#      x y z
#    x 1.706610 0.000000 -0.025760 
#    y 0.000000 1.720560 0.000000 
#    z -0.025760 0.000000 1.705620 
# 
# From -- ./inp_files/4315.got.cif
#   From: 2010.05.17/outbox.cif.g08.bks.cpg/sg9_3_cif.got.tgz:4315.got - 2010.06.03 20:04:27.
