data_PCOD9134860
_publ_section_title
;
Structure prediction by ZEFSAII (Michael W. Deem and Ramdas Pophale) SiO2 
 PCOD9134860
Probable space group: C C
;
_chemical_formula_sum "Si O2"
_cell_formula_units_Z 28
_cell_length_a 24.390374
_cell_length_b 7.319579
_cell_length_c 20.837925
_cell_angle_alpha 90.000000
_cell_angle_beta 163.953844
_cell_angle_gamma 90.000000
_cell_volume 1028.289381
_symmetry_space_group_name_H-M "C C"
_symmetry_group_IT_number 9
_symmetry_cell_setting 'monoclinic'
loop_
_space_group_symop_operation_xyz
x,y,z
x,-y,1/2+z
1/2+x,1/2+y,z
1/2+x,1/2-y,1/2+z
loop_
_atom_site_type_symbol
_atom_site_label
_atom_site_fract_x
_atom_site_fract_y
_atom_site_fract_z
Si Si1 0.354070 0.988963 0.779920
Si Si2 0.759992 0.561737 0.034927
Si Si3 0.842543 0.078387 0.013950
Si Si4 0.705873 0.002705 0.491246
Si Si5 0.292260 0.436547 0.224843
Si Si6 0.925362 0.404491 0.504633
Si Si7 0.533658 0.494001 0.617417
O O1 0.252796 0.033648 0.597480
O O2 0.280671 0.780516 0.703782
O O3 0.349502 0.074009 0.845686
O O4 0.587080 0.997466 0.025189
O O5 0.553629 0.516449 0.769092
O O6 0.764922 0.785084 0.042521
O O7 0.969963 0.504770 0.239608
O O8 0.768373 0.126527 0.002728
O O9 0.641303 0.985130 0.761430
O O10 0.929249 0.158873 0.043863
O O11 0.812979 0.967331 0.679588
O O12 0.468272 0.465590 0.471235
O O13 0.944286 0.188951 0.535825
O O14 0.767610 0.483535 0.377693
#
# Coordination Sequence:
#
# PCOD9134860 Si02
#       7
#     4   4   4   4   4   4   4
#     4  10  21  40  61  93 118 158 204 246 291 354
#     4  10  20  32  57  86 117 150 197 247 297 342
#     4  12  22  36  54  90 122 158 188 258 292 364
#     4  10  20  32  57  86 117 150 197 247 297 342
#     4  10  21  40  61  93 118 158 204 246 291 354
#     4  12  24  38  60  91 124 159 197 244 303 355
#     4  12  24  38  60  91 124 159 197 244 303 355
#
# _framework density 27.229689
#
# number of rings (size 3 to 8) (size 9 to 14) (size 15 to 20)
#    0.000    1.143    4.286    2.571    4.000    0.000 
#    0.000    0.000    0.000    1.714    7.429    0.000 
#    0.000    0.000    0.000    0.000    0.000    0.000 
#
# Total GULP energy -78254.081294 kJ/mol
# GULP energy per Si atom -5589.577235 kJ/mol
# Density = 2.716771 g / cm^3
# Si number density = 27.229689 Si / 1000 Ang^3
#
#
#
# Elastic Constant Matrix: (Units=GPa)
#
#
# Indices 1 2 3 4 5 6 
#
# 1 219.2221 28.9687 94.1896 0.0008 7.1077 0.0001
# 2 28.9687 88.5703 23.3079 0.0008 6.1556 0.0005
# 3 94.1896 23.3079 94.9466 0.0019 -8.2083 0.0014
# 4 0.0008 0.0008 0.0019 -3.1767 0.0014 -32.5715
# 5 7.1077 6.1556 -8.2083 0.0014 72.8274 0.0006
# 6 0.0001 0.0005 0.0014 -32.5715 0.0006 -15.5196
#
#
#
# Elastic Compliance Matrix: (Units=1/GPa)
#
#
# Indices 1 2 3 4 5 6 
#
# 1 0.008173 -0.000411 -0.008153 0.000000 -0.001682 0.000000
# 2 -0.000411 0.012227 -0.002706 0.000000 -0.001298 0.000000
# 3 -0.008153 -0.002706 0.019563 0.000000 0.003229 0.000001
# 4 0.000000 0.000000 0.000000 0.015342 0.000000 -0.032198
# 5 -0.001682 -0.001298 0.003229 0.000000 0.014369 0.000001
# 6 0.000000 0.000000 0.000001 -0.032198 0.000001 0.003140
#
#
# Mechanical properties :
#
#
# Convention : Reuss Voigt Hill
#
# Bulk Modulus (GPa) = 57.39079 77.29683 67.34381
# Shear Modulus (GPa) = 49.42559 27.91106 38.66833
#
# Velocity S-wave (km/s) = 4.26506 3.20507 3.77248
# Velocity P-wave (km/s) = 6.73622 6.49194 6.61521
#
# Compressibility (1/GPa) = 0.01742440
#
# Stress axis : x y z
#
# Youngs Moduli (GPa) = 122.35136 81.78447 51.11614
#
# Poissons Ratio (x) = 0.03361 0.41673
# Poissons Ratio (y) = 0.05028 0.13833
# Poissons Ratio (z) = 0.99747 0.22133
#
# Static dielectric constant tensor:
#      x y z
#    x 2.223100 0.000000 -0.072440 
#    y 0.000000 2.193980 0.000000 
#    z -0.072440 0.000000 2.054910 
# 
# From -- ./inp_files/31319.got.cif
#   From: 2010.05.17/outbox.cif.g08.bks.cpg/sg9_16_cif.got.tgz:31319.got - 2010.06.03 20:04:27.
