data_PCOD9134592
_publ_section_title
;
Structure prediction by ZEFSAII (Michael W. Deem and Ramdas Pophale) SiO2 
 PCOD9134592
Probable space group: C C
;
_chemical_formula_sum "Si O2"
_cell_formula_units_Z 32
_cell_length_a 5.714633
_cell_length_b 17.998981
_cell_length_c 12.922404
_cell_angle_alpha 90.000000
_cell_angle_beta 74.723618
_cell_angle_gamma 90.000000
_cell_volume 1282.202438
_symmetry_space_group_name_H-M "C C"
_symmetry_group_IT_number 9
_symmetry_cell_setting 'monoclinic'
loop_
_space_group_symop_operation_xyz
x,y,z
x,-y,1/2+z
1/2+x,1/2+y,z
1/2+x,1/2-y,1/2+z
loop_
_atom_site_type_symbol
_atom_site_label
_atom_site_fract_x
_atom_site_fract_y
_atom_site_fract_z
Si Si1 0.959600 0.330484 0.100410
Si Si2 0.145052 0.041113 0.344011
Si Si3 0.359573 0.920161 0.444193
Si Si4 0.810851 0.046619 0.753332
Si Si5 0.956876 0.199371 0.626726
Si Si6 0.511177 0.002653 0.118903
Si Si7 0.315977 0.208366 0.334292
Si Si8 0.803492 0.278782 0.352381
O O1 0.736202 0.299014 0.058943
O O2 0.872641 0.306942 0.227465
O O3 0.240299 0.305270 0.068777
O O4 0.978873 0.418951 0.080912
O O5 0.303823 0.013145 0.228286
O O6 0.222762 0.124465 0.351827
O O7 0.889801 0.013103 0.330818
O O8 0.201768 0.992317 0.437166
O O9 0.479641 0.933127 0.540016
O O10 0.212652 0.846677 0.434608
O O11 0.570745 0.920545 0.333928
O O12 0.755756 0.999685 0.656908
O O13 0.942124 0.121832 0.697180
O O14 0.897265 0.268304 0.707565
O O15 0.572000 0.224677 0.363445
O O16 0.061456 0.253945 0.371250
#
# Coordination Sequence:
#
# PCOD9134592 Si02
#       8
#     4   4   4   4   4   4   4   4
#     4   9  15  32  56  81 109 150 201 245 295 365
#     4  11  22  39  64  94 126 165 212 282 323 379
#     4  11  22  38  66  89 126 173 220 268 323 388
#     4  10  19  38  60  89 123 166 216 260 327 389
#     4   9  15  32  57  80 110 164 198 239 300 382
#     4  10  21  36  60  96 122 157 219 276 312 379
#     4  10  21  34  65  89 121 164 210 259 324 382
#     4  10  19  39  62  86 119 177 210 247 322 404
#
# _framework density 24.957056000000001
#
# number of rings (size 3 to 8) (size 9 to 14) (size 15 to 20)
#    0.000    2.000    6.250    0.750    3.500    1.000 
#    0.000    0.000   13.750    0.000    0.000    0.000 
#    0.000    0.000    0.000    0.000    0.000    0.000 
#
# Total GULP energy -89268.003753 kJ/mol
# GULP energy per Si atom -5579.250235 kJ/mol
# Density = 2.490025 g / cm^3
# Si number density = 24.957056 Si / 1000 Ang^3
#
#
#
# Elastic Constant Matrix: (Units=GPa)
#
#
# Indices 1 2 3 4 5 6 
#
# 1 149.2054 32.6073 26.4225 0.0000 31.0527 0.0000
# 2 32.6073 97.9675 -11.8130 0.0000 28.1332 0.0000
# 3 26.4225 -11.8130 41.6649 0.0000 8.2764 0.0000
# 4 0.0000 0.0000 0.0000 20.8324 0.0000 9.1239
# 5 31.0527 28.1332 8.2764 0.0000 49.1666 0.0000
# 6 0.0000 0.0000 0.0000 9.1239 0.0000 38.9728
#
#
#
# Elastic Compliance Matrix: (Units=1/GPa)
#
#
# Indices 1 2 3 4 5 6 
#
# 1 0.009005 -0.002825 -0.005900 0.000000 -0.003078 0.000000
# 2 -0.002825 0.014207 0.007325 0.000000 -0.007578 0.000000
# 3 -0.005900 0.007325 0.030947 0.000000 -0.005674 0.000000
# 4 0.000000 0.000000 0.000000 0.053486 0.000000 -0.012522
# 5 -0.003078 -0.007578 -0.005674 0.000000 0.027574 0.000000
# 6 0.000000 0.000000 0.000000 -0.012522 0.000000 0.028590
#
#
# Mechanical properties :
#
#
# Convention : Reuss Voigt Hill
#
# Bulk Modulus (GPa) = 19.47101 42.58573 31.02837
# Shear Modulus (GPa) = 27.21398 37.90243 32.55820
#
# Velocity S-wave (km/s) = 3.30575 3.90129 3.61580
# Velocity P-wave (km/s) = 4.73174 6.11506 5.46733
#
# Compressibility (1/GPa) = 0.05135841
#
# Stress axis : x y z
#
# Youngs Moduli (GPa) = 111.05080 70.38725 32.31377
#
# Poissons Ratio (x) = 0.19883 0.19065
# Poissons Ratio (y) = 0.31369 -0.23669
# Poissons Ratio (z) = 0.65521 -0.51557
#
# Static dielectric constant tensor:
#      x y z
#    x 2.194180 0.000000 0.077450 
#    y 0.000000 2.035060 0.000000 
#    z 0.077450 0.000000 1.995220 
# 
# From -- ./inp_files/21968.got.cif
#   From: 2010.05.17/outbox.cif.g08.bks.cpg/sg9_11_cif.got.tgz:21968.got - 2010.06.03 20:04:27.
