data_PCOD9134364
_publ_section_title
;
Structure prediction by ZEFSAII (Michael W. Deem and Ramdas Pophale) SiO2 
 PCOD9134364
Probable space group: C C
;
_chemical_formula_sum "Si O2"
_cell_formula_units_Z 32
_cell_length_a 16.612736
_cell_length_b 18.038778
_cell_length_c 12.611857
_cell_angle_alpha 90.000000
_cell_angle_beta 153.114998
_cell_angle_gamma 90.000000
_cell_volume 1709.066953
_symmetry_space_group_name_H-M "C C"
_symmetry_group_IT_number 9
_symmetry_cell_setting 'monoclinic'
loop_
_space_group_symop_operation_xyz
x,y,z
x,-y,1/2+z
1/2+x,1/2+y,z
1/2+x,1/2-y,1/2+z
loop_
_atom_site_type_symbol
_atom_site_label
_atom_site_fract_x
_atom_site_fract_y
_atom_site_fract_z
Si Si1 0.650260 0.393979 0.837270
Si Si2 0.309874 0.581264 0.433895
Si Si3 0.302535 0.356792 0.693862
Si Si4 0.427292 0.099940 0.027716
Si Si5 0.695026 0.433268 0.455583
Si Si6 0.699407 0.307878 0.098451
Si Si7 0.870116 0.428391 0.888974
Si Si8 0.751024 0.908015 0.401203
O O1 0.672310 0.477719 0.909934
O O2 0.748631 0.396210 0.840744
O O3 0.439273 0.374194 0.583711
O O4 0.735285 0.338506 0.022535
O O5 0.301726 0.593573 0.297854
O O6 0.501559 0.602172 0.705471
O O7 0.284914 0.494933 0.427687
O O8 0.135862 0.617950 0.279822
O O9 0.205083 0.280226 0.605137
O O10 0.225185 0.391874 0.495795
O O11 0.506663 0.337743 0.906162
O O12 0.329977 0.096902 0.025760
O O13 0.337486 0.157716 0.842965
O O14 0.398438 0.016764 0.945412
O O15 0.771829 0.420573 0.662066
O O16 0.066416 0.391760 0.124891
#
# Coordination Sequence:
#
# PCOD9134364 Si02
#       8
#     4   4   4   4   4   4   4   4
#     4   9  20  34  55  84 117 154 192 249 300 341
#     4  10  21  35  57  85 120 152 196 250 297 350
#     4  11  23  38  61  93 121 155 198 252 304 347
#     4  10  20  34  55  88 115 156 195 247 300 341
#     4  10  19  35  54  85 120 150 200 240 296 353
#     4  11  21  38  60  90 124 151 199 253 298 359
#     4  10  20  33  58  83 119 158 197 240 295 352
#     4   9  22  35  54  88 118 150 197 251 296 351
#
# _framework density 18.723666999999999
#
# number of rings (size 3 to 8) (size 9 to 14) (size 15 to 20)
#    0.000    2.000    2.500    0.750    3.500    4.000 
#    0.000    0.000    0.000    1.500    3.250    0.000 
#    0.000    0.000    0.000    0.000    0.000    0.000 
#
# Total GULP energy -89275.303136 kJ/mol
# GULP energy per Si atom -5579.706446 kJ/mol
# Density = 1.868105 g / cm^3
# Si number density = 18.723667 Si / 1000 Ang^3
#
#
#
# Elastic Constant Matrix: (Units=GPa)
#
#
# Indices 1 2 3 4 5 6 
#
# 1 111.4771 14.0940 64.0421 0.0000 -6.4160 0.0000
# 2 14.0940 36.5253 -6.1997 0.0000 -11.7132 0.0000
# 3 64.0421 -6.1997 114.0868 0.0000 -3.1615 0.0000
# 4 0.0000 0.0000 0.0000 24.6154 0.0000 8.5109
# 5 -6.4160 -11.7132 -3.1615 0.0000 28.9137 0.0000
# 6 0.0000 0.0000 0.0000 8.5109 0.0000 19.8299
#
#
#
# Elastic Compliance Matrix: (Units=1/GPa)
#
#
# Indices 1 2 3 4 5 6 
#
# 1 0.014938 -0.007477 -0.008811 0.000000 -0.000678 0.000000
# 2 -0.007477 0.035703 0.006512 0.000000 0.013517 0.000000
# 3 -0.008811 0.006512 0.014127 0.000000 0.002228 0.000000
# 4 0.000000 0.000000 0.000000 0.047704 0.000000 -0.020474
# 5 -0.000678 0.013517 0.002228 0.000000 0.040155 0.000000
# 6 0.000000 0.000000 0.000000 -0.020474 0.000000 0.059216
#
#
# Mechanical properties :
#
#
# Convention : Reuss Voigt Hill
#
# Bulk Modulus (GPa) = 22.11561 45.10689 33.61125
# Shear Modulus (GPa) = 20.28666 27.34866 23.81766
#
# Velocity S-wave (km/s) = 3.29519 3.82599 3.57047
# Velocity P-wave (km/s) = 5.12981 6.60762 5.91505
#
# Compressibility (1/GPa) = 0.04521694
#
# Stress axis : x y z
#
# Youngs Moduli (GPa) = 66.94149 28.00853 70.78790
#
# Poissons Ratio (x) = 0.20942 0.62369
# Poissons Ratio (y) = 0.50053 -0.46097
# Poissons Ratio (z) = 0.58980 -0.18239
#
# Static dielectric constant tensor:
#      x y z
#    x 1.639470 0.000000 0.043790 
#    y 0.000000 1.584540 0.000000 
#    z 0.043790 0.000000 1.692330 
# 
# From -- ./inp_files/7888.got.cif
#   From: 2010.05.17/outbox.cif.g08.bks.cpg/sg9_4_cif.got.tgz:7888.got - 2010.06.03 20:04:27.
