data_PCOD9134922
_publ_section_title
;
Structure prediction by ZEFSAII (Michael W. Deem and Ramdas Pophale) SiO2 
 PCOD9134922
Probable space group: C C
;
_chemical_formula_sum "Si O2"
_cell_formula_units_Z 32
_cell_length_a 28.153713
_cell_length_b 11.259212
_cell_length_c 15.709916
_cell_angle_alpha 90.000000
_cell_angle_beta 161.722793
_cell_angle_gamma 90.000000
_cell_volume 1561.758943
_symmetry_space_group_name_H-M "C C"
_symmetry_group_IT_number 9
_symmetry_cell_setting 'monoclinic'
loop_
_space_group_symop_operation_xyz
x,y,z
x,-y,1/2+z
1/2+x,1/2+y,z
1/2+x,1/2-y,1/2+z
loop_
_atom_site_type_symbol
_atom_site_label
_atom_site_fract_x
_atom_site_fract_y
_atom_site_fract_z
Si Si1 0.917400 0.060927 0.898230
Si Si2 0.226636 0.408613 0.437889
Si Si3 0.691175 0.247420 0.591078
Si Si4 0.228990 0.609773 0.311214
Si Si5 0.894580 0.685091 0.784280
Si Si6 0.873419 0.563823 0.324080
Si Si7 0.945685 0.245701 0.810399
Si Si8 0.962896 0.840492 0.065017
O O1 0.812362 0.146371 0.776393
O O2 0.997173 0.147378 0.966827
O O3 0.811823 0.980462 0.657465
O O4 0.014169 0.970268 0.119150
O O5 0.252014 0.479048 0.392056
O O6 0.289082 0.273731 0.549493
O O7 0.048375 0.426180 0.150466
O O8 0.590106 0.220603 0.500445
O O9 0.573985 0.266535 0.314075
O O10 0.774213 0.375597 0.729127
O O11 0.318548 0.692525 0.531477
O O12 0.312567 0.630495 0.364261
O O13 0.052060 0.644473 0.007716
O O14 0.829628 0.565600 0.716530
O O15 0.937658 0.763009 0.939368
O O16 0.872561 0.649452 0.240166
#
# Coordination Sequence:
#
# PCOD9134922 Si02
#       8
#     4   4   4   4   4   4   4   4
#     4   9  19  36  60  78 109 150 191 231 281 339
#     4   9  19  36  57  81 117 149 184 235 284 338
#     4  10  20  35  60  81 113 149 193 232 277 347
#     4   9  19  38  61  81 109 151 195 231 281 345
#     4  10  20  37  59  83 116 147 188 239 286 335
#     4  10  20  35  56  81 119 147 182 239 288 334
#     4   9  19  36  57  83 108 149 190 231 286 339
#     4  10  20  37  60  84 107 154 191 232 289 341
#
# _framework density 20.489718
#
# number of rings (size 3 to 8) (size 9 to 14) (size 15 to 20)
#    0.000    2.500    0.000    3.000    3.500    2.000 
#    9.000    3.750    8.250    0.000    0.000    0.000 
#    0.000    0.000    0.000    0.000    0.000    0.000 
#
# Total GULP energy -89198.908053 kJ/mol
# GULP energy per Si atom -5574.931753 kJ/mol
# Density = 2.044308 g / cm^3
# Si number density = 20.489718 Si / 1000 Ang^3
#
#
#
# Elastic Constant Matrix: (Units=GPa)
#
#
# Indices 1 2 3 4 5 6 
#
# 1 44.3501 -2.5939 3.1692 0.0000 7.1189 0.0000
# 2 -2.5939 113.5742 14.5017 0.0000 -6.4171 0.0000
# 3 3.1692 14.5017 53.2242 0.0000 0.8047 0.0000
# 4 0.0000 0.0000 0.0000 15.3090 0.0000 0.9068
# 5 7.1189 -6.4171 0.8047 0.0000 14.7881 0.0000
# 6 0.0000 0.0000 0.0000 0.9068 0.0000 22.5481
#
#
#
# Elastic Compliance Matrix: (Units=1/GPa)
#
#
# Indices 1 2 3 4 5 6 
#
# 1 0.024524 0.000065 -0.001301 0.000000 -0.011707 0.000000
# 2 0.000065 0.009377 -0.002622 0.000000 0.004181 0.000000
# 3 -0.001301 -0.002622 0.019604 0.000000 -0.001578 0.000000
# 4 0.000000 0.000000 0.000000 0.065477 0.000000 -0.002633
# 5 -0.011707 0.004181 -0.001578 0.000000 0.075157 0.000000
# 6 0.000000 0.000000 0.000000 -0.002633 0.000000 0.044456
#
#
# Mechanical properties :
#
#
# Convention : Reuss Voigt Hill
#
# Bulk Modulus (GPa) = 21.83941 26.81141 24.32541
# Shear Modulus (GPa) = 19.11503 23.60048 21.35775
#
# Velocity S-wave (km/s) = 3.05767 3.39753 3.23207
# Velocity P-wave (km/s) = 4.81120 5.33898 5.08194
#
# Compressibility (1/GPa) = 0.04578879
#
# Stress axis : x y z
#
# Youngs Moduli (GPa) = 40.77685 106.64044 51.00955
#
# Poissons Ratio (x) = -0.00690 0.06636
# Poissons Ratio (y) = -0.00264 0.13375
# Poissons Ratio (z) = 0.05305 0.27962
#
# Static dielectric constant tensor:
#      x y z
#    x 1.708830 0.000000 -0.001630 
#    y 0.000000 1.769370 0.000000 
#    z -0.001630 0.000000 1.763710 
# 
# From -- ./inp_files/24530.got.cif
#   From: 2010.05.17/outbox.cif.g08.bks.cpg/sg9_13_cif.got.tgz:24530.got - 2010.06.03 20:04:27.
