data_PCOD9134265
_publ_section_title
;
Structure prediction by ZEFSAII (Michael W. Deem and Ramdas Pophale) SiO2 
 PCOD9134265
Probable space group: C C
;
_chemical_formula_sum "Si O2"
_cell_formula_units_Z 28
_cell_length_a 18.420102
_cell_length_b 7.191211
_cell_length_c 22.172801
_cell_angle_alpha 90.000000
_cell_angle_beta 158.165435
_cell_angle_gamma 90.000000
_cell_volume 1092.379089
_symmetry_space_group_name_H-M "C C"
_symmetry_group_IT_number 9
_symmetry_cell_setting 'monoclinic'
loop_
_space_group_symop_operation_xyz
x,y,z
x,-y,1/2+z
1/2+x,1/2+y,z
1/2+x,1/2-y,1/2+z
loop_
_atom_site_type_symbol
_atom_site_label
_atom_site_fract_x
_atom_site_fract_y
_atom_site_fract_z
Si Si1 0.670410 0.470989 0.926420
Si Si2 0.440893 0.010501 0.307176
Si Si3 0.864407 0.541537 0.458574
Si Si4 0.547642 0.386150 0.959837
Si Si5 0.094568 0.284735 0.031775
Si Si6 0.046571 0.344615 0.774427
Si Si7 0.688716 0.231281 0.260957
O O1 0.549092 0.630727 0.798173
O O2 0.835940 0.592324 0.088194
O O3 0.774890 0.371469 0.950393
O O4 0.578947 0.357988 0.912001
O O5 0.310829 0.201653 0.201783
O O6 0.559682 0.040841 0.460276
O O7 0.583789 0.025876 0.360526
O O8 0.259004 0.870612 0.155529
O O9 0.006934 0.369585 0.588576
O O10 0.696512 0.448336 0.286781
O O11 0.997989 0.671255 0.520994
O O12 0.491428 0.601242 0.925955
O O13 0.376485 0.288322 0.863845
O O14 0.186617 0.367859 0.825127
#
# Coordination Sequence:
#
# PCOD9134265 Si02
#       7
#     4   4   4   4   4   4   4
#     4   9  17  31  52  73 102 136 173 213 257 306
#     4   9  17  30  56  80 103 132 179 218 254 302
#     4  10  22  34  53  79 110 141 172 218 267 313
#     4   9  19  32  58  76 106 133 178 218 257 306
#     4  10  19  32  57  80 104 135 182 218 254 311
#     4   9  15  31  50  80  98 132 173 218 249 307
#     4  10  21  34  54  80 111 137 173 221 268 307
#
# _framework density 25.632126
#
# number of rings (size 3 to 8) (size 9 to 14) (size 15 to 20)
#    0.857    1.714    1.429    0.857    2.000    0.000 
#    0.000    0.000    3.143    1.714    0.000    0.000 
#    0.000    0.000    0.000    0.000    0.000    0.000 
#
# Total GULP energy -77995.243790 kJ/mol
# GULP energy per Si atom -5571.088842 kJ/mol
# Density = 2.557379 g / cm^3
# Si number density = 25.632126 Si / 1000 Ang^3
#
#
#
# Elastic Constant Matrix: (Units=GPa)
#
#
# Indices 1 2 3 4 5 6 
#
# 1 215.4244 20.1860 36.6674 -0.0003 -6.7548 0.0007
# 2 20.1860 13.5280 21.7973 0.0025 1.2936 0.0006
# 3 36.6674 21.7973 60.5831 0.0044 -6.0658 0.0004
# 4 -0.0003 0.0025 0.0044 11.0350 0.0014 -8.3008
# 5 -6.7548 1.2936 -6.0658 0.0014 24.5728 -0.0002
# 6 0.0007 0.0006 0.0004 -8.3008 -0.0002 30.1495
#
#
#
# Elastic Compliance Matrix: (Units=1/GPa)
#
#
# Indices 1 2 3 4 5 6 
#
# 1 0.005490 -0.007884 -0.000301 0.000002 0.001850 0.000001
# 2 -0.007884 0.204322 -0.071811 -0.000022 -0.030650 -0.000009
# 3 -0.000301 -0.071811 0.043983 -0.000003 0.014555 0.000000
# 4 0.000002 -0.000022 -0.000003 0.114291 -0.000005 0.031467
# 5 0.001850 -0.030650 0.014555 -0.000005 0.046410 -0.000001
# 6 0.000001 -0.000009 0.000000 0.031467 -0.000001 0.041832
#
#
# Mechanical properties :
#
#
# Convention : Reuss Voigt Hill
#
# Bulk Modulus (GPa) = 10.66058 49.64856 30.15457
# Shear Modulus (GPa) = 7.72099 27.21046 17.46572
#
# Velocity S-wave (km/s) = 1.73746 3.26172 2.61320
# Velocity P-wave (km/s) = 2.86236 5.79627 4.57110
#
# Compressibility (1/GPa) = 0.09380353
#
# Stress axis : x y z
#
# Youngs Moduli (GPa) = 182.15002 4.89424 22.73624
#
# Poissons Ratio (x) = 0.03859 0.00684
# Poissons Ratio (y) = 1.43604 1.63270
# Poissons Ratio (z) = 0.05483 0.35146
#
# Static dielectric constant tensor:
#      x y z
#    x 2.050830 0.000000 -0.044980 
#    y 0.000000 2.103440 0.000000 
#    z -0.044980 0.000000 2.073310 
# 
# From -- ./inp_files/30625.got.cif
#   From: 2010.05.17/outbox.cif.g08.bks.cpg/sg9_16_cif.got.tgz:30625.got - 2010.06.03 20:04:27.
