data_PCOD9134357
_publ_section_title
;
Structure prediction by ZEFSAII (Michael W. Deem and Ramdas Pophale) SiO2 
 PCOD9134357
Probable space group: C C
;
_chemical_formula_sum "Si O2"
_cell_formula_units_Z 32
_cell_length_a 26.247246
_cell_length_b 10.603206
_cell_length_c 11.363505
_cell_angle_alpha 90.000000
_cell_angle_beta 157.770485
_cell_angle_gamma 90.000000
_cell_volume 1196.437152
_symmetry_space_group_name_H-M "C C"
_symmetry_group_IT_number 9
_symmetry_cell_setting 'monoclinic'
loop_
_space_group_symop_operation_xyz
x,y,z
x,-y,1/2+z
1/2+x,1/2+y,z
1/2+x,1/2-y,1/2+z
loop_
_atom_site_type_symbol
_atom_site_label
_atom_site_fract_x
_atom_site_fract_y
_atom_site_fract_z
Si Si1 0.764390 0.984891 0.660550
Si Si2 0.548852 0.387064 0.770313
Si Si3 0.203353 0.127267 0.024429
Si Si4 0.925025 0.240892 0.508103
Si Si5 0.053666 0.218131 0.027485
Si Si6 0.213283 0.451571 0.306712
Si Si7 0.415736 0.758017 0.154348
Si Si8 0.823674 0.442527 0.128659
O O1 0.730125 0.039043 0.457766
O O2 0.686453 0.004817 0.615596
O O3 0.788091 0.836321 0.690548
O O4 0.914393 0.033436 0.005888
O O5 0.663615 0.491169 0.997912
O O6 0.517809 0.315043 0.582900
O O7 0.551701 0.290956 0.884766
O O8 0.059108 0.197943 0.722166
O O9 0.307149 0.209777 0.320247
O O10 0.276714 0.082516 0.061291
O O11 0.890502 0.379702 0.388266
O O12 0.952690 0.204811 0.702906
O O13 0.095228 0.360740 0.095319
O O14 0.184460 0.127456 0.291226
O O15 0.346233 0.358502 0.577266
O O16 0.423092 0.887834 0.242019
#
# Coordination Sequence:
#
# PCOD9134357 Si02
#       8
#     4   4   4   4   4   4   4   4
#     4  10  19  34  64  97 117 168 215 266 333 400
#     4   9  21  35  65  96 124 168 221 259 336 392
#     4  10  21  38  67  95 124 176 218 260 335 396
#     4  11  19  37  68  93 123 170 217 265 338 389
#     4  10  19  39  60  90 132 167 206 282 325 391
#     4  10  19  36  64  90 132 165 214 274 330 387
#     4  10  19  41  63  93 134 164 212 288 312 393
#     4  10  21  38  65  96 128 164 223 272 325 396
#
# _framework density 26.746075999999999
#
# number of rings (size 3 to 8) (size 9 to 14) (size 15 to 20)
#    0.000    2.000    5.000    0.750    0.000    1.000 
#    2.250    1.250    2.750    0.000    0.000    0.000 
#    0.000    0.000    0.000    0.000    0.000    0.000 
#
# Total GULP energy -89264.268102 kJ/mol
# GULP energy per Si atom -5579.016756 kJ/mol
# Density = 2.668520 g / cm^3
# Si number density = 26.746076 Si / 1000 Ang^3
#
#
#
# Elastic Constant Matrix: (Units=GPa)
#
#
# Indices 1 2 3 4 5 6 
#
# 1 109.0171 30.1765 35.2531 0.0000 -37.0399 0.0000
# 2 30.1765 47.7059 30.1098 0.0000 0.1995 0.0000
# 3 35.2531 30.1098 82.9292 0.0000 -12.2757 0.0000
# 4 0.0000 0.0000 0.0000 39.8159 0.0000 -0.0611
# 5 -37.0399 0.1995 -12.2757 0.0000 34.3996 0.0000
# 6 0.0000 0.0000 0.0000 -0.0611 0.0000 48.2989
#
#
#
# Elastic Compliance Matrix: (Units=1/GPa)
#
#
# Indices 1 2 3 4 5 6 
#
# 1 0.020145 -0.012232 -0.000951 0.000000 0.021423 0.000000
# 2 -0.012232 0.035122 -0.010064 0.000000 -0.016966 0.000000
# 3 -0.000951 -0.010064 0.016865 0.000000 0.005052 0.000000
# 4 0.000000 0.000000 0.000000 0.025116 0.000000 0.000032
# 5 0.021423 -0.016966 0.005052 0.000000 0.054038 0.000000
# 6 0.000000 0.000000 0.000000 0.000032 0.000000 0.020704
#
#
# Mechanical properties :
#
#
# Convention : Reuss Voigt Hill
#
# Bulk Modulus (GPa) = 39.00499 47.85897 43.43198
# Shear Modulus (GPa) = 22.02359 34.11040 28.06700
#
# Velocity S-wave (km/s) = 2.87266 3.57507 3.24294
# Velocity P-wave (km/s) = 5.06143 5.91390 5.50419
#
# Compressibility (1/GPa) = 0.02563774
#
# Stress axis : x y z
#
# Youngs Moduli (GPa) = 49.64010 28.47240 59.29577
#
# Poissons Ratio (x) = 0.34827 0.05641
# Poissons Ratio (y) = 0.60719 0.59672
# Poissons Ratio (z) = 0.04722 0.28653
#
# Static dielectric constant tensor:
#      x y z
#    x 2.226870 0.000000 -0.067120 
#    y 0.000000 2.222020 0.000000 
#    z -0.067120 0.000000 2.126240 
# 
# From -- ./inp_files/21261.got.cif
#   From: 2010.05.17/outbox.cif.g08.bks.cpg/sg9_11_cif.got.tgz:21261.got - 2010.06.03 20:04:27.
