data_PCOD9134447
_publ_section_title
;
Structure prediction by ZEFSAII (Michael W. Deem and Ramdas Pophale) SiO2 
 PCOD9134447
Probable space group: C C
;
_chemical_formula_sum "Si O2"
_cell_formula_units_Z 28
_cell_length_a 8.820707
_cell_length_b 17.127333
_cell_length_c 15.292102
_cell_angle_alpha 90.000000
_cell_angle_beta 145.355815
_cell_angle_gamma 90.000000
_cell_volume 1313.331193
_symmetry_space_group_name_H-M "C C"
_symmetry_group_IT_number 9
_symmetry_cell_setting 'monoclinic'
loop_
_space_group_symop_operation_xyz
x,y,z
x,-y,1/2+z
1/2+x,1/2+y,z
1/2+x,1/2-y,1/2+z
loop_
_atom_site_type_symbol
_atom_site_label
_atom_site_fract_x
_atom_site_fract_y
_atom_site_fract_z
Si Si1 0.039380 0.876995 0.811950
Si Si2 0.054503 0.424785 0.973503
Si Si3 0.597101 0.466777 0.449023
Si Si4 0.101905 0.483081 0.800576
Si Si5 0.468108 0.909875 0.492611
Si Si6 0.574791 0.671334 0.694046
Si Si7 0.879683 0.817411 0.905151
O O1 0.280590 0.877597 0.857983
O O2 0.744034 0.863858 0.633349
O O3 0.071046 0.821018 0.911047
O O4 0.046380 0.964637 0.855098
O O5 0.081888 0.467581 0.893520
O O6 0.049666 0.498983 0.035361
O O7 0.304485 0.367863 0.101406
O O8 0.320740 0.455093 0.369691
O O9 0.750156 0.399639 0.466926
O O10 0.814274 0.496447 0.622349
O O11 0.219129 0.399036 0.825347
O O12 0.312499 0.888577 0.330419
O O13 0.670844 0.748363 0.789927
O O14 0.524500 0.685955 0.567366
#
# Coordination Sequence:
#
# PCOD9134447 Si02
#       7
#     4   4   4   4   4   4   4
#     4  10  21  39  62  93 134 164 223 262 332 385
#     4  10  23  38  64 100 131 167 219 275 329 388
#     4  10  19  36  60  93 128 173 208 271 318 380
#     4  10  22  36  63  93 132 164 222 268 327 389
#     4  11  21  38  63  98 130 176 209 275 325 388
#     4  11  24  42  69  90 132 174 223 268 328 394
#     4  10  22  43  61  93 121 180 218 265 325 392
#
# _framework density 21.31983
#
# number of rings (size 3 to 8) (size 9 to 14) (size 15 to 20)
#    0.000    1.714    2.857    2.571   10.000    0.000 
#    0.000    5.714    0.000    0.000    0.000    0.000 
#    0.000    0.000    0.000    0.000    0.000    0.000 
#
# Total GULP energy -78039.375256 kJ/mol
# GULP energy per Si atom -5574.241090 kJ/mol
# Density = 2.127131 g / cm^3
# Si number density = 21.319830 Si / 1000 Ang^3
#
#
#
# Elastic Constant Matrix: (Units=GPa)
#
#
# Indices 1 2 3 4 5 6 
#
# 1 107.6584 19.2111 55.8976 -0.0005 12.8464 -0.0002
# 2 19.2111 55.3326 14.4561 -0.0010 10.0024 -0.0003
# 3 55.8976 14.4561 163.5810 -0.0023 8.7440 -0.0022
# 4 -0.0005 -0.0010 -0.0023 33.8300 -0.0009 0.4761
# 5 12.8464 10.0024 8.7440 -0.0009 24.2642 -0.0008
# 6 -0.0002 -0.0003 -0.0022 0.4761 -0.0008 15.9169
#
#
#
# Elastic Compliance Matrix: (Units=1/GPa)
#
#
# Indices 1 2 3 4 5 6 
#
# 1 0.012149 -0.002515 -0.003712 0.000000 -0.004058 -0.000001
# 2 -0.002515 0.020332 -0.000572 0.000000 -0.006844 0.000000
# 3 -0.003712 -0.000572 0.007458 0.000000 -0.000487 0.000001
# 4 0.000000 0.000000 0.000000 0.029572 0.000001 -0.000885
# 5 -0.004058 -0.006844 -0.000487 0.000001 0.046358 0.000002
# 6 -0.000001 0.000000 0.000001 -0.000885 0.000002 0.062853
#
#
# Mechanical properties :
#
#
# Convention : Reuss Voigt Hill
#
# Bulk Modulus (GPa) = 37.96206 56.18908 47.07557
# Shear Modulus (GPa) = 24.86319 30.60270 27.73295
#
# Velocity S-wave (km/s) = 3.41867 3.79279 3.61058
# Velocity P-wave (km/s) = 5.78167 6.75225 6.28572
#
# Compressibility (1/GPa) = 0.02634209
#
# Stress axis : x y z
#
# Youngs Moduli (GPa) = 82.31082 49.18317 134.07948
#
# Poissons Ratio (x) = 0.12368 0.49775
# Poissons Ratio (y) = 0.20699 0.07665
# Poissons Ratio (z) = 0.30557 0.02812
#
# Static dielectric constant tensor:
#      x y z
#    x 1.886030 0.000000 -0.004680 
#    y 0.000000 1.812750 0.000000 
#    z -0.004680 0.000000 1.785470 
# 
# From -- ./inp_files/5567.got.cif
#   From: 2010.05.17/outbox.cif.g08.bks.cpg/sg9_3_cif.got.tgz:5567.got - 2010.06.03 20:04:27.
