data_PCOD9134983
_publ_section_title
;
Structure prediction by ZEFSAII (Michael W. Deem and Ramdas Pophale) SiO2 
 PCOD9134983
Probable space group: C C
;
_chemical_formula_sum "Si O2"
_cell_formula_units_Z 32
_cell_length_a 11.558576
_cell_length_b 20.666864
_cell_length_c 10.098933
_cell_angle_alpha 90.000000
_cell_angle_beta 144.295913
_cell_angle_gamma 90.000000
_cell_volume 1407.891045
_symmetry_space_group_name_H-M "C C"
_symmetry_group_IT_number 9
_symmetry_cell_setting 'monoclinic'
loop_
_space_group_symop_operation_xyz
x,y,z
x,-y,1/2+z
1/2+x,1/2+y,z
1/2+x,1/2-y,1/2+z
loop_
_atom_site_type_symbol
_atom_site_label
_atom_site_fract_x
_atom_site_fract_y
_atom_site_fract_z
Si Si1 0.409550 0.585441 0.395250
Si Si2 0.085367 0.376992 0.795232
Si Si3 0.915396 0.687264 0.460951
Si Si4 0.250528 0.888494 0.023617
Si Si5 0.568597 0.012950 0.943873
Si Si6 0.702632 0.485823 0.748540
Si Si7 0.301915 0.682922 0.714448
Si Si8 0.688247 0.390180 0.519599
O O1 0.236255 0.621009 0.314584
O O2 0.576150 0.622671 0.466268
O O3 0.546219 0.542886 0.621299
O O4 0.282062 0.539294 0.181008
O O5 0.094530 0.445237 0.887895
O O6 0.846941 0.375601 0.552121
O O7 0.155823 0.315574 0.950318
O O8 0.823312 0.676328 0.518536
O O9 0.904723 0.758764 0.389419
O O10 0.791994 0.646298 0.240128
O O11 0.138584 0.659314 0.668353
O O12 0.436239 0.930457 0.252189
O O13 0.166610 0.933396 0.826927
O O14 0.437345 0.000646 0.956025
O O15 0.671437 0.461374 0.566884
O O16 0.472253 0.638547 0.813908
#
# Coordination Sequence:
#
# PCOD9134983 Si02
#       8
#     4   4   4   4   4   4   4   4
#     4  11  21  35  56  85 127 171 197 239 308 382
#     4  10  22  34  56  90 123 160 203 244 303 371
#     4  10  21  37  60  91 111 144 201 263 311 355
#     4  10  22  36  56  89 127 162 204 250 306 374
#     4  10  20  36  55  86 127 167 204 244 305 374
#     4   9  19  34  55  84 122 159 206 248 294 365
#     4  11  20  37  62  88 111 146 197 266 317 344
#     4   9  19  35  56  87 114 147 196 252 304 353
#
# _framework density 22.729030999999999
#
# number of rings (size 3 to 8) (size 9 to 14) (size 15 to 20)
#    0.000    2.000    1.250    3.000    0.000    7.000 
#    0.000    0.000    0.000    3.000    0.000    0.000 
#    0.000    0.000    0.000    0.000    0.000    0.000 
#
# Total GULP energy -89087.295145 kJ/mol
# GULP energy per Si atom -5567.955947 kJ/mol
# Density = 2.267730 g / cm^3
# Si number density = 22.729031 Si / 1000 Ang^3
#
#
#
# Elastic Constant Matrix: (Units=GPa)
#
#
# Indices 1 2 3 4 5 6 
#
# 1 137.8894 22.0553 32.2330 0.0000 36.8081 0.0000
# 2 22.0553 42.3684 16.0580 0.0000 2.1881 0.0000
# 3 32.2330 16.0580 94.2431 0.0000 37.9341 0.0000
# 4 0.0000 0.0000 0.0000 25.2100 0.0000 4.5594
# 5 36.8081 2.1881 37.9341 0.0000 37.0658 0.0000
# 6 0.0000 0.0000 0.0000 4.5594 0.0000 30.9150
#
#
#
# Elastic Compliance Matrix: (Units=1/GPa)
#
#
# Indices 1 2 3 4 5 6 
#
# 1 0.011214 -0.006139 0.002631 0.000000 -0.013466 0.000000
# 2 -0.006139 0.029138 -0.007868 0.000000 0.012429 0.000000
# 3 0.002631 -0.007868 0.020264 0.000000 -0.022887 0.000000
# 4 0.000000 0.000000 0.000000 0.040754 0.000000 -0.006010
# 5 -0.013466 0.012429 -0.022887 0.000000 0.063041 0.000000
# 6 0.000000 0.000000 0.000000 -0.006010 0.000000 0.033233
#
#
# Mechanical properties :
#
#
# Convention : Reuss Voigt Hill
#
# Bulk Modulus (GPa) = 26.41027 46.13261 36.27144
# Shear Modulus (GPa) = 21.45765 32.24847 26.85306
#
# Velocity S-wave (km/s) = 3.07590 3.77081 3.44094
# Velocity P-wave (km/s) = 4.92541 6.26894 5.63734
#
# Compressibility (1/GPa) = 0.03786406
#
# Stress axis : x y z
#
# Youngs Moduli (GPa) = 89.17641 34.31894 49.34896
#
# Poissons Ratio (x) = 0.21069 -0.12984
# Poissons Ratio (y) = 0.54747 0.38827
# Poissons Ratio (z) = -0.23462 0.27002
#
# Static dielectric constant tensor:
#      x y z
#    x 1.923140 0.000000 -0.007190 
#    y 0.000000 1.946160 0.000000 
#    z -0.007190 0.000000 1.908710 
# 
# From -- ./inp_files/17227.got.cif
#   From: 2010.05.17/outbox.cif.g08.bks.cpg/sg9_9_cif.got.tgz:17227.got - 2010.06.03 20:04:27.
