data_PCOD9134963
_publ_section_title
;
Structure prediction by ZEFSAII (Michael W. Deem and Ramdas Pophale) SiO2 
 PCOD9134963
Probable space group: C C
;
_chemical_formula_sum "Si O2"
_cell_formula_units_Z 32
_cell_length_a 11.406427
_cell_length_b 13.338031
_cell_length_c 13.062331
_cell_angle_alpha 90.000000
_cell_angle_beta 137.691761
_cell_angle_gamma 90.000000
_cell_volume 1337.684806
_symmetry_space_group_name_H-M "C C"
_symmetry_group_IT_number 9
_symmetry_cell_setting 'monoclinic'
loop_
_space_group_symop_operation_xyz
x,y,z
x,-y,1/2+z
1/2+x,1/2+y,z
1/2+x,1/2-y,1/2+z
loop_
_atom_site_type_symbol
_atom_site_label
_atom_site_fract_x
_atom_site_fract_y
_atom_site_fract_z
Si Si1 0.859800 0.762433 0.904470
Si Si2 0.059031 0.034440 0.480184
Si Si3 0.971230 0.356833 0.910287
Si Si4 0.479147 0.770034 0.693540
Si Si5 0.614778 0.761071 0.199863
Si Si6 0.335409 0.606712 0.976135
Si Si7 0.344175 0.060224 0.807123
Si Si8 0.993348 0.959738 0.217857
O O1 0.660738 0.786562 0.751164
O O2 0.916124 0.670825 0.869628
O O3 0.973004 0.862011 0.965311
O O4 0.847903 0.719893 0.013728
O O5 0.261249 0.038147 0.642768
O O6 0.033020 0.022230 0.343887
O O7 0.961517 0.938642 0.468248
O O8 0.778243 0.314094 0.811032
O O9 0.973934 0.475188 0.926648
O O10 0.987878 0.334655 0.800875
O O11 0.096181 0.303759 0.072425
O O12 0.454460 0.655696 0.713803
O O13 0.439903 0.696225 0.100601
O O14 0.664631 0.848949 0.311829
O O15 0.338171 0.513539 0.055402
O O16 0.168601 0.046039 0.762495
#
# Coordination Sequence:
#
# PCOD9134963 Si02
#       8
#     4   4   4   4   4   4   4   4
#     4  11  22  44  62  93 133 168 215 264 326 391
#     4  11  21  42  69  88 132 176 213 268 330 389
#     4  11  21  39  66 102 130 162 218 272 327 379
#     4  11  23  38  71  98 122 168 221 271 313 390
#     4  10  20  35  63  94 135 162 203 274 322 370
#     4  10  20  40  62  95 129 169 216 267 316 393
#     4  10  23  41  64  98 128 169 217 270 324 389
#     4  10  20  41  67  94 123 180 213 250 342 387
#
# _framework density 23.921928999999999
#
# number of rings (size 3 to 8) (size 9 to 14) (size 15 to 20)
#    0.000    1.500    6.250    2.250    3.500    1.000 
#    2.250    0.000    2.750    0.000    0.000    0.000 
#    0.000    0.000    0.000    0.000    0.000    0.000 
#
# Total GULP energy -89404.351153 kJ/mol
# GULP energy per Si atom -5587.771947 kJ/mol
# Density = 2.386748 g / cm^3
# Si number density = 23.921929 Si / 1000 Ang^3
#
#
#
# Elastic Constant Matrix: (Units=GPa)
#
#
# Indices 1 2 3 4 5 6 
#
# 1 23.1858 7.9612 12.7105 0.0000 -0.8971 0.0000
# 2 7.9612 115.4328 31.2596 0.0000 6.0489 0.0000
# 3 12.7105 31.2596 111.0802 0.0001 -13.9173 0.0000
# 4 0.0000 0.0000 0.0001 35.1215 0.0000 -2.7948
# 5 -0.8971 6.0489 -13.9173 0.0000 30.5991 0.0000
# 6 0.0000 0.0000 0.0000 -2.7948 0.0000 13.7619
#
#
#
# Elastic Compliance Matrix: (Units=1/GPa)
#
#
# Indices 1 2 3 4 5 6 
#
# 1 0.046408 -0.001864 -0.004845 0.000000 -0.000475 0.000000
# 2 -0.001864 0.009765 -0.002952 0.000000 -0.003328 0.000000
# 3 -0.004845 -0.002952 0.011074 0.000000 0.005478 0.000000
# 4 0.000000 0.000000 0.000000 0.028940 0.000000 0.005877
# 5 -0.000475 -0.003328 0.005478 0.000000 0.035816 0.000000
# 6 0.000000 0.000000 0.000000 0.005877 0.000000 0.073858
#
#
# Mechanical properties :
#
#
# Convention : Reuss Voigt Hill
#
# Bulk Modulus (GPa) = 20.86573 39.28460 30.07517
# Shear Modulus (GPa) = 20.73331 29.08100 24.90715
#
# Velocity S-wave (km/s) = 2.94718 3.49042 3.23024
# Velocity P-wave (km/s) = 4.50805 5.71854 5.14899
#
# Compressibility (1/GPa) = 0.04792547
#
# Stress axis : x y z
#
# Youngs Moduli (GPa) = 21.54819 102.40334 90.30181
#
# Poissons Ratio (x) = 0.19084 0.43754
# Poissons Ratio (y) = 0.04016 0.26655
# Poissons Ratio (z) = 0.10441 0.30227
#
# Static dielectric constant tensor:
#      x y z
#    x 1.960460 0.000000 -0.003720 
#    y 0.000000 1.900280 0.000000 
#    z -0.003720 0.000000 1.882350 
# 
# From -- ./inp_files/9180.got.cif
#   From: 2010.05.17/outbox.cif.g08.bks.cpg/sg9_5_cif.got.tgz:9180.got - 2010.06.03 20:04:27.
