data_PCOD9134560
_publ_section_title
;
Structure prediction by ZEFSAII (Michael W. Deem and Ramdas Pophale) SiO2 
 PCOD9134560
Probable space group: C C
;
_chemical_formula_sum "Si O2"
_cell_formula_units_Z 28
_cell_length_a 16.249228
_cell_length_b 5.147887
_cell_length_c 14.642923
_cell_angle_alpha 90.000000
_cell_angle_beta 102.835034
_cell_angle_gamma 90.000000
_cell_volume 1194.263712
_symmetry_space_group_name_H-M "C C"
_symmetry_group_IT_number 9
_symmetry_cell_setting 'monoclinic'
loop_
_space_group_symop_operation_xyz
x,y,z
x,-y,1/2+z
1/2+x,1/2+y,z
1/2+x,1/2-y,1/2+z
loop_
_atom_site_type_symbol
_atom_site_label
_atom_site_fract_x
_atom_site_fract_y
_atom_site_fract_z
Si Si1 0.822090 0.700454 0.236620
Si Si2 0.643043 0.171822 0.710536
Si Si3 0.997381 0.014747 0.095042
Si Si4 0.174804 0.497899 0.015441
Si Si5 0.577890 0.505488 0.429946
Si Si6 0.333406 0.711503 0.123269
Si Si7 0.003635 0.321560 0.758677
O O1 0.801023 0.486846 0.152734
O O2 0.915944 0.600640 0.288099
O O3 0.733862 0.730402 0.269683
O O4 0.836740 0.994623 0.204556
O O5 0.659117 0.002822 0.621832
O O6 0.581115 0.016770 0.762247
O O7 0.588729 0.404813 0.655178
O O8 0.926909 0.221153 0.106116
O O9 0.005479 0.998239 0.989479
O O10 0.976647 0.763544 0.149832
O O11 0.145638 0.220226 0.971197
O O12 0.271710 0.583161 0.033492
O O13 0.120005 0.717693 0.953907
O O14 0.538826 0.422242 0.324537
#
# Coordination Sequence:
#
# PCOD9134560 Si02
#       7
#     4   4   4   4   4   4   4
#     4  10  22  36  64  95 121 164 219 261 324 397
#     4  10  20  39  67  87 126 171 215 268 335 391
#     4  10  21  40  66  89 128 173 215 266 341 383
#     4  10  21  40  61  91 124 165 212 267 328 391
#     4  11  24  39  62  91 128 169 217 268 323 401
#     4  10  19  37  65  91 121 164 212 264 320 394
#     4  11  23  41  63  96 132 174 222 276 333 397
#
# _framework density 23.445409000000001
#
# number of rings (size 3 to 8) (size 9 to 14) (size 15 to 20)
#    0.000    1.714    2.857    2.571    4.000    0.000 
#    2.571    0.000    0.000    0.000    0.000    0.000 
#    0.000    0.000    0.000    0.000    0.000    0.000 
#
# Total GULP energy -78061.749004 kJ/mol
# GULP energy per Si atom -5575.839215 kJ/mol
# Density = 2.339205 g / cm^3
# Si number density = 23.445409 Si / 1000 Ang^3
#
#
#
# Elastic Constant Matrix: (Units=GPa)
#
#
# Indices 1 2 3 4 5 6 
#
# 1 152.2462 16.6528 13.4528 0.0000 13.3078 0.0000
# 2 16.6528 94.1188 20.9147 0.0000 -8.1286 0.0000
# 3 13.4528 20.9147 62.0454 0.0000 -6.7648 0.0000
# 4 0.0000 0.0000 0.0000 27.7560 0.0000 -4.4477
# 5 13.3078 -8.1286 -6.7648 0.0000 12.7138 0.0000
# 6 0.0000 0.0000 0.0000 -4.4477 0.0000 29.2074
#
#
#
# Elastic Compliance Matrix: (Units=1/GPa)
#
#
# Indices 1 2 3 4 5 6 
#
# 1 0.007895 -0.001812 -0.002259 0.000000 -0.010625 0.000000
# 2 -0.001812 0.012291 -0.002852 0.000000 0.008238 0.000000
# 3 -0.002259 -0.002852 0.018713 0.000000 0.010498 0.000000
# 4 0.000000 0.000000 0.000000 0.036929 0.000000 0.005624
# 5 -0.010625 0.008238 0.010498 0.000000 0.100629 0.000000
# 6 0.000000 0.000000 0.000000 0.005624 0.000000 0.035094
#
#
# Mechanical properties :
#
#
# Convention : Reuss Voigt Hill
#
# Bulk Modulus (GPa) = 39.91773 45.60565 42.76169
# Shear Modulus (GPa) = 21.39051 31.09478 26.24265
#
# Velocity S-wave (km/s) = 3.02380 3.64574 3.34924
# Velocity P-wave (km/s) = 5.40869 6.10049 5.76498
#
# Compressibility (1/GPa) = 0.02505153
#
# Stress axis : x y z
#
# Youngs Moduli (GPa) = 126.66443 81.36204 53.43866
#
# Poissons Ratio (x) = 0.14746 0.12073
# Poissons Ratio (y) = 0.22957 0.15240
# Poissons Ratio (z) = 0.28616 0.23204
#
# Static dielectric constant tensor:
#      x y z
#    x 2.009090 0.000000 0.001120 
#    y 0.000000 1.896390 0.000000 
#    z 0.001120 0.000000 1.873370 
# 
# From -- ./inp_files/25258.got.cif
#   From: 2010.05.17/outbox.cif.g08.bks.cpg/sg9_13_cif.got.tgz:25258.got - 2010.06.03 20:04:27.
