data_PCOD9134954
_publ_section_title
;
Structure prediction by ZEFSAII (Michael W. Deem and Ramdas Pophale) SiO2 
 PCOD9134954
Probable space group: C C
;
_chemical_formula_sum "Si O2"
_cell_formula_units_Z 32
_cell_length_a 15.255005
_cell_length_b 11.215227
_cell_length_c 21.256932
_cell_angle_alpha 90.000000
_cell_angle_beta 24.251324
_cell_angle_gamma 90.000000
_cell_volume 1493.784407
_symmetry_space_group_name_H-M "C C"
_symmetry_group_IT_number 9
_symmetry_cell_setting 'monoclinic'
loop_
_space_group_symop_operation_xyz
x,y,z
x,-y,1/2+z
1/2+x,1/2+y,z
1/2+x,1/2-y,1/2+z
loop_
_atom_site_type_symbol
_atom_site_label
_atom_site_fract_x
_atom_site_fract_y
_atom_site_fract_z
Si Si1 0.411580 0.346346 0.000000
Si Si2 0.658317 0.573265 0.851171
Si Si3 0.298771 0.695569 0.385310
Si Si4 0.106672 0.521680 0.604840
Si Si5 0.056488 0.660475 0.817401
Si Si6 0.720168 0.804581 0.611819
Si Si7 0.971729 0.603440 0.386121
Si Si8 0.366878 0.306217 0.693294
O O1 0.593278 0.444166 0.868747
O O2 0.497102 0.219585 0.922443
O O3 0.216546 0.392596 0.084260
O O4 0.307226 0.352519 0.137237
O O5 0.765402 0.677453 0.739764
O O6 0.853216 0.542518 0.770311
O O7 0.425438 0.634530 0.012908
O O8 0.203935 0.572291 0.476005
O O9 0.471083 0.743751 0.322080
O O10 0.372272 0.685585 0.265583
O O11 0.107149 0.792905 0.513163
O O12 0.169071 0.389633 0.585774
O O13 0.939239 0.533487 0.888925
O O14 0.529372 0.820902 0.785930
O O15 0.791977 0.674241 0.542479
O O16 0.189760 0.602860 0.285018
#
# Coordination Sequence:
#
# PCOD9134954 Si02
#       8
#     4   4   4   4   4   4   4   4
#     4  10  21  38  60  88 118 156 205 241 311 364
#     4   9  17  35  62  81 117 160 193 246 304 360
#     4  10  20  35  62  91 117 155 216 256 301 362
#     4   9  18  37  63  85 120 163 198 249 309 368
#     4  11  21  40  59  89 121 164 195 259 306 372
#     4  10  21  40  62  91 120 165 203 255 316 370
#     4  11  22  40  61  89 127 158 206 253 317 367
#     4  10  20  35  61  92 114 157 212 259 298 363
#
# _framework density 21.422101000000001
#
# number of rings (size 3 to 8) (size 9 to 14) (size 15 to 20)
#    0.000    2.000    2.500    3.750    0.000    0.000 
#   15.750    2.500    0.000    0.000    0.000    0.000 
#    0.000    0.000    0.000    0.000    0.000    0.000 
#
# Total GULP energy -89093.955072 kJ/mol
# GULP energy per Si atom -5568.372192 kJ/mol
# Density = 2.137334 g / cm^3
# Si number density = 21.422101 Si / 1000 Ang^3
#
#
#
# Elastic Constant Matrix: (Units=GPa)
#
#
# Indices 1 2 3 4 5 6 
#
# 1 55.4278 18.2421 9.1012 -0.0040 -5.2150 0.0026
# 2 18.2421 78.4014 27.5025 -0.0039 22.2234 0.0012
# 3 9.1012 27.5025 50.5713 0.0016 6.6060 0.0019
# 4 -0.0040 -0.0039 0.0016 22.5633 0.0015 1.0789
# 5 -5.2150 22.2234 6.6060 0.0015 33.6763 -0.0004
# 6 0.0026 0.0012 0.0019 1.0789 -0.0004 25.3634
#
#
#
# Elastic Compliance Matrix: (Units=1/GPa)
#
#
# Indices 1 2 3 4 5 6 
#
# 1 0.021223 -0.006796 -0.001169 0.000002 0.008000 -0.000002
# 2 -0.006796 0.021092 -0.008510 0.000004 -0.013302 0.000000
# 3 -0.001169 -0.008510 0.024531 -0.000003 0.000623 -0.000001
# 4 0.000002 0.000004 -0.000003 0.044410 -0.000004 -0.001889
# 5 0.008000 -0.013302 0.000623 -0.000004 0.039589 0.000001
# 6 -0.000002 0.000000 -0.000001 -0.001889 0.000001 0.039507
#
#
# Mechanical properties :
#
#
# Convention : Reuss Voigt Hill
#
# Bulk Modulus (GPa) = 29.50129 32.67690 31.08910
# Shear Modulus (GPa) = 21.31291 24.95759 23.13525
#
# Velocity S-wave (km/s) = 3.15763 3.41697 3.28986
# Velocity P-wave (km/s) = 5.20533 5.55468 5.38284
#
# Compressibility (1/GPa) = 0.03389682
#
# Stress axis : x y z
#
# Youngs Moduli (GPa) = 47.11937 47.41189 40.76469
#
# Poissons Ratio (x) = 0.32220 0.04764
# Poissons Ratio (y) = 0.32021 0.34690
# Poissons Ratio (z) = 0.05507 0.40347
#
# Static dielectric constant tensor:
#      x y z
#    x 1.845110 0.000000 0.028300 
#    y 0.000000 1.783720 0.000010 
#    z 0.028300 0.000010 1.845560 
# 
# From -- ./inp_files/35868.got.cif
#   From: 2010.05.17/outbox.cif.g08.bks.cpg/sg9_18_cif.got.tgz:35868.got - 2010.06.03 20:04:27.
