data_PCOD9134710
_publ_section_title
;
Structure prediction by ZEFSAII (Michael W. Deem and Ramdas Pophale) SiO2 
 PCOD9134710
Probable space group: C C
;
_chemical_formula_sum "Si O2"
_cell_formula_units_Z 32
_cell_length_a 9.147567
_cell_length_b 21.032678
_cell_length_c 8.908776
_cell_angle_alpha 90.000000
_cell_angle_beta 65.902303
_cell_angle_gamma 90.000000
_cell_volume 1564.652548
_symmetry_space_group_name_H-M "C C"
_symmetry_group_IT_number 9
_symmetry_cell_setting 'monoclinic'
loop_
_space_group_symop_operation_xyz
x,y,z
x,-y,1/2+z
1/2+x,1/2+y,z
1/2+x,1/2-y,1/2+z
loop_
_atom_site_type_symbol
_atom_site_label
_atom_site_fract_x
_atom_site_fract_y
_atom_site_fract_z
Si Si1 0.446560 0.006490 0.547310
Si Si2 0.504962 0.638529 0.859799
Si Si3 0.030761 0.593034 0.256839
Si Si4 0.182994 0.687454 0.996194
Si Si5 0.021217 0.750011 0.603062
Si Si6 0.857114 0.710422 0.956898
Si Si7 0.254968 0.070299 0.892314
Si Si8 0.294339 0.172117 0.516168
O O1 0.558280 0.046710 0.387303
O O2 0.363509 0.050549 0.705819
O O3 0.527613 0.950112 0.608480
O O4 0.306321 0.976685 0.502785
O O5 0.570313 0.575850 0.917214
O O6 0.642470 0.651596 0.679010
O O7 0.326624 0.644412 0.868594
O O8 0.506521 0.694306 0.985843
O O9 0.854981 0.622776 0.366708
O O10 0.145048 0.652468 0.171060
O O11 0.246195 0.759221 0.974477
O O12 0.010936 0.695114 0.991691
O O13 0.202357 0.754030 0.587315
O O14 0.908441 0.753488 0.794283
O O15 0.953788 0.687294 0.548443
O O16 0.802282 0.640963 0.924174
#
# Coordination Sequence:
#
# PCOD9134710 Si02
#       8
#     4   4   4   4   4   4   4   4
#     4  10  21  38  70  90 116 167 228 273 309 390
#     4  10  21  38  56  87 126 164 206 258 330 388
#     4  11  22  40  67  95 124 173 224 268 334 386
#     4  11  24  36  59  96 136 165 209 275 334 397
#     4  10  20  36  57  85 126 166 205 256 320 392
#     4  11  22  36  58  91 128 163 210 255 321 395
#     4  10  19  40  61  87 114 159 213 260 310 376
#     4  11  21  38  62  91 130 169 213 267 332 398
#
# _framework density 20.451823999999998
#
# number of rings (size 3 to 8) (size 9 to 14) (size 15 to 20)
#    0.000    1.500    5.000    1.500    5.250    0.000 
#    0.000    1.250    0.000    0.000    0.000    0.000 
#    0.000    0.000    0.000    0.000    0.000    0.000 
#
# Total GULP energy -89089.255020 kJ/mol
# GULP energy per Si atom -5568.078439 kJ/mol
# Density = 2.040527 g / cm^3
# Si number density = 20.451824 Si / 1000 Ang^3
#
#
#
# Elastic Constant Matrix: (Units=GPa)
#
#
# Indices 1 2 3 4 5 6 
#
# 1 94.5077 14.5155 2.5210 0.0000 -8.7932 0.0000
# 2 14.5155 60.8965 28.0276 0.0000 -3.0860 0.0000
# 3 2.5210 28.0276 67.3556 0.0000 -6.5271 0.0000
# 4 0.0000 0.0000 0.0000 29.2372 0.0000 4.4237
# 5 -8.7932 -3.0860 -6.5271 0.0000 28.2232 0.0000
# 6 0.0000 0.0000 0.0000 4.4237 0.0000 12.9561
#
#
#
# Elastic Compliance Matrix: (Units=1/GPa)
#
#
# Indices 1 2 3 4 5 6 
#
# 1 0.011345 -0.003077 0.001192 0.000000 0.003474 0.000000
# 2 -0.003077 0.021148 -0.008750 0.000000 -0.000670 0.000000
# 3 0.001192 -0.008750 0.018808 0.000000 0.003764 0.000000
# 4 0.000000 0.000000 0.000000 0.036066 0.000000 -0.012314
# 5 0.003474 -0.000670 0.003764 0.000000 0.037312 0.000000
# 6 0.000000 0.000000 0.000000 -0.012314 0.000000 0.081388
#
#
# Mechanical properties :
#
#
# Convention : Reuss Voigt Hill
#
# Bulk Modulus (GPa) = 33.29775 34.76533 34.03154
# Shear Modulus (GPa) = 21.06630 25.92968 23.49799
#
# Velocity S-wave (km/s) = 3.21291 3.56454 3.39328
# Velocity P-wave (km/s) = 5.48454 5.82896 5.65937
#
# Compressibility (1/GPa) = 0.03003206
#
# Stress axis : x y z
#
# Youngs Moduli (GPa) = 88.14321 47.28612 53.17001
#
# Poissons Ratio (x) = 0.14550 -0.06340
# Poissons Ratio (y) = 0.27122 0.46522
# Poissons Ratio (z) = -0.10510 0.41374
#
# Static dielectric constant tensor:
#      x y z
#    x 1.838080 0.000000 0.036230 
#    y 0.000000 1.775680 0.000000 
#    z 0.036230 0.000000 1.756380 
# 
# From -- ./inp_files/6165.got.cif
#   From: 2010.05.17/outbox.cif.g08.bks.cpg/sg9_4_cif.got.tgz:6165.got - 2010.06.03 20:04:27.
