data_PCOD9134568
_publ_section_title
;
Structure prediction by ZEFSAII (Michael W. Deem and Ramdas Pophale) SiO2 
 PCOD9134568
Probable space group: C C
;
_chemical_formula_sum "Si O2"
_cell_formula_units_Z 20
_cell_length_a 26.243601
_cell_length_b 7.018485
_cell_length_c 5.275885
_cell_angle_alpha 90.000000
_cell_angle_beta 114.041046
_cell_angle_gamma 90.000000
_cell_volume 887.469897
_symmetry_space_group_name_H-M "C C"
_symmetry_group_IT_number 9
_symmetry_cell_setting 'monoclinic'
loop_
_space_group_symop_operation_xyz
x,y,z
x,-y,1/2+z
1/2+x,1/2+y,z
1/2+x,1/2-y,1/2+z
loop_
_atom_site_type_symbol
_atom_site_label
_atom_site_fract_x
_atom_site_fract_y
_atom_site_fract_z
Si Si1 0.067400 0.124227 0.877900
Si Si2 0.175849 0.622411 0.676610
Si Si3 0.284672 0.126602 0.323758
Si Si4 0.953913 0.710576 0.295143
Si Si5 0.908887 0.721998 0.704257
O O1 0.016675 0.270620 0.824645
O O2 0.063157 0.033339 0.591176
O O3 0.126179 0.228941 0.029736
O O4 0.171084 0.463213 0.448277
O O5 0.235038 0.725556 0.762027
O O6 0.345678 0.217927 0.482590
O O7 0.280597 0.969713 0.539602
O O8 0.947270 0.801843 0.558270
O O9 0.931549 0.495531 0.287197
O O10 0.915190 0.801022 0.999056
#
# Coordination Sequence:
#
# PCOD9134568 Si02
#       5
#     4   4   4   4   4
#     4  12  26  46  68 101 137 178 225 282 339 399
#     4  12  28  46  68 101 132 181 228 285 337 392
#     4  12  21  43  72  97 133 178 233 267 329 410
#     4  10  20  36  64  98 128 164 227 257 324 395
#     4  10  19  37  66  99 122 181 213 259 325 402
#
# _framework density 22.535976000000002
#
# number of rings (size 3 to 8) (size 9 to 14) (size 15 to 20)
#    0.000    0.800    4.000    4.800    5.600    0.000 
#    0.000    6.000    0.000    0.000    0.000    0.000 
#    0.000    0.000    0.000    0.000    0.000    0.000 
#
# Total GULP energy -55943.998204 kJ/mol
# GULP energy per Si atom -5594.399820 kJ/mol
# Density = 2.248468 g / cm^3
# Si number density = 22.535976 Si / 1000 Ang^3
#
#
#
# Elastic Constant Matrix: (Units=GPa)
#
#
# Indices 1 2 3 4 5 6 
#
# 1 94.0488 6.4110 14.3987 0.0000 16.3331 0.0000
# 2 6.4110 36.3023 -2.5289 0.0000 19.6143 0.0000
# 3 14.3987 -2.5289 90.2364 0.0000 -3.3839 0.0000
# 4 0.0000 0.0000 0.0000 43.2860 0.0000 -2.2538
# 5 16.3331 19.6143 -3.3839 0.0000 62.8517 0.0000
# 6 0.0000 0.0000 0.0000 -2.2538 0.0000 49.9456
#
#
#
# Elastic Compliance Matrix: (Units=1/GPa)
#
#
# Indices 1 2 3 4 5 6 
#
# 1 0.011477 -0.000595 -0.001957 0.000000 -0.002902 0.000000
# 2 -0.000595 0.033190 0.000644 0.000000 -0.010169 0.000000
# 3 -0.001957 0.000644 0.011447 0.000000 0.000924 0.000000
# 4 0.000000 0.000000 0.000000 0.023157 0.000000 0.001045
# 5 -0.002902 -0.010169 0.000924 0.000000 0.019888 0.000000
# 6 0.000000 0.000000 0.000000 0.001045 0.000000 0.020069
#
#
# Mechanical properties :
#
#
# Convention : Reuss Voigt Hill
#
# Bulk Modulus (GPa) = 19.12118 28.57211 23.84665
# Shear Modulus (GPa) = 35.59314 44.70378 40.14846
#
# Velocity S-wave (km/s) = 3.97847 4.45866 4.22539
# Velocity P-wave (km/s) = 5.44127 6.26197 5.86599
#
# Compressibility (1/GPa) = 0.05229803
#
# Stress axis : x y z
#
# Youngs Moduli (GPa) = 87.13131 30.12912 87.35957
#
# Poissons Ratio (x) = 0.01793 0.17095
# Poissons Ratio (y) = 0.05185 -0.05624
# Poissons Ratio (z) = 0.17050 -0.01940
#
# Static dielectric constant tensor:
#      x y z
#    x 1.814240 0.000000 -0.049290 
#    y 0.000000 0.666210 0.000000 
#    z -0.049290 0.000000 1.854640 
# 
# From -- ./inp_files/2842.got.cif
#   From: 2010.05.17/outbox.cif.g08.bks.cpg/sg9_2_cif.got.tgz:2842.got - 2010.06.03 20:04:27.
