data_PCOD9134044
_publ_section_title
;
Structure prediction by ZEFSAII (Michael W. Deem and Ramdas Pophale) SiO2 
 PCOD9134044
Probable space group: C C
;
_chemical_formula_sum "Si O2"
_cell_formula_units_Z 28
_cell_length_a 10.174258
_cell_length_b 21.257393
_cell_length_c 8.429839
_cell_angle_alpha 90.000000
_cell_angle_beta 135.142274
_cell_angle_gamma 90.000000
_cell_volume 1285.985080
_symmetry_space_group_name_H-M "C C"
_symmetry_group_IT_number 9
_symmetry_cell_setting 'monoclinic'
loop_
_space_group_symop_operation_xyz
x,y,z
x,-y,1/2+z
1/2+x,1/2+y,z
1/2+x,1/2-y,1/2+z
loop_
_atom_site_type_symbol
_atom_site_label
_atom_site_fract_x
_atom_site_fract_y
_atom_site_fract_z
Si Si1 0.346910 0.097360 0.992720
Si Si2 0.678164 0.468547 0.891078
Si Si3 0.242756 0.801827 0.168387
Si Si4 0.916355 0.023435 0.907026
Si Si5 0.518950 0.102557 0.809591
Si Si6 0.839358 0.158353 0.253413
Si Si7 0.718173 0.076401 0.442844
O O1 0.268299 0.163754 0.862762
O O2 0.464248 0.075769 0.937459
O O3 0.195748 0.044182 0.888055
O O4 0.499329 0.093142 0.261114
O O5 0.533586 0.468243 0.914739
O O6 0.573182 0.443579 0.647551
O O7 0.884640 0.440694 0.087666
O O8 0.414719 0.829902 0.215847
O O9 0.245662 0.727542 0.180777
O O10 0.057681 0.828503 0.928498
O O11 0.769322 0.989506 0.898515
O O12 0.808047 0.067356 0.691609
O O13 0.734699 0.119670 0.023343
O O14 0.802030 0.127433 0.393711
#
# Coordination Sequence:
#
# PCOD9134044 Si02
#       7
#     4   4   4   4   4   4   4
#     4   9  20  33  54  78 115 139 183 226 280 321
#     4  11  18  37  51  81 115 144 182 226 275 333
#     4  10  18  35  53  83 106 140 187 237 263 323
#     4  10  21  33  54  77 116 151 178 227 274 337
#     4   9  20  32  52  85 106 143 177 229 274 321
#     4  11  18  33  55  82 107 140 190 231 272 317
#     4  10  21  33  51  86 109 147 185 224 282 326
#
# _framework density 21.773192000000002
#
# number of rings (size 3 to 8) (size 9 to 14) (size 15 to 20)
#    0.857    1.143    2.857    2.571    4.000    0.000 
#    0.000    0.000    0.000    0.000   11.143    0.000 
#    0.000    0.000    0.000    0.000    0.000    0.000 
#
# Total GULP energy -77948.620531 kJ/mol
# GULP energy per Si atom -5567.758609 kJ/mol
# Density = 2.172364 g / cm^3
# Si number density = 21.773192 Si / 1000 Ang^3
#
#
#
# Elastic Constant Matrix: (Units=GPa)
#
#
# Indices 1 2 3 4 5 6 
#
# 1 28.4690 1.0432 34.0353 0.0000 14.8953 0.0000
# 2 1.0432 87.5802 33.8440 0.0000 2.7360 0.0000
# 3 34.0353 33.8440 206.6090 0.0000 22.2862 0.0000
# 4 0.0000 0.0000 0.0000 42.7952 0.0000 7.0388
# 5 14.8953 2.7360 22.2862 0.0000 35.2266 0.0000
# 6 0.0000 0.0000 0.0000 7.0388 0.0000 18.0839
#
#
#
# Elastic Compliance Matrix: (Units=1/GPa)
#
#
# Indices 1 2 3 4 5 6 
#
# 1 0.053172 0.002736 -0.007254 0.000000 -0.018106 0.000000
# 2 0.002736 0.012334 -0.002407 0.000000 -0.000592 0.000000
# 3 -0.007254 -0.002407 0.006524 0.000000 -0.000873 0.000000
# 4 0.000000 0.000000 0.000000 0.024965 0.000000 -0.009717
# 5 -0.018106 -0.000592 -0.000873 0.000000 0.036642 0.000000
# 6 0.000000 0.000000 0.000000 -0.009717 0.000000 0.059080
#
#
# Mechanical properties :
#
#
# Convention : Reuss Voigt Hill
#
# Bulk Modulus (GPa) = 17.18874 51.16703 34.17788
# Shear Modulus (GPa) = 22.12774 36.13686 29.13230
#
# Velocity S-wave (km/s) = 3.19138 4.07836 3.66182
# Velocity P-wave (km/s) = 4.63589 6.76227 5.79740
#
# Compressibility (1/GPa) = 0.05817763
#
# Stress axis : x y z
#
# Youngs Moduli (GPa) = 18.80705 81.07509 153.29131
#
# Poissons Ratio (x) = -0.22178 1.11200
# Poissons Ratio (y) = -0.05145 0.36901
# Poissons Ratio (z) = 0.13643 0.19517
#
# Static dielectric constant tensor:
#      x y z
#    x 1.884650 0.000000 0.044020 
#    y 0.000000 1.816620 0.000000 
#    z 0.044020 0.000000 1.869900 
# 
# From -- ./inp_files/8464.got.cif
#   From: 2010.05.17/outbox.cif.g08.bks.cpg/sg9_5_cif.got.tgz:8464.got - 2010.06.03 20:04:27.
