data_PCOD9134458
_publ_section_title
;
Structure prediction by ZEFSAII (Michael W. Deem and Ramdas Pophale) SiO2 
 PCOD9134458
Probable space group: C C
;
_chemical_formula_sum "Si O2"
_cell_formula_units_Z 32
_cell_length_a 17.108954
_cell_length_b 16.864359
_cell_length_c 5.241684
_cell_angle_alpha 90.000000
_cell_angle_beta 72.711207
_cell_angle_gamma 90.000000
_cell_volume 1444.059744
_symmetry_space_group_name_H-M "C C"
_symmetry_group_IT_number 9
_symmetry_cell_setting 'monoclinic'
loop_
_space_group_symop_operation_xyz
x,y,z
x,-y,1/2+z
1/2+x,1/2+y,z
1/2+x,1/2-y,1/2+z
loop_
_atom_site_type_symbol
_atom_site_label
_atom_site_fract_x
_atom_site_fract_y
_atom_site_fract_z
Si Si1 0.022150 0.210002 0.537940
Si Si2 0.252738 0.778553 0.477412
Si Si3 0.584278 0.043949 0.272438
Si Si4 0.014516 0.024748 0.574482
Si Si5 0.282606 0.546482 0.070877
Si Si6 0.839300 0.775282 0.405332
Si Si7 0.087716 0.714646 0.462347
Si Si8 0.197958 0.958016 0.449002
O O1 0.028364 0.115868 0.502892
O O2 0.083594 0.234539 0.705773
O O3 0.933030 0.231045 0.730626
O O4 0.038593 0.249704 0.249215
O O5 0.285803 0.760593 0.726168
O O6 0.180714 0.716970 0.474019
O O7 0.215202 0.866773 0.491834
O O8 0.320298 0.767068 0.191955
O O9 0.683039 0.049864 0.164658
O O10 0.557204 0.128685 0.406179
O O11 0.558982 0.979519 0.510855
O O12 0.970246 0.016972 0.885465
O O13 0.100467 0.977460 0.526731
O O14 0.304386 0.517275 0.332014
O O15 0.316568 0.632397 0.963864
O O16 0.231018 0.012773 0.645386
#
# Coordination Sequence:
#
# PCOD9134458 Si02
#       8
#     4   4   4   4   4   4   4   4
#     4  12  26  42  66  97 141 175 218 273 347 413
#     4  12  24  41  70  96 133 177 229 276 327 401
#     4  10  21  37  63  95 122 156 216 281 324 375
#     4  10  20  37  60  91 129 167 210 261 322 394
#     4  10  21  38  62  92 131 169 212 260 317 399
#     4  12  26  43  62 100 140 183 212 269 345 412
#     4  12  23  42  68  97 124 174 227 281 328 387
#     4  10  19  36  61  94 124 157 216 277 322 369
#
# _framework density 22.159745999999998
#
# number of rings (size 3 to 8) (size 9 to 14) (size 15 to 20)
#    0.000    1.000    1.250    7.500    3.500    1.000 
#    0.000    0.000    0.000   15.000    0.000    0.000 
#    0.000    0.000    0.000    0.000    0.000    0.000 
#
# Total GULP energy -89512.028906 kJ/mol
# GULP energy per Si atom -5594.501807 kJ/mol
# Density = 2.210931 g / cm^3
# Si number density = 22.159746 Si / 1000 Ang^3
#
#
#
# Elastic Constant Matrix: (Units=GPa)
#
#
# Indices 1 2 3 4 5 6 
#
# 1 38.4667 14.7132 16.7534 0.0000 5.9432 0.0000
# 2 14.7132 83.9792 42.4792 0.0000 -5.3589 0.0000
# 3 16.7534 42.4792 149.7516 0.0000 12.3198 0.0000
# 4 0.0000 0.0000 0.0000 50.7600 0.0000 5.4409
# 5 5.9432 -5.3589 12.3198 0.0000 32.7552 0.0000
# 6 0.0000 0.0000 0.0000 5.4409 0.0000 14.8410
#
#
#
# Elastic Compliance Matrix: (Units=1/GPa)
#
#
# Indices 1 2 3 4 5 6 
#
# 1 0.029309 -0.004740 -0.001479 0.000000 -0.005537 0.000000
# 2 -0.004740 0.015163 -0.004175 0.000000 0.004911 0.000000
# 3 -0.001479 -0.004175 0.008319 0.000000 -0.003544 0.000000
# 4 0.000000 0.000000 0.000000 0.020506 0.000000 -0.007518
# 5 -0.005537 0.004911 -0.003544 0.000000 0.033670 0.000000
# 6 0.000000 0.000000 0.000000 -0.007518 0.000000 0.070137
#
#
# Mechanical properties :
#
#
# Convention : Reuss Voigt Hill
#
# Bulk Modulus (GPa) = 31.24667 46.67657 38.96162
# Shear Modulus (GPa) = 23.97371 32.88803 28.43087
#
# Velocity S-wave (km/s) = 3.29273 3.85662 3.58578
# Velocity P-wave (km/s) = 5.34671 6.39850 5.89611
#
# Compressibility (1/GPa) = 0.03200341
#
# Stress axis : x y z
#
# Youngs Moduli (GPa) = 34.11900 65.94794 120.20662
#
# Poissons Ratio (x) = 0.31261 0.17776
# Poissons Ratio (y) = 0.16173 0.50187
# Poissons Ratio (z) = 0.05045 0.27534
#
# Static dielectric constant tensor:
#      x y z
#    x 1.848480 0.000000 -0.019400 
#    y 0.000000 1.798570 0.000000 
#    z -0.019400 0.000000 1.884570 
# 
# From -- ./inp_files/2918.got.cif
#   From: 2010.05.17/outbox.cif.g08.bks.cpg/sg9_2_cif.got.tgz:2918.got - 2010.06.03 20:04:27.
