data_PCOD9134068
_publ_section_title
;
Structure prediction by ZEFSAII (Michael W. Deem and Ramdas Pophale) SiO2 
 PCOD9134068
Probable space group: C C
;
_chemical_formula_sum "Si O2"
_cell_formula_units_Z 32
_cell_length_a 6.578179
_cell_length_b 35.469392
_cell_length_c 5.398953
_cell_angle_alpha 90.000000
_cell_angle_beta 102.828438
_cell_angle_gamma 90.000000
_cell_volume 1228.262198
_symmetry_space_group_name_H-M "C C"
_symmetry_group_IT_number 9
_symmetry_cell_setting 'monoclinic'
loop_
_space_group_symop_operation_xyz
x,y,z
x,-y,1/2+z
1/2+x,1/2+y,z
1/2+x,1/2-y,1/2+z
loop_
_atom_site_type_symbol
_atom_site_label
_atom_site_fract_x
_atom_site_fract_y
_atom_site_fract_z
Si Si1 0.723840 0.278771 0.546920
Si Si2 0.474188 0.793318 0.111866
Si Si3 0.526692 0.352950 0.449207
Si Si4 0.930149 0.598558 0.075074
Si Si5 0.865311 0.978077 0.838824
Si Si6 0.359809 0.980289 0.687714
Si Si7 0.997297 0.108023 0.440586
Si Si8 0.004118 0.619622 0.601841
O O1 0.645326 0.236801 0.574848
O O2 0.873410 0.280784 0.347010
O O3 0.536622 0.307992 0.436481
O O4 0.817252 0.292767 0.834352
O O5 0.543616 0.836472 0.157805
O O6 0.437521 0.367451 0.683715
O O7 0.771049 0.366432 0.512523
O O8 0.432564 0.373477 0.185039
O O9 0.795067 0.561178 0.080739
O O10 0.071253 0.605721 0.351424
O O11 0.057170 0.595076 0.856116
O O12 0.946869 0.935890 0.901604
O O13 0.612545 0.977414 0.761728
O O14 0.924513 0.995766 0.589162
O O15 0.305371 0.009073 0.453302
O O16 0.251744 0.112623 0.515481
#
# Coordination Sequence:
#
# PCOD9134068 Si02
#       8
#     4   4   4   4   4   4   4   4
#     4  12  23  43  68  96 133 175 214 273 339 392
#     4  12  23  43  68  96 133 175 214 273 339 392
#     4  10  19  37  59  82 117 153 203 254 307 364
#     4  10  18  35  61  80 112 160 199 245 311 362
#     4  10  21  37  55  82 120 157 198 253 313 372
#     4  10  21  37  55  82 120 157 198 253 313 372
#     4  10  18  35  61  80 112 160 199 245 311 362
#     4  10  19  37  59  82 117 153 203 254 307 364
#
# _framework density 26.053066000000001
#
# number of rings (size 3 to 8) (size 9 to 14) (size 15 to 20)
#    0.000    1.500    5.000    2.250    0.000    0.000 
#    0.000   18.750    0.000    0.000    0.000    0.000 
#    0.000    0.000    0.000    0.000    0.000    0.000 
#
# Total GULP energy -89673.811305 kJ/mol
# GULP energy per Si atom -5604.613207 kJ/mol
# Density = 2.599377 g / cm^3
# Si number density = 26.053066 Si / 1000 Ang^3
#
#
#
# Elastic Constant Matrix: (Units=GPa)
#
#
# Indices 1 2 3 4 5 6 
#
# 1 76.5598 34.1064 36.8585 0.0000 -28.1148 0.0000
# 2 34.1064 172.3159 46.0672 0.0000 -19.4321 0.0000
# 3 36.8585 46.0672 201.0611 0.0000 -41.9075 0.0000
# 4 0.0000 0.0000 0.0000 46.9022 0.0000 -3.6685
# 5 -28.1148 -19.4321 -41.9075 0.0000 61.0124 0.0000
# 6 0.0000 0.0000 0.0000 -3.6685 0.0000 45.1250
#
#
#
# Elastic Compliance Matrix: (Units=1/GPa)
#
#
# Indices 1 2 3 4 5 6 
#
# 1 0.016995 -0.002319 -0.001291 0.000000 0.006206 0.000000
# 2 -0.002319 0.006570 -0.001012 0.000000 0.000329 0.000000
# 3 -0.001291 -0.001012 0.006128 0.000000 0.003292 0.000000
# 4 0.000000 0.000000 0.000000 0.021457 0.000000 0.001744
# 5 0.006206 0.000329 0.003292 0.000000 0.021616 0.000000
# 6 0.000000 0.000000 0.000000 0.001744 0.000000 0.022302
#
#
# Mechanical properties :
#
#
# Convention : Reuss Voigt Hill
#
# Bulk Modulus (GPa) = 48.89739 76.00012 62.44875
# Shear Modulus (GPa) = 44.99285 52.80156 48.89720
#
# Velocity S-wave (km/s) = 4.16019 4.50676 4.33694
# Velocity P-wave (km/s) = 6.47189 7.50439 7.00718
#
# Compressibility (1/GPa) = 0.02045099
#
# Stress axis : x y z
#
# Youngs Moduli (GPa) = 58.83998 152.21101 163.17945
#
# Poissons Ratio (x) = 0.35297 0.21061
# Poissons Ratio (y) = 0.13645 0.16507
# Poissons Ratio (z) = 0.07594 0.15398
#
# Static dielectric constant tensor:
#      x y z
#    x 2.241990 0.000000 0.014680 
#    y 0.000000 1.960410 0.000000 
#    z 0.014680 0.000000 2.075610 
# 
# From -- ./inp_files/1238.got.cif
#   From: 2010.05.17/outbox.cif.g08.bks.cpg/sg9_1_cif.got.tgz:1238.got - 2010.06.03 20:04:27.
