data_PCOD9134294
_publ_section_title
;
Structure prediction by ZEFSAII (Michael W. Deem and Ramdas Pophale) SiO2 
 PCOD9134294
Probable space group: C C
;
_chemical_formula_sum "Si O2"
_cell_formula_units_Z 24
_cell_length_a 25.176071
_cell_length_b 7.619638
_cell_length_c 5.433745
_cell_angle_alpha 90.000000
_cell_angle_beta 66.129148
_cell_angle_gamma 90.000000
_cell_volume 953.204830
_symmetry_space_group_name_H-M "C C"
_symmetry_group_IT_number 9
_symmetry_cell_setting 'monoclinic'
loop_
_space_group_symop_operation_xyz
x,y,z
x,-y,1/2+z
1/2+x,1/2+y,z
1/2+x,1/2-y,1/2+z
loop_
_atom_site_type_symbol
_atom_site_label
_atom_site_fract_x
_atom_site_fract_y
_atom_site_fract_z
Si Si1 0.107500 0.608652 0.042190
Si Si2 0.002027 0.117612 0.741326
Si Si3 0.260658 0.465497 0.090314
Si Si4 0.384524 0.596331 0.825785
Si Si5 0.664417 0.558266 0.280010
Si Si6 0.297893 0.066389 0.009507
O O1 0.106581 0.525532 0.315353
O O2 0.051958 0.738475 0.128231
O O3 0.159693 0.746457 0.890626
O O4 0.938672 0.211115 0.815104
O O5 0.006102 0.980970 0.500212
O O6 0.228400 0.519220 0.395216
O O7 0.288892 0.273781 0.037584
O O8 0.314523 0.607393 0.977338
O O9 0.393787 0.554163 0.520853
O O10 0.638075 0.448788 0.556226
O O11 0.731071 0.495050 0.124583
O O12 0.326491 0.995581 0.203588
#
# Coordination Sequence:
#
# PCOD9134294 Si02
#       6
#     4   4   4   4   4   4
#     4  12  24  36  55  86 116 139 178 239 284 310
#     4  10  19  36  60  77 103 148 188 217 265 339
#     4  10  19  33  56  81 107 142 186 225 267 324
#     4   8  16  30  53  76  97 132 185 222 249 312
#     4  10  21  39  58  78 109 154 189 212 264 345
#     4  10  21  36  56  82 114 145 180 227 277 322
#
# _framework density 25.178222000000002
#
# number of rings (size 3 to 8) (size 9 to 14) (size 15 to 20)
#    0.000    2.000    0.000    4.000    0.000    1.333 
#    0.000    0.000    0.000   54.000    0.000    0.000 
#    0.000    0.000    0.000    0.000    0.000    0.000 
#
# Total GULP energy -66905.943625 kJ/mol
# GULP energy per Si atom -5575.495302 kJ/mol
# Density = 2.512091 g / cm^3
# Si number density = 25.178222 Si / 1000 Ang^3
#
#
#
# Elastic Constant Matrix: (Units=GPa)
#
#
# Indices 1 2 3 4 5 6 
#
# 1 64.4966 7.6345 28.3149 0.0000 0.6145 0.0000
# 2 7.6345 77.6305 49.0630 0.0000 17.3317 0.0000
# 3 28.3149 49.0630 201.5448 0.0000 55.2061 0.0000
# 4 0.0000 0.0000 0.0000 44.2668 0.0000 9.8707
# 5 0.6145 17.3317 55.2061 0.0000 48.2320 0.0000
# 6 0.0000 0.0000 0.0000 9.8707 0.0000 21.4881
#
#
#
# Elastic Compliance Matrix: (Units=1/GPa)
#
#
# Indices 1 2 3 4 5 6 
#
# 1 0.016966 -0.000411 -0.003299 0.000000 0.003708 0.000000
# 2 -0.000411 0.015341 -0.003158 0.000000 -0.001892 0.000000
# 3 -0.003299 -0.003158 0.008553 0.000000 -0.008613 0.000000
# 4 0.000000 0.000000 0.000000 0.025168 0.000000 -0.011561
# 5 0.003708 -0.001892 -0.008613 0.000000 0.031224 0.000000
# 6 0.000000 0.000000 0.000000 -0.011561 0.000000 0.051848
#
#
# Mechanical properties :
#
#
# Convention : Reuss Voigt Hill
#
# Bulk Modulus (GPa) = 36.86940 57.07742 46.97341
# Shear Modulus (GPa) = 29.09021 40.04135 34.56578
#
# Velocity S-wave (km/s) = 3.40276 3.99220 3.70921
# Velocity P-wave (km/s) = 5.48758 6.63090 6.08615
#
# Compressibility (1/GPa) = 0.02712276
#
# Stress axis : x y z
#
# Youngs Moduli (GPa) = 58.94008 65.18680 116.91456
#
# Poissons Ratio (x) = 0.02681 0.38571
# Poissons Ratio (y) = 0.02424 0.36925
# Poissons Ratio (z) = 0.19445 0.20588
#
# Static dielectric constant tensor:
#      x y z
#    x 2.124370 0.000000 -0.059220 
#    y 0.000000 2.036400 0.000000 
#    z -0.059220 0.000000 2.115980 
# 
# From -- ./inp_files/3416.got.cif
#   From: 2010.05.17/outbox.cif.g08.bks.cpg/sg9_2_cif.got.tgz:3416.got - 2010.06.03 20:04:27.
