data_PCOD9134866
_publ_section_title
;
Structure prediction by ZEFSAII (Michael W. Deem and Ramdas Pophale) SiO2 
 PCOD9134866
Probable space group: C C
;
_chemical_formula_sum "Si O2"
_cell_formula_units_Z 24
_cell_length_a 25.005676
_cell_length_b 10.438515
_cell_length_c 5.250113
_cell_angle_alpha 90.000000
_cell_angle_beta 53.531214
_cell_angle_gamma 90.000000
_cell_volume 1102.045858
_symmetry_space_group_name_H-M "C C"
_symmetry_group_IT_number 9
_symmetry_cell_setting 'monoclinic'
loop_
_space_group_symop_operation_xyz
x,y,z
x,-y,1/2+z
1/2+x,1/2+y,z
1/2+x,1/2-y,1/2+z
loop_
_atom_site_type_symbol
_atom_site_label
_atom_site_fract_x
_atom_site_fract_y
_atom_site_fract_z
Si Si1 0.819930 0.968108 0.461580
Si Si2 0.442744 0.073100 0.267871
Si Si3 0.542179 0.414628 0.611941
Si Si4 0.185684 0.918650 0.103552
Si Si5 0.923124 0.798981 0.664419
Si Si6 0.327980 0.817473 0.831313
O O1 0.834777 0.819981 0.448925
O O2 0.781383 0.019747 0.809325
O O3 0.883623 0.064680 0.241190
O O4 0.453806 0.217275 0.344735
O O5 0.363355 0.082088 0.419455
O O6 0.466890 0.981073 0.427893
O O7 0.538471 0.471934 0.906640
O O8 0.481197 0.327260 0.701666
O O9 0.614756 0.353457 0.362133
O O10 0.252526 0.844275 0.978948
O O11 0.186247 0.965096 0.809380
O O12 0.870697 0.705900 0.954283
#
# Coordination Sequence:
#
# PCOD9134866 Si02
#       6
#     4   4   4   4   4   4
#     4  10  20  33  53  87 114 147 192 249 308 345
#     4  12  24  37  54  88 124 164 200 248 309 368
#     4  10  22  40  63  92 126 163 208 262 315 362
#     4  10  23  39  60  89 128 169 207 252 310 372
#     4  11  23  38  63  91 125 157 210 267 309 363
#     4  11  22  37  61  91 127 160 201 258 311 370
#
# _framework density 21.777678000000002
#
# number of rings (size 3 to 8) (size 9 to 14) (size 15 to 20)
#    0.000    1.333    3.333    3.000    4.667    0.000 
#    0.000    0.000    0.000    4.000    0.000    0.000 
#    0.000    0.000    0.000    0.000    0.000    0.000 
#
# Total GULP energy -66849.216331 kJ/mol
# GULP energy per Si atom -5570.768028 kJ/mol
# Density = 2.172811 g / cm^3
# Si number density = 21.777678 Si / 1000 Ang^3
#
#
#
# Elastic Constant Matrix: (Units=GPa)
#
#
# Indices 1 2 3 4 5 6 
#
# 1 78.1018 8.1472 21.6738 0.0000 0.0405 0.0000
# 2 8.1472 72.4789 15.0019 0.0000 -6.0548 0.0000
# 3 21.6738 15.0019 53.9598 0.0000 8.4317 0.0000
# 4 0.0000 0.0000 0.0000 25.7852 0.0000 10.5770
# 5 0.0405 -6.0548 8.4317 0.0000 45.0879 0.0000
# 6 0.0000 0.0000 0.0000 10.5770 0.0000 37.3005
#
#
#
# Elastic Compliance Matrix: (Units=1/GPa)
#
#
# Indices 1 2 3 4 5 6 
#
# 1 0.014470 -0.000321 -0.005886 0.000000 0.001045 0.000000
# 2 -0.000321 0.015000 -0.004487 0.000000 0.002854 0.000000
# 3 -0.005886 -0.004487 0.022907 0.000000 -0.004881 0.000000
# 4 0.000000 0.000000 0.000000 0.043887 0.000000 -0.012445
# 5 0.001045 0.002854 -0.004881 0.000000 0.023474 0.000000
# 6 0.000000 0.000000 0.000000 -0.012445 0.000000 0.030338
#
#
# Mechanical properties :
#
#
# Convention : Reuss Voigt Hill
#
# Bulk Modulus (GPa) = 32.27016 32.68734 32.47875
# Shear Modulus (GPa) = 27.50354 32.28256 29.89305
#
# Velocity S-wave (km/s) = 3.55762 3.85433 3.70894
# Velocity P-wave (km/s) = 5.63256 5.90339 5.76956
#
# Compressibility (1/GPa) = 0.03098838
#
# Stress axis : x y z
#
# Youngs Moduli (GPa) = 69.10754 66.66475 43.65503
#
# Poissons Ratio (x) = 0.02140 0.25696
# Poissons Ratio (y) = 0.02218 0.19590
# Poissons Ratio (z) = 0.40678 0.29915
#
# Static dielectric constant tensor:
#      x y z
#    x 1.847630 0.000000 0.077400 
#    y 0.000000 1.887320 0.000000 
#    z 0.077400 0.000000 1.871970 
# 
# From -- ./inp_files/2861.got.cif
#   From: 2010.05.17/outbox.cif.g08.bks.cpg/sg9_2_cif.got.tgz:2861.got - 2010.06.03 20:04:27.
