data_PCOD9134771
_publ_section_title
;
Structure prediction by ZEFSAII (Michael W. Deem and Ramdas Pophale) SiO2 
 PCOD9134771
Probable space group: C C
;
_chemical_formula_sum "Si O2"
_cell_formula_units_Z 28
_cell_length_a 25.407710
_cell_length_b 11.197995
_cell_length_c 13.945941
_cell_angle_alpha 90.000000
_cell_angle_beta 15.756799
_cell_angle_gamma 90.000000
_cell_volume 1077.484106
_symmetry_space_group_name_H-M "C C"
_symmetry_group_IT_number 9
_symmetry_cell_setting 'monoclinic'
loop_
_space_group_symop_operation_xyz
x,y,z
x,-y,1/2+z
1/2+x,1/2+y,z
1/2+x,1/2-y,1/2+z
loop_
_atom_site_type_symbol
_atom_site_label
_atom_site_fract_x
_atom_site_fract_y
_atom_site_fract_z
Si Si1 0.170700 0.581646 0.286600
Si Si2 0.721027 0.082894 0.858295
Si Si3 0.633901 0.286214 0.137979
Si Si4 0.305189 0.820368 0.355089
Si Si5 0.276313 0.856042 0.090858
Si Si6 0.181602 0.995736 0.933051
Si Si7 0.135178 0.428042 0.170448
O O1 0.268115 0.472370 0.173218
O O2 0.228024 0.718709 0.201930
O O3 0.200883 0.530166 0.127888
O O4 0.933583 0.601638 0.704364
O O5 0.772414 0.191529 0.839060
O O6 0.497610 0.119511 0.228259
O O7 0.733731 0.962831 0.898268
O O8 0.455717 0.223443 0.507098
O O9 0.735619 0.356310 0.048205
O O10 0.576958 0.378479 0.154644
O O11 0.154919 0.901104 0.559926
O O12 0.205476 0.703730 0.573969
O O13 0.162290 0.947672 0.361193
O O14 0.407051 0.950320 0.551632
#
# Coordination Sequence:
#
# PCOD9134771 Si02
#       7
#     4   4   4   4   4   4   4
#     4  10  21  40  63  89 128 168 211 265 322 379
#     4  11  21  40  67  89 131 174 208 265 324 378
#     4  11  22  43  66  93 130 172 215 264 322 385
#     4  10  20  43  64  93 128 166 210 268 324 377
#     4  10  19  41  65  86 129 173 204 268 332 369
#     4  10  21  41  63  91 130 168 210 266 323 379
#     4  10  20  42  66  91 126 167 214 264 319 385
#
# _framework density 25.986463000000001
#
# number of rings (size 3 to 8) (size 9 to 14) (size 15 to 20)
#    0.000    1.714    5.714    2.571    0.000    0.000 
#   15.429    0.000    0.000    0.000    0.000    0.000 
#    0.000    0.000    0.000    0.000    0.000    0.000 
#
# Total GULP energy -78048.422615 kJ/mol
# GULP energy per Si atom -5574.887330 kJ/mol
# Density = 2.592732 g / cm^3
# Si number density = 25.986463 Si / 1000 Ang^3
#
#
#
# Elastic Constant Matrix: (Units=GPa)
#
#
# Indices 1 2 3 4 5 6 
#
# 1 117.9087 46.3324 19.4233 0.0000 7.4959 -0.0002
# 2 46.3324 163.3396 31.1174 0.0006 1.2383 -0.0001
# 3 19.4233 31.1174 29.2092 0.0015 0.7532 0.0001
# 4 0.0000 0.0006 0.0015 53.9899 -0.0001 -1.2068
# 5 7.4959 1.2383 0.7532 -0.0001 31.3032 0.0001
# 6 -0.0002 -0.0001 0.0001 -1.2068 0.0001 65.6548
#
#
#
# Elastic Compliance Matrix: (Units=1/GPa)
#
#
# Indices 1 2 3 4 5 6 
#
# 1 0.010161 -0.001994 -0.004575 0.000000 -0.002244 0.000000
# 2 -0.001994 0.008073 -0.007283 0.000000 0.000333 0.000000
# 3 -0.004575 -0.007283 0.045029 -0.000001 0.000300 0.000000
# 4 0.000000 0.000000 -0.000001 0.018530 0.000000 0.000341
# 5 -0.002244 0.000333 0.000300 0.000000 0.032463 0.000000
# 6 0.000000 0.000000 0.000000 0.000341 0.000000 0.015237
#
#
# Mechanical properties :
#
#
# Convention : Reuss Voigt Hill
#
# Bulk Modulus (GPa) = 28.12190 56.02264 42.07227
# Shear Modulus (GPa) = 29.57738 44.42855 37.00296
#
# Velocity S-wave (km/s) = 3.37736 4.13931 3.77760
# Velocity P-wave (km/s) = 5.10431 6.66712 5.93736
#
# Compressibility (1/GPa) = 0.03555947
#
# Stress axis : x y z
#
# Youngs Moduli (GPa) = 98.41698 123.87517 22.20795
#
# Poissons Ratio (x) = 0.24696 0.10160
# Poissons Ratio (y) = 0.19621 0.16174
# Poissons Ratio (z) = 0.45025 0.90217
#
# Static dielectric constant tensor:
#      x y z
#    x 2.057570 0.000000 -0.088770 
#    y 0.000000 2.051000 0.000000 
#    z -0.088770 0.000000 2.220940 
# 
# From -- ./inp_files/28045.got.cif
#   From: 2010.05.17/outbox.cif.g08.bks.cpg/sg9_15_cif.got.tgz:28045.got - 2010.06.03 20:04:27.
