data_PCOD9134264
_publ_section_title
;
Structure prediction by ZEFSAII (Michael W. Deem and Ramdas Pophale) SiO2 
 PCOD9134264
Probable space group: C C
;
_chemical_formula_sum "Si O2"
_cell_formula_units_Z 32
_cell_length_a 21.098706
_cell_length_b 9.516018
_cell_length_c 9.051215
_cell_angle_alpha 90.000000
_cell_angle_beta 61.261391
_cell_angle_gamma 90.000000
_cell_volume 1593.417471
_symmetry_space_group_name_H-M "C C"
_symmetry_group_IT_number 9
_symmetry_cell_setting 'monoclinic'
loop_
_space_group_symop_operation_xyz
x,y,z
x,-y,1/2+z
1/2+x,1/2+y,z
1/2+x,1/2-y,1/2+z
loop_
_atom_site_type_symbol
_atom_site_label
_atom_site_fract_x
_atom_site_fract_y
_atom_site_fract_z
Si Si1 0.232270 0.531242 0.660350
Si Si2 0.893986 0.910066 0.879364
Si Si3 0.268560 0.798157 0.131193
Si Si4 0.300332 0.989962 0.838318
Si Si5 0.534903 0.101534 0.379827
Si Si6 0.904848 0.614540 0.969602
Si Si7 0.920299 0.171320 0.021442
Si Si8 0.634920 0.971606 0.519030
O O1 0.311757 0.580433 0.530440
O O2 0.235633 0.359036 0.670801
O O3 0.177468 0.566629 0.589720
O O4 0.199076 0.592590 0.847605
O O5 0.893686 0.895794 0.704162
O O6 0.928232 0.773646 0.915599
O O7 0.931874 0.051347 0.888886
O O8 0.256326 0.897400 0.287943
O O9 0.355394 0.770511 0.037821
O O10 0.255503 0.888189 0.997427
O O11 0.350725 0.903180 0.668388
O O12 0.356729 0.072467 0.880930
O O13 0.490944 0.239042 0.469960
O O14 0.583710 0.121964 0.179415
O O15 0.474393 0.983648 0.412071
O O16 0.584454 0.050849 0.458900
#
# Coordination Sequence:
#
# PCOD9134264 Si02
#       8
#     4   4   4   4   4   4   4   4
#     4  10  22  40  58  90 126 154 212 252 301 378
#     4  11  23  35  61  95 124 154 188 268 338 363
#     4  10  20  35  57  87 131 151 196 262 314 367
#     4  10  19  32  56  94 121 162 184 246 336 365
#     4  11  21  40  63  89 122 154 219 250 294 376
#     4  11  20  34  60  94 119 152 200 254 319 371
#     4  11  22  36  56  93 126 156 192 267 324 359
#     4  10  23  38  61  82 111 179 201 249 276 357
#
# _framework density 20.082619000000001
#
# number of rings (size 3 to 8) (size 9 to 14) (size 15 to 20)
#    0.000    1.500    3.750    3.000    5.250    0.000 
#    0.000    0.000    0.000   12.000    0.000    0.000 
#    0.000    0.000    0.000    0.000    0.000    0.000 
#
# Total GULP energy -89327.416772 kJ/mol
# GULP energy per Si atom -5582.963548 kJ/mol
# Density = 2.003691 g / cm^3
# Si number density = 20.082619 Si / 1000 Ang^3
#
#
#
# Elastic Constant Matrix: (Units=GPa)
#
#
# Indices 1 2 3 4 5 6 
#
# 1 57.7340 16.4320 24.3309 0.0000 4.5306 0.0000
# 2 16.4320 75.3343 20.0517 0.0000 9.0219 0.0000
# 3 24.3309 20.0517 118.9134 0.0000 14.9018 0.0000
# 4 0.0000 0.0000 0.0000 25.8746 0.0000 5.7419
# 5 4.5306 9.0219 14.9018 0.0000 30.3428 0.0000
# 6 0.0000 0.0000 0.0000 5.7419 0.0000 14.9917
#
#
#
# Elastic Compliance Matrix: (Units=1/GPa)
#
#
# Indices 1 2 3 4 5 6 
#
# 1 0.019748 -0.003360 -0.003441 0.000000 -0.000259 0.000000
# 2 -0.003360 0.014763 -0.001401 0.000000 -0.003200 0.000000
# 3 -0.003441 -0.001401 0.009839 0.000000 -0.003902 0.000000
# 4 0.000000 0.000000 0.000000 0.042238 0.000000 -0.016177
# 5 -0.000259 -0.003200 -0.003902 0.000000 0.035863 0.000000
# 6 0.000000 0.000000 0.000000 -0.016177 0.000000 0.072900
#
#
# Mechanical properties :
#
#
# Convention : Reuss Voigt Hill
#
# Bulk Modulus (GPa) = 35.78525 41.51231 38.64878
# Shear Modulus (GPa) = 22.61719 26.98629 24.80174
#
# Velocity S-wave (km/s) = 3.35954 3.66971 3.51805
# Velocity P-wave (km/s) = 5.73641 6.21863 5.98238
#
# Compressibility (1/GPa) = 0.02794448
#
# Stress axis : x y z
#
# Youngs Moduli (GPa) = 50.63826 67.73593 101.63836
#
# Poissons Ratio (x) = 0.22762 0.34979
# Poissons Ratio (y) = 0.17016 0.14238
# Poissons Ratio (z) = 0.17427 0.09489
#
# Static dielectric constant tensor:
#      x y z
#    x 1.707080 0.000000 0.005720 
#    y 0.000000 1.737770 0.000000 
#    z 0.005720 0.000000 1.753900 
# 
# From -- ./inp_files/12057.got.cif
#   From: 2010.05.17/outbox.cif.g08.bks.cpg/sg9_7_cif.got.tgz:12057.got - 2010.06.03 20:04:27.
