data_PCOD9134272
_publ_section_title
;
Structure prediction by ZEFSAII (Michael W. Deem and Ramdas Pophale) SiO2 
 PCOD9134272
Probable space group: C C
;
_chemical_formula_sum "Si O2"
_cell_formula_units_Z 32
_cell_length_a 9.722224
_cell_length_b 14.336205
_cell_length_c 12.274497
_cell_angle_alpha 90.000000
_cell_angle_beta 132.890869
_cell_angle_gamma 90.000000
_cell_volume 1253.432345
_symmetry_space_group_name_H-M "C C"
_symmetry_group_IT_number 9
_symmetry_cell_setting 'monoclinic'
loop_
_space_group_symop_operation_xyz
x,y,z
x,-y,1/2+z
1/2+x,1/2+y,z
1/2+x,1/2-y,1/2+z
loop_
_atom_site_type_symbol
_atom_site_label
_atom_site_fract_x
_atom_site_fract_y
_atom_site_fract_z
Si Si1 0.043750 0.823149 0.577140
Si Si2 0.351712 0.634411 0.557586
Si Si3 0.289112 0.330360 0.257479
Si Si4 0.876916 0.288070 0.275025
Si Si5 0.000254 0.670435 0.069847
Si Si6 0.027782 0.975813 0.751402
Si Si7 0.250371 0.163989 0.480689
Si Si8 0.209312 0.519225 0.274644
O O1 0.241569 0.779282 0.720863
O O2 0.989717 0.907788 0.627350
O O3 0.995809 0.841830 0.424422
O O4 0.908989 0.735742 0.530229
O O5 0.236092 0.637463 0.606779
O O6 0.377119 0.741235 0.539100
O O7 0.532722 0.579357 0.703658
O O8 0.280473 0.571733 0.420819
O O9 0.182638 0.407738 0.273638
O O10 0.947141 0.345160 0.416367
O O11 0.058274 0.222081 0.352610
O O12 0.707588 0.214915 0.201080
O O13 0.790239 0.347134 0.129926
O O14 0.020188 0.573606 0.141738
O O15 0.866543 0.972346 0.760478
O O16 0.214128 0.933399 0.903825
#
# Coordination Sequence:
#
# PCOD9134272 Si02
#       8
#     4   4   4   4   4   4   4   4
#     4  12  22  42  68  95 133 176 223 272 332 398
#     4  11  25  42  68  97 137 184 219 267 344 406
#     4  11  27  43  68  95 136 183 221 267 340 407
#     4  10  19  32  65  98 126 162 218 279 333 371
#     4  11  20  39  64  95 132 175 217 269 332 392
#     4  11  21  40  69  94 130 175 226 267 327 406
#     4  11  18  36  64 101 123 168 219 277 327 383
#     4  11  22  44  68  97 129 177 229 272 333 399
#
# _framework density 25.529900000000001
#
# number of rings (size 3 to 8) (size 9 to 14) (size 15 to 20)
#    0.000    1.000    6.250    1.500    1.750    0.000 
#    2.250    0.000    0.000    1.500    0.000    0.000 
#    0.000    0.000    0.000    0.000    0.000    0.000 
#
# Total GULP energy -89209.079268 kJ/mol
# GULP energy per Si atom -5575.567454 kJ/mol
# Density = 2.547179 g / cm^3
# Si number density = 25.529900 Si / 1000 Ang^3
#
#
#
# Elastic Constant Matrix: (Units=GPa)
#
#
# Indices 1 2 3 4 5 6 
#
# 1 31.4135 2.5715 9.8875 0.0000 -10.0626 0.0000
# 2 2.5715 111.0527 45.6127 0.0000 -4.0547 0.0000
# 3 9.8875 45.6127 184.8369 0.0000 -24.3140 0.0000
# 4 0.0000 0.0000 0.0000 42.5528 0.0000 11.6843
# 5 -10.0626 -4.0547 -24.3140 0.0000 32.9125 0.0000
# 6 0.0000 0.0000 0.0000 11.6843 0.0000 24.7093
#
#
#
# Elastic Compliance Matrix: (Units=1/GPa)
#
#
# Indices 1 2 3 4 5 6 
#
# 1 0.035341 -0.000250 -0.000456 0.000000 0.010437 0.000000
# 2 -0.000250 0.010035 -0.002559 0.000000 -0.000731 0.000000
# 3 -0.000456 -0.002559 0.006653 0.000000 0.004460 0.000000
# 4 0.000000 0.000000 0.000000 0.027007 0.000000 -0.012771
# 5 0.010437 -0.000731 0.004460 0.000000 0.036780 0.000000
# 6 0.000000 0.000000 0.000000 -0.012771 0.000000 0.046509
#
#
# Mechanical properties :
#
#
# Convention : Reuss Voigt Hill
#
# Bulk Modulus (GPa) = 21.97872 49.27183 35.62528
# Shear Modulus (GPa) = 27.17089 37.98368 32.57728
#
# Velocity S-wave (km/s) = 3.26587 3.86140 3.57605
# Velocity P-wave (km/s) = 4.78005 6.26276 5.57095
#
# Compressibility (1/GPa) = 0.04549856
#
# Stress axis : x y z
#
# Youngs Moduli (GPa) = 28.29595 99.65180 150.31339
#
# Poissons Ratio (x) = 0.02492 0.06852
# Poissons Ratio (y) = 0.00708 0.38467
# Poissons Ratio (z) = 0.01290 0.25502
#
# Static dielectric constant tensor:
#      x y z
#    x 2.172200 0.000000 -0.015570 
#    y 0.000000 2.110580 0.000000 
#    z -0.015570 0.000000 2.031820 
# 
# From -- ./inp_files/16881.got.cif
#   From: 2010.05.17/outbox.cif.g08.bks.cpg/sg9_9_cif.got.tgz:16881.got - 2010.06.03 20:04:27.
