data_PCOD9134242
_publ_section_title
;
Structure prediction by ZEFSAII (Michael W. Deem and Ramdas Pophale) SiO2 
 PCOD9134242
Probable space group: C C
;
_chemical_formula_sum "Si O2"
_cell_formula_units_Z 32
_cell_length_a 15.437796
_cell_length_b 19.127608
_cell_length_c 5.331403
_cell_angle_alpha 90.000000
_cell_angle_beta 103.493382
_cell_angle_gamma 90.000000
_cell_volume 1530.844325
_symmetry_space_group_name_H-M "C C"
_symmetry_group_IT_number 9
_symmetry_cell_setting 'monoclinic'
loop_
_space_group_symop_operation_xyz
x,y,z
x,-y,1/2+z
1/2+x,1/2+y,z
1/2+x,1/2-y,1/2+z
loop_
_atom_site_type_symbol
_atom_site_label
_atom_site_fract_x
_atom_site_fract_y
_atom_site_fract_z
Si Si1 0.567000 0.354567 0.698080
Si Si2 0.488347 0.336558 0.151539
Si Si3 0.049550 0.685534 0.128452
Si Si4 0.812266 0.247093 0.673978
Si Si5 0.394373 0.983948 0.226875
Si Si6 0.356363 0.825789 0.232137
Si Si7 0.621405 0.806609 0.183049
Si Si8 0.701907 0.538108 0.142822
O O1 0.513364 0.377761 0.416446
O O2 0.579026 0.270835 0.699253
O O3 0.662548 0.390436 0.725506
O O4 0.511539 0.373528 0.907642
O O5 0.554344 0.268893 0.184902
O O6 0.390702 0.304284 0.129634
O O7 0.066749 0.656833 0.419600
O O8 0.115576 0.660368 0.955711
O O9 0.954085 0.678496 0.928928
O O10 0.795883 0.297505 0.420562
O O11 0.722133 0.206117 0.669185
O O12 0.844023 0.284756 0.958261
O O13 0.350720 0.907898 0.183354
O O14 0.446735 0.994750 0.517089
O O15 0.308886 0.035196 0.190789
O O16 0.673432 0.482834 0.341390
#
# Coordination Sequence:
#
# PCOD9134242 Si02
#       8
#     4   4   4   4   4   4   4   4
#     4  10  19  32  50  66 101 147 164 209 267 301
#     4   9  18  33  48  69  98 132 179 210 258 323
#     4   9  18  34  46  72  99 136 174 217 259 328
#     4  11  21  32  53  80 101 136 184 224 267 328
#     4  10  22  35  48  72 107 137 187 222 244 306
#     4  11  21  34  55  69 108 152 175 215 278 307
#     4  10  20  30  51  75 102 128 179 218 263 321
#     4  10  21  32  47  69 104 132 182 217 238 302
#
# _framework density 20.903497999999999
#
# number of rings (size 3 to 8) (size 9 to 14) (size 15 to 20)
#    0.000    2.000    0.000    6.000    7.000    0.000 
#    0.000    0.000    0.000    0.000    0.000    0.000 
#    0.000   20.000    0.000    0.000    0.000    0.000 
#
# Total GULP energy -89097.329784 kJ/mol
# GULP energy per Si atom -5568.583112 kJ/mol
# Density = 2.085592 g / cm^3
# Si number density = 20.903498 Si / 1000 Ang^3
#
#
#
# Elastic Constant Matrix: (Units=GPa)
#
#
# Indices 1 2 3 4 5 6 
#
# 1 69.0407 -7.4692 25.1625 0.0000 -14.6073 0.0000
# 2 -7.4692 12.1471 7.7717 0.0000 1.7401 0.0000
# 3 25.1625 7.7717 122.8856 0.0000 -25.2578 0.0000
# 4 0.0000 0.0000 0.0000 15.4671 0.0000 -5.2074
# 5 -14.6073 1.7401 -25.2578 0.0000 31.0044 0.0000
# 6 0.0000 0.0000 0.0000 -5.2074 0.0000 17.8438
#
#
#
# Elastic Compliance Matrix: (Units=1/GPa)
#
#
# Indices 1 2 3 4 5 6 
#
# 1 0.018194 0.012710 -0.003500 0.000000 0.005007 0.000000
# 2 0.012710 0.097972 -0.010447 0.000000 -0.008022 0.000000
# 3 -0.003500 -0.010447 0.011166 0.000000 0.008034 0.000000
# 4 0.000000 0.000000 0.000000 0.071698 0.000000 0.020924
# 5 0.005007 -0.008022 0.008034 0.000000 0.041608 0.000000
# 6 0.000000 0.000000 0.000000 0.020924 0.000000 0.062148
#
#
# Mechanical properties :
#
#
# Convention : Reuss Voigt Hill
#
# Bulk Modulus (GPa) = 8.00914 28.33369 18.17141
# Shear Modulus (GPa) = 14.41414 24.77028 19.59221
#
# Velocity S-wave (km/s) = 2.62879 3.44609 3.06481
# Velocity P-wave (km/s) = 3.61301 5.42384 4.60825
#
# Compressibility (1/GPa) = 0.12485742
#
# Stress axis : x y z
#
# Youngs Moduli (GPa) = 54.96231 10.20696 89.55451
#
# Poissons Ratio (x) = -0.12973 0.31345
# Poissons Ratio (y) = -0.69855 0.93561
# Poissons Ratio (z) = 0.19238 0.10664
#
# Static dielectric constant tensor:
#      x y z
#    x 1.796020 0.000000 -0.033180 
#    y 0.000000 1.785580 0.000000 
#    z -0.033180 0.000000 1.933290 
# 
# From -- ./inp_files/2701.got.cif
#   From: 2010.05.17/outbox.cif.g08.bks.cpg/sg9_2_cif.got.tgz:2701.got - 2010.06.03 20:04:27.
