data_PCOD9134407
_publ_section_title
;
Structure prediction by ZEFSAII (Michael W. Deem and Ramdas Pophale) SiO2 
 PCOD9134407
Probable space group: C C
;
_chemical_formula_sum "Si O2"
_cell_formula_units_Z 28
_cell_length_a 17.875254
_cell_length_b 6.753142
_cell_length_c 14.925481
_cell_angle_alpha 90.000000
_cell_angle_beta 33.080647
_cell_angle_gamma 90.000000
_cell_volume 983.411008
_symmetry_space_group_name_H-M "C C"
_symmetry_group_IT_number 9
_symmetry_cell_setting 'monoclinic'
loop_
_space_group_symop_operation_xyz
x,y,z
x,-y,1/2+z
1/2+x,1/2+y,z
1/2+x,1/2-y,1/2+z
loop_
_atom_site_type_symbol
_atom_site_label
_atom_site_fract_x
_atom_site_fract_y
_atom_site_fract_z
Si Si1 0.633260 0.739731 0.619490
Si Si2 0.082397 0.698247 0.615404
Si Si3 0.490937 0.133465 0.975970
Si Si4 0.385144 0.271627 0.257071
Si Si5 0.965063 0.064486 0.942084
Si Si6 0.236249 0.387779 0.794149
Si Si7 0.827198 0.267019 0.475498
O O1 0.606995 0.970490 0.622069
O O2 0.787471 0.693247 0.434299
O O3 0.577449 0.680388 0.772684
O O4 0.890898 0.396663 0.491823
O O5 0.146366 0.738187 0.454077
O O6 0.025328 0.145493 0.657351
O O7 0.923223 0.727116 0.791910
O O8 0.526242 0.370740 0.931538
O O9 0.627048 0.005666 0.842606
O O10 0.673403 0.306722 0.600225
O O11 0.420383 0.115899 0.143710
O O12 0.302213 0.440494 0.289198
O O13 0.857755 0.953647 0.982926
O O14 0.865435 0.188228 0.107507
#
# Coordination Sequence:
#
# PCOD9134407 Si02
#       7
#     4   4   4   4   4   4   4
#     4  11  22  40  68 105 133 179 234 291 340 408
#     4  11  23  42  69  95 142 181 235 282 349 418
#     4   9  19  38  67  99 131 182 225 274 353 422
#     4  10  19  35  65  99 134 174 230 274 339 417
#     4   9  21  37  69  97 138 175 232 280 353 405
#     4  10  19  41  67  98 139 182 227 289 350 412
#     4  10  23  41  67  99 137 183 221 292 348 408
#
# _framework density 28.472325999999999
#
# number of rings (size 3 to 8) (size 9 to 14) (size 15 to 20)
#    0.857    1.143    2.857    2.571    0.000    1.143 
#    0.000    4.286    0.000    0.000    0.000    0.000 
#    0.000    0.000    0.000    0.000    0.000    0.000 
#
# Total GULP energy -78427.138298 kJ/mol
# GULP energy per Si atom -5601.938450 kJ/mol
# Density = 2.840752 g / cm^3
# Si number density = 28.472326 Si / 1000 Ang^3
#
#
#
# Elastic Constant Matrix: (Units=GPa)
#
#
# Indices 1 2 3 4 5 6 
#
# 1 139.5174 29.6576 33.9699 -0.0001 -14.0922 -0.0001
# 2 29.6576 74.4059 38.6764 -0.0023 14.6314 0.0017
# 3 33.9699 38.6764 262.6445 -0.0005 30.0549 0.0006
# 4 -0.0001 -0.0023 -0.0005 47.1866 0.0004 12.2136
# 5 -14.0922 14.6314 30.0549 0.0004 50.5856 -0.0001
# 6 -0.0001 0.0017 0.0006 12.2136 -0.0001 41.1643
#
#
#
# Elastic Compliance Matrix: (Units=1/GPa)
#
#
# Indices 1 2 3 4 5 6 
#
# 1 0.008620 -0.003700 -0.001038 0.000000 0.004088 0.000000
# 2 -0.003700 0.016626 -0.001396 0.000001 -0.005010 -0.000001
# 3 -0.001038 -0.001396 0.004436 0.000000 -0.002521 0.000000
# 4 0.000000 0.000001 0.000000 0.022955 -0.000001 -0.006811
# 5 0.004088 -0.005010 -0.002521 -0.000001 0.023854 0.000000
# 6 0.000000 -0.000001 0.000000 -0.006811 0.000000 0.026314
#
#
# Mechanical properties :
#
#
# Convention : Reuss Voigt Hill
#
# Bulk Modulus (GPa) = 57.43038 75.68619 66.55829
# Shear Modulus (GPa) = 41.36426 52.73823 47.05125
#
# Velocity S-wave (km/s) = 3.81568 4.30846 4.06954
# Velocity P-wave (km/s) = 6.29499 7.16872 6.74602
#
# Compressibility (1/GPa) = 0.01741239
#
# Stress axis : x y z
#
# Youngs Moduli (GPa) = 116.01271 60.14784 225.44232
#
# Poissons Ratio (x) = 0.22256 0.23396
# Poissons Ratio (y) = 0.42927 0.31480
# Poissons Ratio (z) = 0.12040 0.08399
#
# Static dielectric constant tensor:
#      x y z
#    x 2.174520 0.000000 0.035160 
#    y 0.000000 2.364400 0.000000 
#    z 0.035160 0.000000 2.182210 
# 
# From -- ./inp_files/17581.got.cif
#   From: 2010.05.17/outbox.cif.g08.bks.cpg/sg9_9_cif.got.tgz:17581.got - 2010.06.03 20:04:27.
