data_PCOD9134765
_publ_section_title
;
Structure prediction by ZEFSAII (Michael W. Deem and Ramdas Pophale) SiO2 
 PCOD9134765
Probable space group: C C
;
_chemical_formula_sum "Si O2"
_cell_formula_units_Z 28
_cell_length_a 30.094869
_cell_length_b 7.620907
_cell_length_c 11.621818
_cell_angle_alpha 90.000000
_cell_angle_beta 22.623259
_cell_angle_gamma 90.000000
_cell_volume 1025.325077
_symmetry_space_group_name_H-M "C C"
_symmetry_group_IT_number 9
_symmetry_cell_setting 'monoclinic'
loop_
_space_group_symop_operation_xyz
x,y,z
x,-y,1/2+z
1/2+x,1/2+y,z
1/2+x,1/2-y,1/2+z
loop_
_atom_site_type_symbol
_atom_site_label
_atom_site_fract_x
_atom_site_fract_y
_atom_site_fract_z
Si Si1 0.463870 0.864945 0.193780
Si Si2 0.290135 0.247966 0.399218
Si Si3 0.191140 0.617088 0.900077
Si Si4 0.613785 0.253072 0.532713
Si Si5 0.513414 0.238749 0.152817
Si Si6 0.789397 0.442202 0.243668
Si Si7 0.927556 0.023280 0.198679
O O1 0.335629 0.930629 0.531076
O O2 0.473147 0.721606 0.071609
O O3 0.528783 0.053178 0.045910
O O4 0.503231 0.756215 0.214015
O O5 0.220775 0.322745 0.456706
O O6 0.214204 0.238373 0.695236
O O7 0.312364 0.049268 0.305137
O O8 0.392247 0.385435 0.183971
O O9 0.117994 0.437627 0.079807
O O10 0.307845 0.566131 0.552290
O O11 0.112250 0.742393 0.010563
O O12 0.661139 0.384408 0.516808
O O13 0.509745 0.409346 0.084138
O O14 0.382977 0.214947 0.515016
#
# Coordination Sequence:
#
# PCOD9134765 Si02
#       7
#     4   4   4   4   4   4   4
#     4   9  20  40  64  87 126 169 203 260 322 372
#     4  11  22  40  64  94 120 164 221 253 319 393
#     4  10  19  41  62  90 125 162 210 269 311 376
#     4  10  22  44  60  92 134 162 210 272 318 380
#     4   9  20  39  64  88 126 170 203 264 317 372
#     4  10  20  42  63  87 132 162 207 268 309 382
#     4  11  21  42  65  90 131 163 210 272 316 379
#
# _framework density 27.308413000000002
#
# number of rings (size 3 to 8) (size 9 to 14) (size 15 to 20)
#    0.857    1.143    4.286    0.000    2.000    0.000 
#   20.571    0.000    0.000    0.000    0.000    0.000 
#    0.000    0.000    0.000    0.000    0.000    0.000 
#
# Total GULP energy -78245.968773 kJ/mol
# GULP energy per Si atom -5588.997769 kJ/mol
# Density = 2.724626 g / cm^3
# Si number density = 27.308413 Si / 1000 Ang^3
#
#
#
# Elastic Constant Matrix: (Units=GPa)
#
#
# Indices 1 2 3 4 5 6 
#
# 1 128.4255 41.2601 43.3815 0.0000 -27.5640 0.0000
# 2 41.2601 86.1121 17.5187 0.0000 -28.1098 0.0000
# 3 43.3815 17.5187 69.5803 0.0000 -17.7249 0.0000
# 4 0.0000 0.0000 0.0000 23.2354 0.0000 -18.9292
# 5 -27.5640 -28.1098 -17.7249 0.0000 55.5197 0.0000
# 6 0.0000 0.0000 0.0000 -18.9292 0.0000 65.3446
#
#
#
# Elastic Compliance Matrix: (Units=1/GPa)
#
#
# Indices 1 2 3 4 5 6 
#
# 1 0.011266 -0.003613 -0.005612 0.000000 0.001973 0.000000
# 2 -0.003613 0.015295 -0.000090 0.000000 0.005922 0.000000
# 3 -0.005612 -0.000090 0.018692 0.000000 0.003136 0.000000
# 4 0.000000 0.000000 0.000000 0.056332 0.000000 0.016318
# 5 0.001973 0.005922 0.003136 0.000000 0.022990 0.000000
# 6 0.000000 0.000000 0.000000 0.016318 0.000000 0.020031
#
#
# Mechanical properties :
#
#
# Convention : Reuss Voigt Hill
#
# Bulk Modulus (GPa) = 37.55996 54.27097 45.91546
# Shear Modulus (GPa) = 29.05097 40.95045 35.00071
#
# Velocity S-wave (km/s) = 3.26515 3.87661 3.58394
# Velocity P-wave (km/s) = 5.29139 6.32091 5.82892
#
# Compressibility (1/GPa) = 0.02662409
#
# Stress axis : x y z
#
# Youngs Moduli (GPa) = 88.75927 65.38065 53.49748
#
# Poissons Ratio (x) = 0.23619 0.30024
# Poissons Ratio (y) = 0.32065 0.00482
# Poissons Ratio (z) = 0.49814 0.00589
#
# Static dielectric constant tensor:
#      x y z
#    x 2.071660 0.000000 0.024340 
#    y 0.000000 2.209030 0.000000 
#    z 0.024340 0.000000 2.197060 
# 
# From -- ./inp_files/17591.got.cif
#   From: 2010.05.17/outbox.cif.g08.bks.cpg/sg9_9_cif.got.tgz:17591.got - 2010.06.03 20:04:27.
