data_PCOD9134506
_publ_section_title
;
Structure prediction by ZEFSAII (Michael W. Deem and Ramdas Pophale) SiO2 
 PCOD9134506
Probable space group: C C
;
_chemical_formula_sum "Si O2"
_cell_formula_units_Z 32
_cell_length_a 19.034512
_cell_length_b 15.268033
_cell_length_c 12.728047
_cell_angle_alpha 90.000000
_cell_angle_beta 20.475792
_cell_angle_gamma 90.000000
_cell_volume 1293.959880
_symmetry_space_group_name_H-M "C C"
_symmetry_group_IT_number 9
_symmetry_cell_setting 'monoclinic'
loop_
_space_group_symop_operation_xyz
x,y,z
x,-y,1/2+z
1/2+x,1/2+y,z
1/2+x,1/2-y,1/2+z
loop_
_atom_site_type_symbol
_atom_site_label
_atom_site_fract_x
_atom_site_fract_y
_atom_site_fract_z
Si Si1 0.453220 0.703518 0.851720
Si Si2 0.704480 0.524096 0.038549
Si Si3 0.723558 0.373058 0.153469
Si Si4 0.148768 0.762613 0.853926
Si Si5 0.872685 0.957587 0.361732
Si Si6 0.348500 0.632785 0.315004
Si Si7 0.360161 0.379691 0.147790
Si Si8 0.946747 0.678694 0.771979
O O1 0.603835 0.679153 0.731505
O O2 0.568724 0.708479 0.579204
O O3 0.307852 0.619799 0.032924
O O4 0.366682 0.798829 0.997909
O O5 0.811107 0.455624 0.968255
O O6 0.603618 0.478296 0.078661
O O7 0.506868 0.558565 0.377313
O O8 0.844028 0.609280 0.837106
O O9 0.551960 0.400725 0.474822
O O10 0.186206 0.659593 0.819147
O O11 0.328262 0.818707 0.549571
O O12 0.974258 0.788327 0.016478
O O13 0.828480 0.922263 0.305851
O O14 0.778191 0.054287 0.488799
O O15 0.410702 0.722836 0.283146
O O16 0.175598 0.655261 0.474176
#
# Coordination Sequence:
#
# PCOD9134506 Si02
#       8
#     4   4   4   4   4   4   4   4
#     4  10  22  39  66  93 127 175 216 270 326 390
#     4  10  22  41  62  91 132 171 220 272 327 386
#     4  11  23  42  64  93 134 172 213 270 330 394
#     4  10  20  37  64  93 125 164 226 274 323 378
#     4  10  21  38  64  89 130 174 216 272 328 383
#     4  12  23  42  65  97 133 178 213 272 336 396
#     4  10  19  37  60  91 127 168 210 283 322 382
#     4  11  24  40  69  99 130 174 224 273 334 395
#
# _framework density 24.730288000000002
#
# number of rings (size 3 to 8) (size 9 to 14) (size 15 to 20)
#    0.000    1.500    1.250    5.250    0.000    2.000 
#    0.000    0.000   27.500    0.000    0.000    0.000 
#    0.000    0.000    0.000    0.000    0.000    0.000 
#
# Total GULP energy -89297.064166 kJ/mol
# GULP energy per Si atom -5581.066510 kJ/mol
# Density = 2.467400 g / cm^3
# Si number density = 24.730288 Si / 1000 Ang^3
#
#
#
# Elastic Constant Matrix: (Units=GPa)
#
#
# Indices 1 2 3 4 5 6 
#
# 1 50.6140 11.8839 8.1665 0.0020 -3.5089 0.0008
# 2 11.8839 145.9227 9.1124 -0.0078 -21.5969 -0.0001
# 3 8.1665 9.1124 32.2057 -0.0084 7.9136 0.0005
# 4 0.0020 -0.0078 -0.0084 29.0830 0.0037 -13.4707
# 5 -3.5089 -21.5969 7.9136 0.0037 19.8028 -0.0002
# 6 0.0008 -0.0001 0.0005 -13.4707 -0.0002 46.1433
#
#
#
# Elastic Compliance Matrix: (Units=1/GPa)
#
#
# Indices 1 2 3 4 5 6 
#
# 1 0.021369 -0.000424 -0.006782 -0.000005 0.006034 -0.000002
# 2 -0.000424 0.008975 -0.005343 -0.000001 0.011848 0.000000
# 3 -0.006782 -0.005343 0.039930 0.000015 -0.022986 0.000004
# 4 -0.000005 -0.000001 0.000015 0.039761 -0.000015 0.011607
# 5 0.006034 0.011848 -0.022986 -0.000015 0.073674 -0.000004
# 6 -0.000002 0.000000 0.000004 0.011607 -0.000004 0.025060
#
#
# Mechanical properties :
#
#
# Convention : Reuss Voigt Hill
#
# Bulk Modulus (GPa) = 22.13514 31.89645 27.01579
# Shear Modulus (GPa) = 20.08641 32.31112 26.19876
#
# Velocity S-wave (km/s) = 2.85304 3.61853 3.25834
# Velocity P-wave (km/s) = 4.45232 5.51218 5.01035
#
# Compressibility (1/GPa) = 0.04517704
#
# Stress axis : x y z
#
# Youngs Moduli (GPa) = 46.79590 111.42523 25.04389
#
# Poissons Ratio (x) = 0.04721 0.16984
# Poissons Ratio (y) = 0.01983 0.13381
# Poissons Ratio (z) = 0.31735 0.59536
#
# Static dielectric constant tensor:
#      x y z
#    x 1.950520 0.000000 0.005950 
#    y 0.000000 2.072060 0.000000 
#    z 0.005950 0.000000 2.076160 
# 
# From -- ./inp_files/7456.got.cif
#   From: 2010.05.17/outbox.cif.g08.bks.cpg/sg9_4_cif.got.tgz:7456.got - 2010.06.03 20:04:27.
