data_PCOD9134967
_publ_section_title
;
Structure prediction by ZEFSAII (Michael W. Deem and Ramdas Pophale) SiO2 
 PCOD9134967
Probable space group: C C
;
_chemical_formula_sum "Si O2"
_cell_formula_units_Z 32
_cell_length_a 8.881404
_cell_length_b 30.741108
_cell_length_c 5.485185
_cell_angle_alpha 90.000000
_cell_angle_beta 117.390387
_cell_angle_gamma 90.000000
_cell_volume 1329.697496
_symmetry_space_group_name_H-M "C C"
_symmetry_group_IT_number 9
_symmetry_cell_setting 'monoclinic'
loop_
_space_group_symop_operation_xyz
x,y,z
x,-y,1/2+z
1/2+x,1/2+y,z
1/2+x,1/2-y,1/2+z
loop_
_atom_site_type_symbol
_atom_site_label
_atom_site_fract_x
_atom_site_fract_y
_atom_site_fract_z
Si Si1 0.456210 0.677991 0.942210
Si Si2 0.215204 0.606874 0.916643
Si Si3 0.762422 0.217495 0.401539
Si Si4 0.614747 0.476468 0.124471
Si Si5 0.043609 0.632732 0.279313
Si Si6 0.138109 0.203368 0.484071
Si Si7 0.192383 0.877581 0.294506
Si Si8 0.735867 0.990508 0.351192
O O1 0.355957 0.643995 0.035499
O O2 0.326767 0.712658 0.729339
O O3 0.528132 0.643543 0.798741
O O4 0.614648 0.703675 0.175662
O O5 0.104828 0.619218 0.594434
O O6 0.288060 0.559612 0.912846
O O7 0.122873 0.605980 0.109284
O O8 0.612047 0.181816 0.278876
O O9 0.939056 0.205601 0.402674
O O10 0.712475 0.260296 0.216251
O O11 0.672175 0.501560 0.413454
O O12 0.663707 0.426074 0.181090
O O13 0.408592 0.481342 0.973119
O O14 0.845108 0.625766 0.098338
O O15 0.227591 0.157731 0.610205
O O16 0.640151 0.002741 0.526827
#
# Coordination Sequence:
#
# PCOD9134967 Si02
#       8
#     4   4   4   4   4   4   4   4
#     4  10  23  42  71 101 135 186 236 292 339 434
#     4  11  23  44  70  98 138 184 238 284 357 410
#     4  10  23  44  62 107 138 184 238 288 352 413
#     4  10  23  40  67  99 136 176 232 293 340 414
#     4  11  25  46  70 100 148 185 229 295 348 429
#     4  11  23  42  72  97 143 182 238 290 349 424
#     4  11  26  43  70 104 141 185 238 285 364 413
#     4  10  20  35  64  98 127 174 227 291 335 409
#
# _framework density 24.065622999999999
#
# number of rings (size 3 to 8) (size 9 to 14) (size 15 to 20)
#    0.000    1.500    1.250    3.000    7.000    2.000 
#    2.250    3.750    0.000    0.000    0.000    0.000 
#    0.000    0.000    0.000    0.000    0.000    0.000 
#
# Total GULP energy -89282.087010 kJ/mol
# GULP energy per Si atom -5580.130438 kJ/mol
# Density = 2.401085 g / cm^3
# Si number density = 24.065623 Si / 1000 Ang^3
#
#
#
# Elastic Constant Matrix: (Units=GPa)
#
#
# Indices 1 2 3 4 5 6 
#
# 1 27.0432 6.1479 7.1151 0.0000 -0.8792 0.0000
# 2 6.1479 175.2834 77.7170 0.0000 12.0164 0.0000
# 3 7.1151 77.7170 129.9713 0.0000 -16.4879 0.0000
# 4 0.0000 0.0000 0.0000 30.1633 0.0000 4.9168
# 5 -0.8792 12.0164 -16.4879 0.0000 31.4218 0.0000
# 6 0.0000 0.0000 0.0000 4.9168 0.0000 8.4988
#
#
#
# Elastic Compliance Matrix: (Units=1/GPa)
#
#
# Indices 1 2 3 4 5 6 
#
# 1 0.037562 -0.000626 -0.001626 0.000000 0.000437 0.000000
# 2 -0.000626 0.008900 -0.006129 0.000000 -0.006637 0.000000
# 3 -0.001626 -0.006129 0.012577 0.000000 0.008898 0.000000
# 4 0.000000 0.000000 0.000000 0.036605 0.000000 -0.021177
# 5 0.000437 -0.006637 0.008898 0.000000 0.039044 0.000000
# 6 0.000000 0.000000 0.000000 -0.021177 0.000000 0.129915
#
#
# Mechanical properties :
#
#
# Convention : Reuss Voigt Hill
#
# Bulk Modulus (GPa) = 23.65465 57.13977 40.39721
# Shear Modulus (GPa) = 16.92283 30.10465 23.51374
#
# Velocity S-wave (km/s) = 2.65466 3.54070 3.12920
# Velocity P-wave (km/s) = 4.38712 6.36477 5.46613
#
# Compressibility (1/GPa) = 0.04227499
#
# Stress axis : x y z
#
# Youngs Moduli (GPa) = 26.62236 112.36480 79.51149
#
# Poissons Ratio (x) = 0.07038 0.12931
# Poissons Ratio (y) = 0.01668 0.48734
# Poissons Ratio (z) = 0.04330 0.68871
#
# Static dielectric constant tensor:
#      x y z
#    x 2.042690 0.000000 -0.207590 
#    y 0.000000 1.899540 0.000000 
#    z -0.207590 0.000000 2.226240 
# 
# From -- ./inp_files/1366.got.cif
#   From: 2010.05.17/outbox.cif.g08.bks.cpg/sg9_1_cif.got.tgz:1366.got - 2010.06.03 20:04:27.
