data_PCOD9134017
_publ_section_title
;
Structure prediction by ZEFSAII (Michael W. Deem and Ramdas Pophale) SiO2 
 PCOD9134017
Probable space group: C C
;
_chemical_formula_sum "Si O2"
_cell_formula_units_Z 28
_cell_length_a 7.147356
_cell_length_b 12.925880
_cell_length_c 17.859227
_cell_angle_alpha 90.000000
_cell_angle_beta 142.649835
_cell_angle_gamma 90.000000
_cell_volume 1000.993348
_symmetry_space_group_name_H-M "C C"
_symmetry_group_IT_number 9
_symmetry_cell_setting 'monoclinic'
loop_
_space_group_symop_operation_xyz
x,y,z
x,-y,1/2+z
1/2+x,1/2+y,z
1/2+x,1/2-y,1/2+z
loop_
_atom_site_type_symbol
_atom_site_label
_atom_site_fract_x
_atom_site_fract_y
_atom_site_fract_z
Si Si1 0.669490 0.820285 0.134270
Si Si2 0.529485 0.353028 0.382915
Si Si3 0.179921 0.584106 0.913517
Si Si4 0.711876 0.312443 0.872017
Si Si5 0.627816 0.133930 0.248898
Si Si6 0.546678 0.711911 0.519813
Si Si7 0.160906 0.021335 0.655583
O O1 0.392324 0.781732 0.099279
O O2 0.891415 0.883804 0.259277
O O3 0.876687 0.726794 0.167778
O O4 0.474439 0.869117 0.004198
O O5 0.414380 0.422772 0.415249
O O6 0.374077 0.239780 0.353131
O O7 0.881544 0.319528 0.487146
O O8 0.121335 0.706526 0.889885
O O9 0.856788 0.527995 0.794062
O O10 0.359823 0.545152 0.042704
O O11 0.386752 0.367654 0.767073
O O12 0.420195 0.032391 0.185869
O O13 0.827425 0.153287 0.388905
O O14 0.584306 0.635540 0.602413
#
# Coordination Sequence:
#
# PCOD9134017 Si02
#       7
#     4   4   4   4   4   4   4
#     4  10  18  34  58  88 112 156 194 240 284 358
#     4   9  20  37  59  87 113 160 200 238 286 366
#     4  10  22  36  60  86 120 156 198 238 302 350
#     4   9  20  37  59  87 113 160 200 238 286 366
#     4  10  20  35  63  84 116 149 199 238 294 350
#     4  10  20  35  63  84 116 149 199 238 294 350
#     4  12  20  36  58  90 118 156 188 254 300 352
#
# _framework density 27.972214999999998
#
# number of rings (size 3 to 8) (size 9 to 14) (size 15 to 20)
#    0.857    1.143    4.286    0.000    0.000    4.571 
#    0.000    0.000    6.286    5.143    0.000    0.000 
#    0.000    0.000    0.000    0.000    0.000    0.000 
#
# Total GULP energy -78228.928250 kJ/mol
# GULP energy per Si atom -5587.780589 kJ/mol
# Density = 2.790855 g / cm^3
# Si number density = 27.972215 Si / 1000 Ang^3
#
#
#
# Elastic Constant Matrix: (Units=GPa)
#
#
# Indices 1 2 3 4 5 6 
#
# 1 108.6352 30.5583 32.0106 0.0002 45.6257 0.0000
# 2 30.5583 84.0276 34.0005 -0.0001 16.8099 0.0000
# 3 32.0106 34.0005 219.7221 0.0013 9.2723 0.0006
# 4 0.0002 -0.0001 0.0013 22.5376 0.0004 17.6797
# 5 45.6257 16.8099 9.2723 0.0004 35.4825 0.0000
# 6 0.0000 0.0000 0.0006 17.6797 0.0000 30.0070
#
#
#
# Elastic Compliance Matrix: (Units=1/GPa)
#
#
# Indices 1 2 3 4 5 6 
#
# 1 0.021019 -0.001811 -0.001696 0.000001 -0.025727 0.000000
# 2 -0.001811 0.014039 -0.001745 0.000000 -0.003866 0.000000
# 3 -0.001696 -0.001745 0.004997 0.000000 0.001702 0.000000
# 4 0.000001 0.000000 0.000000 0.082502 -0.000002 -0.048609
# 5 -0.025727 -0.003866 0.001702 -0.000002 0.062651 0.000001
# 6 0.000000 0.000000 0.000000 -0.048609 0.000001 0.061965
#
#
# Mechanical properties :
#
#
# Convention : Reuss Voigt Hill
#
# Bulk Modulus (GPa) = 33.84147 67.28042 50.56094
# Shear Modulus (GPa) = 18.68955 38.65978 28.67467
#
# Velocity S-wave (km/s) = 2.58766 3.72166 3.20521
# Velocity P-wave (km/s) = 4.58830 6.52476 5.64026
#
# Compressibility (1/GPa) = 0.02954954
#
# Stress axis : x y z
#
# Youngs Moduli (GPa) = 47.57510 71.22920 200.13641
#
# Poissons Ratio (x) = 0.12900 0.33950
# Poissons Ratio (y) = 0.08616 0.34933
# Poissons Ratio (z) = 0.08070 0.12433
#
# Static dielectric constant tensor:
#      x y z
#    x 2.224150 0.000000 -0.055490 
#    y 0.000000 2.204920 0.000000 
#    z -0.055490 0.000000 2.194500 
# 
# From -- ./inp_files/14877.got.cif
#   From: 2010.05.17/outbox.cif.g08.bks.cpg/sg9_8_cif.got.tgz:14877.got - 2010.06.03 20:04:27.
