data_PCOD9134380
_publ_section_title
;
Structure prediction by ZEFSAII (Michael W. Deem and Ramdas Pophale) SiO2 
 PCOD9134380
Probable space group: C C
;
_chemical_formula_sum "Si O2"
_cell_formula_units_Z 28
_cell_length_a 18.578974
_cell_length_b 9.313663
_cell_length_c 17.370178
_cell_angle_alpha 90.000000
_cell_angle_beta 25.245620
_cell_angle_gamma 90.000000
_cell_volume 1281.932449
_symmetry_space_group_name_H-M "C C"
_symmetry_group_IT_number 9
_symmetry_cell_setting 'monoclinic'
loop_
_space_group_symop_operation_xyz
x,y,z
x,-y,1/2+z
1/2+x,1/2+y,z
1/2+x,1/2-y,1/2+z
loop_
_atom_site_type_symbol
_atom_site_label
_atom_site_fract_x
_atom_site_fract_y
_atom_site_fract_z
Si Si1 0.157390 0.886895 0.057210
Si Si2 0.252523 0.408670 0.276057
Si Si3 0.412588 0.452442 0.891225
Si Si4 0.875738 0.570975 0.499444
Si Si5 0.955277 0.329548 0.668382
Si Si6 0.757895 0.153998 0.163408
Si Si7 0.221658 0.771642 0.650545
O O1 0.071719 0.732417 0.124850
O O2 0.278427 0.894189 0.014180
O O3 0.288163 0.908952 0.860421
O O4 0.003460 0.994949 0.225724
O O5 0.389202 0.315575 0.190338
O O6 0.302943 0.564060 0.195904
O O7 0.221499 0.317878 0.228515
O O8 0.080618 0.413910 0.491506
O O9 0.551595 0.358620 0.801306
O O10 0.369972 0.590501 0.984607
O O11 0.257667 0.340458 0.045809
O O12 0.781605 0.676851 0.649759
O O13 0.854931 0.401573 0.529673
O O14 0.068748 0.615297 0.320951
#
# Coordination Sequence:
#
# PCOD9134380 Si02
#       7
#     4   4   4   4   4   4   4
#     4  10  21  35  56  87 115 154 195 229 284 338
#     4  10  20  36  59  86 111 151 196 230 283 340
#     4  10  20  35  57  85 114 142 186 240 286 334
#     4  11  21  35  59  88 119 145 183 245 299 335
#     4  10  20  36  58  81 119 159 193 229 267 353
#     4  11  21  34  56  88 117 143 185 243 289 333
#     4  10  19  35  59  87 115 144 184 242 294 335
#
# _framework density 21.842025
#
# number of rings (size 3 to 8) (size 9 to 14) (size 15 to 20)
#    0.000    1.714    0.000    7.714    0.000    1.143 
#    0.000    0.000    0.000   24.000    0.000    0.000 
#    0.000    0.000    0.000    0.000    0.000    0.000 
#
# Total GULP energy -78121.171911 kJ/mol
# GULP energy per Si atom -5580.083708 kJ/mol
# Density = 2.179231 g / cm^3
# Si number density = 21.842025 Si / 1000 Ang^3
#
#
#
# Elastic Constant Matrix: (Units=GPa)
#
#
# Indices 1 2 3 4 5 6 
#
# 1 40.6156 3.1346 -5.3724 0.0000 4.3113 0.0000
# 2 3.1346 96.5933 24.3754 0.0000 23.2744 0.0000
# 3 -5.3724 24.3754 92.2337 -0.0001 13.8628 0.0001
# 4 0.0000 0.0000 -0.0001 51.0239 0.0000 2.3910
# 5 4.3113 23.2744 13.8628 0.0000 29.8903 0.0000
# 6 0.0000 0.0000 0.0001 2.3910 0.0000 18.7833
#
#
#
# Elastic Compliance Matrix: (Units=1/GPa)
#
#
# Indices 1 2 3 4 5 6 
#
# 1 0.025414 -0.000314 0.002233 0.000000 -0.004457 0.000000
# 2 -0.000314 0.013106 -0.002101 0.000000 -0.009185 0.000000
# 3 0.002233 -0.002101 0.012179 0.000000 -0.004334 0.000000
# 4 0.000000 0.000000 0.000000 0.019716 0.000000 -0.002510
# 5 -0.004457 -0.009185 -0.004334 0.000000 0.043261 0.000000
# 6 0.000000 0.000000 0.000000 -0.002510 0.000000 0.053558
#
#
# Mechanical properties :
#
#
# Convention : Reuss Voigt Hill
#
# Bulk Modulus (GPa) = 19.86736 30.41308 25.14022
# Shear Modulus (GPa) = 27.11820 33.75984 30.43902
#
# Velocity S-wave (km/s) = 3.52740 3.93572 3.73714
# Velocity P-wave (km/s) = 5.07008 5.88282 5.49151
#
# Compressibility (1/GPa) = 0.05033380
#
# Stress axis : x y z
#
# Youngs Moduli (GPa) = 39.34868 76.29818 82.10902
#
# Poissons Ratio (x) = 0.02399 -0.18337
# Poissons Ratio (y) = 0.01237 0.17255
# Poissons Ratio (z) = -0.08787 0.16034
#
# Static dielectric constant tensor:
#      x y z
#    x 1.805040 0.000000 -0.011560 
#    y 0.000000 1.811360 0.000000 
#    z -0.011560 0.000000 1.897310 
# 
# From -- ./inp_files/11198.got.cif
#   From: 2010.05.17/outbox.cif.g08.bks.cpg/sg9_6_cif.got.tgz:11198.got - 2010.06.03 20:04:27.
