data_PCOD9134734
_publ_section_title
;
Structure prediction by ZEFSAII (Michael W. Deem and Ramdas Pophale) SiO2 
 PCOD9134734
Probable space group: C C
;
_chemical_formula_sum "Si O2"
_cell_formula_units_Z 28
_cell_length_a 20.047479
_cell_length_b 14.524273
_cell_length_c 7.715672
_cell_angle_alpha 90.000000
_cell_angle_beta 30.863296
_cell_angle_gamma 90.000000
_cell_volume 1152.492393
_symmetry_space_group_name_H-M "C C"
_symmetry_group_IT_number 9
_symmetry_cell_setting 'monoclinic'
loop_
_space_group_symop_operation_xyz
x,y,z
x,-y,1/2+z
1/2+x,1/2+y,z
1/2+x,1/2-y,1/2+z
loop_
_atom_site_type_symbol
_atom_site_label
_atom_site_fract_x
_atom_site_fract_y
_atom_site_fract_z
Si Si1 0.218030 0.685743 0.864000
Si Si2 0.775253 0.564251 0.488693
Si Si3 0.694610 0.257719 0.307797
Si Si4 0.924663 0.866092 0.363917
Si Si5 0.720890 0.371703 0.732256
Si Si6 0.308875 0.510148 0.822453
Si Si7 0.070101 0.374424 0.369053
O O1 0.285309 0.771986 0.615945
O O2 0.305321 0.596217 0.697315
O O3 0.102664 0.657971 0.991614
O O4 0.176209 0.720308 0.150123
O O5 0.693974 0.631313 0.800096
O O6 0.781588 0.454927 0.493461
O O7 0.716242 0.586749 0.434736
O O8 0.922743 0.598469 0.169593
O O9 0.607462 0.202287 0.640171
O O10 0.840143 0.225560 0.039473
O O11 0.850800 0.935589 0.399449
O O12 0.904992 0.924317 0.582010
O O13 0.074934 0.856073 0.991330
O O14 0.166828 0.462478 0.131706
#
# Coordination Sequence:
#
# PCOD9134734 Si02
#       7
#     4   4   4   4   4   4   4
#     4  10  22  43  69 100 137 179 235 282 361 414
#     4  11  26  45  64 107 145 186 236 292 363 423
#     4   9  23  45  69 103 135 183 247 291 346 430
#     4  10  19  40  66  92 129 176 230 285 339 417
#     4  11  25  43  63  98 144 185 228 287 356 422
#     4  10  20  38  70 100 124 172 243 284 342 412
#     4  11  23  44  75 104 138 187 231 307 353 416
#
# _framework density 24.295172000000001
#
# number of rings (size 3 to 8) (size 9 to 14) (size 15 to 20)
#    0.000    1.714    1.429    1.714    4.000    0.000 
#    7.714    5.714    0.000    0.000    0.000    0.000 
#    0.000    0.000    0.000    0.000    0.000    0.000 
#
# Total GULP energy -78166.146146 kJ/mol
# GULP energy per Si atom -5583.296153 kJ/mol
# Density = 2.423987 g / cm^3
# Si number density = 24.295172 Si / 1000 Ang^3
#
#
#
# Elastic Constant Matrix: (Units=GPa)
#
#
# Indices 1 2 3 4 5 6 
#
# 1 90.4394 28.1997 20.8728 0.0000 7.1261 0.0000
# 2 28.1997 133.4721 14.6724 0.0000 1.1525 0.0000
# 3 20.8728 14.6724 50.8552 0.0000 -14.5010 0.0000
# 4 0.0000 0.0000 0.0000 16.7037 0.0000 8.3865
# 5 7.1261 1.1525 -14.5010 0.0000 23.0204 0.0000
# 6 0.0000 0.0000 0.0000 8.3865 0.0000 33.2677
#
#
#
# Elastic Compliance Matrix: (Units=1/GPa)
#
#
# Indices 1 2 3 4 5 6 
#
# 1 0.014257 -0.002063 -0.007905 0.000000 -0.009290 0.000000
# 2 -0.002063 0.008127 -0.001746 0.000000 -0.000868 0.000000
# 3 -0.007905 -0.001746 0.029419 0.000000 0.021066 0.000000
# 4 0.000000 0.000000 0.000000 0.068542 0.000000 -0.017279
# 5 -0.009290 -0.000868 0.021066 0.000000 0.059628 0.000000
# 6 0.000000 0.000000 0.000000 -0.017279 0.000000 0.034415
#
#
# Mechanical properties :
#
#
# Convention : Reuss Voigt Hill
#
# Bulk Modulus (GPa) = 35.24184 44.69515 39.96850
# Shear Modulus (GPa) = 20.22045 28.66651 24.44348
#
# Velocity S-wave (km/s) = 2.88806 3.43873 3.17536
# Velocity P-wave (km/s) = 5.06541 5.84835 5.47090
#
# Compressibility (1/GPa) = 0.02837536
#
# Stress axis : x y z
#
# Youngs Moduli (GPa) = 70.14208 123.03994 33.99210
#
# Poissons Ratio (x) = 0.25382 0.26871
# Poissons Ratio (y) = 0.14470 0.05934
# Poissons Ratio (z) = 0.55448 0.21479
#
# Static dielectric constant tensor:
#      x y z
#    x 2.024820 0.000000 0.098310 
#    y 0.000000 2.007240 0.000000 
#    z 0.098310 0.000000 1.942380 
# 
# From -- ./inp_files/7242.got.cif
#   From: 2010.05.17/outbox.cif.g08.bks.cpg/sg9_4_cif.got.tgz:7242.got - 2010.06.03 20:04:27.
