data_PCOD9134994
_publ_section_title
;
Structure prediction by ZEFSAII (Michael W. Deem and Ramdas Pophale) SiO2 
 PCOD9134994
Probable space group: C C
;
_chemical_formula_sum "Si O2"
_cell_formula_units_Z 32
_cell_length_a 19.306144
_cell_length_b 11.369007
_cell_length_c 7.910886
_cell_angle_alpha 90.000000
_cell_angle_beta 122.765856
_cell_angle_gamma 90.000000
_cell_volume 1460.098023
_symmetry_space_group_name_H-M "C C"
_symmetry_group_IT_number 9
_symmetry_cell_setting 'monoclinic'
loop_
_space_group_symop_operation_xyz
x,y,z
x,-y,1/2+z
1/2+x,1/2+y,z
1/2+x,1/2-y,1/2+z
loop_
_atom_site_type_symbol
_atom_site_label
_atom_site_fract_x
_atom_site_fract_y
_atom_site_fract_z
Si Si1 0.793220 0.725858 0.313420
Si Si2 0.058892 0.344208 0.229060
Si Si3 0.355740 0.015424 0.013144
Si Si4 0.755758 0.166415 0.425585
Si Si5 0.471572 0.949164 0.428655
Si Si6 0.250157 0.401171 0.539276
Si Si7 0.676206 0.380556 0.201886
Si Si8 0.630434 0.380124 0.749640
O O1 0.850940 0.621953 0.451883
O O2 0.796973 0.833166 0.450974
O O3 0.700413 0.671030 0.215013
O O4 0.806192 0.765144 0.138052
O O5 0.012423 0.367476 0.344312
O O6 0.154808 0.364802 0.394433
O O7 0.055179 0.211460 0.154865
O O8 0.029873 0.442960 0.058077
O O9 0.383003 0.993255 0.241418
O O10 0.433652 0.094581 0.054193
O O11 0.267849 0.072825 0.867692
O O12 0.782518 0.138531 0.267139
O O13 0.676085 0.251466 0.286313
O O14 0.746059 0.039969 0.500012
O O15 0.616256 0.483377 0.187849
O O16 0.667397 0.377097 0.988606
#
# Coordination Sequence:
#
# PCOD9134994 Si02
#       8
#     4   4   4   4   4   4   4   4
#     4  10  20  36  58  88 128 160 202 278 324 386
#     4  10  21  38  54  89 128 161 215 259 316 395
#     4  10  20  38  58  96 119 158 225 257 317 389
#     4  12  21  34  59  92 126 172 201 257 346 390
#     4  10  21  35  61  86 120 175 204 264 307 369
#     4  11  22  36  56  93 131 164 210 262 336 388
#     4  11  20  36  62  94 126 161 207 277 343 378
#     4  10  21  37  56  92 128 159 206 270 341 387
#
# _framework density 21.916339000000001
#
# number of rings (size 3 to 8) (size 9 to 14) (size 15 to 20)
#    0.000    1.500    3.750    4.500    1.750    0.000 
#    0.000    0.000    0.000    0.000   26.000    0.000 
#    0.000    0.000    0.000    0.000    0.000    0.000 
#
# Total GULP energy -89068.694858 kJ/mol
# GULP energy per Si atom -5566.793429 kJ/mol
# Density = 2.186646 g / cm^3
# Si number density = 21.916339 Si / 1000 Ang^3
#
#
#
# Elastic Constant Matrix: (Units=GPa)
#
#
# Indices 1 2 3 4 5 6 
#
# 1 45.9057 31.9684 3.5140 0.0000 -8.8525 0.0000
# 2 31.9684 131.5747 26.6158 0.0000 -23.7427 0.0000
# 3 3.5140 26.6158 91.6040 0.0000 -17.5489 0.0000
# 4 0.0000 0.0000 0.0000 10.1712 0.0000 16.2636
# 5 -8.8525 -23.7427 -17.5489 0.0000 24.5267 0.0000
# 6 0.0000 0.0000 0.0000 16.2636 0.0000 -0.1844
#
#
#
# Elastic Compliance Matrix: (Units=1/GPa)
#
#
# Indices 1 2 3 4 5 6 
#
# 1 0.026765 -0.005916 0.001675 0.000000 0.005132 0.000000
# 2 -0.005916 0.010617 -0.001504 0.000000 0.007066 0.000000
# 3 0.001675 -0.001504 0.012894 0.000000 0.008374 0.000000
# 4 0.000000 0.000000 0.000000 0.000692 0.000000 0.061054
# 5 0.005132 0.007066 0.008374 0.000000 0.055456 0.000000
# 6 0.000000 0.000000 0.000000 0.061054 0.000000 -0.038183
#
#
# Mechanical properties :
#
#
# Convention : Reuss Voigt Hill
#
# Bulk Modulus (GPa) = 25.78230 43.69785 34.74007
# Shear Modulus (GPa) = 53.96133 20.70177 37.33155
#
# Velocity S-wave (km/s) = 4.96739 3.07674 4.13166
# Velocity P-wave (km/s) = 6.68502 5.70995 6.21663
#
# Compressibility (1/GPa) = 0.03878630
#
# Stress axis : x y z
#
# Youngs Moduli (GPa) = 37.36225 94.18899 77.55815
#
# Poissons Ratio (x) = 0.55720 -0.12994
# Poissons Ratio (y) = 0.22103 0.11666
# Poissons Ratio (z) = -0.06259 0.14168
#
# Static dielectric constant tensor:
#      x y z
#    x 1.831870 0.000000 -0.040520 
#    y 0.000000 1.919840 0.000000 
#    z -0.040520 0.000000 1.850830 
# 
# From -- ./inp_files/12144.got.cif
#   From: 2010.05.17/outbox.cif.g08.bks.cpg/sg9_7_cif.got.tgz:12144.got - 2010.06.03 20:04:27.
