data_PCOD9134010
_publ_section_title
;
Structure prediction by ZEFSAII (Michael W. Deem and Ramdas Pophale) SiO2 
 PCOD9134010
Probable space group: C C
;
_chemical_formula_sum "Si O2"
_cell_formula_units_Z 32
_cell_length_a 18.651205
_cell_length_b 14.040066
_cell_length_c 13.278833
_cell_angle_alpha 90.000000
_cell_angle_beta 156.229932
_cell_angle_gamma 90.000000
_cell_volume 1401.565737
_symmetry_space_group_name_H-M "C C"
_symmetry_group_IT_number 9
_symmetry_cell_setting 'monoclinic'
loop_
_space_group_symop_operation_xyz
x,y,z
x,-y,1/2+z
1/2+x,1/2+y,z
1/2+x,1/2-y,1/2+z
loop_
_atom_site_type_symbol
_atom_site_label
_atom_site_fract_x
_atom_site_fract_y
_atom_site_fract_z
Si Si1 0.661370 0.140276 0.439040
Si Si2 0.535473 0.620383 0.130042
Si Si3 0.747065 0.252617 0.750621
Si Si4 0.419824 0.513517 0.308832
Si Si5 0.073613 0.789834 0.992807
Si Si6 0.344600 0.882341 0.187058
Si Si7 0.276234 0.801799 0.457402
Si Si8 0.260116 0.924556 0.632234
O O1 0.671831 0.187521 0.563535
O O2 0.735645 0.034652 0.540412
O O3 0.790972 0.200857 0.533457
O O4 0.459461 0.157602 0.148279
O O5 0.601462 0.696983 0.131988
O O6 0.702173 0.601326 0.414994
O O7 0.377759 0.681518 0.978407
O O8 0.467371 0.527964 0.981569
O O9 0.828364 0.344889 0.797440
O O10 0.428336 0.625762 0.306389
O O11 0.580291 0.470325 0.446749
O O12 0.002039 0.688920 0.863283
O O13 0.235509 0.827307 0.133407
O O14 0.140051 0.786635 0.192825
O O15 0.393821 0.987644 0.287825
O O16 0.221428 0.873132 0.476611
#
# Coordination Sequence:
#
# PCOD9134010 Si02
#       8
#     4   4   4   4   4   4   4   4
#     4  10  19  34  61  91 112 139 186 236 282 333
#     4  10  18  34  57  80 105 142 179 223 278 326
#     4   9  17  32  57  84 107 131 177 235 277 321
#     4   9  20  38  59  82 111 142 186 240 284 326
#     4  11  24  40  54  79 118 154 188 229 274 332
#     4  11  23  38  54  77 113 154 189 225 272 330
#     4  11  20  36  60  85 113 151 185 226 281 335
#     4   9  19  36  58  82 109 143 184 232 280 327
#
# _framework density 22.831607999999999
#
# number of rings (size 3 to 8) (size 9 to 14) (size 15 to 20)
#    0.000    2.000    0.000    6.000    0.000    1.000 
#    0.000    5.000    0.000    6.000    0.000    0.000 
#    0.000    0.000    0.000    0.000    0.000    0.000 
#
# Total GULP energy -89383.621934 kJ/mol
# GULP energy per Si atom -5586.476371 kJ/mol
# Density = 2.277964 g / cm^3
# Si number density = 22.831608 Si / 1000 Ang^3
#
#
#
# Elastic Constant Matrix: (Units=GPa)
#
#
# Indices 1 2 3 4 5 6 
#
# 1 38.3325 -6.6416 -4.8147 0.0000 -5.6543 0.0000
# 2 -6.6416 67.4000 17.1518 0.0000 -4.4376 0.0000
# 3 -4.8147 17.1518 58.9113 0.0000 -4.3268 0.0000
# 4 0.0000 0.0000 0.0000 19.2110 0.0000 10.3838
# 5 -5.6543 -4.4376 -4.3268 0.0000 19.2970 0.0000
# 6 0.0000 0.0000 0.0000 10.3838 0.0000 20.3018
#
#
#
# Elastic Compliance Matrix: (Units=1/GPa)
#
#
# Indices 1 2 3 4 5 6 
#
# 1 0.028243 0.002851 0.002170 0.000000 0.009418 0.000000
# 2 0.002851 0.016450 -0.004288 0.000000 0.003657 0.000000
# 3 0.002170 -0.004288 0.018682 0.000000 0.003839 0.000000
# 4 0.000000 0.000000 0.000000 0.071943 0.000000 -0.036797
# 5 0.009418 0.003657 0.003839 0.000000 0.056283 0.000000
# 6 0.000000 0.000000 0.000000 -0.036797 0.000000 0.068077
#
#
# Mechanical properties :
#
#
# Convention : Reuss Voigt Hill
#
# Bulk Modulus (GPa) = 15.42221 19.55942 17.49082
# Shear Modulus (GPa) = 17.86831 22.35851 20.11341
#
# Velocity S-wave (km/s) = 2.80056 3.13274 2.97129
# Velocity P-wave (km/s) = 4.15053 4.65519 4.41009
#
# Compressibility (1/GPa) = 0.06484154
#
# Stress axis : x y z
#
# Youngs Moduli (GPa) = 35.40673 60.79171 53.52659
#
# Poissons Ratio (x) = -0.17332 -0.11615
# Poissons Ratio (y) = -0.10094 0.22950
# Poissons Ratio (z) = -0.07683 0.26065
#
# Static dielectric constant tensor:
#      x y z
#    x 1.883100 0.000000 0.033990 
#    y 0.000000 1.840150 0.000000 
#    z 0.033990 0.000000 1.890270 
# 
# From -- ./inp_files/7432.got.cif
#   From: 2010.05.17/outbox.cif.g08.bks.cpg/sg9_4_cif.got.tgz:7432.got - 2010.06.03 20:04:27.
