data_PCOD9134048
_publ_section_title
;
Structure prediction by ZEFSAII (Michael W. Deem and Ramdas Pophale) SiO2 
 PCOD9134048
Probable space group: C C
;
_chemical_formula_sum "Si O2"
_cell_formula_units_Z 24
_cell_length_a 31.485372
_cell_length_b 7.094560
_cell_length_c 5.251252
_cell_angle_alpha 90.000000
_cell_angle_beta 70.193316
_cell_angle_gamma 90.000000
_cell_volume 1103.604603
_symmetry_space_group_name_H-M "C C"
_symmetry_group_IT_number 9
_symmetry_cell_setting 'monoclinic'
loop_
_space_group_symop_operation_xyz
x,y,z
x,-y,1/2+z
1/2+x,1/2+y,z
1/2+x,1/2-y,1/2+z
loop_
_atom_site_type_symbol
_atom_site_label
_atom_site_fract_x
_atom_site_fract_y
_atom_site_fract_z
Si Si1 0.714990 0.627604 0.539230
Si Si2 0.815943 0.624441 0.270711
Si Si3 0.587479 0.777402 0.153844
Si Si4 0.987162 0.625297 0.929079
Si Si5 0.401214 0.615344 0.705645
Si Si6 0.124354 0.705980 0.079454
O O1 0.710930 0.470911 0.322903
O O2 0.765631 0.707549 0.407718
O O3 0.675382 0.777223 0.571961
O O4 0.819562 0.463283 0.481256
O O5 0.856098 0.767778 0.239792
O O6 0.535957 0.776100 0.345599
O O7 0.618773 0.701693 0.314944
O O8 0.604950 0.994769 0.082947
O O9 0.593891 0.699195 0.858990
O O10 0.985313 0.530003 0.655637
O O11 0.945347 0.761795 0.056831
O O12 0.401830 0.447281 0.498124
#
# Coordination Sequence:
#
# PCOD9134048 Si02
#       6
#     4   4   4   4   4   4
#     4  10  21  37  59  87 122 158 199 242 302 363
#     4  10  21  43  68  90 119 170 214 244 299 393
#     4  10  19  35  59  80 116 148 212 238 277 355
#     4  12  21  41  69  87 117 171 216 250 295 382
#     4  12  26  43  61  97 132 151 201 273 327 357
#     4  10  18  35  54  87 114 148 194 257 274 340
#
# _framework density 21.746918999999998
#
# number of rings (size 3 to 8) (size 9 to 14) (size 15 to 20)
#    0.000    1.333    3.333    4.000    0.000    0.000 
#    6.000    5.000    0.000    0.000    0.000    0.000 
#    0.000    0.000    0.000    0.000    0.000    0.000 
#
# Total GULP energy -67051.985608 kJ/mol
# GULP energy per Si atom -5587.665467 kJ/mol
# Density = 2.169742 g / cm^3
# Si number density = 21.746919 Si / 1000 Ang^3
#
#
#
# Elastic Constant Matrix: (Units=GPa)
#
#
# Indices 1 2 3 4 5 6 
#
# 1 126.3067 12.1146 1.9696 0.0000 -30.5330 0.0000
# 2 12.1146 19.0749 -8.1598 0.0000 -11.8606 0.0000
# 3 1.9696 -8.1598 92.3481 0.0000 6.8476 0.0000
# 4 0.0000 0.0000 0.0000 17.6548 0.0000 -1.2874
# 5 -30.5330 -11.8606 6.8476 0.0000 49.0453 0.0000
# 6 0.0000 0.0000 0.0000 -1.2874 0.0000 47.1328
#
#
#
# Elastic Compliance Matrix: (Units=1/GPa)
#
#
# Indices 1 2 3 4 5 6 
#
# 1 0.009508 -0.003125 -0.000871 0.000000 0.005285 0.000000
# 2 -0.003125 0.064544 0.004806 0.000000 0.012992 0.000000
# 3 -0.000871 0.004806 0.011343 0.000000 -0.000964 0.000000
# 4 0.000000 0.000000 0.000000 0.056755 0.000000 0.001550
# 5 0.005285 0.012992 -0.000964 0.000000 0.026956 0.000000
# 6 0.000000 0.000000 0.000000 0.001550 0.000000 0.021259
#
#
# Mechanical properties :
#
#
# Convention : Reuss Voigt Hill
#
# Bulk Modulus (GPa) = 11.49200 27.73093 19.61146
# Shear Modulus (GPa) = 22.96210 38.22026 30.59118
#
# Velocity S-wave (km/s) = 3.25295 4.19681 3.75466
# Velocity P-wave (km/s) = 4.40509 6.02192 5.27581
#
# Compressibility (1/GPa) = 0.08701705
#
# Stress axis : x y z
#
# Youngs Moduli (GPa) = 105.17279 15.49322 88.15776
#
# Poissons Ratio (x) = 0.04842 0.07677
# Poissons Ratio (y) = 0.32866 -0.42372
# Poissons Ratio (z) = 0.09158 -0.07447
#
# Static dielectric constant tensor:
#      x y z
#    x 1.793810 0.000000 0.029990 
#    y 0.000000 1.411310 0.000000 
#    z 0.029990 0.000000 1.830330 
# 
# From -- ./inp_files/3362.got.cif
#   From: 2010.05.17/outbox.cif.g08.bks.cpg/sg9_2_cif.got.tgz:3362.got - 2010.06.03 20:04:27.
