data_PCOD9134118
_publ_section_title
;
Structure prediction by ZEFSAII (Michael W. Deem and Ramdas Pophale) SiO2 
 PCOD9134118
Probable space group: C C
;
_chemical_formula_sum "Si O2"
_cell_formula_units_Z 32
_cell_length_a 5.398809
_cell_length_b 22.471066
_cell_length_c 11.828432
_cell_angle_alpha 90.000000
_cell_angle_beta 55.907869
_cell_angle_gamma 90.000000
_cell_volume 1188.368620
_symmetry_space_group_name_H-M "C C"
_symmetry_group_IT_number 9
_symmetry_cell_setting 'monoclinic'
loop_
_space_group_symop_operation_xyz
x,y,z
x,-y,1/2+z
1/2+x,1/2+y,z
1/2+x,1/2-y,1/2+z
loop_
_atom_site_type_symbol
_atom_site_label
_atom_site_fract_x
_atom_site_fract_y
_atom_site_fract_z
Si Si1 0.472630 0.156207 0.569900
Si Si2 0.945244 0.779909 0.503325
Si Si3 0.310392 0.305645 0.286069
Si Si4 0.318271 0.907974 0.902164
Si Si5 0.380040 0.886888 0.342078
Si Si6 0.349987 0.942191 0.659352
Si Si7 0.440106 0.504479 0.920877
Si Si8 0.801328 0.315784 0.732667
O O1 0.604898 0.220337 0.506160
O O2 0.508220 0.108007 0.462128
O O3 0.499814 0.128549 0.685827
O O4 0.125012 0.176443 0.653087
O O5 0.836876 0.775309 0.401364
O O6 0.657329 0.801882 0.647148
O O7 0.174856 0.833015 0.435201
O O8 0.177417 0.250739 0.244786
O O9 0.169561 0.371198 0.340990
O O10 0.496117 0.935346 0.749068
O O11 0.199904 0.847156 0.874812
O O12 0.037386 0.952024 0.983355
O O13 0.174625 0.943682 0.393425
O O14 0.599499 0.973992 0.520427
O O15 0.265631 0.872777 0.657299
O O16 0.057592 0.980525 0.768388
#
# Coordination Sequence:
#
# PCOD9134118 Si02
#       8
#     4   4   4   4   4   4   4   4
#     4  10  21  37  60  86 124 173 203 268 328 378
#     4  10  18  37  58  83 125 167 202 259 338 370
#     4  10  21  33  58  90 123 160 209 268 310 391
#     4   8  18  34  63  79 121 167 210 252 323 383
#     4  11  22  36  60  96 124 159 220 268 315 397
#     4   8  17  33  64  85 120 167 210 268 318 381
#     4   9  19  36  61  92 123 166 215 271 320 379
#     4   8  16  34  58  79 116 167 201 248 328 363
#
# _framework density 26.927672999999999
#
# number of rings (size 3 to 8) (size 9 to 14) (size 15 to 20)
#    1.500    1.000    2.500    0.000    1.750    2.000 
#    0.000    2.500    2.750    0.000    0.000    0.000 
#    0.000    0.000    0.000    0.000    0.000    0.000 
#
# Total GULP energy -89189.471184 kJ/mol
# GULP energy per Si atom -5574.341949 kJ/mol
# Density = 2.686638 g / cm^3
# Si number density = 26.927673 Si / 1000 Ang^3
#
#
#
# Elastic Constant Matrix: (Units=GPa)
#
#
# Indices 1 2 3 4 5 6 
#
# 1 36.7552 28.4984 28.9385 0.0000 -9.6720 0.0000
# 2 28.4984 112.0219 58.0800 0.0000 -25.0218 0.0000
# 3 28.9385 58.0800 113.9863 0.0000 10.4808 0.0000
# 4 0.0000 0.0000 0.0000 35.1015 0.0000 -11.6776
# 5 -9.6720 -25.0218 10.4808 0.0000 37.3578 0.0000
# 6 0.0000 0.0000 0.0000 -11.6776 0.0000 28.8834
#
#
#
# Elastic Compliance Matrix: (Units=1/GPa)
#
#
# Indices 1 2 3 4 5 6 
#
# 1 0.039970 -0.002425 -0.009971 0.000000 0.011521 0.000000
# 2 -0.002425 0.017661 -0.009662 0.000000 0.013912 0.000000
# 3 -0.009971 -0.009662 0.017512 0.000000 -0.013966 0.000000
# 4 0.000000 0.000000 0.000000 0.032916 0.000000 0.013308
# 5 0.011521 0.013912 -0.013966 0.000000 0.042987 0.000000
# 6 0.000000 0.000000 0.000000 0.013308 0.000000 0.040002
#
#
# Mechanical properties :
#
#
# Convention : Reuss Voigt Hill
#
# Bulk Modulus (GPa) = 32.23169 54.86634 43.54902
# Shear Modulus (GPa) = 20.36603 30.08497 25.22550
#
# Velocity S-wave (km/s) = 2.75312 3.34616 3.06402
# Velocity P-wave (km/s) = 4.70127 5.94548 5.35960
#
# Compressibility (1/GPa) = 0.03102537
#
# Stress axis : x y z
#
# Youngs Moduli (GPa) = 25.01899 56.62251 57.10433
#
# Poissons Ratio (x) = 0.13732 0.56939
# Poissons Ratio (y) = 0.06068 0.55176
# Poissons Ratio (z) = 0.24946 0.54710
#
# Static dielectric constant tensor:
#      x y z
#    x 2.323140 0.000000 -0.023340 
#    y 0.000000 2.157290 0.000000 
#    z -0.023340 0.000000 2.176020 
# 
# From -- ./inp_files/13804.got.cif
#   From: 2010.05.17/outbox.cif.g08.bks.cpg/sg9_7_cif.got.tgz:13804.got - 2010.06.03 20:04:27.
