data_PCOD9134175
_publ_section_title
;
Structure prediction by ZEFSAII (Michael W. Deem and Ramdas Pophale) SiO2 
 PCOD9134175
Probable space group: C C
;
_chemical_formula_sum "Si O2"
_cell_formula_units_Z 32
_cell_length_a 22.829188
_cell_length_b 8.878893
_cell_length_c 14.070354
_cell_angle_alpha 90.000000
_cell_angle_beta 148.213565
_cell_angle_gamma 90.000000
_cell_volume 1502.320589
_symmetry_space_group_name_H-M "C C"
_symmetry_group_IT_number 9
_symmetry_cell_setting 'monoclinic'
loop_
_space_group_symop_operation_xyz
x,y,z
x,-y,1/2+z
1/2+x,1/2+y,z
1/2+x,1/2-y,1/2+z
loop_
_atom_site_type_symbol
_atom_site_label
_atom_site_fract_x
_atom_site_fract_y
_atom_site_fract_z
Si Si1 0.514440 0.685783 0.858890
Si Si2 0.017669 0.141936 0.082332
Si Si3 0.644453 0.899357 0.334036
Si Si4 0.682599 0.532486 0.949321
Si Si5 0.773309 0.166530 0.521768
Si Si6 0.056511 0.458389 0.423665
Si Si7 0.799802 0.994719 0.261766
Si Si8 0.344056 0.773619 0.199638
O O1 0.610370 0.621102 0.926263
O O2 0.395856 0.636232 0.652782
O O3 0.516276 0.867723 0.866295
O O4 0.523473 0.616677 0.977248
O O5 0.057580 0.313050 0.149679
O O6 0.103286 0.051134 0.265427
O O7 0.894062 0.098351 0.945707
O O8 0.588036 0.904192 0.360390
O O9 0.764826 0.814491 0.512600
O O10 0.674766 0.066955 0.344804
O O11 0.751212 0.658020 0.987959
O O12 0.764749 0.415082 0.112891
O O13 0.776201 0.109966 0.636094
O O14 0.180136 0.467968 0.640549
O O15 0.962161 0.344442 0.331954
O O16 0.851830 0.150934 0.294123
#
# Coordination Sequence:
#
# PCOD9134175 Si02
#       8
#     4   4   4   4   4   4   4   4
#     4  11  21  40  66  92 128 178 202 263 331 379
#     4  10  24  41  61  97 130 163 216 270 317 381
#     4   9  20  39  61  93 126 163 212 269 316 381
#     4  11  20  41  64  94 129 162 216 270 317 378
#     4   9  18  37  64  88 124 168 209 257 320 382
#     4  10  18  38  68  88 118 175 214 253 333 376
#     4   9  20  39  57  90 128 162 211 265 317 386
#     4   9  19  35  67  90 121 165 214 263 317 385
#
# _framework density 21.300379
#
# number of rings (size 3 to 8) (size 9 to 14) (size 15 to 20)
#    0.000    2.500    3.750    0.000    0.000    9.000 
#    9.000    1.250    0.000    0.000    0.000    0.000 
#    0.000    0.000    0.000    0.000    0.000    0.000 
#
# Total GULP energy -89174.285822 kJ/mol
# GULP energy per Si atom -5573.392864 kJ/mol
# Density = 2.125190 g / cm^3
# Si number density = 21.300379 Si / 1000 Ang^3
#
#
#
# Elastic Constant Matrix: (Units=GPa)
#
#
# Indices 1 2 3 4 5 6 
#
# 1 61.1890 6.8332 33.4633 0.0000 18.3407 0.0000
# 2 6.8332 98.4362 27.9901 0.0000 15.6076 0.0000
# 3 33.4633 27.9901 86.9044 0.0000 27.7657 0.0000
# 4 0.0000 0.0000 0.0000 28.9289 0.0000 14.8067
# 5 18.3407 15.6076 27.7657 0.0000 36.2857 0.0000
# 6 0.0000 0.0000 0.0000 14.8067 0.0000 30.4747
#
#
#
# Elastic Compliance Matrix: (Units=1/GPa)
#
#
# Indices 1 2 3 4 5 6 
#
# 1 0.021841 0.001444 -0.006816 0.000000 -0.006445 0.000000
# 2 0.001444 0.011485 -0.003234 0.000000 -0.003195 0.000000
# 3 -0.006816 -0.003234 0.018038 0.000000 -0.008966 0.000000
# 4 0.000000 0.000000 0.000000 0.046009 0.000000 -0.022354
# 5 -0.006445 -0.003195 -0.008966 0.000000 0.039052 0.000000
# 6 0.000000 0.000000 0.000000 -0.022354 0.000000 0.043675
#
#
# Mechanical properties :
#
#
# Convention : Reuss Voigt Hill
#
# Bulk Modulus (GPa) = 29.28168 42.56697 35.92432
# Shear Modulus (GPa) = 23.95827 31.02073 27.48950
#
# Velocity S-wave (km/s) = 3.35741 3.82035 3.59634
# Velocity P-wave (km/s) = 5.36717 6.28392 5.84355
#
# Compressibility (1/GPa) = 0.03415104
#
# Stress axis : x y z
#
# Youngs Moduli (GPa) = 45.78569 87.07122 55.43931
#
# Poissons Ratio (x) = -0.12572 0.37787
# Poissons Ratio (y) = -0.06611 0.17930
# Poissons Ratio (z) = 0.31207 0.28161
#
# Static dielectric constant tensor:
#      x y z
#    x 1.779800 0.000000 -0.000940 
#    y 0.000000 1.809010 0.000000 
#    z -0.000940 0.000000 1.820530 
# 
# From -- ./inp_files/27750.got.cif
#   From: 2010.05.17/outbox.cif.g08.bks.cpg/sg9_14_cif.got.tgz:27750.got - 2010.06.03 20:04:27.
