data_PCOD9134409
_publ_section_title
;
Structure prediction by ZEFSAII (Michael W. Deem and Ramdas Pophale) SiO2 
 PCOD9134409
Probable space group: C C
;
_chemical_formula_sum "Si O2"
_cell_formula_units_Z 32
_cell_length_a 11.133222
_cell_length_b 8.734968
_cell_length_c 17.102907
_cell_angle_alpha 90.000000
_cell_angle_beta 50.543761
_cell_angle_gamma 90.000000
_cell_volume 1284.196255
_symmetry_space_group_name_H-M "C C"
_symmetry_group_IT_number 9
_symmetry_cell_setting 'monoclinic'
loop_
_space_group_symop_operation_xyz
x,y,z
x,-y,1/2+z
1/2+x,1/2+y,z
1/2+x,1/2-y,1/2+z
loop_
_atom_site_type_symbol
_atom_site_label
_atom_site_fract_x
_atom_site_fract_y
_atom_site_fract_z
Si Si1 0.939620 0.631154 0.133270
Si Si2 0.597235 0.228514 0.359339
Si Si3 0.273266 0.858054 0.564886
Si Si4 0.023648 0.633335 0.694239
Si Si5 0.330300 0.048969 0.402875
Si Si6 0.863764 0.091749 0.337623
Si Si7 0.119120 0.093068 0.358973
Si Si8 0.088097 0.158535 0.697975
O O1 0.934824 0.653889 0.043200
O O2 0.762004 0.644211 0.242186
O O3 0.987569 0.458711 0.131915
O O4 0.048826 0.741089 0.138837
O O5 0.686773 0.125145 0.386350
O O6 0.608904 0.407935 0.374270
O O7 0.651754 0.241624 0.244471
O O8 0.424855 0.160068 0.420946
O O9 0.196342 0.695801 0.617512
O O10 0.271032 0.903982 0.476115
O O11 0.191989 0.011112 0.635222
O O12 0.956702 0.522532 0.789541
O O13 0.935064 0.791452 0.743905
O O14 0.194264 0.131501 0.411681
O O15 0.958687 0.131365 0.379216
O O16 0.926029 0.921865 0.293167
#
# Coordination Sequence:
#
# PCOD9134409 Si02
#       8
#     4   4   4   4   4   4   4   4
#     4  11  19  38  64  93 128 170 216 269 330 391
#     4  11  19  38  65  97 121 170 219 262 329 399
#     4  11  24  43  62  97 139 169 223 280 322 390
#     4  10  20  41  68  90 129 180 207 273 333 385
#     4  11  24  41  68  99 132 178 226 269 331 395
#     4  10  19  35  66  95 122 171 215 264 327 396
#     4  10  20  39  62  95 131 166 214 272 329 387
#     4  10  21  37  63  94 122 168 218 267 333 385
#
# _framework density 24.918309000000001
#
# number of rings (size 3 to 8) (size 9 to 14) (size 15 to 20)
#    0.000    1.500    8.750    0.000    1.750    1.000 
#    2.250    0.000    2.750    0.000    0.000    0.000 
#    0.000    0.000    0.000    0.000    0.000    0.000 
#
# Total GULP energy -89123.219237 kJ/mol
# GULP energy per Si atom -5570.201202 kJ/mol
# Density = 2.486159 g / cm^3
# Si number density = 24.918309 Si / 1000 Ang^3
#
#
#
# Elastic Constant Matrix: (Units=GPa)
#
#
# Indices 1 2 3 4 5 6 
#
# 1 219.0641 54.4512 43.1879 0.0000 35.3899 0.0000
# 2 54.4512 47.7274 16.7354 0.0000 -9.1643 0.0000
# 3 43.1879 16.7354 52.7826 0.0000 13.9001 0.0000
# 4 0.0000 0.0000 0.0000 21.0998 0.0000 -6.2249
# 5 35.3899 -9.1643 13.9001 0.0000 23.3125 0.0000
# 6 0.0000 0.0000 0.0000 -6.2249 0.0000 52.2885
#
#
#
# Elastic Compliance Matrix: (Units=1/GPa)
#
#
# Indices 1 2 3 4 5 6 
#
# 1 0.018222 -0.031617 0.006730 0.000000 -0.044104 0.000000
# 2 -0.031617 0.085118 -0.026773 0.000000 0.097421 0.000000
# 3 0.006730 -0.026773 0.032492 0.000000 -0.040114 0.000000
# 4 0.000000 0.000000 0.000000 0.049119 0.000000 0.005848
# 5 -0.044104 0.097421 -0.040114 0.000000 0.172062 0.000000
# 6 0.000000 0.000000 0.000000 0.005848 0.000000 0.019821
#
#
# Mechanical properties :
#
#
# Convention : Reuss Voigt Hill
#
# Bulk Modulus (GPa) = 30.75975 60.92481 45.84228
# Shear Modulus (GPa) = 10.18346 33.02013 21.60180
#
# Velocity S-wave (km/s) = 2.02376 3.64419 2.94752
# Velocity P-wave (km/s) = 4.22278 6.49690 5.47912
#
# Compressibility (1/GPa) = 0.03251002
#
# Stress axis : x y z
#
# Youngs Moduli (GPa) = 54.87877 11.74842 30.77675
#
# Poissons Ratio (x) = 0.37145 -0.20711
# Poissons Ratio (y) = 1.73512 0.82399
# Poissons Ratio (z) = -0.36931 0.31454
#
# Static dielectric constant tensor:
#      x y z
#    x 2.130170 0.000000 -0.077860 
#    y 0.000000 1.954710 0.000000 
#    z -0.077860 0.000000 2.102860 
# 
# From -- ./inp_files/29897.got.cif
#   From: 2010.05.17/outbox.cif.g08.bks.cpg/sg9_15_cif.got.tgz:29897.got - 2010.06.03 20:04:27.
