data_PCOD9134720
_publ_section_title
;
Structure prediction by ZEFSAII (Michael W. Deem and Ramdas Pophale) SiO2 
 PCOD9134720
Probable space group: C C
;
_chemical_formula_sum "Si O2"
_cell_formula_units_Z 32
_cell_length_a 11.225741
_cell_length_b 9.452371
_cell_length_c 14.105796
_cell_angle_alpha 90.000000
_cell_angle_beta 115.714640
_cell_angle_gamma 90.000000
_cell_volume 1348.533896
_symmetry_space_group_name_H-M "C C"
_symmetry_group_IT_number 9
_symmetry_cell_setting 'monoclinic'
loop_
_space_group_symop_operation_xyz
x,y,z
x,-y,1/2+z
1/2+x,1/2+y,z
1/2+x,1/2-y,1/2+z
loop_
_atom_site_type_symbol
_atom_site_label
_atom_site_fract_x
_atom_site_fract_y
_atom_site_fract_z
Si Si1 0.828900 0.524504 0.231950
Si Si2 0.988627 0.969365 0.851404
Si Si3 0.841759 0.295865 0.400098
Si Si4 0.829804 0.857812 0.425240
Si Si5 0.122329 0.407380 0.820452
Si Si6 0.250591 0.131551 0.523667
Si Si7 0.580222 0.203863 0.105232
Si Si8 0.039873 0.030235 0.149962
O O1 0.815825 0.412445 0.312639
O O2 0.837230 0.441780 0.133989
O O3 0.684961 0.598132 0.181159
O O4 0.968719 0.599344 0.291951
O O5 0.917579 0.834156 0.874702
O O6 0.000471 0.947601 0.744470
O O7 0.132743 0.970259 0.949392
O O8 0.902679 0.103330 0.853025
O O9 0.708676 0.222154 0.391291
O O10 0.942866 0.349608 0.514100
O O11 0.810024 0.696880 0.448902
O O12 0.693077 0.946952 0.375472
O O13 0.928736 0.916961 0.539972
O O14 0.131748 0.388776 0.709463
O O15 0.184208 0.265033 0.557297
O O16 0.553546 0.361926 0.136236
#
# Coordination Sequence:
#
# PCOD9134720 Si02
#       8
#     4   4   4   4   4   4   4   4
#     4  11  22  40  65  96 133 176 220 279 339 397
#     4  10  21  39  64  93 127 172 222 268 333 400
#     4  10  19  40  64  94 127 168 221 274 334 398
#     4  11  22  40  69  97 126 176 229 271 338 409
#     4  11  21  37  67 100 124 169 237 269 328 416
#     4  10  20  41  66  91 132 174 219 275 340 398
#     4  10  20  40  65  93 129 178 217 277 341 395
#     4  11  21  39  66  88 134 181 213 277 345 389
#
# _framework density 23.729475000000001
#
# number of rings (size 3 to 8) (size 9 to 14) (size 15 to 20)
#    0.000    1.500    7.500    2.250    1.750    1.000 
#    2.250    0.000    0.000    0.000    0.000    0.000 
#    0.000    0.000    0.000    0.000    0.000    0.000 
#
# Total GULP energy -89503.360022 kJ/mol
# GULP energy per Si atom -5593.960001 kJ/mol
# Density = 2.367547 g / cm^3
# Si number density = 23.729475 Si / 1000 Ang^3
#
#
#
# Elastic Constant Matrix: (Units=GPa)
#
#
# Indices 1 2 3 4 5 6 
#
# 1 104.3042 28.8219 33.7430 0.0000 9.6569 0.0000
# 2 28.8219 53.2003 16.4332 0.0000 -2.5034 0.0000
# 3 33.7430 16.4332 102.6258 0.0000 29.5296 0.0000
# 4 0.0000 0.0000 0.0000 33.4564 0.0000 -7.7436
# 5 9.6569 -2.5034 29.5296 0.0000 35.6909 0.0000
# 6 0.0000 0.0000 0.0000 -7.7436 0.0000 25.9760
#
#
#
# Elastic Compliance Matrix: (Units=1/GPa)
#
#
# Indices 1 2 3 4 5 6 
#
# 1 0.012203 -0.005871 -0.002630 0.000000 -0.001538 0.000000
# 2 -0.005871 0.023382 -0.003600 0.000000 0.006207 0.000000
# 3 -0.002630 -0.003600 0.014507 0.000000 -0.011543 0.000000
# 4 0.000000 0.000000 0.000000 0.032105 0.000000 0.009571
# 5 -0.001538 0.006207 -0.011543 0.000000 0.038420 0.000000
# 6 0.000000 0.000000 0.000000 0.009571 0.000000 0.041350
#
#
# Mechanical properties :
#
#
# Convention : Reuss Voigt Hill
#
# Bulk Modulus (GPa) = 38.62433 46.45851 42.54142
# Shear Modulus (GPa) = 25.66775 31.10014 28.38394
#
# Velocity S-wave (km/s) = 3.29246 3.62417 3.46229
# Velocity P-wave (km/s) = 5.54671 6.09374 5.82665
#
# Compressibility (1/GPa) = 0.02589041
#
# Stress axis : x y z
#
# Youngs Moduli (GPa) = 81.94875 42.76873 68.93405
#
# Poissons Ratio (x) = 0.25110 0.18127
# Poissons Ratio (y) = 0.48113 0.24813
# Poissons Ratio (z) = 0.21549 0.15395
#
# Static dielectric constant tensor:
#      x y z
#    x 2.001920 0.000000 0.015370 
#    y 0.000000 1.899280 0.000000 
#    z 0.015370 0.000000 1.882270 
# 
# From -- ./inp_files/24671.got.cif
#   From: 2010.05.17/outbox.cif.g08.bks.cpg/sg9_13_cif.got.tgz:24671.got - 2010.06.03 20:04:27.
