data_PCOD9134940
_publ_section_title
;
Structure prediction by ZEFSAII (Michael W. Deem and Ramdas Pophale) SiO2 
 PCOD9134940
Probable space group: C C
;
_chemical_formula_sum "Si O2"
_cell_formula_units_Z 28
_cell_length_a 15.541659
_cell_length_b 19.499818
_cell_length_c 8.915405
_cell_angle_alpha 90.000000
_cell_angle_beta 151.698001
_cell_angle_gamma 90.000000
_cell_volume 1281.021162
_symmetry_space_group_name_H-M "C C"
_symmetry_group_IT_number 9
_symmetry_cell_setting 'monoclinic'
loop_
_space_group_symop_operation_xyz
x,y,z
x,-y,1/2+z
1/2+x,1/2+y,z
1/2+x,1/2-y,1/2+z
loop_
_atom_site_type_symbol
_atom_site_label
_atom_site_fract_x
_atom_site_fract_y
_atom_site_fract_z
Si Si1 0.122850 0.050463 0.755510
Si Si2 0.020466 0.737059 0.749533
Si Si3 0.857615 0.935575 0.206661
Si Si4 0.709679 0.952793 0.286435
Si Si5 0.834085 0.468729 0.882280
Si Si6 0.170237 0.838341 0.729289
Si Si7 0.376613 0.340581 0.754321
O O1 0.987756 0.991556 0.488416
O O2 0.019107 0.121513 0.578470
O O3 0.293641 0.039389 0.905311
O O4 0.192230 0.037661 0.028087
O O5 0.827252 0.707618 0.390520
O O6 0.969539 0.774209 0.825179
O O7 0.105329 0.794002 0.770148
O O8 0.179322 0.681067 0.012916
O O9 0.706009 0.932850 0.105864
O O10 0.978387 0.867570 0.371921
O O11 0.786125 0.971501 0.946437
O O12 0.835078 0.895352 0.557544
O O13 0.522526 0.954226 0.090672
O O14 0.788353 0.408122 0.931106
#
# Coordination Sequence:
#
# PCOD9134940 Si02
#       7
#     4   4   4   4   4   4   4
#     4  10  22  38  61  86 127 157 201 259 306 364
#     4  10  20  37  63  89 116 168 210 248 300 377
#     4  10  20  35  59  85 123 153 199 255 304 356
#     4  11  20  37  59  92 122 155 201 251 311 366
#     4  11  22  38  60  94 124 160 201 256 315 364
#     4  10  20  35  61  87 118 161 207 251 296 369
#     4  10  20  38  61  87 116 164 207 252 298 366
#
# _framework density 21.857562000000001
#
# number of rings (size 3 to 8) (size 9 to 14) (size 15 to 20)
#    0.000    1.714    2.857    3.429    2.000    0.000 
#    0.000    1.429    0.000    0.000    0.000    0.000 
#    0.000    0.000    0.000    0.000    0.000    0.000 
#
# Total GULP energy -77949.672316 kJ/mol
# GULP energy per Si atom -5567.833737 kJ/mol
# Density = 2.180781 g / cm^3
# Si number density = 21.857562 Si / 1000 Ang^3
#
#
#
# Elastic Constant Matrix: (Units=GPa)
#
#
# Indices 1 2 3 4 5 6 
#
# 1 124.8781 34.4135 41.9279 0.0000 24.4040 0.0000
# 2 34.4135 76.4469 36.2665 0.0000 11.1959 0.0000
# 3 41.9279 36.2665 59.1624 0.0000 17.2592 0.0000
# 4 0.0000 0.0000 0.0000 35.5784 0.0000 15.3304
# 5 24.4040 11.1959 17.2592 0.0000 43.2541 0.0000
# 6 0.0000 0.0000 0.0000 15.3304 0.0000 36.4703
#
#
#
# Elastic Compliance Matrix: (Units=1/GPa)
#
#
# Indices 1 2 3 4 5 6 
#
# 1 0.011117 -0.001746 -0.005783 0.000000 -0.003513 0.000000
# 2 -0.001746 0.018723 -0.010313 0.000000 0.000254 0.000000
# 3 -0.005783 -0.010313 0.028964 0.000000 -0.005625 0.000000
# 4 0.000000 0.000000 0.000000 0.034324 0.000000 -0.014428
# 5 -0.003513 0.000254 -0.005625 0.000000 0.027280 0.000000
# 6 0.000000 0.000000 0.000000 -0.014428 0.000000 0.033485
#
#
# Mechanical properties :
#
#
# Convention : Reuss Voigt Hill
#
# Bulk Modulus (GPa) = 43.25724 53.96702 48.61213
# Shear Modulus (GPa) = 25.34405 32.91919 29.13162
#
# Velocity S-wave (km/s) = 3.40885 3.88503 3.65471
# Velocity P-wave (km/s) = 5.94367 6.69840 6.33229
#
# Compressibility (1/GPa) = 0.02311752
#
# Stress axis : x y z
#
# Youngs Moduli (GPa) = 89.94955 53.41128 34.52524
#
# Poissons Ratio (x) = 0.09328 0.19967
# Poissons Ratio (y) = 0.15710 0.35607
# Poissons Ratio (z) = 0.52022 0.55086
#
# Static dielectric constant tensor:
#      x y z
#    x 1.916430 0.000000 0.078270 
#    y 0.000000 1.832670 0.000000 
#    z 0.078270 0.000000 1.865630 
# 
# From -- ./inp_files/10069.got.cif
#   From: 2010.05.17/outbox.cif.g08.bks.cpg/sg9_6_cif.got.tgz:10069.got - 2010.06.03 20:04:27.
