data_PCOD9134826
_publ_section_title
;
Structure prediction by ZEFSAII (Michael W. Deem and Ramdas Pophale) SiO2 
 PCOD9134826
Probable space group: C C
;
_chemical_formula_sum "Si O2"
_cell_formula_units_Z 32
_cell_length_a 13.491314
_cell_length_b 6.162899
_cell_length_c 17.027440
_cell_angle_alpha 90.000000
_cell_angle_beta 103.393291
_cell_angle_gamma 90.000000
_cell_volume 1377.252483
_symmetry_space_group_name_H-M "C C"
_symmetry_group_IT_number 9
_symmetry_cell_setting 'monoclinic'
loop_
_space_group_symop_operation_xyz
x,y,z
x,-y,1/2+z
1/2+x,1/2+y,z
1/2+x,1/2-y,1/2+z
loop_
_atom_site_type_symbol
_atom_site_label
_atom_site_fract_x
_atom_site_fract_y
_atom_site_fract_z
Si Si1 0.118990 0.235726 0.296490
Si Si2 0.032091 0.442408 0.901772
Si Si3 0.953615 0.027035 0.670653
Si Si4 0.829886 0.693954 0.546685
Si Si5 0.168363 0.924028 0.449027
Si Si6 0.494863 0.176064 0.042019
Si Si7 0.844830 0.766528 0.291886
Si Si8 0.828015 0.938683 0.923575
O O1 0.086411 0.460767 0.333654
O O2 0.224087 0.228363 0.266868
O O3 0.141358 0.081269 0.373658
O O4 0.028298 0.135214 0.229520
O O5 0.065211 0.208660 0.941080
O O6 0.913704 0.408185 0.853371
O O7 0.063276 0.585841 0.983716
O O8 0.018310 0.177185 0.621750
O O9 0.898729 0.193834 0.719346
O O10 0.865800 0.876609 0.614813
O O11 0.728896 0.541771 0.530836
O O12 0.924491 0.528059 0.554826
O O13 0.809542 0.834665 0.464585
O O14 0.242955 0.736985 0.428788
O O15 0.426212 0.337426 0.979404
O O16 0.847216 0.997523 0.338019
#
# Coordination Sequence:
#
# PCOD9134826 Si02
#       8
#     4   4   4   4   4   4   4   4
#     4  12  26  48  76 114 145 196 265 310 375 461
#     4  12  24  44  82 107 144 196 266 312 364 458
#     4  11  27  44  73 105 162 195 245 317 397 440
#     4  10  21  45  71 103 148 196 244 314 367 454
#     4  11  21  42  77 109 142 186 265 313 359 449
#     4  10  23  43  71 104 146 196 243 308 376 446
#     4  12  23  47  78 108 145 199 246 322 372 449
#     4  10  19  43  74 102 132 184 260 298 354 447
#
# _framework density 23.234665
#
# number of rings (size 3 to 8) (size 9 to 14) (size 15 to 20)
#    0.000    1.000    5.000    1.500    1.750    0.000 
#    0.000   11.250    5.500    0.000    0.000    0.000 
#    0.000    0.000    0.000    0.000    0.000    0.000 
#
# Total GULP energy -89220.827547 kJ/mol
# GULP energy per Si atom -5576.301722 kJ/mol
# Density = 2.318178 g / cm^3
# Si number density = 23.234665 Si / 1000 Ang^3
#
#
#
# Elastic Constant Matrix: (Units=GPa)
#
#
# Indices 1 2 3 4 5 6 
#
# 1 82.0114 17.5244 29.3138 0.0000 4.6647 0.0000
# 2 17.5244 86.9062 27.7538 0.0000 3.2117 0.0000
# 3 29.3138 27.7538 97.1942 0.0000 2.9435 0.0000
# 4 0.0000 0.0000 0.0000 38.4074 0.0000 9.6216
# 5 4.6647 3.2117 2.9435 0.0000 24.2800 0.0000
# 6 0.0000 0.0000 0.0000 9.6216 0.0000 43.3234
#
#
#
# Elastic Compliance Matrix: (Units=1/GPa)
#
#
# Indices 1 2 3 4 5 6 
#
# 1 0.013966 -0.001558 -0.003706 0.000000 -0.002028 0.000000
# 2 -0.001558 0.012872 -0.003175 0.000000 -0.001019 0.000000
# 3 -0.003706 -0.003175 0.012324 0.000000 -0.000362 0.000000
# 4 0.000000 0.000000 0.000000 0.027571 0.000000 -0.006123
# 5 -0.002028 -0.001019 -0.000362 0.000000 0.041754 0.000000
# 6 0.000000 0.000000 0.000000 -0.006123 0.000000 0.024442
#
#
# Mechanical properties :
#
#
# Convention : Reuss Voigt Hill
#
# Bulk Modulus (GPa) = 44.87317 46.14398 45.50858
# Shear Modulus (GPa) = 31.79937 33.97014 32.88476
#
# Velocity S-wave (km/s) = 3.70350 3.82782 3.76617
# Velocity P-wave (km/s) = 6.13537 6.28008 6.20815
#
# Compressibility (1/GPa) = 0.02228503
#
# Stress axis : x y z
#
# Youngs Moduli (GPa) = 71.60092 77.68568 81.14243
#
# Poissons Ratio (x) = 0.12102 0.30071
# Poissons Ratio (y) = 0.11154 0.25763
# Poissons Ratio (z) = 0.26535 0.24665
#
# Static dielectric constant tensor:
#      x y z
#    x 1.993250 0.000000 -0.046970 
#    y 0.000000 2.027010 0.000000 
#    z -0.046970 0.000000 1.885760 
# 
# From -- ./inp_files/30423.got.cif
#   From: 2010.05.17/outbox.cif.g08.bks.cpg/sg9_16_cif.got.tgz:30423.got - 2010.06.03 20:04:27.
