data_PCOD9134738
_publ_section_title
;
Structure prediction by ZEFSAII (Michael W. Deem and Ramdas Pophale) SiO2 
 PCOD9134738
Probable space group: C C
;
_chemical_formula_sum "Si O2"
_cell_formula_units_Z 28
_cell_length_a 4.915904
_cell_length_b 19.259951
_cell_length_c 12.021118
_cell_angle_alpha 90.000000
_cell_angle_beta 90.246701
_cell_angle_gamma 90.000000
_cell_volume 1138.149745
_symmetry_space_group_name_H-M "C C"
_symmetry_group_IT_number 9
_symmetry_cell_setting 'monoclinic'
loop_
_space_group_symop_operation_xyz
x,y,z
x,-y,1/2+z
1/2+x,1/2+y,z
1/2+x,1/2-y,1/2+z
loop_
_atom_site_type_symbol
_atom_site_label
_atom_site_fract_x
_atom_site_fract_y
_atom_site_fract_z
Si Si1 0.240010 0.162735 0.584350
Si Si2 0.398691 0.190807 0.932873
Si Si3 0.895479 0.977147 0.826579
Si Si4 0.595439 0.060442 0.006642
Si Si5 0.388301 0.691352 0.069850
Si Si6 0.235317 0.336612 0.926096
Si Si7 0.893209 0.474860 0.197593
O O1 0.315659 0.238519 0.633752
O O2 0.442395 0.151159 0.479832
O O3 0.939703 0.160547 0.532847
O O4 0.295263 0.102553 0.671938
O O5 0.431893 0.108263 0.915773
O O6 0.275164 0.259127 0.877151
O O7 0.714794 0.208138 0.955853
O O8 0.205539 0.188248 0.043716
O O9 0.812155 0.013879 0.942208
O O10 0.818487 0.896940 0.842971
O O11 0.702151 0.016260 0.738199
O O12 0.199495 0.986856 0.784940
O O13 0.756080 0.115877 0.086333
O O14 0.394824 0.015190 0.079731
#
# Coordination Sequence:
#
# PCOD9134738 Si02
#       7
#     4   4   4   4   4   4   4
#     4  10  19  40  67  90 125 175 211 260 328 381
#     4   8  18  34  67  88 116 172 213 252 329 372
#     4  12  27  40  65 101 133 171 219 263 331 393
#     4  10  24  44  68  90 138 166 220 276 320 374
#     4   8  18  34  67  88 116 172 213 252 329 372
#     4  10  19  40  67  90 125 175 211 260 328 381
#     4  12  27  40  65 101 133 171 219 263 331 393
#
# _framework density 24.601334999999999
#
# number of rings (size 3 to 8) (size 9 to 14) (size 15 to 20)
#    0.857    1.143    1.429    1.714    4.000    0.000 
#    0.000    2.857    0.000    0.000    0.000    0.000 
#    0.000    0.000    0.000    0.000    0.000    0.000 
#
# Total GULP energy -78012.209938 kJ/mol
# GULP energy per Si atom -5572.300710 kJ/mol
# Density = 2.454534 g / cm^3
# Si number density = 24.601335 Si / 1000 Ang^3
#
#
#
# Elastic Constant Matrix: (Units=GPa)
#
#
# Indices 1 2 3 4 5 6 
#
# 1 76.8601 8.3344 5.2364 0.0000 -10.5379 0.0000
# 2 8.3344 94.5166 34.5143 0.0000 -13.6701 0.0000
# 3 5.2364 34.5143 80.0041 0.0000 -9.4154 0.0000
# 4 0.0000 0.0000 0.0000 13.5594 0.0000 -0.8829
# 5 -10.5379 -13.6701 -9.4154 0.0000 26.1251 0.0000
# 6 0.0000 0.0000 0.0000 -0.8829 0.0000 33.8219
#
#
#
# Elastic Compliance Matrix: (Units=1/GPa)
#
#
# Indices 1 2 3 4 5 6 
#
# 1 0.013790 -0.000411 -0.000100 0.000000 0.005311 0.000000
# 2 -0.000411 0.013181 -0.005083 0.000000 0.004899 0.000000
# 3 -0.000100 -0.005083 0.015018 0.000000 0.002712 0.000000
# 4 0.000000 0.000000 0.000000 0.073875 0.000000 0.001929
# 5 0.005311 0.004899 0.002712 0.000000 0.043961 0.000000
# 6 0.000000 0.000000 0.000000 0.001929 0.000000 0.029617
#
#
# Mechanical properties :
#
#
# Convention : Reuss Voigt Hill
#
# Bulk Modulus (GPa) = 32.46683 38.61679 35.54181
# Shear Modulus (GPa) = 23.70820 28.25435 25.98128
#
# Velocity S-wave (km/s) = 3.10771 3.39261 3.25328
# Velocity P-wave (km/s) = 5.10911 5.57472 5.34699
#
# Compressibility (1/GPa) = 0.03080066
#
# Stress axis : x y z
#
# Youngs Moduli (GPa) = 72.51496 75.86609 66.58708
#
# Poissons Ratio (x) = 0.03120 0.00667
# Poissons Ratio (y) = 0.02983 0.33846
# Poissons Ratio (z) = 0.00726 0.38562
#
# Static dielectric constant tensor:
#      x y z
#    x 1.876740 0.000000 0.082210 
#    y 0.000000 2.058360 0.000000 
#    z 0.082210 0.000000 1.998680 
# 
# From -- ./inp_files/13442.got.cif
#   From: 2010.05.17/outbox.cif.g08.bks.cpg/sg9_7_cif.got.tgz:13442.got - 2010.06.03 20:04:27.
