data_PCOD9134671
_publ_section_title
;
Structure prediction by ZEFSAII (Michael W. Deem and Ramdas Pophale) SiO2 
 PCOD9134671
Probable space group: C C
;
_chemical_formula_sum "Si O2"
_cell_formula_units_Z 32
_cell_length_a 8.900970
_cell_length_b 11.387315
_cell_length_c 14.495655
_cell_angle_alpha 90.000000
_cell_angle_beta 94.531849
_cell_angle_gamma 90.000000
_cell_volume 1464.659241
_symmetry_space_group_name_H-M "C C"
_symmetry_group_IT_number 9
_symmetry_cell_setting 'monoclinic'
loop_
_space_group_symop_operation_xyz
x,y,z
x,-y,1/2+z
1/2+x,1/2+y,z
1/2+x,1/2-y,1/2+z
loop_
_atom_site_type_symbol
_atom_site_label
_atom_site_fract_x
_atom_site_fract_y
_atom_site_fract_z
Si Si1 0.498740 0.176286 0.259680
Si Si2 0.837511 0.148038 0.454774
Si Si3 0.288317 0.262906 0.393424
Si Si4 0.625450 0.945565 0.495773
Si Si5 0.852939 0.372258 0.582502
Si Si6 0.046238 0.416460 0.296960
Si Si7 0.146130 0.014374 0.436560
Si Si8 0.743887 0.326973 0.290053
O O1 0.447393 0.235309 0.353918
O O2 0.350994 0.151788 0.191123
O O3 0.613741 0.269702 0.222137
O O4 0.577208 0.050246 0.274878
O O5 0.869212 0.248083 0.531363
O O6 0.797511 0.221028 0.360609
O O7 0.974777 0.057723 0.443540
O O8 0.700759 0.070391 0.486103
O O9 0.254674 0.348564 0.479095
O O10 0.187236 0.329368 0.309709
O O11 0.228536 0.136681 0.419690
O O12 0.516628 0.933651 0.576176
O O13 0.509160 0.924221 0.405160
O O14 0.721439 0.447094 0.527616
O O15 0.893448 0.369932 0.245024
O O16 0.174370 0.930531 0.349627
#
# Coordination Sequence:
#
# PCOD9134671 Si02
#       8
#     4   4   4   4   4   4   4   4
#     4  12  24  38  61  92 128 157 197 259 314 349
#     4  11  20  39  63  87 115 155 210 249 288 366
#     4  10  19  39  64  86 114 156 209 247 285 368
#     4  10  19  41  64  83 118 158 203 251 291 359
#     4  11  25  40  57  93 130 157 196 258 311 357
#     4  10  20  38  60  88 114 154 204 247 291 362
#     4  11  19  39  66  86 114 159 210 243 291 367
#     4  11  20  36  63  91 111 158 205 250 299 354
#
# _framework density 21.848085999999999
#
# number of rings (size 3 to 8) (size 9 to 14) (size 15 to 20)
#    0.750    0.500    7.500    0.750    0.000    2.000 
#    0.000    1.250    0.000    0.000    0.000    0.000 
#    0.000    0.000    0.000    0.000    0.000    0.000 
#
# Total GULP energy -89102.531880 kJ/mol
# GULP energy per Si atom -5568.908242 kJ/mol
# Density = 2.179836 g / cm^3
# Si number density = 21.848086 Si / 1000 Ang^3
#
#
#
# Elastic Constant Matrix: (Units=GPa)
#
#
# Indices 1 2 3 4 5 6 
#
# 1 72.9204 40.7253 -12.4815 0.0000 -5.6977 0.0000
# 2 40.7253 123.2956 0.6343 0.0000 0.9526 0.0000
# 3 -12.4815 0.6343 23.3664 0.0000 4.3498 0.0000
# 4 0.0000 0.0000 0.0000 9.2519 0.0000 1.0341
# 5 -5.6977 0.9526 4.3498 0.0000 22.7516 0.0000
# 6 0.0000 0.0000 0.0000 1.0341 0.0000 43.9414
#
#
#
# Elastic Compliance Matrix: (Units=1/GPa)
#
#
# Indices 1 2 3 4 5 6 
#
# 1 0.019243 -0.006432 0.009857 0.000000 0.003204 0.000000
# 2 -0.006432 0.010263 -0.003457 0.000000 -0.001379 0.000000
# 3 0.009857 -0.003457 0.049428 0.000000 -0.006837 0.000000
# 4 0.000000 0.000000 0.000000 0.108372 0.000000 -0.002550
# 5 0.003204 -0.001379 -0.006837 0.000000 0.046120 0.000000
# 6 0.000000 0.000000 0.000000 -0.002550 0.000000 0.022818
#
#
# Mechanical properties :
#
#
# Convention : Reuss Voigt Hill
#
# Bulk Modulus (GPa) = 12.67886 30.81538 21.74712
# Shear Modulus (GPa) = 17.69296 27.90257 22.79776
#
# Velocity S-wave (km/s) = 2.84882 3.57755 3.23378
# Velocity P-wave (km/s) = 4.07882 5.58571 4.89065
#
# Compressibility (1/GPa) = 0.07887147
#
# Stress axis : x y z
#
# Youngs Moduli (GPa) = 51.96662 97.43337 20.23128
#
# Poissons Ratio (x) = 0.62665 -0.19942
# Poissons Ratio (y) = 0.33423 0.06995
# Poissons Ratio (z) = -0.51224 0.33686
#
# Static dielectric constant tensor:
#      x y z
#    x 1.854230 0.000000 0.029560 
#    y 0.000000 1.791970 0.000000 
#    z 0.029560 0.000000 1.809970 
# 
# From -- ./inp_files/29182.got.cif
#   From: 2010.05.17/outbox.cif.g08.bks.cpg/sg9_15_cif.got.tgz:29182.got - 2010.06.03 20:04:27.
