data_PCOD9134863
_publ_section_title
;
Structure prediction by ZEFSAII (Michael W. Deem and Ramdas Pophale) SiO2 
 PCOD9134863
Probable space group: C C
;
_chemical_formula_sum "Si O2"
_cell_formula_units_Z 32
_cell_length_a 19.618216
_cell_length_b 17.863465
_cell_length_c 5.045514
_cell_angle_alpha 90.000000
_cell_angle_beta 116.188937
_cell_angle_gamma 90.000000
_cell_volume 1586.680196
_symmetry_space_group_name_H-M "C C"
_symmetry_group_IT_number 9
_symmetry_cell_setting 'monoclinic'
loop_
_space_group_symop_operation_xyz
x,y,z
x,-y,1/2+z
1/2+x,1/2+y,z
1/2+x,1/2-y,1/2+z
loop_
_atom_site_type_symbol
_atom_site_label
_atom_site_fract_x
_atom_site_fract_y
_atom_site_fract_z
Si Si1 0.556620 0.235833 0.271030
Si Si2 0.439780 0.151476 0.794217
Si Si3 0.113342 0.042597 0.172491
Si Si4 0.833010 0.446980 0.826874
Si Si5 0.802584 0.311027 0.442910
Si Si6 0.430660 0.459351 0.395056
Si Si7 0.419409 0.291309 0.378662
Si Si8 0.644697 0.710619 0.403873
O O1 0.486330 0.283383 0.274526
O O2 0.616570 0.235304 0.617406
O O3 0.516775 0.158976 0.098316
O O4 0.595445 0.274024 0.083922
O O5 0.417845 0.087272 0.543659
O O6 0.368883 0.152638 0.875061
O O7 0.438772 0.229694 0.632578
O O8 0.131585 0.126707 0.277900
O O9 0.142536 0.984379 0.440897
O O10 0.022065 0.036201 0.025985
O O11 0.818812 0.494649 0.066144
O O12 0.789307 0.628442 0.155516
O O13 0.840519 0.237036 0.625563
O O14 0.731074 0.288723 0.147166
O O15 0.402010 0.519834 0.555827
O O16 0.414446 0.375847 0.462012
#
# Coordination Sequence:
#
# PCOD9134863 Si02
#       8
#     4   4   4   4   4   4   4   4
#     4  11  22  37  62  82 118 154 205 250 301 338
#     4  10  21  42  62  89 117 165 201 264 298 356
#     4  10  20  33  48  75 115 156 187 224 279 347
#     4  11  22  39  61  89 123 163 208 249 300 369
#     4  10  25  38  62  86 128 159 208 243 313 354
#     4  10  21  32  55  84 112 146 193 236 287 343
#     4  10  21  40  60  84 119 159 200 259 289 357
#     4  12  24  37  56  87 118 162 198 251 293 368
#
# _framework density 20.167895000000001
#
# number of rings (size 3 to 8) (size 9 to 14) (size 15 to 20)
#    0.000    1.500    3.750    0.750   10.500    1.000 
#    0.000    0.000    0.000    0.000    0.000    5.250 
#    0.000    0.000    0.000    0.000    0.000    0.000 
#
# Total GULP energy -89248.742048 kJ/mol
# GULP energy per Si atom -5578.046378 kJ/mol
# Density = 2.012199 g / cm^3
# Si number density = 20.167895 Si / 1000 Ang^3
#
#
#
# Elastic Constant Matrix: (Units=GPa)
#
#
# Indices 1 2 3 4 5 6 
#
# 1 43.4689 26.0221 29.2844 0.0000 -1.1937 0.0000
# 2 26.0221 43.3318 22.9415 0.0000 -3.3684 0.0000
# 3 29.2844 22.9415 144.5377 0.0000 6.7462 0.0000
# 4 0.0000 0.0000 0.0000 40.5151 0.0000 -5.8793
# 5 -1.1937 -3.3684 6.7462 0.0000 29.3175 0.0000
# 6 0.0000 0.0000 0.0000 -5.8793 0.0000 16.0511
#
#
#
# Elastic Compliance Matrix: (Units=1/GPa)
#
#
# Indices 1 2 3 4 5 6 
#
# 1 0.038426 -0.020667 -0.004516 0.000000 0.000229 0.000000
# 2 -0.020667 0.036750 -0.001823 0.000000 0.003800 0.000000
# 3 -0.004516 -0.001823 0.008230 0.000000 -0.002287 0.000000
# 4 0.000000 0.000000 0.000000 0.026068 0.000000 0.009548
# 5 0.000229 0.003800 -0.002287 0.000000 0.035082 0.000000
# 6 0.000000 0.000000 0.000000 0.009548 0.000000 0.065798
#
#
# Mechanical properties :
#
#
# Convention : Reuss Voigt Hill
#
# Bulk Modulus (GPa) = 34.02168 43.09272 38.55720
# Shear Modulus (GPa) = 18.23740 27.38277 22.81009
#
# Velocity S-wave (km/s) = 3.01039 3.68875 3.36670
# Velocity P-wave (km/s) = 5.38415 6.28935 5.85427
#
# Compressibility (1/GPa) = 0.02939302
#
# Stress axis : x y z
#
# Youngs Moduli (GPa) = 26.02438 27.21116 121.51233
#
# Poissons Ratio (x) = 0.56238 0.54870
# Poissons Ratio (y) = 0.53785 0.22153
# Poissons Ratio (z) = 0.11752 0.04961
#
# Static dielectric constant tensor:
#      x y z
#    x 1.760010 0.000000 -0.006610 
#    y 0.000000 1.696580 0.000000 
#    z -0.006610 0.000000 1.821120 
# 
# From -- ./inp_files/3226.got.cif
#   From: 2010.05.17/outbox.cif.g08.bks.cpg/sg9_2_cif.got.tgz:3226.got - 2010.06.03 20:04:27.
