data_PCOD9134730
_publ_section_title
;
Structure prediction by ZEFSAII (Michael W. Deem and Ramdas Pophale) SiO2 
 PCOD9134730
Probable space group: C C
;
_chemical_formula_sum "Si O2"
_cell_formula_units_Z 32
_cell_length_a 9.076401
_cell_length_b 19.669407
_cell_length_c 10.047812
_cell_angle_alpha 90.000000
_cell_angle_beta 40.738699
_cell_angle_gamma 90.000000
_cell_volume 1170.658919
_symmetry_space_group_name_H-M "C C"
_symmetry_group_IT_number 9
_symmetry_cell_setting 'monoclinic'
loop_
_space_group_symop_operation_xyz
x,y,z
x,-y,1/2+z
1/2+x,1/2+y,z
1/2+x,1/2-y,1/2+z
loop_
_atom_site_type_symbol
_atom_site_label
_atom_site_fract_x
_atom_site_fract_y
_atom_site_fract_z
Si Si1 0.858560 0.186113 0.914900
Si Si2 0.890585 0.667826 0.097936
Si Si3 0.595696 0.545366 0.235381
Si Si4 0.447271 0.644596 0.135935
Si Si5 0.845639 0.655926 0.475044
Si Si6 0.460751 0.110937 0.686051
Si Si7 0.075442 0.256188 0.245038
Si Si8 0.277349 0.029435 0.373266
O O1 0.641171 0.174474 0.973492
O O2 0.080118 0.158236 0.692768
O O3 0.817747 0.151410 0.086463
O O4 0.905915 0.265892 0.906144
O O5 0.852651 0.723108 0.998167
O O6 0.814777 0.594819 0.100159
O O7 0.672884 0.705691 0.303005
O O8 0.415479 0.587905 0.274049
O O9 0.576466 0.524860 0.401407
O O10 0.674403 0.485873 0.087451
O O11 0.445590 0.715556 0.214918
O O12 0.699843 0.627328 0.908151
O O13 0.969820 0.629543 0.523424
O O14 0.868939 0.605647 0.331783
O O15 0.608310 0.163829 0.672967
O O16 0.460522 0.029053 0.712226
#
# Coordination Sequence:
#
# PCOD9134730 Si02
#       8
#     4   4   4   4   4   4   4   4
#     4  11  24  42  64 103 140 184 237 300 361 426
#     4  11  24  38  64 100 144 177 231 296 359 419
#     4  10  22  41  70  97 133 190 235 289 351 434
#     4   9  20  37  63  94 135 174 230 290 356 414
#     4  11  24  39  69 103 136 191 235 295 366 426
#     4  10  19  40  65  98 134 188 235 288 350 437
#     4  11  18  38  62  97 134 178 232 289 353 417
#     4  11  21  41  69 100 138 188 243 279 364 435
#
# _framework density 27.335032000000002
#
# number of rings (size 3 to 8) (size 9 to 14) (size 15 to 20)
#    0.000    1.500    6.250    0.750    5.250    0.000 
#    0.000    0.000    8.250    1.500    0.000    0.000 
#    0.000    0.000    0.000    0.000    0.000    0.000 
#
# Total GULP energy -89354.666050 kJ/mol
# GULP energy per Si atom -5584.666628 kJ/mol
# Density = 2.727282 g / cm^3
# Si number density = 27.335032 Si / 1000 Ang^3
#
#
#
# Elastic Constant Matrix: (Units=GPa)
#
#
# Indices 1 2 3 4 5 6 
#
# 1 181.7162 32.3663 13.8175 0.0000 -11.7453 0.0000
# 2 32.3663 149.6586 13.7612 0.0000 -10.1406 0.0000
# 3 13.8175 13.7612 58.5952 0.0000 2.9522 0.0000
# 4 0.0000 0.0000 0.0000 33.2176 0.0000 7.9203
# 5 -11.7453 -10.1406 2.9522 0.0000 42.9787 0.0000
# 6 0.0000 0.0000 0.0000 7.9203 0.0000 44.8262
#
#
#
# Elastic Compliance Matrix: (Units=1/GPa)
#
#
# Indices 1 2 3 4 5 6 
#
# 1 0.005877 -0.001062 -0.001209 0.000000 0.001439 0.000000
# 2 -0.001062 0.007152 -0.001505 0.000000 0.001500 0.000000
# 3 -0.001209 -0.001505 0.017801 0.000000 -0.001908 0.000000
# 4 0.000000 0.000000 0.000000 0.031429 0.000000 -0.005553
# 5 0.001439 0.001500 -0.001908 0.000000 0.024146 0.000000
# 6 0.000000 0.000000 0.000000 -0.005553 0.000000 0.023290
#
#
# Mechanical properties :
#
#
# Convention : Reuss Voigt Hill
#
# Bulk Modulus (GPa) = 42.95939 56.65111 49.80525
# Shear Modulus (GPa) = 39.99855 46.20617 43.10236
#
# Velocity S-wave (km/s) = 3.82942 4.11586 3.97522
# Velocity P-wave (km/s) = 5.94160 6.58459 6.27134
#
# Compressibility (1/GPa) = 0.02327780
#
# Stress axis : x y z
#
# Youngs Moduli (GPa) = 170.14845 139.82770 56.17718
#
# Poissons Ratio (x) = 0.14856 0.06791
# Poissons Ratio (y) = 0.18077 0.08453
# Poissons Ratio (z) = 0.20569 0.21039
#
# Static dielectric constant tensor:
#      x y z
#    x 2.247080 0.000000 0.174160 
#    y 0.000000 2.259820 0.000000 
#    z 0.174160 0.000000 2.441700 
# 
# From -- ./inp_files/15398.got.cif
#   From: 2010.05.17/outbox.cif.g08.bks.cpg/sg9_8_cif.got.tgz:15398.got - 2010.06.03 20:04:27.
