data_PCOD9134518
_publ_section_title
;
Structure prediction by ZEFSAII (Michael W. Deem and Ramdas Pophale) SiO2 
 PCOD9134518
Probable space group: C C
;
_chemical_formula_sum "Si O2"
_cell_formula_units_Z 24
_cell_length_a 10.187066
_cell_length_b 20.305902
_cell_length_c 10.113788
_cell_angle_alpha 90.000000
_cell_angle_beta 149.148630
_cell_angle_gamma 90.000000
_cell_volume 1072.862567
_symmetry_space_group_name_H-M "C C"
_symmetry_group_IT_number 9
_symmetry_cell_setting 'monoclinic'
loop_
_space_group_symop_operation_xyz
x,y,z
x,-y,1/2+z
1/2+x,1/2+y,z
1/2+x,1/2-y,1/2+z
loop_
_atom_site_type_symbol
_atom_site_label
_atom_site_fract_x
_atom_site_fract_y
_atom_site_fract_z
Si Si1 0.460410 0.616649 0.383780
Si Si2 0.508232 0.932206 0.337929
Si Si3 0.373488 0.763373 0.016250
Si Si4 0.245712 0.347297 0.205762
Si Si5 0.191170 0.508806 0.731928
Si Si6 0.254341 0.710994 0.426633
O O1 0.759971 0.613356 0.612521
O O2 0.398064 0.549244 0.411971
O O3 0.369275 0.673958 0.400143
O O4 0.268238 0.609279 0.092658
O O5 0.553207 0.976426 0.249238
O O6 0.496454 0.980852 0.453534
O O7 0.404161 0.708217 0.924552
O O8 0.467236 0.830734 0.029942
O O9 0.081697 0.757475 0.803324
O O10 0.247857 0.333099 0.053190
O O11 0.312091 0.422091 0.291757
O O12 0.465253 0.766559 0.644790
#
# Coordination Sequence:
#
# PCOD9134518 Si02
#       6
#     4   4   4   4   4   4
#     4  10  25  44  65 103 131 176 234 277 352 397
#     4  10  24  44  64 102 132 180 227 274 352 399
#     4   8  16  32  47  82 123 152 213 255 311 378
#     4  10  19  37  61  99 128 169 225 276 332 376
#     4  10  24  42  73  96 143 181 222 295 330 427
#     4  12  22  41  72  94 137 180 235 281 329 407
#
# _framework density 22.370059999999999
#
# number of rings (size 3 to 8) (size 9 to 14) (size 15 to 20)
#    2.000    0.000    1.667    2.000    2.333    1.333 
#    0.000    0.000   11.000    0.000    0.000    0.000 
#    0.000    0.000    0.000    0.000    0.000    0.000 
#
# Total GULP energy -66901.345174 kJ/mol
# GULP energy per Si atom -5575.112098 kJ/mol
# Density = 2.231914 g / cm^3
# Si number density = 22.370060 Si / 1000 Ang^3
#
#
#
# Elastic Constant Matrix: (Units=GPa)
#
#
# Indices 1 2 3 4 5 6 
#
# 1 88.7221 -12.2140 31.9725 0.0000 -13.6579 0.0000
# 2 -12.2140 17.3582 1.3776 0.0000 -9.0868 0.0000
# 3 31.9725 1.3776 82.1329 0.0002 8.7448 0.0001
# 4 0.0000 0.0000 0.0002 20.2025 0.0001 2.4223
# 5 -13.6579 -9.0868 8.7448 0.0001 30.7351 0.0001
# 6 0.0000 0.0000 0.0001 2.4223 0.0001 39.1994
#
#
#
# Elastic Compliance Matrix: (Units=1/GPa)
#
#
# Indices 1 2 3 4 5 6 
#
# 1 0.022710 0.028297 -0.011633 0.000000 0.021767 0.000000
# 2 0.028297 0.104347 -0.017932 0.000000 0.048527 0.000000
# 3 -0.011633 -0.017932 0.018685 0.000000 -0.015787 0.000000
# 4 0.000000 0.000000 0.000000 0.049868 0.000000 -0.003082
# 5 0.021767 0.048527 -0.015787 0.000000 0.061048 0.000000
# 6 0.000000 0.000000 0.000000 -0.003082 0.000000 0.025701
#
#
# Mechanical properties :
#
#
# Convention : Reuss Voigt Hill
#
# Bulk Modulus (GPa) = 6.98290 25.60949 16.29620
# Shear Modulus (GPa) = 15.03175 29.16587 22.09881
#
# Velocity S-wave (km/s) = 2.59503 3.61472 3.14646
# Velocity P-wave (km/s) = 3.47954 5.37537 4.52779
#
# Compressibility (1/GPa) = 0.14320693
#
# Stress axis : x y z
#
# Youngs Moduli (GPa) = 44.03429 9.58341 53.51794
#
# Poissons Ratio (x) = -0.27119 0.62255
# Poissons Ratio (y) = -1.24606 0.95971
# Poissons Ratio (z) = 0.51223 0.17185
#
# Static dielectric constant tensor:
#      x y z
#    x 1.802490 0.000000 0.024100 
#    y 0.000000 1.859140 0.000000 
#    z 0.024100 0.000000 1.879330 
# 
# From -- ./inp_files/2715.got.cif
#   From: 2010.05.17/outbox.cif.g08.bks.cpg/sg9_2_cif.got.tgz:2715.got - 2010.06.03 20:04:27.
