data_PCOD9134702
_publ_section_title
;
Structure prediction by ZEFSAII (Michael W. Deem and Ramdas Pophale) SiO2 
 PCOD9134702
Probable space group: C C
;
_chemical_formula_sum "Si O2"
_cell_formula_units_Z 24
_cell_length_a 7.431406
_cell_length_b 15.631111
_cell_length_c 9.458942
_cell_angle_alpha 90.000000
_cell_angle_beta 46.935108
_cell_angle_gamma 90.000000
_cell_volume 802.734008
_symmetry_space_group_name_H-M "C C"
_symmetry_group_IT_number 9
_symmetry_cell_setting 'monoclinic'
loop_
_space_group_symop_operation_xyz
x,y,z
x,-y,1/2+z
1/2+x,1/2+y,z
1/2+x,1/2-y,1/2+z
loop_
_atom_site_type_symbol
_atom_site_label
_atom_site_fract_x
_atom_site_fract_y
_atom_site_fract_z
Si Si1 0.789020 0.322583 0.316230
Si Si2 0.549570 0.814527 0.551900
Si Si3 0.667033 0.943166 0.048977
Si Si4 0.272116 0.646331 0.225621
Si Si5 0.066556 0.868269 0.144079
Si Si6 0.205889 0.959424 0.708846
O O1 0.540194 0.360768 0.512789
O O2 0.789217 0.221849 0.332432
O O3 0.752461 0.332410 0.166121
O O4 0.047005 0.367181 0.204338
O O5 0.083409 0.667255 0.202298
O O6 0.791546 0.858340 0.355116
O O7 0.566337 0.710916 0.530532
O O8 0.437946 0.007539 0.175914
O O9 0.697542 0.931598 0.862824
O O10 0.951227 0.956631 0.935213
O O11 0.809436 0.636220 0.121062
O O12 0.148522 0.968692 0.119016
#
# Coordination Sequence:
#
# PCOD9134702 Si02
#       6
#     4   4   4   4   4   4
#     4   9  18  36  67  96 134 187 238 293 361 438
#     4  10  21  42  70  98 137 194 243 295 373 445
#     4  11  23  43  66  97 148 189 239 309 368 435
#     4  10  19  39  70 102 134 190 248 289 369 449
#     4   9  20  39  67  95 135 186 233 292 367 432
#     4  11  23  45  68 100 148 190 239 314 370 433
#
# _framework density 29.897824
#
# number of rings (size 3 to 8) (size 9 to 14) (size 15 to 20)
#    0.000    2.000    3.333    0.000    7.000    0.000 
#   12.000    0.000    0.000    0.000    0.000    0.000 
#    0.000    0.000    0.000    0.000    0.000    0.000 
#
# Total GULP energy -67049.873770 kJ/mol
# GULP energy per Si atom -5587.489481 kJ/mol
# Density = 2.982977 g / cm^3
# Si number density = 29.897824 Si / 1000 Ang^3
#
#
#
# Elastic Constant Matrix: (Units=GPa)
#
#
# Indices 1 2 3 4 5 6 
#
# 1 151.0660 66.9637 53.4756 0.0000 -34.0013 0.0000
# 2 66.9637 177.1966 74.3892 0.0000 -32.2797 0.0000
# 3 53.4756 74.3892 188.9382 0.0000 -62.0994 0.0000
# 4 0.0000 0.0000 0.0000 49.6443 0.0000 -25.0725
# 5 -34.0013 -32.2797 -62.0994 0.0000 68.6732 0.0000
# 6 0.0000 0.0000 0.0000 -25.0725 0.0000 38.5602
#
#
#
# Elastic Compliance Matrix: (Units=1/GPa)
#
#
# Indices 1 2 3 4 5 6 
#
# 1 0.008504 -0.002508 -0.000602 0.000000 0.002487 0.000000
# 2 -0.002508 0.007559 -0.002144 0.000000 0.000373 0.000000
# 3 -0.000602 -0.002144 0.008364 0.000000 0.006257 0.000000
# 4 0.000000 0.000000 0.000000 0.029992 0.000000 0.019502
# 5 0.002487 0.000373 0.006257 0.000000 0.021627 0.000000
# 6 0.000000 0.000000 0.000000 0.019502 0.000000 0.038614
#
#
# Mechanical properties :
#
#
# Convention : Reuss Voigt Hill
#
# Bulk Modulus (GPa) = 71.84061 100.76196 86.30129
# Shear Modulus (GPa) = 38.51842 52.86703 45.69272
#
# Velocity S-wave (km/s) = 3.59323 4.20963 3.91358
# Velocity P-wave (km/s) = 6.42619 7.57649 7.02493
#
# Compressibility (1/GPa) = 0.01391970
#
# Stress axis : x y z
#
# Youngs Moduli (GPa) = 117.58757 132.28999 119.56184
#
# Poissons Ratio (x) = 0.33178 0.07198
# Poissons Ratio (y) = 0.29491 0.25632
# Poissons Ratio (z) = 0.07079 0.28361
#
# Static dielectric constant tensor:
#      x y z
#    x 2.305720 0.000000 0.063380 
#    y 0.000000 2.642400 0.000000 
#    z 0.063380 0.000000 2.303310 
# 
# From -- ./inp_files/15004.got.cif
#   From: 2010.05.17/outbox.cif.g08.bks.cpg/sg9_8_cif.got.tgz:15004.got - 2010.06.03 20:04:27.
