data_PCOD9134263
_publ_section_title
;
Structure prediction by ZEFSAII (Michael W. Deem and Ramdas Pophale) SiO2 
 PCOD9134263
Probable space group: C C
;
_chemical_formula_sum "Si O2"
_cell_formula_units_Z 28
_cell_length_a 16.541279
_cell_length_b 13.487746
_cell_length_c 5.351623
_cell_angle_alpha 90.000000
_cell_angle_beta 58.296572
_cell_angle_gamma 90.000000
_cell_volume 1015.806717
_symmetry_space_group_name_H-M "C C"
_symmetry_group_IT_number 9
_symmetry_cell_setting 'monoclinic'
loop_
_space_group_symop_operation_xyz
x,y,z
x,-y,1/2+z
1/2+x,1/2+y,z
1/2+x,1/2-y,1/2+z
loop_
_atom_site_type_symbol
_atom_site_label
_atom_site_fract_x
_atom_site_fract_y
_atom_site_fract_z
Si Si1 0.564490 0.820462 0.596920
Si Si2 0.943326 0.952796 0.796746
Si Si3 0.414951 0.964888 0.275960
Si Si4 0.202082 0.956499 0.137794
Si Si5 0.899178 0.257474 0.543154
Si Si6 0.747015 0.117654 0.640858
Si Si7 0.654089 0.752458 0.950768
O O1 0.455159 0.801947 0.690859
O O2 0.642293 0.907856 0.409450
O O3 0.610412 0.748697 0.302969
O O4 0.585098 0.794812 0.848993
O O5 0.954457 0.836900 0.835626
O O6 0.828394 0.963685 0.987994
O O7 0.980003 0.016589 0.968333
O O8 0.466243 0.012124 0.433138
O O9 0.314313 0.021123 0.421378
O O10 0.394602 0.850896 0.366131
O O11 0.188517 0.851119 0.288457
O O12 0.166094 0.030477 0.414117
O O13 0.796142 0.205190 0.732989
O O14 0.735933 0.168503 0.386519
#
# Coordination Sequence:
#
# PCOD9134263 Si02
#       7
#     4   4   4   4   4   4   4
#     4  10  23  41  64 104 122 178 223 263 346 393
#     4  10  24  42  69  96 125 181 241 270 325 386
#     4  10  22  36  63 101 128 166 212 254 339 410
#     4  10  19  32  56  91 131 155 207 250 321 411
#     4  10  23  46  71  93 142 175 217 288 328 400
#     4   8  22  40  72  88 128 172 217 268 332 376
#     4  10  21  39  63  95 132 167 217 267 329 402
#
# _framework density 27.564301
#
# number of rings (size 3 to 8) (size 9 to 14) (size 15 to 20)
#    1.714    0.571    0.000    2.571    6.000    3.429 
#    2.571    5.714    0.000    0.000    0.000    0.000 
#    0.000    0.000    0.000    0.000    0.000    0.000 
#
# Total GULP energy -78108.964908 kJ/mol
# GULP energy per Si atom -5579.211779 kJ/mol
# Density = 2.750156 g / cm^3
# Si number density = 27.564301 Si / 1000 Ang^3
#
#
#
# Elastic Constant Matrix: (Units=GPa)
#
#
# Indices 1 2 3 4 5 6 
#
# 1 149.6656 -13.6085 34.7411 0.0000 9.7264 0.0000
# 2 -13.6085 55.3769 0.4584 0.0000 -0.9876 0.0000
# 3 34.7411 0.4584 138.5249 0.0000 22.0564 0.0000
# 4 0.0000 0.0000 0.0000 34.1275 0.0000 17.9709
# 5 9.7264 -0.9876 22.0564 0.0000 45.2464 0.0000
# 6 0.0000 0.0000 0.0000 17.9709 0.0000 15.7013
#
#
#
# Elastic Compliance Matrix: (Units=1/GPa)
#
#
# Indices 1 2 3 4 5 6 
#
# 1 0.007290 0.001793 -0.001725 0.000000 -0.000687 0.000000
# 2 0.001793 0.018509 -0.000557 0.000000 0.000290 0.000000
# 3 -0.001725 -0.000557 0.008235 0.000000 -0.003656 0.000000
# 4 0.000000 0.000000 0.000000 0.073752 0.000000 -0.084413
# 5 -0.000687 0.000290 -0.003656 0.000000 0.024037 0.000000
# 6 0.000000 0.000000 0.000000 -0.084413 0.000000 0.160304
#
#
# Mechanical properties :
#
#
# Convention : Reuss Voigt Hill
#
# Bulk Modulus (GPa) = 30.25116 42.97216 36.61166
# Shear Modulus (GPa) = 16.44068 40.48013 28.46041
#
# Velocity S-wave (km/s) = 2.44488 3.83635 3.21675
# Velocity P-wave (km/s) = 4.35528 5.93693 5.20651
#
# Compressibility (1/GPa) = 0.03305658
#
# Stress axis : x y z
#
# Youngs Moduli (GPa) = 137.18111 54.02898 121.42663
#
# Poissons Ratio (x) = -0.09690 0.20943
# Poissons Ratio (y) = -0.24602 0.06766
# Poissons Ratio (z) = 0.23660 0.03011
#
# Static dielectric constant tensor:
#      x y z
#    x 2.325370 0.000000 -0.056900 
#    y 0.000000 2.240510 0.000000 
#    z -0.056900 0.000000 2.205690 
# 
# From -- ./inp_files/2895.got.cif
#   From: 2010.05.17/outbox.cif.g08.bks.cpg/sg9_2_cif.got.tgz:2895.got - 2010.06.03 20:04:27.
