data_PCOD9134363
_publ_section_title
;
Structure prediction by ZEFSAII (Michael W. Deem and Ramdas Pophale) SiO2 
 PCOD9134363
Probable space group: C C
;
_chemical_formula_sum "Si O2"
_cell_formula_units_Z 32
_cell_length_a 9.067364
_cell_length_b 22.956942
_cell_length_c 15.493868
_cell_angle_alpha 90.000000
_cell_angle_beta 33.542463
_cell_angle_gamma 90.000000
_cell_volume 1782.092852
_symmetry_space_group_name_H-M "C C"
_symmetry_group_IT_number 9
_symmetry_cell_setting 'monoclinic'
loop_
_space_group_symop_operation_xyz
x,y,z
x,-y,1/2+z
1/2+x,1/2+y,z
1/2+x,1/2-y,1/2+z
loop_
_atom_site_type_symbol
_atom_site_label
_atom_site_fract_x
_atom_site_fract_y
_atom_site_fract_z
Si Si1 0.869600 0.132850 0.176170
Si Si2 0.879424 0.319759 0.505423
Si Si3 0.307422 0.826454 0.897157
Si Si4 0.512112 0.481980 0.700979
Si Si5 0.768331 0.954212 0.579995
Si Si6 0.856379 0.744886 0.197146
Si Si7 0.545414 0.940771 0.504033
Si Si8 0.693492 0.539183 0.433213
O O1 0.581500 0.162215 0.314786
O O2 0.895726 0.081167 0.233194
O O3 0.894071 0.098426 0.073688
O O4 0.114445 0.174528 0.077612
O O5 0.812670 0.291377 0.630760
O O6 0.995538 0.383261 0.472259
O O7 0.102821 0.284040 0.345761
O O8 0.383790 0.796138 0.768433
O O9 0.180143 0.890442 0.941097
O O10 0.107484 0.786067 0.049843
O O11 0.760540 0.473266 0.643877
O O12 0.628540 0.512510 0.558440
O O13 0.270466 0.520019 0.851616
O O14 0.658507 0.929959 0.543862
O O15 0.500046 0.974982 0.760169
O O16 0.981361 0.006653 0.474653
#
# Coordination Sequence:
#
# PCOD9134363 Si02
#       8
#     4   4   4   4   4   4   4   4
#     4   9  20  36  56  78 107 139 171 215 267 315
#     4  10  21  37  56  77 106 139 177 221 261 304
#     4  10  20  37  56  77 105 139 178 222 262 304
#     4  10  20  33  54  82 109 140 172 205 262 327
#     4  10  20  33  54  82 109 140 171 206 263 325
#     4  10  22  37  56  78 100 139 186 221 261 304
#     4  11  20  34  54  81 112 138 170 216 260 313
#     4  10  19  35  54  77 110 142 171 210 260 318
#
# _framework density 17.956415
#
# number of rings (size 3 to 8) (size 9 to 14) (size 15 to 20)
#    0.000    2.000    0.000    5.250    0.000    4.000 
#    0.000    0.000    0.000    6.000    0.000    0.000 
#    0.000    0.000    0.000    0.000    0.000    0.000 
#
# Total GULP energy -89235.033916 kJ/mol
# GULP energy per Si atom -5577.189620 kJ/mol
# Density = 1.791555 g / cm^3
# Si number density = 17.956415 Si / 1000 Ang^3
#
#
#
# Elastic Constant Matrix: (Units=GPa)
#
#
# Indices 1 2 3 4 5 6 
#
# 1 76.4016 16.2416 42.2595 -0.0038 -17.0633 0.0024
# 2 16.2416 73.2603 44.3837 -0.0018 -18.8186 0.0012
# 3 42.2595 44.3837 107.0244 -0.0016 -8.8947 0.0002
# 4 -0.0038 -0.0018 -0.0016 46.4617 0.0014 -19.6508
# 5 -17.0633 -18.8186 -8.8947 0.0014 25.3523 -0.0006
# 6 0.0024 0.0012 0.0002 -19.6508 -0.0006 31.3525
#
#
#
# Elastic Compliance Matrix: (Units=1/GPa)
#
#
# Indices 1 2 3 4 5 6 
#
# 1 0.019910 0.004202 -0.008479 0.000001 0.013545 -0.000001
# 2 0.004202 0.022839 -0.009772 0.000000 0.016353 -0.000001
# 3 -0.008479 -0.009772 0.016137 0.000000 -0.007298 0.000001
# 4 0.000001 0.000000 0.000000 0.029287 -0.000001 0.018356
# 5 0.013545 0.016353 -0.007298 -0.000001 0.058138 -0.000001
# 6 -0.000001 -0.000001 0.000001 0.018356 -0.000001 0.043400
#
#
# Mechanical properties :
#
#
# Convention : Reuss Voigt Hill
#
# Bulk Modulus (GPa) = 32.47810 51.38401 41.93105
# Shear Modulus (GPa) = 21.92294 30.88673 26.40483
#
# Velocity S-wave (km/s) = 3.49792 4.15190 3.83886
# Velocity P-wave (km/s) = 5.86860 7.18766 6.56136
#
# Compressibility (1/GPa) = 0.03078998
#
# Stress axis : x y z
#
# Youngs Moduli (GPa) = 50.22537 43.78491 61.96829
#
# Poissons Ratio (x) = -0.18398 0.52540
# Poissons Ratio (y) = -0.21104 0.60553
# Poissons Ratio (z) = 0.42584 0.42785
#
# Static dielectric constant tensor:
#      x y z
#    x 1.631770 0.000000 0.010630 
#    y 0.000000 1.623990 0.000000 
#    z 0.010630 0.000000 1.600330 
# 
# From -- ./inp_files/5740.got.cif
#   From: 2010.05.17/outbox.cif.g08.bks.cpg/sg9_3_cif.got.tgz:5740.got - 2010.06.03 20:04:27.
