data_PCOD9134913
_publ_section_title
;
Structure prediction by ZEFSAII (Michael W. Deem and Ramdas Pophale) SiO2 
 PCOD9134913
Probable space group: C C
;
_chemical_formula_sum "Si O2"
_cell_formula_units_Z 32
_cell_length_a 22.521926
_cell_length_b 11.897443
_cell_length_c 18.021413
_cell_angle_alpha 90.000000
_cell_angle_beta 162.972141
_cell_angle_gamma 90.000000
_cell_volume 1414.078234
_symmetry_space_group_name_H-M "C C"
_symmetry_group_IT_number 9
_symmetry_cell_setting 'monoclinic'
loop_
_space_group_symop_operation_xyz
x,y,z
x,-y,1/2+z
1/2+x,1/2+y,z
1/2+x,1/2-y,1/2+z
loop_
_atom_site_type_symbol
_atom_site_label
_atom_site_fract_x
_atom_site_fract_y
_atom_site_fract_z
Si Si1 0.367200 0.487441 0.419470
Si Si2 0.139855 0.298747 0.073230
Si Si3 0.823838 0.113544 0.219063
Si Si4 0.772658 0.388829 0.427472
Si Si5 0.381300 0.384948 0.227988
Si Si6 0.244200 0.851476 0.154996
Si Si7 0.232454 0.079337 0.052910
Si Si8 0.603950 0.136134 0.203058
O O1 0.297457 0.360708 0.316089
O O2 0.280063 0.560072 0.246228
O O3 0.604037 0.518766 0.702281
O O4 0.264064 0.542205 0.368249
O O5 0.211008 0.321809 0.072771
O O6 0.078206 0.167473 0.009541
O O7 0.926572 0.364424 0.825828
O O8 0.061759 0.136434 0.494783
O O9 0.717139 0.231548 0.083142
O O10 0.799373 0.010987 0.133891
O O11 0.782905 0.404893 0.527667
O O12 0.693954 0.261192 0.319959
O O13 0.979985 0.397031 0.628840
O O14 0.500737 0.377164 0.292879
O O15 0.441990 0.854165 0.442369
O O16 0.235338 0.952138 0.086165
#
# Coordination Sequence:
#
# PCOD9134913 Si02
#       8
#     4   4   4   4   4   4   4   4
#     4  11  22  38  63  97 128 175 224 277 330 391
#     4  11  22  39  65  90 133 174 224 267 330 407
#     4  10  20  34  65  98 121 160 225 278 308 381
#     4  12  25  38  60 102 137 173 218 291 338 386
#     4  10  23  39  61  97 129 168 218 269 329 395
#     4  11  19  39  64  97 126 167 225 273 317 401
#     4  11  26  40  62 100 140 169 212 283 347 383
#     4  12  21  37  64  93 138 174 220 272 333 394
#
# _framework density 22.629581999999999
#
# number of rings (size 3 to 8) (size 9 to 14) (size 15 to 20)
#    0.000    1.000    6.250    0.750    3.500    1.000 
#    0.000    0.000    0.000    6.000    0.000    0.000 
#    0.000    0.000    0.000    0.000    0.000    0.000 
#
# Total GULP energy -89120.081978 kJ/mol
# GULP energy per Si atom -5570.005124 kJ/mol
# Density = 2.257808 g / cm^3
# Si number density = 22.629582 Si / 1000 Ang^3
#
#
#
# Elastic Constant Matrix: (Units=GPa)
#
#
# Indices 1 2 3 4 5 6 
#
# 1 125.9755 12.6694 24.4562 -0.0015 31.0516 0.0011
# 2 12.6694 82.8393 3.4960 0.0012 -2.4201 0.0027
# 3 24.4562 3.4960 33.8791 0.0084 16.6163 0.0028
# 4 -0.0015 0.0012 0.0084 20.2312 0.0001 8.9700
# 5 31.0516 -2.4201 16.6163 0.0001 45.6559 0.0008
# 6 0.0011 0.0027 0.0028 8.9700 0.0008 23.3754
#
#
#
# Elastic Compliance Matrix: (Units=1/GPa)
#
#
# Indices 1 2 3 4 5 6 
#
# 1 0.010329 -0.001542 -0.004640 0.000003 -0.005418 -0.000001
# 2 -0.001542 0.012422 -0.001225 0.000000 0.002153 -0.000001
# 3 -0.004640 -0.001225 0.038316 -0.000017 -0.010854 0.000003
# 4 0.000003 0.000000 -0.000017 0.059562 0.000004 -0.022856
# 5 -0.005418 0.002153 -0.010854 0.000004 0.029653 -0.000001
# 6 -0.000001 -0.000001 0.000003 -0.022856 -0.000001 0.051551
#
#
# Mechanical properties :
#
#
# Convention : Reuss Voigt Hill
#
# Bulk Modulus (GPa) = 21.61964 35.99300 28.80632
# Shear Modulus (GPa) = 21.54571 31.32401 26.43486
#
# Velocity S-wave (km/s) = 3.08897 3.72453 3.42154
# Velocity P-wave (km/s) = 4.72194 5.86822 5.32601
#
# Compressibility (1/GPa) = 0.04625425
#
# Stress axis : x y z
#
# Youngs Moduli (GPa) = 96.81020 80.50227 26.09875
#
# Poissons Ratio (x) = 0.12416 0.12109
# Poissons Ratio (y) = 0.14931 0.03196
# Poissons Ratio (z) = 0.44919 0.09858
#
# Static dielectric constant tensor:
#      x y z
#    x 1.875920 0.000000 0.014500 
#    y 0.000000 1.920630 0.000000 
#    z 0.014500 0.000000 1.910380 
# 
# From -- ./inp_files/31308.got.cif
#   From: 2010.05.17/outbox.cif.g08.bks.cpg/sg9_16_cif.got.tgz:31308.got - 2010.06.03 20:04:27.
