data_PCOD9134340
_publ_section_title
;
Structure prediction by ZEFSAII (Michael W. Deem and Ramdas Pophale) SiO2 
 PCOD9134340
Probable space group: C C
;
_chemical_formula_sum "Si O2"
_cell_formula_units_Z 32
_cell_length_a 6.456220
_cell_length_b 14.105891
_cell_length_c 17.322793
_cell_angle_alpha 90.000000
_cell_angle_beta 61.233882
_cell_angle_gamma 90.000000
_cell_volume 1382.910176
_symmetry_space_group_name_H-M "C C"
_symmetry_group_IT_number 9
_symmetry_cell_setting 'monoclinic'
loop_
_space_group_symop_operation_xyz
x,y,z
x,-y,1/2+z
1/2+x,1/2+y,z
1/2+x,1/2-y,1/2+z
loop_
_atom_site_type_symbol
_atom_site_label
_atom_site_fract_x
_atom_site_fract_y
_atom_site_fract_z
Si Si1 0.570130 0.247781 0.927320
Si Si2 0.243655 0.849506 0.601737
Si Si3 0.192673 0.585976 0.483268
Si Si4 0.370146 0.825439 0.161975
Si Si5 0.557738 0.163097 0.179921
Si Si6 0.987556 0.926930 0.515698
Si Si7 0.555528 0.857792 0.850721
Si Si8 0.349179 0.828238 0.332413
O O1 0.354363 0.320185 0.953300
O O2 0.576647 0.189750 0.845698
O O3 0.802757 0.306131 0.905401
O O4 0.476625 0.182072 0.012471
O O5 0.320546 0.860611 0.676123
O O6 0.135731 0.934241 0.569438
O O7 0.061301 0.761186 0.632693
O O8 0.364195 0.512408 0.493911
O O9 0.108530 0.569680 0.410330
O O10 0.967635 0.607813 0.577204
O O11 0.122046 0.773477 0.186524
O O12 0.376660 0.876353 0.244147
O O13 0.566209 0.109540 0.260414
O O14 0.768703 0.133245 0.086157
O O15 0.158352 0.876449 0.423268
O O16 0.744009 0.773201 0.824984
#
# Coordination Sequence:
#
# PCOD9134340 Si02
#       8
#     4   4   4   4   4   4   4   4
#     4   9  17  32  55  83 111 150 192 240 287 336
#     4   9  17  32  57  84 110 150 196 245 282 339
#     4  10  21  36  54  81 124 154 183 237 297 355
#     4   9  18  34  58  84 113 147 196 248 283 339
#     4  10  19  34  60  84 110 149 203 241 286 339
#     4  10  21  36  54  82 122 155 185 236 295 355
#     4  10  19  34  60  85 111 148 199 244 286 342
#     4   9  18  34  58  85 111 147 198 247 280 341
#
# _framework density 23.139609
#
# number of rings (size 3 to 8) (size 9 to 14) (size 15 to 20)
#    0.000    2.500    0.000    4.500    0.000    2.000 
#    2.250    0.000   13.750    0.000    0.000    0.000 
#    0.000    0.000    0.000    0.000    0.000    0.000 
#
# Total GULP energy -89217.078046 kJ/mol
# GULP energy per Si atom -5576.067378 kJ/mol
# Density = 2.308694 g / cm^3
# Si number density = 23.139609 Si / 1000 Ang^3
#
#
#
# Elastic Constant Matrix: (Units=GPa)
#
#
# Indices 1 2 3 4 5 6 
#
# 1 125.3490 30.9789 67.5660 0.0000 40.3827 0.0000
# 2 30.9789 38.1950 30.2830 0.0000 21.7092 0.0000
# 3 67.5660 30.2830 135.5579 0.0000 34.6086 0.0000
# 4 0.0000 0.0000 0.0000 -2.7408 0.0000 12.6789
# 5 40.3827 21.7092 34.6086 0.0000 54.9146 0.0000
# 6 0.0000 0.0000 0.0000 12.6789 0.0000 20.3183
#
#
#
# Elastic Compliance Matrix: (Units=1/GPa)
#
#
# Indices 1 2 3 4 5 6 
#
# 1 0.012959 -0.004226 -0.004181 0.000000 -0.005224 0.000000
# 2 -0.004226 0.038157 -0.004004 0.000000 -0.009453 0.000000
# 3 -0.004181 -0.004004 0.010924 0.000000 -0.002227 0.000000
# 4 0.000000 0.000000 0.000000 -0.093874 0.000000 0.058579
# 5 -0.005224 -0.009453 -0.002227 0.000000 0.027192 0.000000
# 6 0.000000 0.000000 0.000000 0.058579 0.000000 0.012663
#
#
# Mechanical properties :
#
#
# Convention : Reuss Voigt Hill
#
# Bulk Modulus (GPa) = 26.87008 61.86197 44.36602
# Shear Modulus (GPa) = 110.49758 25.85002 68.17380
#
# Velocity S-wave (km/s) = 6.91782 3.34598 5.43377
# Velocity P-wave (km/s) = 8.68595 6.45908 7.65393
#
# Compressibility (1/GPa) = 0.03721611
#
# Stress axis : x y z
#
# Youngs Moduli (GPa) = 77.16673 26.20756 91.54124
#
# Poissons Ratio (x) = 0.11077 0.38276
# Poissons Ratio (y) = 0.32614 0.36654
# Poissons Ratio (z) = 0.32266 0.10494
#
# Static dielectric constant tensor:
#      x y z
#    x 1.933120 0.000000 0.042390 
#    y 0.000000 1.983200 0.000000 
#    z 0.042390 0.000000 1.942610 
# 
# From -- ./inp_files/28580.got.cif
#   From: 2010.05.17/outbox.cif.g08.bks.cpg/sg9_15_cif.got.tgz:28580.got - 2010.06.03 20:04:27.
