data_PCOD9134086
_publ_section_title
;
Structure prediction by ZEFSAII (Michael W. Deem and Ramdas Pophale) SiO2 
 PCOD9134086
Probable space group: C C
;
_chemical_formula_sum "Si O2"
_cell_formula_units_Z 32
_cell_length_a 19.198876
_cell_length_b 15.976271
_cell_length_c 8.512150
_cell_angle_alpha 90.000000
_cell_angle_beta 34.184367
_cell_angle_gamma 90.000000
_cell_volume 1466.955095
_symmetry_space_group_name_H-M "C C"
_symmetry_group_IT_number 9
_symmetry_cell_setting 'monoclinic'
loop_
_space_group_symop_operation_xyz
x,y,z
x,-y,1/2+z
1/2+x,1/2+y,z
1/2+x,1/2-y,1/2+z
loop_
_atom_site_type_symbol
_atom_site_label
_atom_site_fract_x
_atom_site_fract_y
_atom_site_fract_z
Si Si1 0.638570 0.390818 0.125000
Si Si2 0.345647 0.826452 0.933900
Si Si3 0.659009 0.794012 0.637431
Si Si4 0.807367 0.867606 0.083074
Si Si5 0.041171 0.034529 0.132538
Si Si6 0.089738 0.678431 0.803212
Si Si7 0.720107 0.644390 0.996745
Si Si8 0.436879 0.815757 0.286390
O O1 0.589373 0.441078 0.067513
O O2 0.568410 0.423185 0.413338
O O3 0.779577 0.389780 0.930727
O O4 0.617322 0.293083 0.134105
O O5 0.271122 0.740197 0.039070
O O6 0.489296 0.820878 0.629926
O O7 0.309207 0.849145 0.177708
O O8 0.541549 0.820690 0.957266
O O9 0.723653 0.853679 0.392778
O O10 0.898745 0.945037 0.928425
O O11 0.888325 0.780871 0.906337
O O12 0.709658 0.875209 0.123962
O O13 0.119979 0.078537 0.124736
O O14 0.145676 0.770001 0.664137
O O15 0.008185 0.653871 0.806380
O O16 0.814358 0.633657 0.965189
#
# Coordination Sequence:
#
# PCOD9134086 Si02
#       8
#     4   4   4   4   4   4   4   4
#     4   9  21  35  63  78 124 156 206 243 307 361
#     4   9  17  35  51  83 116 156 194 247 300 366
#     4  10  18  36  56  90 117 158 196 260 299 366
#     4  11  21  34  59  86 131 155 204 255 313 354
#     4  11  20  42  56  93 118 169 200 257 299 386
#     4  11  19  32  55  85 120 158 192 259 304 363
#     4  10  20  32  56  84 123 152 195 257 300 358
#     4  11  18  34  54  87 121 154 197 254 318 354
#
# _framework density 21.813893
#
# number of rings (size 3 to 8) (size 9 to 14) (size 15 to 20)
#    0.750    1.000    5.000    0.750    0.000    3.000 
#    0.000    1.250    0.000    6.000    0.000    0.000 
#    0.000    0.000    0.000    0.000    0.000    0.000 
#
# Total GULP energy -89208.163580 kJ/mol
# GULP energy per Si atom -5575.510224 kJ/mol
# Density = 2.176424 g / cm^3
# Si number density = 21.813893 Si / 1000 Ang^3
#
#
#
# Elastic Constant Matrix: (Units=GPa)
#
#
# Indices 1 2 3 4 5 6 
#
# 1 128.7064 9.1275 33.4448 0.0000 -28.2424 0.0000
# 2 9.1275 21.7432 24.3673 0.0000 -6.6923 0.0000
# 3 33.4448 24.3673 141.8054 0.0000 -19.3793 0.0000
# 4 0.0000 0.0000 0.0000 12.1612 0.0000 -1.3958
# 5 -28.2424 -6.6923 -19.3793 0.0000 24.7660 0.0000
# 6 0.0000 0.0000 0.0000 -1.3958 0.0000 26.5290
#
#
#
# Elastic Compliance Matrix: (Units=1/GPa)
#
#
# Indices 1 2 3 4 5 6 
#
# 1 0.010473 0.000134 -0.000958 0.000000 0.011230 0.000000
# 2 0.000134 0.058670 -0.008875 0.000000 0.009062 0.000000
# 3 -0.000958 -0.008875 0.009323 0.000000 0.003804 0.000000
# 4 0.000000 0.000000 0.000000 0.082728 0.000000 0.004353
# 5 0.011230 0.009062 0.003804 0.000000 0.058609 0.000000
# 6 0.000000 0.000000 0.000000 0.004353 0.000000 0.037924
#
#
# Mechanical properties :
#
#
# Convention : Reuss Voigt Hill
#
# Bulk Modulus (GPa) = 16.92974 47.34825 32.13900
# Shear Modulus (GPa) = 16.84549 27.71227 22.27888
#
# Velocity S-wave (km/s) = 2.78193 3.56813 3.19927
# Velocity P-wave (km/s) = 4.25402 6.22319 5.33033
#
# Compressibility (1/GPa) = 0.05906764
#
# Stress axis : x y z
#
# Youngs Moduli (GPa) = 95.48050 17.04443 107.26344
#
# Poissons Ratio (x) = -0.00228 0.10281
# Poissons Ratio (y) = -0.01279 0.95194
# Poissons Ratio (z) = 0.09152 0.15127
#
# Static dielectric constant tensor:
#      x y z
#    x 1.846260 0.000000 0.033000 
#    y 0.000000 1.845770 0.000000 
#    z 0.033000 0.000000 1.814750 
# 
# From -- ./inp_files/11872.got.cif
#   From: 2010.05.17/outbox.cif.g08.bks.cpg/sg9_6_cif.got.tgz:11872.got - 2010.06.03 20:04:27.
