data_PCOD9134977
_publ_section_title
;
Structure prediction by ZEFSAII (Michael W. Deem and Ramdas Pophale) SiO2 
 PCOD9134977
Probable space group: C C
;
_chemical_formula_sum "Si O2"
_cell_formula_units_Z 28
_cell_length_a 9.756415
_cell_length_b 14.955318
_cell_length_c 15.945396
_cell_angle_alpha 90.000000
_cell_angle_beta 148.519409
_cell_angle_gamma 90.000000
_cell_volume 1214.971702
_symmetry_space_group_name_H-M "C C"
_symmetry_group_IT_number 9
_symmetry_cell_setting 'monoclinic'
loop_
_space_group_symop_operation_xyz
x,y,z
x,-y,1/2+z
1/2+x,1/2+y,z
1/2+x,1/2-y,1/2+z
loop_
_atom_site_type_symbol
_atom_site_label
_atom_site_fract_x
_atom_site_fract_y
_atom_site_fract_z
Si Si1 0.858010 0.805969 0.138210
Si Si2 0.305282 0.792770 0.057447
Si Si3 0.969384 0.906789 0.618724
Si Si4 0.239161 0.250648 0.707901
Si Si5 0.769880 0.539682 0.437732
Si Si6 0.226077 0.145858 0.975036
Si Si7 0.013149 0.531054 0.399438
O O1 0.105786 0.816971 0.203843
O O2 0.978369 0.823420 0.291025
O O3 0.747309 0.705961 0.069215
O O4 0.649323 0.874752 0.992781
O O5 0.397593 0.877346 0.052350
O O6 0.990544 0.794110 0.881420
O O7 0.418662 0.698370 0.084407
O O8 0.338635 0.793325 0.174495
O O9 0.038167 0.925046 0.754466
O O10 0.231670 0.946403 0.712952
O O11 0.715180 0.964338 0.462298
O O12 0.996575 0.319701 0.570995
O O13 0.706492 0.460352 0.468217
O O14 0.951675 0.495939 0.461107
#
# Coordination Sequence:
#
# PCOD9134977 Si02
#       7
#     4   4   4   4   4   4   4
#     4  10  20  37  65  97 128 168 226 268 318 394
#     4  12  21  41  62 101 131 175 218 275 328 382
#     4  10  23  38  67  96 123 173 220 265 322 394
#     4  10  20  35  69  89 132 168 224 259 328 389
#     4  10  23  38  69  92 128 174 223 260 325 394
#     4  10  20  38  65 100 122 177 220 265 319 396
#     4  10  21  41  65  97 126 177 215 268 326 401
#
# _framework density 23.045804
#
# number of rings (size 3 to 8) (size 9 to 14) (size 15 to 20)
#    1.714    0.000    4.286    0.857    2.000    1.143 
#    0.000    1.429    3.143    0.000    0.000    0.000 
#    0.000    0.000    0.000    0.000    0.000    0.000 
#
# Total GULP energy -78013.826060 kJ/mol
# GULP energy per Si atom -5572.416147 kJ/mol
# Density = 2.299335 g / cm^3
# Si number density = 23.045804 Si / 1000 Ang^3
#
#
#
# Elastic Constant Matrix: (Units=GPa)
#
#
# Indices 1 2 3 4 5 6 
#
# 1 26.1853 0.6307 18.7051 0.0008 4.7918 0.0002
# 2 0.6307 148.8653 52.8724 -0.0004 -1.0566 0.0000
# 3 18.7051 52.8724 80.7510 0.0021 17.9951 0.0009
# 4 0.0008 -0.0004 0.0021 35.6273 0.0005 -2.5041
# 5 4.7918 -1.0566 17.9951 0.0005 18.7485 0.0001
# 6 0.0002 0.0000 0.0009 -2.5041 0.0001 22.1214
#
#
#
# Elastic Compliance Matrix: (Units=1/GPa)
#
#
# Indices 1 2 3 4 5 6 
#
# 1 0.048458 0.005207 -0.015188 0.000000 0.002486 0.000000
# 2 0.005207 0.010262 -0.009869 0.000000 0.008720 0.000000
# 3 -0.015188 -0.009869 0.027505 -0.000001 -0.023075 -0.000001
# 4 0.000000 0.000000 -0.000001 0.028293 0.000000 0.003203
# 5 0.002486 0.008720 -0.023075 0.000000 0.075341 0.000001
# 6 0.000000 0.000000 -0.000001 0.003203 0.000001 0.045568
#
#
# Mechanical properties :
#
#
# Convention : Reuss Voigt Hill
#
# Bulk Modulus (GPa) = 21.49319 44.46868 32.98093
# Shear Modulus (GPa) = 17.20362 27.53898 22.37130
#
# Velocity S-wave (km/s) = 2.73517 3.46058 3.11904
# Velocity P-wave (km/s) = 4.39562 5.94181 5.22621
#
# Compressibility (1/GPa) = 0.04652636
#
# Stress axis : x y z
#
# Youngs Moduli (GPa) = 20.63637 97.44400 36.35650
#
# Poissons Ratio (x) = -0.50735 0.55218
# Poissons Ratio (y) = -0.10744 0.35878
# Poissons Ratio (z) = 0.31342 0.96163
#
# Static dielectric constant tensor:
#      x y z
#    x 1.953340 0.000000 0.054630 
#    y 0.000000 1.880310 0.000000 
#    z 0.054630 0.000000 1.836440 
# 
# From -- ./inp_files/33389.got.cif
#   From: 2010.05.17/outbox.cif.g08.bks.cpg/sg9_17_cif.got.tgz:33389.got - 2010.06.03 20:04:27.
