data_PCOD9134374
_publ_section_title
;
Structure prediction by ZEFSAII (Michael W. Deem and Ramdas Pophale) SiO2 
 PCOD9134374
Probable space group: C C
;
_chemical_formula_sum "Si O2"
_cell_formula_units_Z 32
_cell_length_a 20.658602
_cell_length_b 12.799791
_cell_length_c 14.669452
_cell_angle_alpha 90.000000
_cell_angle_beta 22.080738
_cell_angle_gamma 90.000000
_cell_volume 1458.158592
_symmetry_space_group_name_H-M "C C"
_symmetry_group_IT_number 9
_symmetry_cell_setting 'monoclinic'
loop_
_space_group_symop_operation_xyz
x,y,z
x,-y,1/2+z
1/2+x,1/2+y,z
1/2+x,1/2-y,1/2+z
loop_
_atom_site_type_symbol
_atom_site_label
_atom_site_fract_x
_atom_site_fract_y
_atom_site_fract_z
Si Si1 0.378330 0.723069 0.107310
Si Si2 0.184349 0.356748 0.677990
Si Si3 0.196254 0.827230 0.882068
Si Si4 0.149991 0.943942 0.216140
Si Si5 0.393534 0.815314 0.800304
Si Si6 0.968458 0.000977 0.262215
Si Si7 0.092582 0.234560 0.128817
Si Si8 0.255395 0.831026 0.602782
O O1 0.268575 0.678346 0.165352
O O2 0.253978 0.740254 0.354432
O O3 0.482263 0.830250 0.948970
O O4 0.531351 0.638225 0.924221
O O5 0.262372 0.275141 0.503851
O O6 0.268678 0.466393 0.536046
O O7 0.350871 0.843464 0.751637
O O8 0.252885 0.789450 0.708661
O O9 0.079205 0.731801 0.069502
O O10 0.069936 0.928988 0.056120
O O11 0.056121 0.961035 0.241665
O O12 0.175776 0.055835 0.223526
O O13 0.339012 0.905060 0.940473
O O14 0.007670 0.124005 0.206674
O O15 0.147546 0.220686 0.162275
O O16 0.949006 0.323956 0.312892
#
# Coordination Sequence:
#
# PCOD9134374 Si02
#       8
#     4   4   4   4   4   4   4   4
#     4  10  19  35  62  87 113 152 195 238 289 341
#     4   9  17  34  60  89 113 145 191 246 290 333
#     4  10  19  35  58  82 112 153 188 229 286 342
#     4   8  18  37  58  80 109 146 192 242 282 330
#     4   9  17  34  58  84 109 140 189 241 284 333
#     4   8  18  36  57  80 113 146 188 238 286 336
#     4  11  23  40  57  85 122 156 191 237 286 345
#     4  11  23  39  56  81 121 158 190 233 285 344
#
# _framework density 21.945488000000001
#
# number of rings (size 3 to 8) (size 9 to 14) (size 15 to 20)
#    0.000    2.500    0.000    3.750    0.000    3.000 
#    0.000   15.000    0.000    0.000    0.000    0.000 
#    0.000    0.000    0.000    0.000    0.000    0.000 
#
# Total GULP energy -89161.152236 kJ/mol
# GULP energy per Si atom -5572.572015 kJ/mol
# Density = 2.189554 g / cm^3
# Si number density = 21.945488 Si / 1000 Ang^3
#
#
#
# Elastic Constant Matrix: (Units=GPa)
#
#
# Indices 1 2 3 4 5 6 
#
# 1 85.4652 15.8065 27.1646 0.0000 14.2119 0.0000
# 2 15.8065 39.7423 17.9500 0.0000 5.8633 0.0000
# 3 27.1646 17.9500 89.8482 0.0001 17.0057 -0.0001
# 4 0.0000 0.0000 0.0001 23.0512 0.0000 -6.6427
# 5 14.2119 5.8633 17.0057 0.0000 25.7202 0.0000
# 6 0.0000 0.0000 -0.0001 -6.6427 0.0000 16.1930
#
#
#
# Elastic Compliance Matrix: (Units=1/GPa)
#
#
# Indices 1 2 3 4 5 6 
#
# 1 0.014057 -0.003676 -0.002519 0.000000 -0.005263 0.000000
# 2 -0.003676 0.028827 -0.004330 0.000000 -0.001677 0.000000
# 3 -0.002519 -0.004330 0.014067 0.000000 -0.006922 0.000000
# 4 0.000000 0.000000 0.000000 0.049198 0.000000 0.020182
# 5 -0.005263 -0.001677 -0.006922 0.000000 0.046747 0.000000
# 6 0.000000 0.000000 0.000000 0.020182 0.000000 0.070034
#
#
# Mechanical properties :
#
#
# Convention : Reuss Voigt Hill
#
# Bulk Modulus (GPa) = 27.85577 37.43309 32.64443
# Shear Modulus (GPa) = 19.53525 23.26850 21.40188
#
# Velocity S-wave (km/s) = 2.98681 3.25974 3.12625
# Velocity P-wave (km/s) = 4.96140 5.59126 5.28572
#
# Compressibility (1/GPa) = 0.03589920
#
# Stress axis : x y z
#
# Youngs Moduli (GPa) = 71.14127 34.68913 71.08995
#
# Poissons Ratio (x) = 0.12753 0.17909
# Poissons Ratio (y) = 0.26154 0.30784
# Poissons Ratio (z) = 0.17922 0.15021
#
# Static dielectric constant tensor:
#      x y z
#    x 1.869100 0.000000 -0.009320 
#    y 0.000000 1.844660 0.000000 
#    z -0.009320 0.000000 1.813160 
# 
# From -- ./inp_files/24841.got.cif
#   From: 2010.05.17/outbox.cif.g08.bks.cpg/sg9_13_cif.got.tgz:24841.got - 2010.06.03 20:04:27.
