data_PCOD9134507
_publ_section_title
;
Structure prediction by ZEFSAII (Michael W. Deem and Ramdas Pophale) SiO2 
 PCOD9134507
Probable space group: C C
;
_chemical_formula_sum "Si O2"
_cell_formula_units_Z 28
_cell_length_a 17.381261
_cell_length_b 13.267252
_cell_length_c 5.189631
_cell_angle_alpha 90.000000
_cell_angle_beta 82.638440
_cell_angle_gamma 90.000000
_cell_volume 1186.872769
_symmetry_space_group_name_H-M "C C"
_symmetry_group_IT_number 9
_symmetry_cell_setting 'monoclinic'
loop_
_space_group_symop_operation_xyz
x,y,z
x,-y,1/2+z
1/2+x,1/2+y,z
1/2+x,1/2-y,1/2+z
loop_
_atom_site_type_symbol
_atom_site_label
_atom_site_fract_x
_atom_site_fract_y
_atom_site_fract_z
Si Si1 0.444540 0.932981 0.808730
Si Si2 0.480126 0.433078 0.128665
Si Si3 0.595670 0.167762 0.445638
Si Si4 0.267935 0.933381 0.899781
Si Si5 0.740846 0.101826 0.198440
Si Si6 0.124660 0.791595 0.944181
Si Si7 0.808915 0.878005 0.159454
O O1 0.510420 0.856881 0.878032
O O2 0.356470 0.893103 0.852045
O O3 0.454280 0.976630 0.515771
O O4 0.480575 0.477019 0.417564
O O5 0.400164 0.370930 0.147803
O O6 0.551982 0.366248 0.012038
O O7 0.655885 0.077021 0.352472
O O8 0.602889 0.211013 0.729174
O O9 0.631616 0.245302 0.226062
O O10 0.200374 0.856944 0.855799
O O11 0.260482 0.022131 0.690593
O O12 0.781385 0.166996 0.403029
O O13 0.788211 0.997618 0.142173
O O14 0.755807 0.153918 0.919419
#
# Coordination Sequence:
#
# PCOD9134507 Si02
#       7
#     4   4   4   4   4   4   4
#     4  10  23  43  72  94 123 171 231 280 312 382
#     4  12  21  41  66  95 130 165 224 267 313 391
#     4  12  26  43  61 101 138 173 210 265 352 398
#     4  10  21  45  72  94 120 172 236 275 314 377
#     4  10  20  36  60  85 131 156 209 255 303 396
#     4  12  26  43  63  98 140 172 211 268 344 404
#     4  10  19  37  60  97 114 159 215 258 312 368
#
# _framework density 23.591408999999999
#
# number of rings (size 3 to 8) (size 9 to 14) (size 15 to 20)
#    0.000    1.143    2.857    4.286    4.000    0.000 
#    7.714    0.000    0.000    0.000    0.000    0.000 
#    0.000    0.000    0.000    0.000    0.000    0.000 
#
# Total GULP energy -78193.513319 kJ/mol
# GULP energy per Si atom -5585.250951 kJ/mol
# Density = 2.353771 g / cm^3
# Si number density = 23.591409 Si / 1000 Ang^3
#
#
#
# Elastic Constant Matrix: (Units=GPa)
#
#
# Indices 1 2 3 4 5 6 
#
# 1 134.2416 33.6359 -3.0190 0.0000 -9.5140 0.0000
# 2 33.6359 23.7909 2.4587 0.0000 -11.0761 0.0000
# 3 -3.0190 2.4587 105.1560 0.0000 15.5901 0.0000
# 4 0.0000 0.0000 0.0000 27.1776 0.0000 7.2243
# 5 -9.5140 -11.0761 15.5901 0.0000 28.5193 0.0000
# 6 0.0000 0.0000 0.0000 7.2243 0.0000 -241.9846
#
#
#
# Elastic Compliance Matrix: (Units=1/GPa)
#
#
# Indices 1 2 3 4 5 6 
#
# 1 0.011934 -0.018946 0.001400 0.000000 -0.004142 0.000000
# 2 -0.018946 0.083441 -0.006923 0.000000 0.029871 0.000000
# 3 0.001400 -0.006923 0.010927 0.000000 -0.008195 0.000000
# 4 0.000000 0.000000 0.000000 0.036505 0.000000 0.001090
# 5 -0.004142 0.029871 -0.008195 0.000000 0.049763 0.000000
# 6 0.000000 0.000000 0.000000 0.001090 0.000000 -0.004100
#
#
# Mechanical properties :
#
#
# Convention : Reuss Voigt Hill
#
# Bulk Modulus (GPa) = 17.43293 36.59329 27.01311
# Shear Modulus (GPa) = 19.49089 -21.91669 -1.21290
#
# Velocity S-wave (km/s) = 2.87746 -3.05128 -0.71781
# Velocity P-wave (km/s) = 4.29480 1.76953 3.28455
#
# Compressibility (1/GPa) = 0.05736269
#
# Stress axis : x y z
#
# Youngs Moduli (GPa) = 83.79213 11.98455 91.51884
#
# Poissons Ratio (x) = 0.22706 -0.12810
# Poissons Ratio (y) = 1.58751 0.63362
# Poissons Ratio (z) = -0.11728 0.08297
#
# Static dielectric constant tensor:
#      x y z
#    x 2.051840 0.000000 0.051950 
#    y 0.000000 2.341420 0.000000 
#    z 0.051950 0.000000 1.918130 
# 
# From -- ./inp_files/2381.got.cif
#   From: 2010.05.17/outbox.cif.g08.bks.cpg/sg9_2_cif.got.tgz:2381.got - 2010.06.03 20:04:27.
