data_PCOD9134092
_publ_section_title
;
Structure prediction by ZEFSAII (Michael W. Deem and Ramdas Pophale) SiO2 
 PCOD9134092
Probable space group: C C
;
_chemical_formula_sum "Si O2"
_cell_formula_units_Z 32
_cell_length_a 8.199059
_cell_length_b 12.653184
_cell_length_c 18.514738
_cell_angle_alpha 90.000000
_cell_angle_beta 115.373323
_cell_angle_gamma 90.000000
_cell_volume 1735.506889
_symmetry_space_group_name_H-M "C C"
_symmetry_group_IT_number 9
_symmetry_cell_setting 'monoclinic'
loop_
_space_group_symop_operation_xyz
x,y,z
x,-y,1/2+z
1/2+x,1/2+y,z
1/2+x,1/2-y,1/2+z
loop_
_atom_site_type_symbol
_atom_site_label
_atom_site_fract_x
_atom_site_fract_y
_atom_site_fract_z
Si Si1 0.052910 0.875491 0.030750
Si Si2 0.669485 0.049893 0.441843
Si Si3 0.542641 0.266653 0.798504
Si Si4 0.396154 0.853326 0.794370
Si Si5 0.795741 0.572194 0.708930
Si Si6 0.620221 0.650491 0.817995
Si Si7 0.032757 0.670884 0.947922
Si Si8 0.431762 0.534685 0.364455
O O1 0.186430 0.922142 0.114298
O O2 0.078364 0.751876 0.019732
O O3 0.841303 0.894001 0.010431
O O4 0.068414 0.931385 0.955146
O O5 0.492794 0.115896 0.388711
O O6 0.610213 0.945296 0.471487
O O7 0.749319 0.024278 0.376348
O O8 0.700397 0.308620 0.777607
O O9 0.431323 0.172194 0.740018
O O10 0.610515 0.215110 0.886743
O O11 0.430765 0.369066 0.806802
O O12 0.520230 0.760704 0.786544
O O13 0.379136 0.957595 0.741957
O O14 0.662830 0.593483 0.751096
O O15 0.496937 0.572876 0.841546
O O16 0.815694 0.668658 0.893029
#
# Coordination Sequence:
#
# PCOD9134092 Si02
#       8
#     4   4   4   4   4   4   4   4
#     4   9  22  38  58  86 128 155 200 253 314 343
#     4  10  18  36  62  85 117 152 205 246 291 360
#     4  10  19  36  64  87 116 158 199 249 292 361
#     4  12  21  36  65  91 116 157 209 245 302 358
#     4  11  23  41  58  91 129 155 199 263 306 352
#     4  11  20  37  65  89 118 156 212 244 295 372
#     4  10  18  36  60  88 111 159 197 245 297 353
#     4   9  19  38  64  89 113 162 205 247 295 365
#
# _framework density 18.438419
#
# number of rings (size 3 to 8) (size 9 to 14) (size 15 to 20)
#    0.750    1.000    5.000    1.500    0.000    1.000 
#    2.250    0.000    8.250    0.000    0.000    0.000 
#    0.000    0.000    0.000    0.000    0.000    0.000 
#
# Total GULP energy -89101.842181 kJ/mol
# GULP energy per Si atom -5568.865136 kJ/mol
# Density = 1.839645 g / cm^3
# Si number density = 18.438419 Si / 1000 Ang^3
#
#
#
# Elastic Constant Matrix: (Units=GPa)
#
#
# Indices 1 2 3 4 5 6 
#
# 1 63.4245 25.7745 10.0060 0.0000 5.8112 0.0000
# 2 25.7745 101.7100 20.9182 0.0000 5.2130 0.0000
# 3 10.0060 20.9182 59.7226 0.0000 13.9755 0.0000
# 4 0.0000 0.0000 0.0000 12.7505 0.0000 3.1888
# 5 5.8112 5.2130 13.9755 0.0000 10.4952 0.0000
# 6 0.0000 0.0000 0.0000 3.1888 0.0000 36.3043
#
#
#
# Elastic Compliance Matrix: (Units=1/GPa)
#
#
# Indices 1 2 3 4 5 6 
#
# 1 0.018216 -0.004269 0.000447 0.000000 -0.008560 0.000000
# 2 -0.004269 0.011597 -0.003707 0.000000 0.001540 0.000000
# 3 0.000447 -0.003707 0.025559 0.000000 -0.032440 0.000000
# 4 0.000000 0.000000 0.000000 0.080190 0.000000 -0.007044
# 5 -0.008560 0.001540 -0.032440 0.000000 0.142455 0.000000
# 6 0.000000 0.000000 0.000000 -0.007044 0.000000 0.028164
#
#
# Mechanical properties :
#
#
# Convention : Reuss Voigt Hill
#
# Bulk Modulus (GPa) = 24.80622 37.58382 31.19502
# Shear Modulus (GPa) = 14.93978 23.12055 19.03016
#
# Velocity S-wave (km/s) = 2.84958 3.54493 3.21611
# Velocity P-wave (km/s) = 4.93047 6.09779 5.54494
#
# Compressibility (1/GPa) = 0.04031247
#
# Stress axis : x y z
#
# Youngs Moduli (GPa) = 54.89825 86.22762 39.12521
#
# Poissons Ratio (x) = 0.36812 -0.01747
# Poissons Ratio (y) = 0.23437 0.14504
# Poissons Ratio (z) = -0.02452 0.31965
#
# Static dielectric constant tensor:
#      x y z
#    x 1.655920 0.000000 0.009890 
#    y 0.000000 1.664610 0.000000 
#    z 0.009890 0.000000 1.609800 
# 
# From -- ./inp_files/32486.got.cif
#   From: 2010.05.17/outbox.cif.g08.bks.cpg/sg9_17_cif.got.tgz:32486.got - 2010.06.03 20:04:27.
