data_PCOD9134701
_publ_section_title
;
Structure prediction by ZEFSAII (Michael W. Deem and Ramdas Pophale) SiO2 
 PCOD9134701
Probable space group: C C
;
_chemical_formula_sum "Si O2"
_cell_formula_units_Z 28
_cell_length_a 17.693581
_cell_length_b 5.334651
_cell_length_c 16.728117
_cell_angle_alpha 90.000000
_cell_angle_beta 131.899588
_cell_angle_gamma 90.000000
_cell_volume 1175.239464
_symmetry_space_group_name_H-M "C C"
_symmetry_group_IT_number 9
_symmetry_cell_setting 'monoclinic'
loop_
_space_group_symop_operation_xyz
x,y,z
x,-y,1/2+z
1/2+x,1/2+y,z
1/2+x,1/2-y,1/2+z
loop_
_atom_site_type_symbol
_atom_site_label
_atom_site_fract_x
_atom_site_fract_y
_atom_site_fract_z
Si Si1 0.095170 0.225099 0.318450
Si Si2 0.938768 0.871928 0.292927
Si Si3 0.489956 0.035097 0.600069
Si Si4 0.317074 0.959286 0.583212
Si Si5 0.762415 0.823137 0.681901
Si Si6 0.101519 0.971451 0.161703
Si Si7 0.636627 0.106417 0.471326
O O1 0.040422 0.430962 0.223665
O O2 0.162244 0.392057 0.424225
O O3 0.129345 0.030739 0.273964
O O4 0.013480 0.086841 0.315102
O O5 0.881028 0.754909 0.175523
O O6 0.017169 0.671901 0.385717
O O7 0.849380 0.001531 0.281755
O O8 0.536453 0.282191 0.590763
O O9 0.371407 0.029379 0.538744
O O10 0.528395 0.767257 0.598458
O O11 0.204289 0.847126 0.496499
O O12 0.314372 0.184701 0.644030
O O13 0.704818 0.609268 0.690818
O O14 0.677265 0.002844 0.583745
#
# Coordination Sequence:
#
# PCOD9134701 Si02
#       7
#     4   4   4   4   4   4   4
#     4  10  19  39  68  95 135 185 230 290 346 415
#     4  11  19  40  64  99 136 182 237 290 351 422
#     4  10  20  40  70  94 131 181 232 276 345 427
#     4  11  21  38  69 102 125 190 241 283 354 429
#     4  11  24  37  67 109 130 189 236 292 359 422
#     4  10  22  39  69 100 132 181 229 286 361 419
#     4  11  23  35  67 105 143 178 247 305 344 418
#
# _framework density 23.824929999999998
#
# number of rings (size 3 to 8) (size 9 to 14) (size 15 to 20)
#    0.857    0.571    4.286    0.857    6.000    0.000 
#    0.000    0.000    0.000   25.714    0.000    0.000 
#    0.000    0.000    0.000    0.000    0.000    0.000 
#
# Total GULP energy -78093.305489 kJ/mol
# GULP energy per Si atom -5578.093249 kJ/mol
# Density = 2.377070 g / cm^3
# Si number density = 23.824930 Si / 1000 Ang^3
#
#
#
# Elastic Constant Matrix: (Units=GPa)
#
#
# Indices 1 2 3 4 5 6 
#
# 1 96.7773 50.8687 23.6607 0.0000 24.0202 -0.0001
# 2 50.8687 150.7789 26.4812 0.0004 19.2700 0.0004
# 3 23.6607 26.4812 84.3627 0.0001 25.2564 0.0002
# 4 0.0000 0.0004 0.0001 37.2966 0.0000 7.8532
# 5 24.0202 19.2700 25.2564 0.0000 21.7109 0.0000
# 6 -0.0001 0.0004 0.0002 7.8532 0.0000 48.1750
#
#
#
# Elastic Compliance Matrix: (Units=1/GPa)
#
#
# Indices 1 2 3 4 5 6 
#
# 1 0.015828 -0.003544 0.001495 0.000000 -0.016104 0.000000
# 2 -0.003544 0.008291 -0.000889 0.000000 -0.002404 0.000000
# 3 0.001495 -0.000889 0.018370 0.000000 -0.022235 0.000000
# 4 0.000000 0.000000 0.000000 0.027765 0.000000 -0.004526
# 5 -0.016104 -0.002404 -0.022235 0.000000 0.091876 0.000000
# 6 0.000000 0.000000 0.000000 -0.004526 0.000000 0.021495
#
#
# Mechanical properties :
#
#
# Convention : Reuss Voigt Hill
#
# Bulk Modulus (GPa) = 27.31341 59.32668 43.32005
# Shear Modulus (GPa) = 24.78852 36.83039 30.80945
#
# Velocity S-wave (km/s) = 3.22909 3.93603 3.59996
# Velocity P-wave (km/s) = 5.03903 6.75363 5.95833
#
# Compressibility (1/GPa) = 0.03661205
#
# Stress axis : x y z
#
# Youngs Moduli (GPa) = 63.18105 120.60887 54.43670
#
# Poissons Ratio (x) = 0.42745 -0.08137
# Poissons Ratio (y) = 0.22392 0.04839
# Poissons Ratio (z) = -0.09444 0.10721
#
# Static dielectric constant tensor:
#      x y z
#    x 1.936590 0.000000 0.024410 
#    y 0.000000 1.941190 0.000000 
#    z 0.024410 0.000000 1.931400 
# 
# From -- ./inp_files/26288.got.cif
#   From: 2010.05.17/outbox.cif.g08.bks.cpg/sg9_14_cif.got.tgz:26288.got - 2010.06.03 20:04:27.
