data_PCOD9134897
_publ_section_title
;
Structure prediction by ZEFSAII (Michael W. Deem and Ramdas Pophale) SiO2 
 PCOD9134897
Probable space group: C C
;
_chemical_formula_sum "Si O2"
_cell_formula_units_Z 24
_cell_length_a 11.525115
_cell_length_b 16.562467
_cell_length_c 5.163195
_cell_angle_alpha 90.000000
_cell_angle_beta 117.301559
_cell_angle_gamma 90.000000
_cell_volume 875.784900
_symmetry_space_group_name_H-M "C C"
_symmetry_group_IT_number 9
_symmetry_cell_setting 'monoclinic'
loop_
_space_group_symop_operation_xyz
x,y,z
x,-y,1/2+z
1/2+x,1/2+y,z
1/2+x,1/2-y,1/2+z
loop_
_atom_site_type_symbol
_atom_site_label
_atom_site_fract_x
_atom_site_fract_y
_atom_site_fract_z
Si Si1 0.344150 0.618663 0.281390
Si Si2 0.586513 0.052642 0.812175
Si Si3 0.454355 0.236687 0.185652
Si Si4 0.797329 0.557806 0.581191
Si Si5 0.461630 0.393891 0.410068
Si Si6 0.193740 0.169573 0.841612
O O1 0.205107 0.609808 0.007694
O O2 0.391512 0.708300 0.394235
O O3 0.357130 0.580658 0.582307
O O4 0.441870 0.575897 0.177216
O O5 0.445971 0.090872 0.720086
O O6 0.592732 0.979330 0.026361
O O7 0.436617 0.297064 0.408959
O O8 0.610692 0.245953 0.291162
O O9 0.342851 0.169721 0.097896
O O10 0.784804 0.498531 0.817741
O O11 0.706582 0.633792 0.565094
O O12 0.599048 0.391240 0.403436
#
# Coordination Sequence:
#
# PCOD9134897 Si02
#       6
#     4   4   4   4   4   4
#     4   9  18  38  54  81 127 145 205 247 299 372
#     4  10  20  34  59  88 117 164 207 253 305 358
#     4   8  21  37  59  95 119 161 199 255 324 356
#     4  10  23  42  61  89 125 169 212 249 306 376
#     4   8  20  35  54  87 118 156 191 247 310 361
#     4   9  20  42  63  94 124 165 206 261 310 375
#
# _framework density 27.403987000000001
#
# number of rings (size 3 to 8) (size 9 to 14) (size 15 to 20)
#    2.000    0.667    0.000    1.000    2.333    2.667 
#    9.000   11.667    0.000    0.000    0.000    0.000 
#    0.000    0.000    0.000    0.000    0.000    0.000 
#
# Total GULP energy -66814.856036 kJ/mol
# GULP energy per Si atom -5567.904670 kJ/mol
# Density = 2.734161 g / cm^3
# Si number density = 27.403987 Si / 1000 Ang^3
#
#
#
# Elastic Constant Matrix: (Units=GPa)
#
#
# Indices 1 2 3 4 5 6 
#
# 1 142.1174 12.5358 65.4381 0.0000 -4.1640 0.0000
# 2 12.5358 42.3543 5.4737 0.0000 8.9760 0.0000
# 3 65.4381 5.4737 93.3029 0.0000 -0.0520 0.0000
# 4 0.0000 0.0000 0.0000 42.3073 0.0000 17.7247
# 5 -4.1640 8.9760 -0.0520 0.0000 49.9876 0.0000
# 6 0.0000 0.0000 0.0000 17.7247 0.0000 41.0519
#
#
#
# Elastic Compliance Matrix: (Units=1/GPa)
#
#
# Indices 1 2 3 4 5 6 
#
# 1 0.010675 -0.002493 -0.007340 0.000000 0.001329 0.000000
# 2 -0.002493 0.025322 0.000260 0.000000 -0.004754 0.000000
# 3 -0.007340 0.000260 0.015850 0.000000 -0.000642 0.000000
# 4 0.000000 0.000000 0.000000 0.028856 0.000000 -0.012459
# 5 0.001329 -0.004754 -0.000642 0.000000 0.020969 0.000000
# 6 0.000000 0.000000 0.000000 -0.012459 0.000000 0.029739
#
#
# Mechanical properties :
#
#
# Convention : Reuss Voigt Hill
#
# Bulk Modulus (GPa) = 30.57918 49.40775 39.99346
# Shear Modulus (GPa) = 30.96809 39.62449 35.29629
#
# Velocity S-wave (km/s) = 3.36528 3.80668 3.59276
# Velocity P-wave (km/s) = 5.12670 6.11470 5.64237
#
# Compressibility (1/GPa) = 0.03270199
#
# Stress axis : x y z
#
# Youngs Moduli (GPa) = 93.67770 39.49127 63.09150
#
# Poissons Ratio (x) = 0.09844 0.46308
# Poissons Ratio (y) = 0.23350 -0.01640
# Poissons Ratio (z) = 0.68758 -0.01027
#
# Static dielectric constant tensor:
#      x y z
#    x 2.166260 0.000000 0.060010 
#    y 0.000000 2.409540 0.000000 
#    z 0.060010 0.000000 2.186180 
# 
# From -- ./inp_files/1809.got.cif
#   From: 2010.05.17/outbox.cif.g08.bks.cpg/sg9_1_cif.got.tgz:1809.got - 2010.06.03 20:04:27.
