data_PCOD9134799
_publ_section_title
;
Structure prediction by ZEFSAII (Michael W. Deem and Ramdas Pophale) SiO2 
 PCOD9134799
Probable space group: C C
;
_chemical_formula_sum "Si O2"
_cell_formula_units_Z 32
_cell_length_a 17.865689
_cell_length_b 12.278481
_cell_length_c 12.350303
_cell_angle_alpha 90.000000
_cell_angle_beta 147.521678
_cell_angle_gamma 90.000000
_cell_volume 1454.790700
_symmetry_space_group_name_H-M "C C"
_symmetry_group_IT_number 9
_symmetry_cell_setting 'monoclinic'
loop_
_space_group_symop_operation_xyz
x,y,z
x,-y,1/2+z
1/2+x,1/2+y,z
1/2+x,1/2-y,1/2+z
loop_
_atom_site_type_symbol
_atom_site_label
_atom_site_fract_x
_atom_site_fract_y
_atom_site_fract_z
Si Si1 0.809680 0.108198 0.008060
Si Si2 0.442643 0.337228 0.449066
Si Si3 0.594751 0.499764 0.408789
Si Si4 0.730247 0.651749 0.426564
Si Si5 0.720526 0.100458 0.507467
Si Si6 0.217674 0.837410 0.410938
Si Si7 0.474491 0.104232 0.380550
Si Si8 0.304066 0.000357 0.339820
O O1 0.956344 0.070946 0.239152
O O2 0.830425 0.133325 0.906057
O O3 0.761153 0.224638 0.990453
O O4 0.715238 0.006402 0.926529
O O5 0.582804 0.364023 0.685869
O O6 0.473105 0.213185 0.451678
O O7 0.370976 0.387055 0.253162
O O8 0.712673 0.584585 0.513286
O O9 0.590639 0.404359 0.312939
O O10 0.666811 0.457996 0.605608
O O11 0.833009 0.588092 0.471013
O O12 0.698396 0.209357 0.408254
O O13 0.607049 0.093333 0.464784
O O14 0.347610 0.872540 0.643774
O O15 0.256151 0.889019 0.341298
O O16 0.432346 0.008686 0.412850
#
# Coordination Sequence:
#
# PCOD9134799 Si02
#       8
#     4   4   4   4   4   4   4   4
#     4  11  22  40  64  97 131 167 218 277 327 391
#     4  10  21  39  65  88 127 168 213 263 325 390
#     4   9  21  39  66  91 125 171 220 272 329 392
#     4  10  20  38  64  96 120 164 222 276 322 387
#     4  11  24  39  63 100 131 169 219 274 322 390
#     4   9  22  39  63  91 128 172 221 263 327 392
#     4  10  21  36  64  94 121 167 222 267 309 387
#     4  10  19  42  65  87 123 176 217 262 329 393
#
# _framework density 21.996289999999998
#
# number of rings (size 3 to 8) (size 9 to 14) (size 15 to 20)
#    0.000    2.000    1.250    1.500    7.000    2.000 
#    9.000    1.250    0.000    0.000    0.000    0.000 
#    0.000    0.000    0.000    0.000    0.000    0.000 
#
# Total GULP energy -89100.534040 kJ/mol
# GULP energy per Si atom -5568.783378 kJ/mol
# Density = 2.194623 g / cm^3
# Si number density = 21.996290 Si / 1000 Ang^3
#
#
#
# Elastic Constant Matrix: (Units=GPa)
#
#
# Indices 1 2 3 4 5 6 
#
# 1 124.2962 69.9867 7.7633 0.0000 -5.1501 0.0000
# 2 69.9867 162.2899 -2.6718 0.0000 -3.7140 0.0000
# 3 7.7633 -2.6718 31.0888 0.0000 7.6080 0.0000
# 4 0.0000 0.0000 0.0000 26.4924 0.0000 -15.3758
# 5 -5.1501 -3.7140 7.6080 0.0000 23.4791 0.0000
# 6 0.0000 0.0000 0.0000 -15.3758 0.0000 23.5776
#
#
#
# Elastic Compliance Matrix: (Units=1/GPa)
#
#
# Indices 1 2 3 4 5 6 
#
# 1 0.011106 -0.004786 -0.003905 0.000000 0.002944 0.000000
# 2 -0.004786 0.008250 0.002000 0.000000 -0.000393 0.000000
# 3 -0.003905 0.002000 0.036326 0.000000 -0.012311 0.000000
# 4 0.000000 0.000000 0.000000 0.060734 0.000000 0.039607
# 5 0.002944 -0.000393 -0.012311 0.000000 0.047164 0.000000
# 6 0.000000 0.000000 0.000000 0.039607 0.000000 0.068242
#
#
# Mechanical properties :
#
#
# Convention : Reuss Voigt Hill
#
# Bulk Modulus (GPa) = 23.64103 51.98126 37.81115
# Shear Modulus (GPa) = 19.28235 30.88293 25.08264
#
# Velocity S-wave (km/s) = 2.96399 3.75107 3.38051
# Velocity P-wave (km/s) = 4.74180 6.51490 5.69774
#
# Compressibility (1/GPa) = 0.04229933
#
# Stress axis : x y z
#
# Youngs Moduli (GPa) = 90.03915 121.21400 27.52866
#
# Poissons Ratio (x) = 0.58018 0.10751
# Poissons Ratio (y) = 0.43097 -0.05507
# Poissons Ratio (z) = 0.35163 -0.24248
#
# Static dielectric constant tensor:
#      x y z
#    x 1.945970 0.000000 0.042260 
#    y 0.000000 1.821360 0.000000 
#    z 0.042260 0.000000 1.844380 
# 
# From -- ./inp_files/18259.got.cif
#   From: 2010.05.17/outbox.cif.g08.bks.cpg/sg9_10_cif.got.tgz:18259.got - 2010.06.03 20:04:27.
