data_PCOD9134055
_publ_section_title
;
Structure prediction by ZEFSAII (Michael W. Deem and Ramdas Pophale) SiO2 
 PCOD9134055
Probable space group: C C
;
_chemical_formula_sum "Si O2"
_cell_formula_units_Z 28
_cell_length_a 28.790437
_cell_length_b 7.708258
_cell_length_c 5.504700
_cell_angle_alpha 90.000000
_cell_angle_beta 61.034918
_cell_angle_gamma 90.000000
_cell_volume 1068.818640
_symmetry_space_group_name_H-M "C C"
_symmetry_group_IT_number 9
_symmetry_cell_setting 'monoclinic'
loop_
_space_group_symop_operation_xyz
x,y,z
x,-y,1/2+z
1/2+x,1/2+y,z
1/2+x,1/2-y,1/2+z
loop_
_atom_site_type_symbol
_atom_site_label
_atom_site_fract_x
_atom_site_fract_y
_atom_site_fract_z
Si Si1 0.077090 0.062663 0.859720
Si Si2 0.994806 0.594745 0.064417
Si Si3 0.901541 0.802088 0.433343
Si Si4 0.239530 0.403316 0.255460
Si Si5 0.699106 0.554614 0.527202
Si Si6 0.108910 0.459404 0.766427
Si Si7 0.860220 0.801423 0.038743
O O1 0.138225 0.990753 0.714386
O O2 0.052160 0.986838 0.679400
O O3 0.083698 0.268911 0.821856
O O4 0.980969 0.467919 0.327202
O O5 0.962446 0.765782 0.212913
O O6 0.058821 0.592860 0.906382
O O7 0.870113 0.725146 0.280820
O O8 0.885254 0.003672 0.494672
O O9 0.886928 0.721692 0.731459
O O10 0.237425 0.544545 0.477987
O O11 0.199573 0.251349 0.436425
O O12 0.298248 0.321185 0.143374
O O13 0.723694 0.456703 0.233224
O O14 0.137753 0.482907 0.948914
#
# Coordination Sequence:
#
# PCOD9134055 Si02
#       7
#     4   4   4   4   4   4   4
#     4  10  21  40  66  90 124 168 204 243 307 379
#     4  10  21  37  58  80 121 149 192 247 312 345
#     4  10  18  35  58  79 109 155 192 246 292 354
#     4  12  21  38  63  90 126 159 215 260 296 356
#     4  10  23  41  59  91 132 164 200 251 310 370
#     4  10  21  38  65  89 128 152 202 260 305 364
#     4  10  19  35  59  79 112 153 205 239 292 354
#
# _framework density 26.197147999999999
#
# number of rings (size 3 to 8) (size 9 to 14) (size 15 to 20)
#    0.000    1.714    2.857    2.571    0.000    1.143 
#    0.000    4.286   75.429    0.000    0.000    0.000 
#    0.000    0.000    0.000    0.000    0.000    0.000 
#
# Total GULP energy -78282.231089 kJ/mol
# GULP energy per Si atom -5591.587935 kJ/mol
# Density = 2.613752 g / cm^3
# Si number density = 26.197148 Si / 1000 Ang^3
#
#
#
# Elastic Constant Matrix: (Units=GPa)
#
#
# Indices 1 2 3 4 5 6 
#
# 1 79.8035 10.9237 42.9046 0.0000 24.8021 0.0000
# 2 10.9237 55.1325 19.3559 0.0000 16.2762 0.0000
# 3 42.9046 19.3559 191.7057 0.0000 59.5174 0.0000
# 4 0.0000 0.0000 0.0000 47.9907 0.0000 -3.0407
# 5 24.8021 16.2762 59.5174 0.0000 68.0684 0.0000
# 6 0.0000 0.0000 0.0000 -3.0407 0.0000 30.5475
#
#
#
# Elastic Compliance Matrix: (Units=1/GPa)
#
#
# Indices 1 2 3 4 5 6 
#
# 1 0.014882 -0.001229 -0.002216 0.000000 -0.003191 0.000000
# 2 -0.001229 0.019689 -0.000536 0.000000 -0.003792 0.000000
# 3 -0.002216 -0.000536 0.007516 0.000000 -0.005637 0.000000
# 4 0.000000 0.000000 0.000000 0.020970 0.000000 0.002087
# 5 -0.003191 -0.003792 -0.005637 0.000000 0.021689 0.000000
# 6 0.000000 0.000000 0.000000 0.002087 0.000000 0.032944
#
#
# Mechanical properties :
#
#
# Convention : Reuss Voigt Hill
#
# Bulk Modulus (GPa) = 29.30225 52.55668 40.92947
# Shear Modulus (GPa) = 36.48946 46.21850 41.35398
#
# Velocity S-wave (km/s) = 3.73618 4.20486 3.97743
# Velocity P-wave (km/s) = 5.46092 6.60909 6.06225
#
# Compressibility (1/GPa) = 0.03412707
#
# Stress axis : x y z
#
# Youngs Moduli (GPa) = 67.19493 50.78960 133.04460
#
# Poissons Ratio (x) = 0.06240 0.29481
# Poissons Ratio (y) = 0.08255 0.07128
# Poissons Ratio (z) = 0.14889 0.02721
#
# Static dielectric constant tensor:
#      x y z
#    x 2.103020 0.000000 0.030550 
#    y 0.000000 2.058890 0.000000 
#    z 0.030550 0.000000 2.104980 
# 
# From -- ./inp_files/3387.got.cif
#   From: 2010.05.17/outbox.cif.g08.bks.cpg/sg9_2_cif.got.tgz:3387.got - 2010.06.03 20:04:27.
