data_PCOD9134420
_publ_section_title
;
Structure prediction by ZEFSAII (Michael W. Deem and Ramdas Pophale) SiO2 
 PCOD9134420
Probable space group: C C
;
_chemical_formula_sum "Si O2"
_cell_formula_units_Z 24
_cell_length_a 17.709846
_cell_length_b 5.294824
_cell_length_c 14.262838
_cell_angle_alpha 90.000000
_cell_angle_beta 129.336827
_cell_angle_gamma 90.000000
_cell_volume 1034.415284
_symmetry_space_group_name_H-M "C C"
_symmetry_group_IT_number 9
_symmetry_cell_setting 'monoclinic'
loop_
_space_group_symop_operation_xyz
x,y,z
x,-y,1/2+z
1/2+x,1/2+y,z
1/2+x,1/2-y,1/2+z
loop_
_atom_site_type_symbol
_atom_site_label
_atom_site_fract_x
_atom_site_fract_y
_atom_site_fract_z
Si Si1 0.765990 0.068582 0.244660
Si Si2 0.368983 0.814114 0.492038
Si Si3 0.084077 0.560976 0.894970
Si Si4 0.188762 0.068573 0.954525
Si Si5 0.585769 0.185889 0.207148
Si Si6 0.870676 0.560985 0.304218
O O1 0.819059 0.825848 0.244302
O O2 0.810023 0.103298 0.386045
O O3 0.650478 0.087687 0.171830
O O4 0.802319 0.324162 0.223641
O O5 0.304274 0.912313 0.527357
O O6 0.477376 0.724773 0.599593
O O7 0.378957 0.036039 0.423573
O O8 0.075793 0.536030 0.775614
O O9 0.977376 0.500001 0.849596
O O10 0.152431 0.324146 0.975544
O O11 0.135697 0.825835 0.954886
O O12 0.144729 0.103292 0.813140
#
# Coordination Sequence:
#
# PCOD9134420 Si02
#       6
#     4   4   4   4   4   4
#     4   9  20  36  55  77 111 140 182 224 267 320
#     4   9  20  35  57  81 105 149 183 220 267 328
#     4  10  19  36  56  78 108 144 175 228 276 312
#     4   9  20  36  55  77 111 140 182 224 267 320
#     4   9  20  35  57  81 105 149 183 220 267 328
#     4  10  19  36  56  78 108 144 175 228 276 312
#
# _framework density 23.201514
#
# number of rings (size 3 to 8) (size 9 to 14) (size 15 to 20)
#    2.000    0.667    0.000    2.000    0.000    1.333 
#    0.000    3.333    0.000    0.000    0.000    0.000 
#    0.000    0.000    0.000    0.000    0.000    0.000 
#
# Total GULP energy -66874.809622 kJ/mol
# GULP energy per Si atom -5572.900802 kJ/mol
# Density = 2.314871 g / cm^3
# Si number density = 23.201514 Si / 1000 Ang^3
#
#
#
# Elastic Constant Matrix: (Units=GPa)
#
#
# Indices 1 2 3 4 5 6 
#
# 1 149.8723 73.1048 55.3295 0.0000 48.0798 0.0000
# 2 73.1048 161.6775 12.2259 0.0000 27.9581 0.0000
# 3 55.3295 12.2259 98.6673 0.0000 37.5761 0.0000
# 4 0.0000 0.0000 0.0000 -18.2666 0.0000 20.9184
# 5 48.0798 27.9581 37.5761 0.0000 53.0154 0.0000
# 6 0.0000 0.0000 0.0000 20.9184 0.0000 17.6853
#
#
#
# Elastic Compliance Matrix: (Units=1/GPa)
#
#
# Indices 1 2 3 4 5 6 
#
# 1 0.012063 -0.004126 -0.003994 0.000000 -0.005933 0.000000
# 2 -0.004126 0.008255 0.002087 0.000000 -0.002090 0.000000
# 3 -0.003994 0.002087 0.015280 0.000000 -0.008309 0.000000
# 4 0.000000 0.000000 0.000000 -0.023251 0.000000 0.027501
# 5 -0.005933 -0.002090 -0.008309 0.000000 0.031235 0.000000
# 6 0.000000 0.000000 0.000000 0.027501 0.000000 0.024015
#
#
# Mechanical properties :
#
#
# Convention : Reuss Voigt Hill
#
# Bulk Modulus (GPa) = 42.49509 76.83751 59.66630
# Shear Modulus (GPa) = 57.13838 28.45727 42.79783
#
# Velocity S-wave (km/s) = 4.96794 3.50598 4.29956
# Velocity P-wave (km/s) = 7.15980 7.04120 7.10075
#
# Compressibility (1/GPa) = 0.02353213
#
# Stress axis : x y z
#
# Youngs Moduli (GPa) = 82.89898 121.14473 65.44331
#
# Poissons Ratio (x) = 0.49989 0.26135
# Poissons Ratio (y) = 0.34208 -0.13659
# Poissons Ratio (z) = 0.33107 -0.25285
#
# Static dielectric constant tensor:
#      x y z
#    x 1.906740 0.000000 -0.046840 
#    y 0.000000 1.836820 0.000000 
#    z -0.046840 0.000000 1.980640 
# 
# From -- ./inp_files/18801.got.cif
#   From: 2010.05.17/outbox.cif.g08.bks.cpg/sg9_10_cif.got.tgz:18801.got - 2010.06.03 20:04:27.
