data_PCOD9134487
_publ_section_title
;
Structure prediction by ZEFSAII (Michael W. Deem and Ramdas Pophale) SiO2 
 PCOD9134487
Probable space group: C C
;
_chemical_formula_sum "Si O2"
_cell_formula_units_Z 32
_cell_length_a 9.438247
_cell_length_b 17.730812
_cell_length_c 12.009559
_cell_angle_alpha 90.000000
_cell_angle_beta 131.840505
_cell_angle_gamma 90.000000
_cell_volume 1497.290209
_symmetry_space_group_name_H-M "C C"
_symmetry_group_IT_number 9
_symmetry_cell_setting 'monoclinic'
loop_
_space_group_symop_operation_xyz
x,y,z
x,-y,1/2+z
1/2+x,1/2+y,z
1/2+x,1/2-y,1/2+z
loop_
_atom_site_type_symbol
_atom_site_label
_atom_site_fract_x
_atom_site_fract_y
_atom_site_fract_z
Si Si1 0.320550 0.239380 0.311780
Si Si2 0.896992 0.811921 0.930070
Si Si3 0.394279 0.700718 0.086394
Si Si4 0.986145 0.590440 0.486717
Si Si5 0.797361 0.637480 0.612709
Si Si6 0.394726 0.626261 0.678453
Si Si7 0.601731 0.156322 0.090956
Si Si8 0.796444 0.557370 0.849964
O O1 0.302577 0.284625 0.418424
O O2 0.463976 0.171636 0.414712
O O3 0.382823 0.300007 0.252337
O O4 0.119056 0.198370 0.184239
O O5 0.706860 0.821666 0.759763
O O6 0.881385 0.844612 0.045190
O O7 0.073083 0.856871 0.966102
O O8 0.970556 0.726252 0.981051
O O9 0.364778 0.775773 0.146409
O O10 0.269696 0.641267 0.088964
O O11 0.912237 0.599583 0.573856
O O12 0.848751 0.529418 0.359621
O O13 0.210124 0.575251 0.604729
O O14 0.819021 0.599586 0.743399
O O15 0.590884 0.580069 0.789541
O O16 0.457977 0.087291 0.018853
#
# Coordination Sequence:
#
# PCOD9134487 Si02
#       8
#     4   4   4   4   4   4   4   4
#     4  11  21  40  67  97 133 166 231 289 337 385
#     4  10  22  37  67  99 133 174 229 295 331 410
#     4  10  19  36  69  98 120 174 226 288 324 408
#     4  11  25  43  70  97 141 178 235 286 350 417
#     4   9  19  44  64  93 135 175 229 279 338 420
#     4  11  25  45  66 100 141 176 235 293 347 406
#     4  11  21  37  66  96 136 178 232 272 357 410
#     4  11  26  44  67  98 143 189 221 286 364 428
#
# _framework density 21.371943000000002
#
# number of rings (size 3 to 8) (size 9 to 14) (size 15 to 20)
#    0.000    1.500    2.500    5.250    3.500    3.000 
#    2.250    1.250    0.000    0.000    0.000    0.000 
#    0.000    0.000    0.000    0.000    0.000    0.000 
#
# Total GULP energy -89352.951124 kJ/mol
# GULP energy per Si atom -5584.559445 kJ/mol
# Density = 2.132330 g / cm^3
# Si number density = 21.371943 Si / 1000 Ang^3
#
#
#
# Elastic Constant Matrix: (Units=GPa)
#
#
# Indices 1 2 3 4 5 6 
#
# 1 125.7182 33.4908 30.1460 0.0000 20.1159 0.0000
# 2 33.4908 56.6370 20.8118 0.0000 4.6948 0.0000
# 3 30.1460 20.8118 104.9944 0.0000 12.6045 0.0000
# 4 0.0000 0.0000 0.0000 16.0015 0.0000 4.2178
# 5 20.1159 4.6948 12.6045 0.0000 29.4146 0.0000
# 6 0.0000 0.0000 0.0000 4.2178 0.0000 12.5303
#
#
#
# Elastic Compliance Matrix: (Units=1/GPa)
#
#
# Indices 1 2 3 4 5 6 
#
# 1 0.010618 -0.005319 -0.001291 0.000000 -0.005859 0.000000
# 2 -0.005319 0.021770 -0.002960 0.000000 0.001431 0.000000
# 3 -0.001291 -0.002960 0.010879 0.000000 -0.003306 0.000000
# 4 0.000000 0.000000 0.000000 0.068579 0.000000 -0.023085
# 5 -0.005859 0.001431 -0.003306 0.000000 0.039192 0.000000
# 6 0.000000 0.000000 0.000000 -0.023085 0.000000 0.087577
#
#
# Mechanical properties :
#
#
# Convention : Reuss Voigt Hill
#
# Bulk Modulus (GPa) = 41.44583 50.69409 46.06996
# Shear Modulus (GPa) = 18.81127 25.11601 21.96364
#
# Velocity S-wave (km/s) = 2.97001 3.43182 3.20923
# Velocity P-wave (km/s) = 5.58534 6.28288 5.94435
#
# Compressibility (1/GPa) = 0.02412788
#
# Stress axis : x y z
#
# Youngs Moduli (GPa) = 94.17672 45.93380 91.92330
#
# Poissons Ratio (x) = 0.24431 0.11868
# Poissons Ratio (y) = 0.50090 0.27209
# Poissons Ratio (z) = 0.12159 0.13596
#
# Static dielectric constant tensor:
#      x y z
#    x 1.812610 0.000000 0.041500 
#    y 0.000000 1.815270 0.000000 
#    z 0.041500 0.000000 1.796980 
# 
# From -- ./inp_files/15410.got.cif
#   From: 2010.05.17/outbox.cif.g08.bks.cpg/sg9_8_cif.got.tgz:15410.got - 2010.06.03 20:04:27.
