data_PCOD9134709
_publ_section_title
;
Structure prediction by ZEFSAII (Michael W. Deem and Ramdas Pophale) SiO2 
 PCOD9134709
Probable space group: C C
;
_chemical_formula_sum "Si O2"
_cell_formula_units_Z 32
_cell_length_a 14.898526
_cell_length_b 5.192476
_cell_length_c 21.012148
_cell_angle_alpha 90.000000
_cell_angle_beta 121.811208
_cell_angle_gamma 90.000000
_cell_volume 1381.337053
_symmetry_space_group_name_H-M "C C"
_symmetry_group_IT_number 9
_symmetry_cell_setting 'monoclinic'
loop_
_space_group_symop_operation_xyz
x,y,z
x,-y,1/2+z
1/2+x,1/2+y,z
1/2+x,1/2-y,1/2+z
loop_
_atom_site_type_symbol
_atom_site_label
_atom_site_fract_x
_atom_site_fract_y
_atom_site_fract_z
Si Si1 0.904400 0.455130 0.128950
Si Si2 0.845458 0.050978 0.669278
Si Si3 0.667784 0.486336 0.393090
Si Si4 0.179674 0.833990 0.531666
Si Si5 0.805435 0.008152 0.929296
Si Si6 0.628013 0.626646 0.743290
Si Si7 0.014195 0.110123 0.081929
Si Si8 0.264892 0.627380 0.780776
O O1 0.917484 0.706726 0.176343
O O2 0.983945 0.386262 0.102100
O O3 0.901179 0.212360 0.173879
O O4 0.783259 0.486863 0.060754
O O5 0.742574 0.084284 0.583423
O O6 0.810409 0.073032 0.728527
O O7 0.623233 0.374421 0.442882
O O8 0.761171 0.279880 0.414837
O O9 0.595948 0.449492 0.303661
O O10 0.215668 0.276053 0.412257
O O11 0.098843 0.893189 0.557573
O O12 0.838216 0.076975 0.869358
O O13 0.902064 0.018484 0.013674
O O14 0.559811 0.557548 0.656094
O O15 0.670021 0.919847 0.756331
O O16 0.724510 0.420127 0.768747
#
# Coordination Sequence:
#
# PCOD9134709 Si02
#       8
#     4   4   4   4   4   4   4   4
#     4  10  23  38  59  94 124 166 205 271 318 381
#     4  10  19  40  60  88 126 165 207 257 322 386
#     4  10  21  44  62  88 131 174 204 269 336 383
#     4  10  22  39  66  89 130 164 218 259 334 379
#     4  10  22  39  66  90 128 167 213 267 325 389
#     4  10  22  37  66  93 127 168 221 262 329 393
#     4  12  22  43  65 102 123 172 227 271 318 405
#     4  10  19  40  64  92 125 176 209 260 338 392
#
# _framework density 23.165959999999998
#
# number of rings (size 3 to 8) (size 9 to 14) (size 15 to 20)
#    0.750    1.000    2.500    2.250    0.000    2.000 
#    6.750    0.000    0.000    0.000    0.000    0.000 
#    0.000    0.000    0.000    0.000    0.000    0.000 
#
# Total GULP energy -89242.531829 kJ/mol
# GULP energy per Si atom -5577.658239 kJ/mol
# Density = 2.311323 g / cm^3
# Si number density = 23.165960 Si / 1000 Ang^3
#
#
#
# Elastic Constant Matrix: (Units=GPa)
#
#
# Indices 1 2 3 4 5 6 
#
# 1 66.2749 2.5009 49.4403 0.0000 -30.0005 0.0000
# 2 2.5009 87.2103 8.1698 0.0000 -2.0039 -0.0001
# 3 49.4403 8.1698 168.4320 0.0000 -21.1258 0.0000
# 4 0.0000 0.0000 0.0000 24.1137 0.0000 3.0973
# 5 -30.0005 -2.0039 -21.1258 0.0000 57.8963 0.0000
# 6 0.0000 -0.0001 0.0000 3.0973 0.0000 23.1228
#
#
#
# Elastic Compliance Matrix: (Units=1/GPa)
#
#
# Indices 1 2 3 4 5 6 
#
# 1 0.024091 0.000089 -0.005774 0.000000 0.010380 0.000000
# 2 0.000089 0.011521 -0.000554 0.000000 0.000242 0.000000
# 3 -0.005774 -0.000554 0.007630 0.000000 -0.000227 0.000000
# 4 0.000000 0.000000 0.000000 0.042196 0.000000 -0.005652
# 5 0.010380 0.000242 -0.000227 0.000000 0.022576 0.000000
# 6 0.000000 0.000000 0.000000 -0.005652 0.000000 0.044004
#
#
# Mechanical properties :
#
#
# Convention : Reuss Voigt Hill
#
# Bulk Modulus (GPa) = 32.50620 49.12660 40.81640
# Shear Modulus (GPa) = 28.61161 38.48032 33.54597
#
# Velocity S-wave (km/s) = 3.51817 4.08005 3.80948
# Velocity P-wave (km/s) = 5.52863 6.59152 6.08333
#
# Compressibility (1/GPa) = 0.03076336
#
# Stress axis : x y z
#
# Youngs Moduli (GPa) = 41.50891 86.79426 131.05467
#
# Poissons Ratio (x) = -0.00768 0.75671
# Poissons Ratio (y) = -0.00368 0.07266
# Poissons Ratio (z) = 0.23967 0.04812
#
# Static dielectric constant tensor:
#      x y z
#    x 1.933330 0.000000 0.073480 
#    y 0.000000 1.874380 0.000000 
#    z 0.073480 0.000000 1.972840 
# 
# From -- ./inp_files/30476.got.cif
#   From: 2010.05.17/outbox.cif.g08.bks.cpg/sg9_16_cif.got.tgz:30476.got - 2010.06.03 20:04:27.
