data_PCOD9134890
_publ_section_title
;
Structure prediction by ZEFSAII (Michael W. Deem and Ramdas Pophale) SiO2 
 PCOD9134890
Probable space group: C C
;
_chemical_formula_sum "Si O2"
_cell_formula_units_Z 24
_cell_length_a 13.678633
_cell_length_b 13.179523
_cell_length_c 8.999200
_cell_angle_alpha 90.000000
_cell_angle_beta 39.658270
_cell_angle_gamma 90.000000
_cell_volume 1035.399721
_symmetry_space_group_name_H-M "C C"
_symmetry_group_IT_number 9
_symmetry_cell_setting 'monoclinic'
loop_
_space_group_symop_operation_xyz
x,y,z
x,-y,1/2+z
1/2+x,1/2+y,z
1/2+x,1/2-y,1/2+z
loop_
_atom_site_type_symbol
_atom_site_label
_atom_site_fract_x
_atom_site_fract_y
_atom_site_fract_z
Si Si1 0.791180 0.030019 0.556680
Si Si2 0.065791 0.198770 0.853664
Si Si3 0.389291 0.859595 0.866219
Si Si4 0.364716 0.995451 0.655316
Si Si5 0.107785 0.615552 0.501476
Si Si6 0.500216 0.516696 0.552624
O O1 0.685296 0.096384 0.570405
O O2 0.897313 0.966103 0.318055
O O3 0.689402 0.961680 0.787227
O O4 0.919468 0.079796 0.514737
O O5 0.210968 0.161149 0.592210
O O6 0.123340 0.271851 0.919100
O O7 0.972835 0.267609 0.847571
O O8 0.984043 0.102198 0.022207
O O9 0.412959 0.958628 0.941860
O O10 0.432215 0.893501 0.650621
O O11 0.428341 0.085915 0.688048
O O12 0.181950 0.976693 0.863844
#
# Coordination Sequence:
#
# PCOD9134890 Si02
#       6
#     4   4   4   4   4   4
#     4  10  20  34  58  82 110 146 186 222 270 332
#     4  10  20  34  58  84 108 140 184 228 270 322
#     4  10  20  36  58  82 108 142 184 226 270 324
#     4  10  20  34  58  82 110 146 186 222 270 332
#     4  10  20  36  58  84 110 144 186 228 270 324
#     4  10  20  36  58  84 110 144 186 228 270 324
#
# _framework density 23.179455000000001
#
# number of rings (size 3 to 8) (size 9 to 14) (size 15 to 20)
#    0.000    2.000    0.000    6.000    0.000    0.000 
#    0.000    0.000    0.000   86.000    0.000    0.000 
#    0.000    0.000    0.000    0.000    0.000    0.000 
#
# Total GULP energy -66866.292804 kJ/mol
# GULP energy per Si atom -5572.191067 kJ/mol
# Density = 2.312670 g / cm^3
# Si number density = 23.179455 Si / 1000 Ang^3
#
#
#
# Elastic Constant Matrix: (Units=GPa)
#
#
# Indices 1 2 3 4 5 6 
#
# 1 151.0334 27.6462 37.8519 0.0000 2.2755 0.0000
# 2 27.6462 77.4672 17.3757 0.0000 13.7135 0.0000
# 3 37.8519 17.3757 43.6397 0.0000 10.8718 0.0000
# 4 0.0000 0.0000 0.0000 24.2492 0.0000 5.8373
# 5 2.2755 13.7135 10.8718 0.0000 37.7066 0.0000
# 6 0.0000 0.0000 0.0000 5.8373 0.0000 25.7462
#
#
#
# Elastic Compliance Matrix: (Units=1/GPa)
#
#
# Indices 1 2 3 4 5 6 
#
# 1 0.008799 -0.001874 -0.007459 0.000000 0.002301 0.000000
# 2 -0.001874 0.015098 -0.003282 0.000000 -0.004432 0.000000
# 3 -0.007459 -0.003282 0.032625 0.000000 -0.007763 0.000000
# 4 0.000000 0.000000 0.000000 0.043619 0.000000 -0.009890
# 5 0.002301 -0.004432 -0.007763 0.000000 0.030232 0.000000
# 6 0.000000 0.000000 0.000000 -0.009890 0.000000 0.041083
#
#
# Mechanical properties :
#
#
# Convention : Reuss Voigt Hill
#
# Bulk Modulus (GPa) = 31.95674 48.65421 40.30547
# Shear Modulus (GPa) = 24.14099 30.15816 27.14958
#
# Velocity S-wave (km/s) = 3.23070 3.61095 3.42611
# Velocity P-wave (km/s) = 5.26623 6.19848 5.75127
#
# Compressibility (1/GPa) = 0.03129231
#
# Stress axis : x y z
#
# Youngs Moduli (GPa) = 113.65147 66.23287 30.65127
#
# Poissons Ratio (x) = 0.12415 0.22862
# Poissons Ratio (y) = 0.21304 0.10059
# Poissons Ratio (z) = 0.84771 0.21735
#
# Static dielectric constant tensor:
#      x y z
#    x 2.037710 0.000000 -0.030880 
#    y 0.000000 1.866720 0.000000 
#    z -0.030880 0.000000 1.945290 
# 
# From -- ./inp_files/7314.got.cif
#   From: 2010.05.17/outbox.cif.g08.bks.cpg/sg9_4_cif.got.tgz:7314.got - 2010.06.03 20:04:27.
