data_PCOD9134661
_publ_section_title
;
Structure prediction by ZEFSAII (Michael W. Deem and Ramdas Pophale) SiO2 
 PCOD9134661
Probable space group: C C
;
_chemical_formula_sum "Si O2"
_cell_formula_units_Z 28
_cell_length_a 8.780388
_cell_length_b 11.119442
_cell_length_c 22.628819
_cell_angle_alpha 90.000000
_cell_angle_beta 40.024655
_cell_angle_gamma 90.000000
_cell_volume 1420.851553
_symmetry_space_group_name_H-M "C C"
_symmetry_group_IT_number 9
_symmetry_cell_setting 'monoclinic'
loop_
_space_group_symop_operation_xyz
x,y,z
x,-y,1/2+z
1/2+x,1/2+y,z
1/2+x,1/2-y,1/2+z
loop_
_atom_site_type_symbol
_atom_site_label
_atom_site_fract_x
_atom_site_fract_y
_atom_site_fract_z
Si Si1 0.554340 0.538553 0.900580
Si Si2 0.247450 0.125540 0.963630
Si Si3 0.168182 0.367377 0.060787
Si Si4 0.116863 0.106032 0.749034
Si Si5 0.242971 0.471569 0.282394
Si Si6 0.864295 0.947881 0.117837
Si Si7 0.003174 0.628899 0.265256
O O1 0.640047 0.622920 0.928997
O O2 0.568555 0.598912 0.832846
O O3 0.746161 0.429797 0.842135
O O4 0.304208 0.477399 0.988958
O O5 0.526229 0.099774 0.875882
O O6 0.193412 0.246545 0.015116
O O7 0.114295 0.012665 0.033934
O O8 0.300225 0.355987 0.085203
O O9 0.893944 0.395696 0.153350
O O10 0.960692 0.008026 0.761089
O O11 0.014710 0.230848 0.754100
O O12 0.328487 0.407447 0.195896
O O13 0.129528 0.593877 0.289873
O O14 0.667485 0.055240 0.170660
#
# Coordination Sequence:
#
# PCOD9134661 Si02
#       7
#     4   4   4   4   4   4   4
#     4  10  23  38  59  88 121 153 199 243 286 353
#     4  10  19  39  62  86 117 160 198 234 300 345
#     4  11  20  36  64  86 117 158 197 241 294 348
#     4  12  21  38  63  88 118 158 194 239 302 343
#     4   9  21  37  59  88 119 148 197 245 286 352
#     4   9  19  39  60  82 118 157 189 245 289 343
#     4   9  19  41  59  78 118 156 184 243 289 342
#
# _framework density 19.706492000000001
#
# number of rings (size 3 to 8) (size 9 to 14) (size 15 to 20)
#    0.857    1.143    2.857    0.857    0.000    2.286 
#    0.000    7.143    0.000    0.000    0.000    0.000 
#    0.000    0.000    0.000    0.000    0.000    0.000 
#
# Total GULP energy -78020.808729 kJ/mol
# GULP energy per Si atom -5572.914909 kJ/mol
# Density = 1.966164 g / cm^3
# Si number density = 19.706492 Si / 1000 Ang^3
#
#
#
# Elastic Constant Matrix: (Units=GPa)
#
#
# Indices 1 2 3 4 5 6 
#
# 1 81.7636 29.7548 57.6955 0.0000 -2.0639 0.0000
# 2 29.7548 35.4154 18.1378 -0.0001 0.2093 0.0001
# 3 57.6955 18.1378 131.2566 0.0000 14.3014 0.0002
# 4 0.0000 -0.0001 0.0000 26.6651 0.0001 5.2974
# 5 -2.0639 0.2093 14.3014 0.0001 7.3169 -0.0001
# 6 0.0000 0.0001 0.0002 5.2974 -0.0001 13.6072
#
#
#
# Elastic Compliance Matrix: (Units=1/GPa)
#
#
# Indices 1 2 3 4 5 6 
#
# 1 0.030412 -0.018059 -0.015074 0.000000 0.038558 0.000001
# 2 -0.018059 0.041620 0.003649 0.000000 -0.013417 0.000000
# 3 -0.015074 0.003649 0.018062 0.000000 -0.039659 -0.000001
# 4 0.000000 0.000000 0.000000 0.040646 -0.000002 -0.015824
# 5 0.038558 -0.013417 -0.039659 -0.000002 0.225448 0.000002
# 6 0.000001 0.000000 -0.000001 -0.015824 0.000002 0.079651
#
#
# Mechanical properties :
#
#
# Convention : Reuss Voigt Hill
#
# Bulk Modulus (GPa) = 32.12866 51.06800 41.59833
# Shear Modulus (GPa) = 9.89743 19.04101 14.46922
#
# Velocity S-wave (km/s) = 2.24351 3.11180 2.71262
# Velocity P-wave (km/s) = 4.80105 6.23551 5.56470
#
# Compressibility (1/GPa) = 0.03112486
#
# Stress axis : x y z
#
# Youngs Moduli (GPa) = 32.88139 24.02710 55.36634
#
# Poissons Ratio (x) = 0.43391 0.83458
# Poissons Ratio (y) = 0.59382 -0.20202
# Poissons Ratio (z) = 0.49565 -0.08767
#
# Static dielectric constant tensor:
#      x y z
#    x 1.690740 0.000000 0.003250 
#    y 0.000000 1.682320 0.000000 
#    z 0.003250 0.000000 1.713370 
# 
# From -- ./inp_files/29048.got.cif
#   From: 2010.05.17/outbox.cif.g08.bks.cpg/sg9_15_cif.got.tgz:29048.got - 2010.06.03 20:04:27.
