data_PCOD9134854
_publ_section_title
;
Structure prediction by ZEFSAII (Michael W. Deem and Ramdas Pophale) SiO2 
 PCOD9134854
Probable space group: C C
;
_chemical_formula_sum "Si O2"
_cell_formula_units_Z 24
_cell_length_a 22.433115
_cell_length_b 7.184613
_cell_length_c 19.069461
_cell_angle_alpha 90.000000
_cell_angle_beta 163.675994
_cell_angle_gamma 90.000000
_cell_volume 863.861386
_symmetry_space_group_name_H-M "C C"
_symmetry_group_IT_number 9
_symmetry_cell_setting 'monoclinic'
loop_
_space_group_symop_operation_xyz
x,y,z
x,-y,1/2+z
1/2+x,1/2+y,z
1/2+x,1/2-y,1/2+z
loop_
_atom_site_type_symbol
_atom_site_label
_atom_site_fract_x
_atom_site_fract_y
_atom_site_fract_z
Si Si1 0.671580 0.468188 0.921800
Si Si2 0.954128 0.442460 0.932676
Si Si3 0.335244 0.643905 0.324526
Si Si4 0.108945 0.404094 0.850469
Si Si5 0.039517 0.006079 0.916905
Si Si6 0.282966 0.427978 0.404429
O O1 0.083161 0.819140 0.322508
O O2 0.655045 0.395258 0.983181
O O3 0.500757 0.352613 0.683907
O O4 0.902660 0.496217 0.150329
O O5 0.878143 0.636661 0.882078
O O6 0.736963 0.355595 0.658951
O O7 0.114319 0.535475 0.057996
O O8 0.098053 0.326029 0.149531
O O9 0.477158 0.584564 0.419598
O O10 0.369423 0.564733 0.441040
O O11 0.161227 0.473990 0.831250
O O12 0.318989 0.438018 0.133635
#
# Coordination Sequence:
#
# PCOD9134854 Si02
#       6
#     4   4   4   4   4   4
#     4  11  21  35  54  82 116 147 181 223 277 333
#     4  10  20  32  54  84 113 143 179 225 280 322
#     4  10  20  32  54  84 113 143 179 225 280 322
#     4  11  21  35  54  82 116 147 181 223 277 333
#     4  11  21  36  51  80 120 148 183 218 274 341
#     4   9  21  30  55  82 116 140 177 228 286 327
#
# _framework density 27.782235
#
# number of rings (size 3 to 8) (size 9 to 14) (size 15 to 20)
#    1.000    0.667    5.000    2.000    2.333    0.000 
#    0.000    0.000    0.000    0.000    0.000   28.000 
#    0.000    0.000    0.000    0.000    0.000    0.000 
#
# Total GULP energy -66912.214910 kJ/mol
# GULP energy per Si atom -5576.017909 kJ/mol
# Density = 2.771900 g / cm^3
# Si number density = 27.782235 Si / 1000 Ang^3
#
#
#
# Elastic Constant Matrix: (Units=GPa)
#
#
# Indices 1 2 3 4 5 6 
#
# 1 211.8508 51.2615 65.4907 0.0008 3.4319 0.0002
# 2 51.2615 98.3514 13.0006 0.0014 15.3119 0.0009
# 3 65.4907 13.0006 252.0203 0.0019 7.9614 0.0016
# 4 0.0008 0.0014 0.0019 -2.3654 0.0012 -12.8245
# 5 3.4319 15.3119 7.9614 0.0012 41.5708 0.0008
# 6 0.0002 0.0009 0.0016 -12.8245 0.0008 24.1730
#
#
#
# Elastic Compliance Matrix: (Units=1/GPa)
#
#
# Indices 1 2 3 4 5 6 
#
# 1 0.005867 -0.003012 -0.001397 0.000000 0.000893 0.000000
# 2 -0.003012 0.012380 0.000282 0.000002 -0.004365 0.000001
# 3 -0.001397 0.000282 0.004342 0.000001 -0.000820 0.000000
# 4 0.000000 0.000002 0.000001 -0.109061 0.000003 -0.057860
# 5 0.000893 -0.004365 -0.000820 0.000003 0.025747 0.000001
# 6 0.000000 0.000001 0.000000 -0.057860 0.000001 0.010672
#
#
# Mechanical properties :
#
#
# Convention : Reuss Voigt Hill
#
# Bulk Modulus (GPa) = 69.76342 91.30311 80.53327
# Shear Modulus (GPa) = -135.05912 41.50701 -46.77605
#
# Velocity S-wave (km/s) = -6.97990 3.86944 -4.10770
# Velocity P-wave (km/s) = 6.30820 7.27314 2.55981
#
# Compressibility (1/GPa) = 0.01433416
#
# Stress axis : x y z
#
# Youngs Moduli (GPa) = 170.45575 80.77654 230.28666
#
# Poissons Ratio (x) = 0.24330 0.32179
# Poissons Ratio (y) = 0.51341 -0.06494
# Poissons Ratio (z) = 0.23819 -0.02278
#
# Static dielectric constant tensor:
#      x y z
#    x 2.133570 0.000000 -0.025120 
#    y 0.000000 2.229970 0.000000 
#    z -0.025120 0.000000 2.309900 
# 
# From -- ./inp_files/31357.got.cif
#   From: 2010.05.17/outbox.cif.g08.bks.cpg/sg9_16_cif.got.tgz:31357.got - 2010.06.03 20:04:27.
