data_PCOD9134423
_publ_section_title
;
Structure prediction by ZEFSAII (Michael W. Deem and Ramdas Pophale) SiO2 
 PCOD9134423
Probable space group: C C
;
_chemical_formula_sum "Si O2"
_cell_formula_units_Z 32
_cell_length_a 10.330879
_cell_length_b 14.974828
_cell_length_c 8.587868
_cell_angle_alpha 90.000000
_cell_angle_beta 82.154931
_cell_angle_gamma 90.000000
_cell_volume 1316.135732
_symmetry_space_group_name_H-M "C C"
_symmetry_group_IT_number 9
_symmetry_cell_setting 'monoclinic'
loop_
_space_group_symop_operation_xyz
x,y,z
x,-y,1/2+z
1/2+x,1/2+y,z
1/2+x,1/2-y,1/2+z
loop_
_atom_site_type_symbol
_atom_site_label
_atom_site_fract_x
_atom_site_fract_y
_atom_site_fract_z
Si Si1 0.062470 0.685808 0.868960
Si Si2 0.666735 0.825639 0.877692
Si Si3 0.719713 0.393653 0.095233
Si Si4 0.448899 0.850202 0.687460
Si Si5 0.303162 0.684190 0.048566
Si Si6 0.647218 0.374837 0.776950
Si Si7 0.602192 0.364731 0.450343
Si Si8 0.003751 0.549485 0.616201
O O1 0.077608 0.778625 0.778461
O O2 0.005757 0.608209 0.771987
O O3 0.200011 0.659691 0.928599
O O4 0.966035 0.702848 0.027003
O O5 0.535031 0.804376 0.802234
O O6 0.770285 0.852069 0.728294
O O7 0.685180 0.728799 0.951900
O O8 0.619582 0.905254 0.997261
O O9 0.769377 0.289537 0.078503
O O10 0.652940 0.405046 0.277180
O O11 0.859266 0.444044 0.064827
O O12 0.627415 0.408177 0.958311
O O13 0.302074 0.861333 0.756333
O O14 0.516680 0.946245 0.651250
O O15 0.447222 0.654887 0.977711
O O16 0.624732 0.417326 0.610424
#
# Coordination Sequence:
#
# PCOD9134423 Si02
#       8
#     4   4   4   4   4   4   4   4
#     4  10  21  35  60  94 123 170 213 261 335 388
#     4  10  19  36  57  87 128 163 210 278 320 380
#     4  10  21  35  60  90 127 170 213 274 325 386
#     4  11  23  37  64  94 131 163 215 286 323 388
#     4   9  19  36  56  86 125 167 218 268 314 386
#     4  11  21  38  60  94 130 167 223 265 327 384
#     4  11  20  38  60  88 131 168 214 270 322 380
#     4  12  20  39  61  97 129 166 210 276 346 374
#
# _framework density 24.313600000000001
#
# number of rings (size 3 to 8) (size 9 to 14) (size 15 to 20)
#    0.000    1.500    3.750    3.000    0.000    1.000 
#    2.250    0.000    0.000    6.000    3.250    0.000 
#    0.000    0.000    0.000    0.000    0.000    0.000 
#
# Total GULP energy -89348.005214 kJ/mol
# GULP energy per Si atom -5584.250326 kJ/mol
# Density = 2.425826 g / cm^3
# Si number density = 24.313600 Si / 1000 Ang^3
#
#
#
# Elastic Constant Matrix: (Units=GPa)
#
#
# Indices 1 2 3 4 5 6 
#
# 1 81.1344 -4.1756 12.3525 0.0000 7.4553 0.0000
# 2 -4.1756 57.9981 16.8569 0.0000 0.0755 0.0000
# 3 12.3525 16.8569 158.3251 0.0000 7.0761 0.0000
# 4 0.0000 0.0000 0.0000 36.0244 0.0000 7.4852
# 5 7.4553 0.0755 7.0761 0.0000 40.1938 0.0000
# 6 0.0000 0.0000 0.0000 7.4852 0.0000 7.4525
#
#
#
# Elastic Compliance Matrix: (Units=1/GPa)
#
#
# Indices 1 2 3 4 5 6 
#
# 1 0.012745 0.001219 -0.001026 0.000000 -0.002186 0.000000
# 2 0.001219 0.017913 -0.002006 0.000000 0.000094 0.000000
# 3 -0.001026 -0.002006 0.006653 0.000000 -0.000977 0.000000
# 4 0.000000 0.000000 0.000000 0.035080 0.000000 -0.035234
# 5 -0.002186 0.000094 -0.000977 0.000000 0.025457 0.000000
# 6 0.000000 0.000000 0.000000 -0.035234 0.000000 0.169571
#
#
# Mechanical properties :
#
#
# Convention : Reuss Voigt Hill
#
# Bulk Modulus (GPa) = 29.68855 38.61392 34.15123
# Shear Modulus (GPa) = 17.71324 34.89574 26.30449
#
# Velocity S-wave (km/s) = 2.70206 3.79256 3.29277
# Velocity P-wave (km/s) = 4.68743 5.92403 5.34164
#
# Compressibility (1/GPa) = 0.03368302
#
# Stress axis : x y z
#
# Youngs Moduli (GPa) = 78.46183 55.82627 150.29685
#
# Poissons Ratio (x) = -0.06804 0.15427
# Poissons Ratio (y) = -0.09563 0.30156
# Poissons Ratio (z) = 0.08054 0.11201
#
# Static dielectric constant tensor:
#      x y z
#    x 1.907280 0.000000 -0.008340 
#    y 0.000000 1.939700 0.000000 
#    z -0.008340 0.000000 2.042960 
# 
# From -- ./inp_files/7920.got.cif
#   From: 2010.05.17/outbox.cif.g08.bks.cpg/sg9_4_cif.got.tgz:7920.got - 2010.06.03 20:04:27.
