data_PCOD9134574
_publ_section_title
;
Structure prediction by ZEFSAII (Michael W. Deem and Ramdas Pophale) SiO2 
 PCOD9134574
Probable space group: C C
;
_chemical_formula_sum "Si O2"
_cell_formula_units_Z 28
_cell_length_a 13.797291
_cell_length_b 18.628370
_cell_length_c 9.663239
_cell_angle_alpha 90.000000
_cell_angle_beta 146.408940
_cell_angle_gamma 90.000000
_cell_volume 1374.111306
_symmetry_space_group_name_H-M "C C"
_symmetry_group_IT_number 9
_symmetry_cell_setting 'monoclinic'
loop_
_space_group_symop_operation_xyz
x,y,z
x,-y,1/2+z
1/2+x,1/2+y,z
1/2+x,1/2-y,1/2+z
loop_
_atom_site_type_symbol
_atom_site_label
_atom_site_fract_x
_atom_site_fract_y
_atom_site_fract_z
Si Si1 0.253480 0.691474 0.697730
Si Si2 0.103728 0.683066 0.046718
Si Si3 0.368566 0.709604 0.139390
Si Si4 0.966955 0.560437 0.060980
Si Si5 0.135965 0.837270 0.154583
Si Si6 0.578099 0.662184 0.891172
Si Si7 0.445070 0.920474 0.853389
O O1 0.406232 0.657541 0.783341
O O2 0.159852 0.758570 0.512667
O O3 0.094818 0.639202 0.552061
O O4 0.345216 0.715976 0.949819
O O5 0.916449 0.714402 0.770104
O O6 0.097416 0.614713 0.136410
O O7 0.205077 0.675749 0.023709
O O8 0.186053 0.752496 0.222366
O O9 0.526989 0.660477 0.383228
O O10 0.787847 0.605546 0.833851
O O11 0.961719 0.484933 0.979839
O O12 0.988493 0.552270 0.249950
O O13 0.032277 0.849017 0.174877
O O14 0.746836 0.611257 0.122747
#
# Coordination Sequence:
#
# PCOD9134574 Si02
#       7
#     4   4   4   4   4   4   4
#     4  12  24  43  68 103 137 170 228 285 333 395
#     4  10  19  37  67  96 124 165 226 267 324 397
#     4  10  22  35  66 102 122 173 216 273 333 383
#     4  11  24  46  65  96 139 174 222 278 335 408
#     4   9  21  41  68  95 122 177 220 275 332 390
#     4  11  24  42  70  97 135 172 227 282 330 401
#     4  11  28  44  68  99 135 187 215 278 347 392
#
# _framework density 20.376808
#
# number of rings (size 3 to 8) (size 9 to 14) (size 15 to 20)
#    0.857    0.571    2.857    1.714    8.000    1.143 
#    2.571    0.000    0.000    0.000    0.000    0.000 
#    0.000    0.000    0.000    0.000    0.000    0.000 
#
# Total GULP energy -78014.618142 kJ/mol
# GULP energy per Si atom -5572.472724 kJ/mol
# Density = 2.033043 g / cm^3
# Si number density = 20.376808 Si / 1000 Ang^3
#
#
#
# Elastic Constant Matrix: (Units=GPa)
#
#
# Indices 1 2 3 4 5 6 
#
# 1 64.0110 2.5993 1.6199 0.0000 7.6543 0.0000
# 2 2.5993 78.0876 6.3603 0.0000 -0.4397 0.0000
# 3 1.6199 6.3603 58.5089 0.0000 -4.5640 0.0000
# 4 0.0000 0.0000 0.0000 20.3457 0.0000 -2.1252
# 5 7.6543 -0.4397 -4.5640 0.0000 39.9118 0.0000
# 6 0.0000 0.0000 0.0000 -2.1252 0.0000 29.4329
#
#
#
# Elastic Compliance Matrix: (Units=1/GPa)
#
#
# Indices 1 2 3 4 5 6 
#
# 1 0.016036 -0.000500 -0.000636 0.000000 -0.003154 0.000000
# 2 -0.000500 0.012936 -0.001386 0.000000 0.000080 0.000000
# 3 -0.000636 -0.001386 0.017423 0.000000 0.002099 0.000000
# 4 0.000000 0.000000 0.000000 0.049524 0.000000 0.003576
# 5 -0.003154 0.000080 0.002099 0.000000 0.025901 0.000000
# 6 0.000000 0.000000 0.000000 0.003576 0.000000 0.034234
#
#
# Mechanical properties :
#
#
# Convention : Reuss Voigt Hill
#
# Bulk Modulus (GPa) = 24.18252 24.64073 24.41163
# Shear Modulus (GPa) = 28.59083 30.60662 29.59872
#
# Velocity S-wave (km/s) = 3.74987 3.87981 3.81539
# Velocity P-wave (km/s) = 5.53553 5.67357 5.60498
#
# Compressibility (1/GPa) = 0.04135217
#
# Stress axis : x y z
#
# Youngs Moduli (GPa) = 62.36048 77.30293 57.39398
#
# Poissons Ratio (x) = 0.03863 0.03648
# Poissons Ratio (y) = 0.03117 0.07956
# Poissons Ratio (z) = 0.03964 0.10715
#
# Static dielectric constant tensor:
#      x y z
#    x 1.766490 0.000000 0.048030 
#    y 0.000000 1.700400 0.000000 
#    z 0.048030 0.000000 1.772270 
# 
# From -- ./inp_files/8354.got.cif
#   From: 2010.05.17/outbox.cif.g08.bks.cpg/sg9_5_cif.got.tgz:8354.got - 2010.06.03 20:04:27.
