data_PCOD9134419
_publ_section_title
;
Structure prediction by ZEFSAII (Michael W. Deem and Ramdas Pophale) SiO2 
 PCOD9134419
Probable space group: C C
;
_chemical_formula_sum "Si O2"
_cell_formula_units_Z 24
_cell_length_a 9.517724
_cell_length_b 12.315654
_cell_length_c 9.815709
_cell_angle_alpha 90.000000
_cell_angle_beta 59.661990
_cell_angle_gamma 90.000000
_cell_volume 993.009904
_symmetry_space_group_name_H-M "C C"
_symmetry_group_IT_number 9
_symmetry_cell_setting 'monoclinic'
loop_
_space_group_symop_operation_xyz
x,y,z
x,-y,1/2+z
1/2+x,1/2+y,z
1/2+x,1/2-y,1/2+z
loop_
_atom_site_type_symbol
_atom_site_label
_atom_site_fract_x
_atom_site_fract_y
_atom_site_fract_z
Si Si1 0.601350 0.165971 0.475940
Si Si2 0.534133 0.261968 0.993765
Si Si3 0.977719 0.829091 0.736540
Si Si4 0.243530 0.439615 0.153445
Si Si5 0.892178 0.060120 0.854823
Si Si6 0.910148 0.305895 0.818151
O O1 0.783879 0.180742 0.333676
O O2 0.548093 0.281508 0.564575
O O3 0.608208 0.090043 0.607293
O O4 0.492841 0.131071 0.401162
O O5 0.543954 0.250736 0.825550
O O6 0.716141 0.303819 0.935045
O O7 0.387130 0.349121 0.069953
O O8 0.473357 0.172721 0.133273
O O9 0.005241 0.957005 0.758221
O O10 0.242651 0.447453 0.317078
O O11 0.326111 0.542816 0.038952
O O12 0.965334 0.179120 0.806289
#
# Coordination Sequence:
#
# PCOD9134419 Si02
#       6
#     4   4   4   4   4   4
#     4  10  20  32  55  80 105 136 178 216 258 313
#     4   9  19  32  53  77 103 134 176 214 258 311
#     4  10  19  36  56  78 103 140 178 216 257 311
#     4   9  19  35  54  78 103 138 180 216 255 310
#     4   9  18  32  56  77 102 138 179 212 255 314
#     4  11  19  33  54  78 104 138 175 218 259 309
#
# _framework density 24.168942999999999
#
# number of rings (size 3 to 8) (size 9 to 14) (size 15 to 20)
#    0.000    2.667    0.000    5.000    0.000    1.333 
#    0.000    0.000    0.000  108.000    0.000    0.000 
#    0.000    0.000    0.000    0.000    0.000    0.000 
#
# Total GULP energy -66808.496468 kJ/mol
# GULP energy per Si atom -5567.374706 kJ/mol
# Density = 2.411393 g / cm^3
# Si number density = 24.168943 Si / 1000 Ang^3
#
#
#
# Elastic Constant Matrix: (Units=GPa)
#
#
# Indices 1 2 3 4 5 6 
#
# 1 115.4847 -20.8919 35.2426 0.0000 18.9969 0.0000
# 2 -20.8919 50.2581 12.1832 0.0000 3.2006 0.0000
# 3 35.2426 12.1832 100.5664 0.0000 23.0259 0.0000
# 4 0.0000 0.0000 0.0000 20.7490 0.0000 6.3971
# 5 18.9969 3.2006 23.0259 0.0000 52.1769 0.0000
# 6 0.0000 0.0000 0.0000 6.3971 0.0000 34.4553
#
#
#
# Elastic Compliance Matrix: (Units=1/GPa)
#
#
# Indices 1 2 3 4 5 6 
#
# 1 0.011427 0.005917 -0.004100 0.000000 -0.002714 0.000000
# 2 0.005917 0.023565 -0.004565 0.000000 -0.001585 0.000000
# 3 -0.004100 -0.004565 0.012823 0.000000 -0.003886 0.000000
# 4 0.000000 0.000000 0.000000 0.051121 0.000000 -0.009491
# 5 -0.002714 -0.001585 -0.003886 0.000000 0.021966 0.000000
# 6 0.000000 0.000000 0.000000 -0.009491 0.000000 0.030785
#
#
# Mechanical properties :
#
#
# Convention : Reuss Voigt Hill
#
# Bulk Modulus (GPa) = 23.63043 35.48634 29.55839
# Shear Modulus (GPa) = 29.19016 37.46127 33.32572
#
# Velocity S-wave (km/s) = 3.47905 3.94124 3.71734
# Velocity P-wave (km/s) = 5.09282 5.95195 5.53906
#
# Compressibility (1/GPa) = 0.04231832
#
# Stress axis : x y z
#
# Youngs Moduli (GPa) = 87.51048 42.43663 77.98284
#
# Poissons Ratio (x) = -0.25109 0.31972
# Poissons Ratio (y) = -0.51779 0.35602
# Poissons Ratio (z) = 0.35879 0.19374
#
# Static dielectric constant tensor:
#      x y z
#    x 1.953910 0.000000 0.086640 
#    y 0.000000 2.049680 0.000000 
#    z 0.086640 0.000000 2.007800 
# 
# From -- ./inp_files/14351.got.cif
#   From: 2010.05.17/outbox.cif.g08.bks.cpg/sg9_8_cif.got.tgz:14351.got - 2010.06.03 20:04:27.
