data_PCOD9134630
_publ_section_title
;
Structure prediction by ZEFSAII (Michael W. Deem and Ramdas Pophale) SiO2 
 PCOD9134630
Probable space group: C C
;
_chemical_formula_sum "Si O2"
_cell_formula_units_Z 28
_cell_length_a 9.095945
_cell_length_b 11.467274
_cell_length_c 20.646795
_cell_angle_alpha 90.000000
_cell_angle_beta 148.239010
_cell_angle_gamma 90.000000
_cell_volume 1133.594117
_symmetry_space_group_name_H-M "C C"
_symmetry_group_IT_number 9
_symmetry_cell_setting 'monoclinic'
loop_
_space_group_symop_operation_xyz
x,y,z
x,-y,1/2+z
1/2+x,1/2+y,z
1/2+x,1/2-y,1/2+z
loop_
_atom_site_type_symbol
_atom_site_label
_atom_site_fract_x
_atom_site_fract_y
_atom_site_fract_z
Si Si1 0.387040 0.820910 0.668190
Si Si2 0.485716 0.067406 0.729450
Si Si3 0.829902 0.126121 0.116541
Si Si4 0.392003 0.739567 0.862837
Si Si5 0.396974 0.820912 0.057488
Si Si6 0.798295 0.432593 0.496227
Si Si7 0.954103 0.126120 0.609133
O O1 0.142006 0.750000 0.612839
O O2 0.280035 0.894381 0.565066
O O3 0.569609 0.718381 0.705246
O O4 0.520689 0.929713 0.756694
O O5 0.503980 0.105618 0.660613
O O6 0.184143 0.109182 0.640329
O O7 0.726902 0.149538 0.849210
O O8 0.133248 0.177565 0.248136
O O9 0.714399 0.218383 0.020429
O O10 0.599867 0.109183 0.085347
O O11 0.892000 0.000001 0.112835
O O12 0.557108 0.649537 0.876467
O O13 0.650759 0.822435 0.977538
O O14 0.263325 0.929715 0.968984
#
# Coordination Sequence:
#
# PCOD9134630 Si02
#       7
#     4   4   4   4   4   4   4
#     4  10  19  38  66  91 121 169 217 262 330 383
#     4  10  22  42  64  90 134 168 214 280 318 390
#     4  11  22  44  67  95 136 176 217 278 327 397
#     4  10  22  42  64  96 130 180 216 266 342 382
#     4  10  19  38  66  91 121 169 217 262 330 383
#     4  10  22  42  64  90 134 168 214 280 318 390
#     4  11  22  44  67  95 136 176 217 278 327 397
#
# _framework density 24.700198
#
# number of rings (size 3 to 8) (size 9 to 14) (size 15 to 20)
#    0.000    1.714    2.857    3.429    0.000    0.000 
#   20.571    1.429    0.000    0.000    0.000    0.000 
#    0.000    0.000    0.000    0.000    0.000    0.000 
#
# Total GULP energy -77943.866748 kJ/mol
# GULP energy per Si atom -5567.419053 kJ/mol
# Density = 2.464398 g / cm^3
# Si number density = 24.700198 Si / 1000 Ang^3
#
#
#
# Elastic Constant Matrix: (Units=GPa)
#
#
# Indices 1 2 3 4 5 6 
#
# 1 114.9512 42.9555 43.4730 0.0001 35.4656 0.0000
# 2 42.9555 280.8985 71.4628 0.0000 27.4671 0.0000
# 3 43.4730 71.4628 138.4160 0.0008 41.6070 -0.0001
# 4 0.0001 0.0000 0.0008 26.6981 0.0000 17.2753
# 5 35.4656 27.4671 41.6070 0.0000 26.3234 -0.0001
# 6 0.0000 0.0000 -0.0001 17.2753 -0.0001 37.9587
#
#
#
# Elastic Compliance Matrix: (Units=1/GPa)
#
#
# Indices 1 2 3 4 5 6 
#
# 1 0.015503 -0.000694 0.002953 0.000000 -0.024831 0.000000
# 2 -0.000694 0.004173 -0.001731 0.000000 -0.000683 0.000000
# 3 0.002953 -0.001731 0.014944 -0.000001 -0.025793 0.000000
# 4 0.000000 0.000000 -0.000001 0.053090 0.000001 -0.024162
# 5 -0.024831 -0.000683 -0.025793 0.000001 0.112925 0.000000
# 6 0.000000 0.000000 0.000000 -0.024162 0.000000 0.037341
#
#
# Mechanical properties :
#
#
# Convention : Reuss Voigt Hill
#
# Bulk Modulus (GPa) = 28.03003 94.44982 61.23992
# Shear Modulus (GPa) = 20.09544 43.28766 31.69155
#
# Velocity S-wave (km/s) = 2.85542 4.19086 3.58585
# Velocity P-wave (km/s) = 4.71635 7.85743 6.48009
#
# Compressibility (1/GPa) = 0.03567602
#
# Stress axis : x y z
#
# Youngs Moduli (GPa) = 64.50471 239.61256 66.91515
#
# Poissons Ratio (x) = 0.16630 -0.19761
# Poissons Ratio (y) = 0.04477 0.11586
# Poissons Ratio (z) = -0.19050 0.41487
#
# Static dielectric constant tensor:
#      x y z
#    x 2.225770 0.000000 -0.340840 
#    y 0.000000 2.069590 0.000000 
#    z -0.340840 0.000000 2.369480 
# 
# From -- ./inp_files/36376.got.cif
#   From: 2010.05.17/outbox.cif.g08.bks.cpg/sg9_19_cif.got.tgz:36376.got - 2010.06.03 20:04:27.
