data_PCOD9134025
_publ_section_title
;
Structure prediction by ZEFSAII (Michael W. Deem and Ramdas Pophale) SiO2 
 PCOD9134025
Probable space group: C C
;
_chemical_formula_sum "Si O2"
_cell_formula_units_Z 32
_cell_length_a 20.107320
_cell_length_b 10.517350
_cell_length_c 9.211426
_cell_angle_alpha 90.000000
_cell_angle_beta 128.369716
_cell_angle_gamma 90.000000
_cell_volume 1527.268675
_symmetry_space_group_name_H-M "C C"
_symmetry_group_IT_number 9
_symmetry_cell_setting 'monoclinic'
loop_
_space_group_symop_operation_xyz
x,y,z
x,-y,1/2+z
1/2+x,1/2+y,z
1/2+x,1/2-y,1/2+z
loop_
_atom_site_type_symbol
_atom_site_label
_atom_site_fract_x
_atom_site_fract_y
_atom_site_fract_z
Si Si1 0.614550 0.416789 0.174400
Si Si2 0.275179 0.325738 0.190486
Si Si3 0.733056 0.345828 0.865309
Si Si4 0.011656 0.085213 0.820808
Si Si5 0.890474 0.510906 0.992259
Si Si6 0.442831 0.830468 0.833958
Si Si7 0.261388 0.777331 0.215511
Si Si8 0.818608 0.958159 0.973575
O O1 0.671326 0.535790 0.303129
O O2 0.556038 0.379902 0.229580
O O3 0.680214 0.312939 0.204261
O O4 0.559082 0.472761 0.968004
O O5 0.212417 0.227768 0.186854
O O6 0.350444 0.234421 0.234548
O O7 0.302240 0.413894 0.362433
O O8 0.259911 0.418083 0.032371
O O9 0.826881 0.407209 0.976022
O O10 0.733253 0.264061 0.011447
O O11 0.005426 0.211704 0.910844
O O12 0.915176 0.042622 0.659559
O O13 0.936903 0.594847 0.175024
O O14 0.953220 0.433570 0.973648
O O15 0.827121 0.604773 0.818960
O O16 0.306183 0.654628 0.340921
#
# Coordination Sequence:
#
# PCOD9134025 Si02
#       8
#     4   4   4   4   4   4   4   4
#     4  11  24  38  63  93 133 171 215 264 334 396
#     4  10  21  36  60  97 130 160 213 275 322 371
#     4  10  21  35  62  92 123 164 216 270 314 382
#     4  11  22  40  60  94 133 172 210 267 336 392
#     4  10  18  34  60  95 119 153 215 276 314 359
#     4  10  20  36  61  91 127 167 206 271 324 380
#     4  11  20  37  63  96 124 169 223 268 318 383
#     4  11  22  38  65  96 131 170 216 273 324 383
#
# _framework density 20.952435999999999
#
# number of rings (size 3 to 8) (size 9 to 14) (size 15 to 20)
#    0.000    1.500    5.000    2.250    1.750    0.000 
#    0.000    1.250    2.750    0.000    0.000    0.000 
#    0.000    0.000    0.000    0.000    0.000    0.000 
#
# Total GULP energy -89309.358655 kJ/mol
# GULP energy per Si atom -5581.834916 kJ/mol
# Density = 2.090475 g / cm^3
# Si number density = 20.952436 Si / 1000 Ang^3
#
#
#
# Elastic Constant Matrix: (Units=GPa)
#
#
# Indices 1 2 3 4 5 6 
#
# 1 54.2776 7.2265 -0.1323 0.0000 -15.9573 0.0000
# 2 7.2265 59.3117 1.5802 0.0000 -4.6853 0.0000
# 3 -0.1323 1.5802 43.8252 0.0000 -9.6605 0.0000
# 4 0.0000 0.0000 0.0000 32.6197 0.0000 -22.5850
# 5 -15.9573 -4.6853 -9.6605 0.0000 33.4888 0.0000
# 6 0.0000 0.0000 0.0000 -22.5850 0.0000 34.3389
#
#
#
# Elastic Compliance Matrix: (Units=1/GPa)
#
#
# Indices 1 2 3 4 5 6 
#
# 1 0.021883 -0.001873 0.002536 0.000000 0.010897 0.000000
# 2 -0.001873 0.017209 -0.000312 0.000000 0.001425 0.000000
# 3 0.002536 -0.000312 0.024662 0.000000 0.008279 0.000000
# 4 0.000000 0.000000 0.000000 0.056290 0.000000 0.037022
# 5 0.010897 0.001425 0.008279 0.000000 0.037640 0.000000
# 6 0.000000 0.000000 0.000000 0.037022 0.000000 0.053471
#
#
# Mechanical properties :
#
#
# Convention : Reuss Voigt Hill
#
# Bulk Modulus (GPa) = 15.51471 19.41813 17.46642
# Shear Modulus (GPa) = 21.55737 30.00546 25.78142
#
# Velocity S-wave (km/s) = 3.21108 3.78838 3.51162
# Velocity P-wave (km/s) = 4.60096 5.33138 4.97958
#
# Compressibility (1/GPa) = 0.06445495
#
# Stress axis : x y z
#
# Youngs Moduli (GPa) = 45.69782 58.10847 40.54862
#
# Poissons Ratio (x) = 0.10884 -0.10281
# Poissons Ratio (y) = 0.08559 0.01265
# Poissons Ratio (z) = -0.11587 0.01813
#
# Static dielectric constant tensor:
#      x y z
#    x 1.757560 0.000000 -0.024580 
#    y 0.000000 1.767290 0.000000 
#    z -0.024580 0.000000 1.753310 
# 
# From -- ./inp_files/10638.got.cif
#   From: 2010.05.17/outbox.cif.g08.bks.cpg/sg9_6_cif.got.tgz:10638.got - 2010.06.03 20:04:27.
