data_PCOD9134691
_publ_section_title
;
Structure prediction by ZEFSAII (Michael W. Deem and Ramdas Pophale) SiO2 
 PCOD9134691
Probable space group: C C
;
_chemical_formula_sum "Si O2"
_cell_formula_units_Z 32
_cell_length_a 23.710165
_cell_length_b 14.135230
_cell_length_c 9.217640
_cell_angle_alpha 90.000000
_cell_angle_beta 150.624093
_cell_angle_gamma 90.000000
_cell_volume 1515.407004
_symmetry_space_group_name_H-M "C C"
_symmetry_group_IT_number 9
_symmetry_cell_setting 'monoclinic'
loop_
_space_group_symop_operation_xyz
x,y,z
x,-y,1/2+z
1/2+x,1/2+y,z
1/2+x,1/2-y,1/2+z
loop_
_atom_site_type_symbol
_atom_site_label
_atom_site_fract_x
_atom_site_fract_y
_atom_site_fract_z
Si Si1 0.072490 0.106313 0.342030
Si Si2 0.385475 0.217973 0.104513
Si Si3 0.252310 0.411255 0.803177
Si Si4 0.225205 0.917175 0.428771
Si Si5 0.291746 0.193615 0.322401
Si Si6 0.294307 0.887797 0.137887
Si Si7 0.026904 0.316893 0.198060
Si Si8 0.810610 0.091986 0.753834
O O1 0.115673 0.056648 0.585795
O O2 0.172600 0.097832 0.447913
O O3 0.062749 0.217889 0.350042
O O4 0.944632 0.080077 0.008872
O O5 0.492790 0.206414 0.454211
O O6 0.344027 0.325297 0.984340
O O7 0.285850 0.167637 0.976427
O O8 0.383071 0.158522 0.950200
O O9 0.134093 0.384210 0.458588
O O10 0.289338 0.511111 0.822382
O O11 0.237834 0.417278 0.943980
O O12 0.201520 0.872274 0.532726
O O13 0.313803 0.004809 0.630312
O O14 0.282840 0.177697 0.472400
O O15 0.413551 0.154144 0.533552
O O16 0.289494 0.303198 0.271172
#
# Coordination Sequence:
#
# PCOD9134691 Si02
#       8
#     4   4   4   4   4   4   4   4
#     4  10  20  40  65  99 131 173 220 276 357 386
#     4  10  21  42  68  89 137 177 220 286 343 403
#     4  12  23  47  69  94 140 183 232 280 351 418
#     4  10  19  39  67  92 129 169 222 292 339 395
#     4  10  21  43  65 101 138 174 234 283 342 409
#     4  11  22  37  70 103 125 168 234 290 335 409
#     4  10  20  44  70  85 138 191 209 274 363 399
#     4  11  26  42  68  99 140 187 225 289 340 419
#
# _framework density 21.116437999999999
#
# number of rings (size 3 to 8) (size 9 to 14) (size 15 to 20)
#    0.000    1.500    6.250    1.500    3.500    0.000 
#    9.000    3.750    0.000    0.000    0.000    0.000 
#    0.000    0.000    0.000    0.000    0.000    0.000 
#
# Total GULP energy -89234.005275 kJ/mol
# GULP energy per Si atom -5577.125330 kJ/mol
# Density = 2.106838 g / cm^3
# Si number density = 21.116438 Si / 1000 Ang^3
#
#
#
# Elastic Constant Matrix: (Units=GPa)
#
#
# Indices 1 2 3 4 5 6 
#
# 1 64.2090 28.2792 48.1379 0.0000 -29.4335 0.0000
# 2 28.2792 106.4130 37.4667 0.0000 -18.4062 0.0000
# 3 48.1379 37.4667 120.2205 0.0000 -35.0821 0.0000
# 4 0.0000 0.0000 0.0000 25.0548 0.0000 -12.0706
# 5 -29.4335 -18.4062 -35.0821 0.0000 39.6206 0.0000
# 6 0.0000 0.0000 0.0000 -12.0706 0.0000 32.4681
#
#
#
# Elastic Compliance Matrix: (Units=1/GPa)
#
#
# Indices 1 2 3 4 5 6 
#
# 1 0.027830 -0.002807 -0.006224 0.000000 0.013859 0.000000
# 2 -0.002807 0.011055 -0.001930 0.000000 0.001342 0.000000
# 3 -0.006224 -0.001930 0.013216 0.000000 0.006181 0.000000
# 4 0.000000 0.000000 0.000000 0.048621 0.000000 0.018076
# 5 0.013859 0.001342 0.006181 0.000000 0.041631 0.000000
# 6 0.000000 0.000000 0.000000 0.018076 0.000000 0.037520
#
#
# Mechanical properties :
#
#
# Convention : Reuss Voigt Hill
#
# Bulk Modulus (GPa) = 33.13695 57.62336 45.38016
# Shear Modulus (GPa) = 23.60118 31.22593 27.41356
#
# Velocity S-wave (km/s) = 3.34678 3.84962 3.60698
# Velocity P-wave (km/s) = 5.53725 6.86346 6.23571
#
# Compressibility (1/GPa) = 0.03017779
#
# Stress axis : x y z
#
# Youngs Moduli (GPa) = 35.93262 90.45822 75.66840
#
# Poissons Ratio (x) = 0.25392 0.47099
# Poissons Ratio (y) = 0.10087 0.14602
# Poissons Ratio (z) = 0.22366 0.17456
#
# Static dielectric constant tensor:
#      x y z
#    x 1.778360 0.000000 0.002570 
#    y 0.000000 1.814490 0.000000 
#    z 0.002570 0.000000 1.854250 
# 
# From -- ./inp_files/11709.got.cif
#   From: 2010.05.17/outbox.cif.g08.bks.cpg/sg9_6_cif.got.tgz:11709.got - 2010.06.03 20:04:27.
