data_PCOD9134493
_publ_section_title
;
Structure prediction by ZEFSAII (Michael W. Deem and Ramdas Pophale) SiO2 
 PCOD9134493
Probable space group: C C
;
_chemical_formula_sum "Si O2"
_cell_formula_units_Z 28
_cell_length_a 9.340606
_cell_length_b 9.685993
_cell_length_c 24.956615
_cell_angle_alpha 90.000000
_cell_angle_beta 29.293987
_cell_angle_gamma 90.000000
_cell_volume 1104.770445
_symmetry_space_group_name_H-M "C C"
_symmetry_group_IT_number 9
_symmetry_cell_setting 'monoclinic'
loop_
_space_group_symop_operation_xyz
x,y,z
x,-y,1/2+z
1/2+x,1/2+y,z
1/2+x,1/2-y,1/2+z
loop_
_atom_site_type_symbol
_atom_site_label
_atom_site_fract_x
_atom_site_fract_y
_atom_site_fract_z
Si Si1 0.750000 0.025736 0.819850
Si Si2 0.546554 0.187355 0.029472
Si Si3 0.158284 0.970877 0.965433
Si Si4 0.993538 0.827521 0.647973
Si Si5 0.957439 0.663301 0.261624
Si Si6 0.438592 0.535092 0.374825
Si Si7 0.595900 0.034110 0.587695
O O1 0.414699 0.052594 0.910609
O O2 0.869903 0.921218 0.735917
O O3 0.804496 0.953510 0.859631
O O4 0.911227 0.173647 0.767891
O O5 0.341356 0.163488 0.044838
O O6 0.426057 0.092443 0.116496
O O7 0.560223 0.347247 0.036910
O O8 0.866301 0.124376 0.914053
O O9 0.308669 0.889074 0.865699
O O10 0.867817 0.027159 0.032122
O O11 0.800736 0.867713 0.659308
O O12 0.948442 0.661392 0.665771
O O13 0.766657 0.584717 0.278978
O O14 0.236958 0.604483 0.487159
#
# Coordination Sequence:
#
# PCOD9134493 Si02
#       7
#     4   4   4   4   4   4   4
#     4  11  21  35  59  91 116 152 197 250 278 358
#     4   9  17  36  63  81 113 156 198 242 282 354
#     4   9  18  33  58  84 111 155 198 233 295 339
#     4  10  20  34  61  88 120 153 197 236 313 334
#     4  10  19  37  56  85 118 162 190 242 296 350
#     4   9  20  36  62  82 115 155 204 233 288 346
#     4   8  17  35  59  81 113 157 186 240 288 351
#
# _framework density 25.344633999999999
#
# number of rings (size 3 to 8) (size 9 to 14) (size 15 to 20)
#    0.857    1.714    1.429    0.857    0.000    1.143 
#    0.000    2.857    9.429    0.000    0.000    0.000 
#    0.000    0.000    0.000    0.000    0.000    0.000 
#
# Total GULP energy -78046.969145 kJ/mol
# GULP energy per Si atom -5574.783510 kJ/mol
# Density = 2.528695 g / cm^3
# Si number density = 25.344634 Si / 1000 Ang^3
#
#
#
# Elastic Constant Matrix: (Units=GPa)
#
#
# Indices 1 2 3 4 5 6 
#
# 1 179.9154 63.5465 41.2041 -0.0018 -28.2881 0.0042
# 2 63.5465 85.1969 14.6414 0.0043 -7.6322 0.0007
# 3 41.2041 14.6414 92.1809 -0.0134 -40.7948 0.0105
# 4 -0.0018 0.0043 -0.0134 25.7009 -0.0013 -4.8581
# 5 -28.2881 -7.6322 -40.7948 -0.0013 56.0157 0.0007
# 6 0.0042 0.0007 0.0105 -4.8581 0.0007 44.2053
#
#
#
# Elastic Compliance Matrix: (Units=1/GPa)
#
#
# Indices 1 2 3 4 5 6 
#
# 1 0.008331 -0.005702 -0.001919 0.000001 0.002033 0.000000
# 2 -0.005702 0.015975 -0.000442 -0.000003 -0.001025 0.000000
# 3 -0.001919 -0.000442 0.016704 0.000009 0.011136 -0.000003
# 4 0.000001 -0.000003 0.000009 0.039735 0.000007 0.004367
# 5 0.002033 -0.001025 0.011136 0.000007 0.026850 -0.000002
# 6 0.000000 0.000000 -0.000003 0.004367 -0.000002 0.023102
#
#
# Mechanical properties :
#
#
# Convention : Reuss Voigt Hill
#
# Bulk Modulus (GPa) = 40.18522 66.23079 53.20801
# Shear Modulus (GPa) = 32.23372 41.04445 36.63908
#
# Velocity S-wave (km/s) = 3.57012 4.02861 3.80628
# Velocity P-wave (km/s) = 5.73448 6.91581 6.35266
#
# Compressibility (1/GPa) = 0.02488477
#
# Stress axis : x y z
#
# Youngs Moduli (GPa) = 120.02957 62.59826 59.86437
#
# Poissons Ratio (x) = 0.35695 0.11485
# Poissons Ratio (y) = 0.68444 0.02647
# Poissons Ratio (z) = 0.23028 0.02767
#
# Static dielectric constant tensor:
#      x y z
#    x 2.041370 0.000000 0.088920 
#    y 0.000000 2.033680 0.000000 
#    z 0.088920 0.000000 2.165830 
# 
# From -- ./inp_files/32506.got.cif
#   From: 2010.05.17/outbox.cif.g08.bks.cpg/sg9_17_cif.got.tgz:32506.got - 2010.06.03 20:04:27.
