data_PCOD9134285
_publ_section_title
;
Structure prediction by ZEFSAII (Michael W. Deem and Ramdas Pophale) SiO2 
 PCOD9134285
Probable space group: C C
;
_chemical_formula_sum "Si O2"
_cell_formula_units_Z 32
_cell_length_a 24.301880
_cell_length_b 9.400063
_cell_length_c 20.927861
_cell_angle_alpha 90.000000
_cell_angle_beta 17.960452
_cell_angle_gamma 90.000000
_cell_volume 1474.192389
_symmetry_space_group_name_H-M "C C"
_symmetry_group_IT_number 9
_symmetry_cell_setting 'monoclinic'
loop_
_space_group_symop_operation_xyz
x,y,z
x,-y,1/2+z
1/2+x,1/2+y,z
1/2+x,1/2-y,1/2+z
loop_
_atom_site_type_symbol
_atom_site_label
_atom_site_fract_x
_atom_site_fract_y
_atom_site_fract_z
Si Si1 0.833990 0.152323 0.399370
Si Si2 0.339508 0.647328 0.168300
Si Si3 0.624609 0.098049 0.062882
Si Si4 0.870654 0.625410 0.462286
Si Si5 0.627354 0.443464 0.653354
Si Si6 0.293795 0.111787 0.353163
Si Si7 0.588812 0.392900 0.502463
Si Si8 0.126422 0.358785 0.788072
O O1 0.735687 0.298069 0.522448
O O2 0.921702 0.091961 0.367596
O O3 0.709698 0.038838 0.501453
O O4 0.992253 0.168280 0.172500
O O5 0.212601 0.766888 0.339817
O O6 0.222928 0.569590 0.242388
O O7 0.438596 0.567335 0.116246
O O8 0.496509 0.737051 0.960635
O O9 0.489993 0.150302 0.267597
O O10 0.496951 0.069808 0.143575
O O11 0.764483 0.219550 0.889211
O O12 0.708845 0.518219 0.625270
O O13 0.781179 0.773941 0.580041
O O14 0.999229 0.567608 0.376511
O O15 0.680369 0.550225 0.537866
O O16 0.209508 0.028301 0.387083
#
# Coordination Sequence:
#
# PCOD9134285 Si02
#       8
#     4   4   4   4   4   4   4   4
#     4  11  22  36  53  83 121 155 187 222 278 362
#     4   9  19  34  53  80 109 145 194 243 289 331
#     4  11  22  36  53  83 121 155 187 222 278 362
#     4  10  19  33  54  80 116 152 186 240 288 333
#     4  10  20  33  52  81 114 150 185 225 278 342
#     4  10  20  33  52  81 114 150 185 225 278 342
#     4  10  19  33  54  80 116 152 186 240 288 333
#     4   9  19  34  53  80 109 145 194 243 289 331
#
# _framework density 21.706802
#
# number of rings (size 3 to 8) (size 9 to 14) (size 15 to 20)
#    0.000    2.000    0.000    6.000    0.000    6.000 
#    0.000    0.000    0.000    0.000    0.000   91.000 
#    0.000    0.000    0.000    0.500    0.000    0.000 
#
# Total GULP energy -89322.807505 kJ/mol
# GULP energy per Si atom -5582.675469 kJ/mol
# Density = 2.165740 g / cm^3
# Si number density = 21.706802 Si / 1000 Ang^3
#
#
#
# Elastic Constant Matrix: (Units=GPa)
#
#
# Indices 1 2 3 4 5 6 
#
# 1 171.7649 30.9367 19.2342 0.0031 -52.6561 0.0000
# 2 30.9367 72.0767 3.0337 0.0081 -4.6233 -0.0009
# 3 19.2342 3.0337 55.4459 0.0076 -5.1125 -0.0013
# 4 0.0031 0.0081 0.0076 22.8305 -0.0048 -14.5569
# 5 -52.6561 -4.6233 -5.1125 -0.0048 33.1060 0.0004
# 6 0.0000 -0.0009 -0.0013 -14.5569 0.0004 34.4595
#
#
#
# Elastic Compliance Matrix: (Units=1/GPa)
#
#
# Indices 1 2 3 4 5 6 
#
# 1 0.012776 -0.004140 -0.002420 0.000006 0.019369 0.000002
# 2 -0.004140 0.015360 0.000189 -0.000008 -0.004410 -0.000003
# 3 -0.002420 0.000189 0.018780 -0.000008 -0.000922 -0.000003
# 4 0.000006 -0.000008 -0.000008 0.059948 0.000015 0.025324
# 5 0.019369 -0.004410 -0.000922 0.000015 0.060255 0.000006
# 6 0.000002 -0.000003 -0.000003 0.025324 0.000006 0.039718
#
#
# Mechanical properties :
#
#
# Convention : Reuss Voigt Hill
#
# Bulk Modulus (GPa) = 29.26068 45.07743 37.16906
# Shear Modulus (GPa) = 21.64791 34.48470 28.06631
#
# Velocity S-wave (km/s) = 3.16141 3.99012 3.59969
# Velocity P-wave (km/s) = 5.18028 6.48380 5.86834
#
# Compressibility (1/GPa) = 0.03417555
#
# Stress axis : x y z
#
# Youngs Moduli (GPa) = 78.27016 65.10385 53.24923
#
# Poissons Ratio (x) = 0.26950 0.12884
# Poissons Ratio (y) = 0.32400 -0.01006
# Poissons Ratio (z) = 0.18938 -0.01230
#
# Static dielectric constant tensor:
#      x y z
#    x 1.888890 0.000000 -0.042250 
#    y 0.000000 1.764810 0.000000 
#    z -0.042250 0.000000 1.836740 
# 
# From -- ./inp_files/34498.got.cif
#   From: 2010.05.17/outbox.cif.g08.bks.cpg/sg9_18_cif.got.tgz:34498.got - 2010.06.03 20:04:27.
