data_PCOD9134041
_publ_section_title
;
Structure prediction by ZEFSAII (Michael W. Deem and Ramdas Pophale) SiO2 
 PCOD9134041
Probable space group: C C
;
_chemical_formula_sum "Si O2"
_cell_formula_units_Z 28
_cell_length_a 8.751178
_cell_length_b 11.089834
_cell_length_c 15.138970
_cell_angle_alpha 90.000000
_cell_angle_beta 49.163618
_cell_angle_gamma 90.000000
_cell_volume 1111.585166
_symmetry_space_group_name_H-M "C C"
_symmetry_group_IT_number 9
_symmetry_cell_setting 'monoclinic'
loop_
_space_group_symop_operation_xyz
x,y,z
x,-y,1/2+z
1/2+x,1/2+y,z
1/2+x,1/2-y,1/2+z
loop_
_atom_site_type_symbol
_atom_site_label
_atom_site_fract_x
_atom_site_fract_y
_atom_site_fract_z
Si Si1 0.817420 0.044197 0.879650
Si Si2 0.951165 0.500810 0.235462
Si Si3 0.408415 0.563016 0.044001
Si Si4 0.905545 0.446510 0.045561
Si Si5 0.309114 0.160123 0.944927
Si Si6 0.517455 0.633311 0.638458
Si Si7 0.183628 0.781559 0.848158
O O1 0.712579 0.176916 0.909991
O O2 0.919951 0.048687 0.934850
O O3 0.643545 0.945029 0.933293
O O4 0.965402 0.044215 0.740945
O O5 0.906582 0.463149 0.151216
O O6 0.925651 0.393679 0.315022
O O7 0.786263 0.594667 0.331361
O O8 0.169958 0.565246 0.156727
O O9 0.476844 0.440663 0.066768
O O10 0.570772 0.662639 0.015043
O O11 0.753088 0.343245 0.068425
O O12 0.833314 0.564049 0.016144
O O13 0.448665 0.275094 0.912897
O O14 0.345023 0.734362 0.712175
#
# Coordination Sequence:
#
# PCOD9134041 Si02
#       7
#     4   4   4   4   4   4   4
#     4   8  17  33  52  85 116 146 196 249 291 353
#     4  11  20  38  67  86 117 170 197 246 323 360
#     4  10  18  34  63  84 115 166 200 236 321 365
#     4   9  18  33  59  83 115 158 195 243 307 362
#     4  10  20  39  59  90 126 154 204 259 298 366
#     4   9  17  35  55  81 119 153 190 254 289 351
#     4   9  20  38  57  85 124 151 204 261 289 355
#
# _framework density 25.189253000000001
#
# number of rings (size 3 to 8) (size 9 to 14) (size 15 to 20)
#    0.857    1.714    1.429    0.857    0.000    0.000 
#   15.429    2.857    9.429    0.000    0.000    0.000 
#    0.000    0.000    0.000    0.000    0.000    0.000 
#
# Total GULP energy -78151.490550 kJ/mol
# GULP energy per Si atom -5582.249325 kJ/mol
# Density = 2.513192 g / cm^3
# Si number density = 25.189253 Si / 1000 Ang^3
#
#
#
# Elastic Constant Matrix: (Units=GPa)
#
#
# Indices 1 2 3 4 5 6 
#
# 1 179.6531 35.9753 47.0128 0.0000 -28.8069 0.0000
# 2 35.9753 36.6941 3.5303 0.0000 -6.8161 0.0000
# 3 47.0128 3.5303 112.2631 0.0000 3.9617 0.0000
# 4 0.0000 0.0000 0.0000 22.8183 0.0000 -5.2288
# 5 -28.8069 -6.8161 3.9617 0.0000 57.3454 0.0000
# 6 0.0000 0.0000 0.0000 -5.2288 0.0000 41.6381
#
#
#
# Elastic Compliance Matrix: (Units=1/GPa)
#
#
# Indices 1 2 3 4 5 6 
#
# 1 0.008533 -0.007353 -0.003471 0.000000 0.003652 0.000000
# 2 -0.007353 0.034316 0.001991 0.000000 0.000247 0.000000
# 3 -0.003471 0.001991 0.010377 0.000000 -0.002224 0.000000
# 4 0.000000 0.000000 0.000000 0.045123 0.000000 0.005666
# 5 0.003652 0.000247 -0.002224 0.000000 0.019456 0.000000
# 6 0.000000 0.000000 0.000000 0.005666 0.000000 0.024728
#
#
# Mechanical properties :
#
#
# Convention : Reuss Voigt Hill
#
# Bulk Modulus (GPa) = 28.12126 55.73857 41.92991
# Shear Modulus (GPa) = 29.06119 40.49985 34.78052
#
# Velocity S-wave (km/s) = 3.40032 4.01412 3.71990
# Velocity P-wave (km/s) = 5.15795 6.60758 5.92725
#
# Compressibility (1/GPa) = 0.03556028
#
# Stress axis : x y z
#
# Youngs Moduli (GPa) = 117.19724 29.14108 96.36691
#
# Poissons Ratio (x) = 0.21428 0.33448
# Poissons Ratio (y) = 0.86177 -0.19191
# Poissons Ratio (z) = 0.40678 -0.05803
#
# Static dielectric constant tensor:
#      x y z
#    x 1.973090 0.000000 -0.037730 
#    y 0.000000 2.021380 0.000000 
#    z -0.037730 0.000000 2.016750 
# 
# From -- ./inp_files/23340.got.cif
#   From: 2010.05.17/outbox.cif.g08.bks.cpg/sg9_12_cif.got.tgz:23340.got - 2010.06.03 20:04:27.
