data_PCOD9134748
_publ_section_title
;
Structure prediction by ZEFSAII (Michael W. Deem and Ramdas Pophale) SiO2 
 PCOD9134748
Probable space group: C C
;
_chemical_formula_sum "Si O2"
_cell_formula_units_Z 32
_cell_length_a 14.059573
_cell_length_b 5.771769
_cell_length_c 17.531799
_cell_angle_alpha 90.000000
_cell_angle_beta 112.383688
_cell_angle_gamma 90.000000
_cell_volume 1315.488441
_symmetry_space_group_name_H-M "C C"
_symmetry_group_IT_number 9
_symmetry_cell_setting 'monoclinic'
loop_
_space_group_symop_operation_xyz
x,y,z
x,-y,1/2+z
1/2+x,1/2+y,z
1/2+x,1/2-y,1/2+z
loop_
_atom_site_type_symbol
_atom_site_label
_atom_site_fract_x
_atom_site_fract_y
_atom_site_fract_z
Si Si1 0.599920 0.356671 0.477640
Si Si2 0.092192 0.729073 0.887630
Si Si3 0.264410 0.209487 0.751138
Si Si4 0.570539 0.404224 0.717817
Si Si5 0.967299 0.142507 0.559282
Si Si6 0.135851 0.477053 0.115874
Si Si7 0.920938 0.410005 0.866782
Si Si8 0.796872 0.975194 0.404154
O O1 0.652031 0.567716 0.450406
O O2 0.538101 0.478476 0.527799
O O3 0.512689 0.276303 0.390307
O O4 0.654170 0.153844 0.541542
O O5 0.046478 0.809101 0.793132
O O6 0.179254 0.546484 0.892200
O O7 0.996215 0.629358 0.906329
O O8 0.226117 0.342067 0.664321
O O9 0.302371 0.394204 0.825015
O O10 0.159824 0.095783 0.751232
O O11 0.348427 0.003153 0.776959
O O12 0.476296 0.522315 0.644679
O O13 0.621530 0.203496 0.680897
O O14 0.857963 0.120853 0.486002
O O15 0.027191 0.385223 0.580763
O O16 0.845990 0.281240 0.904018
#
# Coordination Sequence:
#
# PCOD9134748 Si02
#       8
#     4   4   4   4   4   4   4   4
#     4  10  22  39  62 101 138 177 229 286 349 416
#     4  12  24  40  69 103 139 183 240 290 354 428
#     4  11  20  40  69  96 132 180 231 282 350 418
#     4  10  22  40  67 100 134 183 228 287 352 422
#     4   9  21  42  67  93 139 180 228 282 352 417
#     4  10  19  40  68  97 135 188 228 286 353 415
#     4  11  23  40  65  98 134 178 227 291 342 424
#     4  11  23  43  67 104 133 183 233 288 354 420
#
# _framework density 24.325565999999998
#
# number of rings (size 3 to 8) (size 9 to 14) (size 15 to 20)
#    0.000    1.500    2.500    3.000    1.750    0.000 
#    0.000    6.250    0.000    7.500    0.000    0.000 
#    0.000    0.000    0.000    0.000    0.000    0.000 
#
# Total GULP energy -89268.423841 kJ/mol
# GULP energy per Si atom -5579.276490 kJ/mol
# Density = 2.427020 g / cm^3
# Si number density = 24.325566 Si / 1000 Ang^3
#
#
#
# Elastic Constant Matrix: (Units=GPa)
#
#
# Indices 1 2 3 4 5 6 
#
# 1 68.4539 26.7795 23.5326 0.0000 6.1426 0.0000
# 2 26.7795 89.6830 45.1977 0.0000 6.1338 0.0000
# 3 23.5326 45.1977 118.9117 0.0000 12.7550 0.0000
# 4 0.0000 0.0000 0.0000 49.6198 0.0000 6.8138
# 5 6.1426 6.1338 12.7550 0.0000 29.5248 0.0000
# 6 0.0000 0.0000 0.0000 6.8138 0.0000 27.3699
#
#
#
# Elastic Compliance Matrix: (Units=1/GPa)
#
#
# Indices 1 2 3 4 5 6 
#
# 1 0.016943 -0.004132 -0.001569 0.000000 -0.001989 0.000000
# 2 -0.004132 0.014812 -0.004796 0.000000 -0.000145 0.000000
# 3 -0.001569 -0.004796 0.010907 0.000000 -0.003389 0.000000
# 4 0.000000 0.000000 0.000000 0.020867 0.000000 -0.005195
# 5 -0.001989 -0.000145 -0.003389 0.000000 0.035778 0.000000
# 6 0.000000 0.000000 0.000000 -0.005195 0.000000 0.037830
#
#
# Mechanical properties :
#
#
# Convention : Reuss Voigt Hill
#
# Bulk Modulus (GPa) = 46.15638 52.00755 49.08197
# Shear Modulus (GPa) = 30.23842 33.40549 31.82195
#
# Velocity S-wave (km/s) = 3.52955 3.70978 3.62079
# Velocity P-wave (km/s) = 5.96874 6.30684 6.14012
#
# Compressibility (1/GPa) = 0.02166548
#
# Stress axis : x y z
#
# Youngs Moduli (GPa) = 59.02205 67.51503 91.68687
#
# Poissons Ratio (x) = 0.27900 0.14385
# Poissons Ratio (y) = 0.24391 0.43977
# Poissons Ratio (z) = 0.09260 0.32383
#
# Static dielectric constant tensor:
#      x y z
#    x 1.862370 0.000000 0.028390 
#    y 0.000000 2.046750 0.000000 
#    z 0.028390 0.000000 1.940110 
# 
# From -- ./inp_files/30482.got.cif
#   From: 2010.05.17/outbox.cif.g08.bks.cpg/sg9_16_cif.got.tgz:30482.got - 2010.06.03 20:04:27.
