data_PCOD9134443
_publ_section_title
;
Structure prediction by ZEFSAII (Michael W. Deem and Ramdas Pophale) SiO2 
 PCOD9134443
Probable space group: C C
;
_chemical_formula_sum "Si O2"
_cell_formula_units_Z 32
_cell_length_a 14.760055
_cell_length_b 10.647981
_cell_length_c 17.793187
_cell_angle_alpha 90.000000
_cell_angle_beta 151.388621
_cell_angle_gamma 90.000000
_cell_volume 1339.131376
_symmetry_space_group_name_H-M "C C"
_symmetry_group_IT_number 9
_symmetry_cell_setting 'monoclinic'
loop_
_space_group_symop_operation_xyz
x,y,z
x,-y,1/2+z
1/2+x,1/2+y,z
1/2+x,1/2-y,1/2+z
loop_
_atom_site_type_symbol
_atom_site_label
_atom_site_fract_x
_atom_site_fract_y
_atom_site_fract_z
Si Si1 0.291550 0.921604 0.898290
Si Si2 0.743978 0.559970 0.141850
Si Si3 0.525243 0.885663 0.485679
Si Si4 0.441489 0.289289 0.613823
Si Si5 0.544212 0.121475 0.820049
Si Si6 0.085587 0.721913 0.428110
Si Si7 0.491657 0.637622 0.711593
Si Si8 0.642277 0.319043 0.168363
O O1 0.146856 0.839994 0.742430
O O2 0.466672 0.986253 0.983154
O O3 0.384479 0.834931 0.028143
O O4 0.132251 0.017799 0.815419
O O5 0.651127 0.447705 0.124649
O O6 0.890886 0.487139 0.192428
O O7 0.892106 0.646028 0.295280
O O8 0.609567 0.655633 0.998957
O O9 0.547644 0.876404 0.413191
O O10 0.666956 0.800605 0.633745
O O11 0.328499 0.812737 0.355286
O O12 0.467267 0.243346 0.719221
O O13 0.269677 0.384014 0.468541
O O14 0.269758 0.632970 0.573489
O O15 0.076210 0.769066 0.335189
O O16 0.488381 0.679478 0.621777
#
# Coordination Sequence:
#
# PCOD9134443 Si02
#       8
#     4   4   4   4   4   4   4   4
#     4  10  21  38  60  92 125 164 210 255 309 370
#     4  10  21  38  60  92 125 164 210 255 309 370
#     4  10  21  39  61  91 126 159 200 255 314 372
#     4  10  21  37  63  91 124 163 208 259 308 365
#     4  10  19  36  60  88 120 160 205 253 306 367
#     4  10  21  37  63  91 124 163 208 259 308 365
#     4  10  19  36  60  88 120 160 205 253 306 367
#     4  10  21  39  61  91 126 159 200 255 314 372
#
# _framework density 23.896087000000001
#
# number of rings (size 3 to 8) (size 9 to 14) (size 15 to 20)
#    0.000    2.000    0.000    4.500    0.000    2.000 
#    0.000   21.250    0.000    0.000    0.000    0.000 
#    0.000    0.000    0.000    0.000    0.000    0.000 
#
# Total GULP energy -89091.680324 kJ/mol
# GULP energy per Si atom -5568.230020 kJ/mol
# Density = 2.384170 g / cm^3
# Si number density = 23.896087 Si / 1000 Ang^3
#
#
#
# Elastic Constant Matrix: (Units=GPa)
#
#
# Indices 1 2 3 4 5 6 
#
# 1 92.9541 35.2017 26.8241 0.0000 5.1806 0.0000
# 2 35.2017 81.0004 28.7563 0.0010 -13.4055 0.0002
# 3 26.8241 28.7563 52.6174 0.0016 -2.5239 0.0005
# 4 0.0000 0.0010 0.0016 41.0252 0.0007 -7.2244
# 5 5.1806 -13.4055 -2.5239 0.0007 23.4354 0.0001
# 6 0.0000 0.0002 0.0005 -7.2244 0.0001 27.6489
#
#
#
# Elastic Compliance Matrix: (Units=1/GPa)
#
#
# Indices 1 2 3 4 5 6 
#
# 1 0.014742 -0.005958 -0.004603 0.000001 -0.007163 0.000000
# 2 -0.005958 0.019334 -0.006971 0.000000 0.011626 0.000000
# 3 -0.004603 -0.006971 0.025149 -0.000001 -0.000262 -0.000001
# 4 0.000001 0.000000 -0.000001 0.025551 -0.000001 0.006676
# 5 -0.007163 0.011626 -0.000262 -0.000001 0.050876 -0.000001
# 6 0.000000 0.000000 -0.000001 0.006676 -0.000001 0.037912
#
#
# Mechanical properties :
#
#
# Convention : Reuss Voigt Hill
#
# Bulk Modulus (GPa) = 41.38973 45.34848 43.36910
# Shear Modulus (GPa) = 23.07545 27.47455 25.27500
#
# Velocity S-wave (km/s) = 3.11087 3.39448 3.25577
# Velocity P-wave (km/s) = 5.50106 5.86360 5.68522
#
# Compressibility (1/GPa) = 0.02416059
#
# Stress axis : x y z
#
# Youngs Moduli (GPa) = 67.83496 51.72294 39.76314
#
# Poissons Ratio (x) = 0.30816 0.18302
# Poissons Ratio (y) = 0.40415 0.27720
# Poissons Ratio (z) = 0.31222 0.36058
#
# Static dielectric constant tensor:
#      x y z
#    x 2.027140 0.000000 0.091310 
#    y 0.000000 2.117660 0.000000 
#    z 0.091310 0.000000 1.965310 
# 
# From -- ./inp_files/30724.got.cif
#   From: 2010.05.17/outbox.cif.g08.bks.cpg/sg9_16_cif.got.tgz:30724.got - 2010.06.03 20:04:27.
