data_PCOD9134595
_publ_section_title
;
Structure prediction by ZEFSAII (Michael W. Deem and Ramdas Pophale) SiO2 
 PCOD9134595
Probable space group: C C
;
_chemical_formula_sum "Si O2"
_cell_formula_units_Z 32
_cell_length_a 10.055987
_cell_length_b 18.063493
_cell_length_c 10.311178
_cell_angle_alpha 90.000000
_cell_angle_beta 128.908699
_cell_angle_gamma 90.000000
_cell_volume 1457.460574
_symmetry_space_group_name_H-M "C C"
_symmetry_group_IT_number 9
_symmetry_cell_setting 'monoclinic'
loop_
_space_group_symop_operation_xyz
x,y,z
x,-y,1/2+z
1/2+x,1/2+y,z
1/2+x,1/2-y,1/2+z
loop_
_atom_site_type_symbol
_atom_site_label
_atom_site_fract_x
_atom_site_fract_y
_atom_site_fract_z
Si Si1 0.660560 0.474072 0.427780
Si Si2 0.059107 0.618358 0.610001
Si Si3 0.373938 0.885776 0.746759
Si Si4 0.520618 0.387257 0.127165
Si Si5 0.332694 0.475459 0.413165
Si Si6 0.890397 0.213735 0.779858
Si Si7 0.010094 0.153277 0.127305
Si Si8 0.691665 0.648907 0.479273
O O1 0.823342 0.433240 0.591423
O O2 0.643688 0.447504 0.270253
O O3 0.479732 0.459378 0.393315
O O4 0.676173 0.560671 0.452186
O O5 0.004944 0.587052 0.435612
O O6 0.893142 0.656732 0.574343
O O7 0.152859 0.552709 0.746572
O O8 0.199694 0.681880 0.674306
O O9 0.410777 0.798695 0.750467
O O10 0.191729 0.882497 0.705491
O O11 0.473216 0.334363 0.216702
O O12 0.367227 0.439865 0.977836
O O13 0.617514 0.340821 0.077049
O O14 0.377267 0.415157 0.552800
O O15 0.960261 0.199271 0.968431
O O16 0.061786 0.187648 0.297486
#
# Coordination Sequence:
#
# PCOD9134595 Si02
#       8
#     4   4   4   4   4   4   4   4
#     4  10  19  38  61  88 121 166 199 247 310 383
#     4  10  21  36  59  91 123 153 209 264 287 352
#     4  10  20  35  64  92 116 159 218 248 289 359
#     4  11  20  36  64  88 121 166 197 250 313 376
#     4   9  18  35  59  89 118 152 204 248 307 352
#     4  11  21  38  67  90 117 165 217 244 290 371
#     4   9  17  36  59  84 115 161 202 239 294 372
#     4  10  22  36  61  92 125 156 198 254 326 357
#
# _framework density 21.955995999999999
#
# number of rings (size 3 to 8) (size 9 to 14) (size 15 to 20)
#    0.000    2.000    5.000    0.750    1.750    1.000 
#    0.000    0.000   16.500    0.000    0.000    0.000 
#    0.000    0.000    0.000    0.000    0.000    0.000 
#
# Total GULP energy -89131.416204 kJ/mol
# GULP energy per Si atom -5570.713513 kJ/mol
# Density = 2.190602 g / cm^3
# Si number density = 21.955996 Si / 1000 Ang^3
#
#
#
# Elastic Constant Matrix: (Units=GPa)
#
#
# Indices 1 2 3 4 5 6 
#
# 1 86.9121 13.5404 33.1171 0.0000 -9.7062 0.0000
# 2 13.5404 72.1088 26.6181 0.0000 -3.0739 0.0000
# 3 33.1171 26.6181 150.9950 0.0000 2.0609 0.0000
# 4 0.0000 0.0000 0.0000 30.4311 0.0000 -1.2164
# 5 -9.7062 -3.0739 2.0609 0.0000 29.0409 0.0000
# 6 0.0000 0.0000 0.0000 -1.2164 0.0000 19.6974
#
#
#
# Elastic Compliance Matrix: (Units=1/GPa)
#
#
# Indices 1 2 3 4 5 6 
#
# 1 0.013252 -0.001285 -0.002741 0.000000 0.004488 0.000000
# 2 -0.001285 0.015048 -0.002389 0.000000 0.001333 0.000000
# 3 -0.002741 -0.002389 0.007668 0.000000 -0.001713 0.000000
# 4 0.000000 0.000000 0.000000 0.032942 0.000000 0.002034
# 5 0.004488 0.001333 -0.001713 0.000000 0.036197 0.000000
# 6 0.000000 0.000000 0.000000 0.002034 0.000000 0.050894
#
#
# Mechanical properties :
#
#
# Convention : Reuss Voigt Hill
#
# Bulk Modulus (GPa) = 43.22007 50.72968 46.97488
# Shear Modulus (GPa) = 28.32149 31.61657 29.96903
#
# Velocity S-wave (km/s) = 3.59544 3.79885 3.69854
# Velocity P-wave (km/s) = 6.07979 6.51129 6.29924
#
# Compressibility (1/GPa) = 0.02313740
#
# Stress axis : x y z
#
# Youngs Moduli (GPa) = 75.46168 66.45420 130.40411
#
# Poissons Ratio (x) = 0.08541 0.35746
# Poissons Ratio (y) = 0.09699 0.31154
# Poissons Ratio (z) = 0.20685 0.15876
#
# Static dielectric constant tensor:
#      x y z
#    x 1.882730 0.000000 -0.045680 
#    y 0.000000 1.916360 0.000000 
#    z -0.045680 0.000000 1.934980 
# 
# From -- ./inp_files/17112.got.cif
#   From: 2010.05.17/outbox.cif.g08.bks.cpg/sg9_9_cif.got.tgz:17112.got - 2010.06.03 20:04:27.
