data_PCOD9134545
_publ_section_title
;
Structure prediction by ZEFSAII (Michael W. Deem and Ramdas Pophale) SiO2 
 PCOD9134545
Probable space group: C C
;
_chemical_formula_sum "Si O2"
_cell_formula_units_Z 32
_cell_length_a 9.549315
_cell_length_b 15.354818
_cell_length_c 8.718875
_cell_angle_alpha 90.000000
_cell_angle_beta 80.397608
_cell_angle_gamma 90.000000
_cell_volume 1260.519146
_symmetry_space_group_name_H-M "C C"
_symmetry_group_IT_number 9
_symmetry_cell_setting 'monoclinic'
loop_
_space_group_symop_operation_xyz
x,y,z
x,-y,1/2+z
1/2+x,1/2+y,z
1/2+x,1/2-y,1/2+z
loop_
_atom_site_type_symbol
_atom_site_label
_atom_site_fract_x
_atom_site_fract_y
_atom_site_fract_z
Si Si1 0.663760 0.433264 0.187910
Si Si2 0.187075 0.422178 0.595401
Si Si3 0.951402 0.518694 0.785464
Si Si4 0.578657 0.626738 0.192608
Si Si5 0.305382 0.591253 0.418580
Si Si6 0.111968 0.318722 0.187313
Si Si7 0.381937 0.845300 0.969357
Si Si8 0.422904 0.664969 0.899439
O O1 0.797272 0.438242 0.282986
O O2 0.657760 0.535767 0.149544
O O3 0.509926 0.397546 0.269117
O O4 0.721914 0.365575 0.050790
O O5 0.280118 0.500927 0.508736
O O6 0.226763 0.405595 0.767375
O O7 0.257715 0.346382 0.480422
O O8 0.028971 0.462039 0.634594
O O9 0.928552 0.439898 0.905487
O O10 0.065932 0.596093 0.796044
O O11 0.466148 0.604527 0.344734
O O12 0.639623 0.720156 0.232825
O O13 0.505354 0.646477 0.043007
O O14 0.241095 0.658630 0.550503
O O15 0.973107 0.320322 0.102556
O O16 0.426328 0.766293 0.850714
#
# Coordination Sequence:
#
# PCOD9134545 Si02
#       8
#     4   4   4   4   4   4   4   4
#     4  11  22  39  61  93 129 165 213 272 336 380
#     4  10  20  38  64  92 125 166 218 271 319 393
#     4  10  21  38  63  89 129 161 214 269 332 384
#     4  10  21  37  62  91 128 166 220 269 322 394
#     4  10  19  37  63  93 120 169 220 265 321 386
#     4   9  20  36  61  92 121 167 216 271 318 386
#     4  10  21  36  61  92 120 164 216 266 326 385
#     4  10  22  37  63  90 122 170 219 269 318 396
#
# _framework density 25.386365999999999
#
# number of rings (size 3 to 8) (size 9 to 14) (size 15 to 20)
#    0.000    2.000    2.500    0.750    1.750    6.000 
#    0.000    2.500    2.750    0.000    0.000    0.000 
#    0.000    0.000    0.000    0.000    0.000    0.000 
#
# Total GULP energy -89138.886618 kJ/mol
# GULP energy per Si atom -5571.180414 kJ/mol
# Density = 2.532859 g / cm^3
# Si number density = 25.386366 Si / 1000 Ang^3
#
#
#
# Elastic Constant Matrix: (Units=GPa)
#
#
# Indices 1 2 3 4 5 6 
#
# 1 74.9850 10.2121 16.7228 0.0000 1.3292 0.0000
# 2 10.2121 163.2329 35.0262 0.0000 -3.9331 0.0000
# 3 16.7228 35.0262 74.7797 0.0000 -30.3952 0.0000
# 4 0.0000 0.0000 0.0000 31.6858 0.0000 0.4478
# 5 1.3292 -3.9331 -30.3952 0.0000 29.7577 0.0000
# 6 0.0000 0.0000 0.0000 0.4478 0.0000 17.0453
#
#
#
# Elastic Compliance Matrix: (Units=1/GPa)
#
#
# Indices 1 2 3 4 5 6 
#
# 1 0.014835 0.000256 -0.006315 0.000000 -0.007079 0.000000
# 2 0.000256 0.007110 -0.005148 0.000000 -0.004330 0.000000
# 3 -0.006315 -0.005148 0.029126 0.000000 0.029352 0.000000
# 4 0.000000 0.000000 0.000000 0.031572 0.000000 -0.000829
# 5 -0.007079 -0.004330 0.029352 0.000000 0.063330 0.000000
# 6 0.000000 0.000000 0.000000 -0.000829 0.000000 0.058689
#
#
# Mechanical properties :
#
#
# Convention : Reuss Voigt Hill
#
# Bulk Modulus (GPa) = 34.89238 48.54664 41.71951
# Shear Modulus (GPa) = 21.13027 32.43353 26.78190
#
# Velocity S-wave (km/s) = 2.88817 3.57823 3.25156
# Velocity P-wave (km/s) = 4.98963 6.01965 5.52868
#
# Compressibility (1/GPa) = 0.02865955
#
# Stress axis : x y z
#
# Youngs Moduli (GPa) = 67.40873 140.63877 34.33310
#
# Poissons Ratio (x) = -0.03606 0.21681
# Poissons Ratio (y) = -0.01728 0.17673
# Poissons Ratio (z) = 0.42568 0.72395
#
# Static dielectric constant tensor:
#      x y z
#    x 2.117420 0.000000 0.051160 
#    y 0.000000 2.060570 0.000000 
#    z 0.051160 0.000000 2.079090 
# 
# From -- ./inp_files/16802.got.cif
#   From: 2010.05.17/outbox.cif.g08.bks.cpg/sg9_9_cif.got.tgz:16802.got - 2010.06.03 20:04:27.
