data_PCOD9134935
_publ_section_title
;
Structure prediction by ZEFSAII (Michael W. Deem and Ramdas Pophale) SiO2 
 PCOD9134935
Probable space group: C C
;
_chemical_formula_sum "Si O2"
_cell_formula_units_Z 24
_cell_length_a 14.072927
_cell_length_b 14.268782
_cell_length_c 7.879838
_cell_angle_alpha 90.000000
_cell_angle_beta 33.939436
_cell_angle_gamma 90.000000
_cell_volume 883.423415
_symmetry_space_group_name_H-M "C C"
_symmetry_group_IT_number 9
_symmetry_cell_setting 'monoclinic'
loop_
_space_group_symop_operation_xyz
x,y,z
x,-y,1/2+z
1/2+x,1/2+y,z
1/2+x,1/2-y,1/2+z
loop_
_atom_site_type_symbol
_atom_site_label
_atom_site_fract_x
_atom_site_fract_y
_atom_site_fract_z
Si Si1 0.712700 0.559814 0.355170
Si Si2 0.010174 0.210787 0.476851
Si Si3 0.379010 0.240775 0.553636
Si Si4 0.558411 0.944308 0.790301
Si Si5 0.580726 0.617070 0.915267
Si Si6 0.710044 0.888540 0.212655
O O1 0.665544 0.641706 0.295064
O O2 0.682000 0.596179 0.589715
O O3 0.576962 0.478010 0.521819
O O4 0.891051 0.508658 0.060264
O O5 0.919972 0.231048 0.795931
O O6 0.877042 0.161069 0.547395
O O7 0.092314 0.308962 0.300157
O O8 0.510182 0.159860 0.427413
O O9 0.406770 0.334031 0.621024
O O10 0.199506 0.191095 0.833242
O O11 0.598039 0.919666 0.540185
O O12 0.713071 0.010411 0.618124
#
# Coordination Sequence:
#
# PCOD9134935 Si02
#       6
#     4   4   4   4   4   4
#     4  10  20  35  58  86 116 150 192 238 287 337
#     4  10  20  36  60  86 113 154 195 231 280 353
#     4   9  18  33  56  79 108 147 188 221 274 342
#     4  10  20  36  57  86 116 152 190 238 285 341
#     4  10  20  36  59  84 111 148 190 235 282 338
#     4  11  22  38  62  87 116 151 195 237 286 341
#
# _framework density 27.167041999999999
#
# number of rings (size 3 to 8) (size 9 to 14) (size 15 to 20)
#    0.000    2.000    0.000    7.000    0.000    4.000 
#    0.000    1.667    0.000   20.000    0.000    0.000 
#    0.000    0.000    0.000    0.000    0.000    0.000 
#
# Total GULP energy -67202.849576 kJ/mol
# GULP energy per Si atom -5600.237465 kJ/mol
# Density = 2.710521 g / cm^3
# Si number density = 27.167042 Si / 1000 Ang^3
#
#
#
# Elastic Constant Matrix: (Units=GPa)
#
#
# Indices 1 2 3 4 5 6 
#
# 1 100.0857 55.5588 18.3082 0.0000 -7.9615 0.0000
# 2 55.5588 141.8389 14.5766 -0.0001 -8.8148 0.0001
# 3 18.3082 14.5766 113.8154 -0.0012 -13.1852 0.0003
# 4 0.0000 -0.0001 -0.0012 42.2454 0.0004 -20.2182
# 5 -7.9615 -8.8148 -13.1852 0.0004 24.1028 0.0000
# 6 0.0000 0.0001 0.0003 -20.2182 0.0000 78.8272
#
#
#
# Elastic Compliance Matrix: (Units=1/GPa)
#
#
# Indices 1 2 3 4 5 6 
#
# 1 0.013077 -0.004878 -0.001265 0.000000 0.001844 0.000000
# 2 -0.004878 0.009080 -0.000192 0.000000 0.001604 0.000000
# 3 -0.001265 -0.000192 0.009564 0.000000 0.004743 0.000000
# 4 0.000000 0.000000 0.000000 0.026983 0.000000 0.006921
# 5 0.001844 0.001604 0.004743 0.000000 0.045279 0.000000
# 6 0.000000 0.000000 0.000000 0.006921 0.000000 0.014461
#
#
# Mechanical properties :
#
#
# Convention : Reuss Voigt Hill
#
# Bulk Modulus (GPa) = 52.49239 59.18080 55.83660
# Shear Modulus (GPa) = 36.37239 46.85485 41.61362
#
# Velocity S-wave (km/s) = 3.66299 4.15745 3.91803
# Velocity P-wave (km/s) = 6.10361 6.69904 6.40824
#
# Compressibility (1/GPa) = 0.01905038
#
# Stress axis : x y z
#
# Youngs Moduli (GPa) = 76.46846 110.12731 104.56028
#
# Poissons Ratio (x) = 0.53718 0.13230
# Poissons Ratio (y) = 0.37300 0.02012
# Poissons Ratio (z) = 0.09676 0.02119
#
# Static dielectric constant tensor:
#      x y z
#    x 2.108550 0.000000 -0.003450 
#    y 0.000000 2.117050 0.000000 
#    z -0.003450 0.000000 2.152260 
# 
# From -- ./inp_files/19289.got.cif
#   From: 2010.05.17/outbox.cif.g08.bks.cpg/sg9_10_cif.got.tgz:19289.got - 2010.06.03 20:04:27.
