data_PCOD9134554
_publ_section_title
;
Structure prediction by ZEFSAII (Michael W. Deem and Ramdas Pophale) SiO2 
 PCOD9134554
Probable space group: C C
;
_chemical_formula_sum "Si O2"
_cell_formula_units_Z 32
_cell_length_a 6.731310
_cell_length_b 33.601724
_cell_length_c 5.334654
_cell_angle_alpha 90.000000
_cell_angle_beta 101.622883
_cell_angle_gamma 90.000000
_cell_volume 1181.869628
_symmetry_space_group_name_H-M "C C"
_symmetry_group_IT_number 9
_symmetry_cell_setting 'monoclinic'
loop_
_space_group_symop_operation_xyz
x,y,z
x,-y,1/2+z
1/2+x,1/2+y,z
1/2+x,1/2-y,1/2+z
loop_
_atom_site_type_symbol
_atom_site_label
_atom_site_fract_x
_atom_site_fract_y
_atom_site_fract_z
Si Si1 0.672250 0.259285 0.653410
Si Si2 0.595318 0.786840 0.629253
Si Si3 0.583447 0.345414 0.799503
Si Si4 0.977118 0.604493 0.438212
Si Si5 0.908540 0.024047 0.692804
Si Si6 0.416847 0.021675 0.558750
Si Si7 0.063390 0.113228 0.796389
Si Si8 0.057626 0.623949 0.968138
O O1 0.614272 0.226622 0.426223
O O2 0.557914 0.299465 0.717735
O O3 0.856919 0.278002 0.541578
O O4 0.702258 0.237613 0.929877
O O5 0.621861 0.832754 0.574821
O O6 0.496239 0.371902 0.553135
O O7 0.823487 0.358107 0.871604
O O8 0.504342 0.357466 0.052370
O O9 0.845925 0.565382 0.459089
O O10 0.122248 0.613425 0.706707
O O11 0.098565 0.596000 0.214551
O O12 0.662391 0.025880 0.626351
O O13 0.000204 0.068006 0.737667
O O14 0.965483 0.002202 0.449419
O O15 0.362949 0.008719 0.824479
O O16 0.310936 0.118503 0.875182
#
# Coordination Sequence:
#
# PCOD9134554 Si02
#       8
#     4   4   4   4   4   4   4   4
#     4  12  25  44  71  98 135 178 221 284 357 408
#     4  12  25  44  71  98 135 178 221 284 357 408
#     4  10  21  39  62  85 124 158 214 268 321 387
#     4  10  19  37  65  85 118 171 207 258 330 377
#     4  10  21  38  58  88 128 164 207 263 322 388
#     4  10  21  38  58  88 128 164 207 263 322 388
#     4  10  19  37  65  85 118 171 207 258 330 377
#     4  10  21  39  62  85 124 158 214 268 321 387
#
# _framework density 27.075747
#
# number of rings (size 3 to 8) (size 9 to 14) (size 15 to 20)
#    0.000    1.500    2.500    3.750    3.500    0.000 
#    0.000   22.500    0.000    0.000    0.000    0.000 
#    0.000    0.000    0.000    0.000    0.000    0.000 
#
# Total GULP energy -89550.724598 kJ/mol
# GULP energy per Si atom -5596.920287 kJ/mol
# Density = 2.701412 g / cm^3
# Si number density = 27.075747 Si / 1000 Ang^3
#
#
#
# Elastic Constant Matrix: (Units=GPa)
#
#
# Indices 1 2 3 4 5 6 
#
# 1 79.8589 28.5780 23.0630 0.0000 -20.8336 0.0000
# 2 28.5780 177.4088 82.4111 0.0000 -3.0789 0.0000
# 3 23.0630 82.4111 241.9704 0.0000 -33.8264 0.0000
# 4 0.0000 0.0000 0.0000 60.6909 0.0000 -0.4850
# 5 -20.8336 -3.0789 -33.8264 0.0000 45.8840 0.0000
# 6 0.0000 0.0000 0.0000 -0.4850 0.0000 20.3295
#
#
#
# Elastic Compliance Matrix: (Units=1/GPa)
#
#
# Indices 1 2 3 4 5 6 
#
# 1 0.015125 -0.002494 0.000384 0.000000 0.006983 0.000000
# 2 -0.002494 0.007186 -0.002565 0.000000 -0.002541 0.000000
# 3 0.000384 -0.002565 0.005541 0.000000 0.004087 0.000000
# 4 0.000000 0.000000 0.000000 0.016480 0.000000 0.000393
# 5 0.006983 -0.002541 0.004087 0.000000 0.027807 0.000000
# 6 0.000000 0.000000 0.000000 0.000393 0.000000 0.049199
#
#
# Mechanical properties :
#
#
# Convention : Reuss Voigt Hill
#
# Bulk Modulus (GPa) = 54.04536 85.26025 69.65280
# Shear Modulus (GPa) = 36.53484 49.72662 43.13073
#
# Velocity S-wave (km/s) = 3.67734 4.29018 3.99553
# Velocity P-wave (km/s) = 6.16722 7.48991 6.86051
#
# Compressibility (1/GPa) = 0.01850298
#
# Stress axis : x y z
#
# Youngs Moduli (GPa) = 66.11401 139.16448 180.47054
#
# Poissons Ratio (x) = 0.34702 -0.06928
# Poissons Ratio (y) = 0.16486 0.46289
# Poissons Ratio (z) = -0.02538 0.35694
#
# Static dielectric constant tensor:
#      x y z
#    x 2.361610 0.000000 -0.007160 
#    y 0.000000 2.033660 0.000000 
#    z -0.007160 0.000000 2.173650 
# 
# From -- ./inp_files/1416.got.cif
#   From: 2010.05.17/outbox.cif.g08.bks.cpg/sg9_1_cif.got.tgz:1416.got - 2010.06.03 20:04:27.
