data_PCOD9134188
_publ_section_title
;
Structure prediction by ZEFSAII (Michael W. Deem and Ramdas Pophale) SiO2 
 PCOD9134188
Probable space group: C C
;
_chemical_formula_sum "Si O2"
_cell_formula_units_Z 32
_cell_length_a 7.849658
_cell_length_b 11.693430
_cell_length_c 19.401385
_cell_angle_alpha 90.000000
_cell_angle_beta 132.846370
_cell_angle_gamma 90.000000
_cell_volume 1305.677285
_symmetry_space_group_name_H-M "C C"
_symmetry_group_IT_number 9
_symmetry_cell_setting 'monoclinic'
loop_
_space_group_symop_operation_xyz
x,y,z
x,-y,1/2+z
1/2+x,1/2+y,z
1/2+x,1/2-y,1/2+z
loop_
_atom_site_type_symbol
_atom_site_label
_atom_site_fract_x
_atom_site_fract_y
_atom_site_fract_z
Si Si1 0.837340 0.583812 0.062270
Si Si2 0.831029 0.955361 0.725461
Si Si3 0.562490 0.615511 0.422306
Si Si4 0.841408 0.568161 0.305081
Si Si5 0.390900 0.311256 0.456638
Si Si6 0.780550 0.407905 0.172586
Si Si7 0.816768 0.066093 0.493035
Si Si8 0.213395 0.698001 0.750723
O O1 0.824245 0.506553 0.127732
O O2 0.110126 0.596688 0.125004
O O3 0.708021 0.503095 0.970540
O O4 0.672003 0.692070 0.029006
O O5 0.867773 0.896810 0.810122
O O6 0.084777 0.942754 0.763936
O O7 0.780813 0.089372 0.724265
O O8 0.746797 0.713189 0.454970
O O9 0.425639 0.630781 0.456239
O O10 0.886731 0.457073 0.271874
O O11 0.820759 0.683834 0.254581
O O12 0.041952 0.584713 0.416836
O O13 0.343499 0.431048 0.482835
O O14 0.308258 0.316821 0.354657
O O15 0.934432 0.304810 0.185530
O O16 0.502777 0.400978 0.102387
#
# Coordination Sequence:
#
# PCOD9134188 Si02
#       8
#     4   4   4   4   4   4   4   4
#     4   9  21  39  65  90 127 167 209 263 315 379
#     4  11  22  39  63  94 126 168 211 261 312 380
#     4  10  19  39  67  93 123 169 212 255 327 377
#     4  12  24  40  63  96 127 167 214 257 318 379
#     4  10  18  39  69  88 124 170 204 262 325 369
#     4   9  21  42  62  88 130 160 208 265 312 374
#     4  10  22  41  65  92 129 168 207 269 313 378
#     4  11  21  43  64  87 130 167 203 264 320 370
#
# _framework density 24.508354000000001
#
# number of rings (size 3 to 8) (size 9 to 14) (size 15 to 20)
#    0.000    2.000    5.000    0.750    0.000    8.000 
#    2.250    1.250    0.000    0.000    0.000    0.000 
#    0.000    0.000    0.000    0.000    0.000    0.000 
#
# Total GULP energy -89370.865702 kJ/mol
# GULP energy per Si atom -5585.679106 kJ/mol
# Density = 2.445257 g / cm^3
# Si number density = 24.508354 Si / 1000 Ang^3
#
#
#
# Elastic Constant Matrix: (Units=GPa)
#
#
# Indices 1 2 3 4 5 6 
#
# 1 61.0209 28.6245 25.0352 0.0000 38.3208 0.0000
# 2 28.6245 78.9148 16.1302 0.0000 29.9888 0.0000
# 3 25.0352 16.1302 117.9440 0.0000 50.0580 0.0000
# 4 0.0000 0.0000 0.0000 25.6063 0.0000 16.5342
# 5 38.3208 29.9888 50.0580 0.0000 55.0248 0.0000
# 6 0.0000 0.0000 0.0000 16.5342 0.0000 39.0888
#
#
#
# Elastic Compliance Matrix: (Units=1/GPa)
#
#
# Indices 1 2 3 4 5 6 
#
# 1 0.030900 -0.003161 0.003707 0.000000 -0.023169 0.000000
# 2 -0.003161 0.016756 0.002152 0.000000 -0.008888 0.000000
# 3 0.003707 0.002152 0.014646 0.000000 -0.017078 0.000000
# 4 0.000000 0.000000 0.000000 0.053727 0.000000 -0.022726
# 5 -0.023169 -0.008888 -0.017078 0.000000 0.054690 0.000000
# 6 0.000000 0.000000 0.000000 -0.022726 0.000000 0.035196
#
#
# Mechanical properties :
#
#
# Convention : Reuss Voigt Hill
#
# Bulk Modulus (GPa) = 14.77184 44.16217 29.46701
# Shear Modulus (GPa) = 22.41289 36.48330 29.44809
#
# Velocity S-wave (km/s) = 3.02735 3.86243 3.47010
# Velocity P-wave (km/s) = 4.27319 6.16032 5.30140
#
# Compressibility (1/GPa) = 0.06769637
#
# Stress axis : x y z
#
# Youngs Moduli (GPa) = 32.36258 59.67848 68.27900
#
# Poissons Ratio (x) = 0.18867 -0.25309
# Poissons Ratio (y) = 0.10231 -0.14692
# Poissons Ratio (z) = -0.11996 -0.12841
#
# Static dielectric constant tensor:
#      x y z
#    x 1.975890 0.000000 0.021830 
#    y 0.000000 1.982520 0.000000 
#    z 0.021830 0.000000 2.009820 
# 
# From -- ./inp_files/29272.got.cif
#   From: 2010.05.17/outbox.cif.g08.bks.cpg/sg9_15_cif.got.tgz:29272.got - 2010.06.03 20:04:27.
