data_PCOD9134134
_publ_section_title
;
Structure prediction by ZEFSAII (Michael W. Deem and Ramdas Pophale) SiO2 
 PCOD9134134
Probable space group: C C
;
_chemical_formula_sum "Si O2"
_cell_formula_units_Z 28
_cell_length_a 18.651212
_cell_length_b 8.746735
_cell_length_c 13.996896
_cell_angle_alpha 90.000000
_cell_angle_beta 146.090263
_cell_angle_gamma 90.000000
_cell_volume 1273.885362
_symmetry_space_group_name_H-M "C C"
_symmetry_group_IT_number 9
_symmetry_cell_setting 'monoclinic'
loop_
_space_group_symop_operation_xyz
x,y,z
x,-y,1/2+z
1/2+x,1/2+y,z
1/2+x,1/2-y,1/2+z
loop_
_atom_site_type_symbol
_atom_site_label
_atom_site_fract_x
_atom_site_fract_y
_atom_site_fract_z
Si Si1 0.717440 0.970010 0.420790
Si Si2 0.901506 0.138867 0.986053
Si Si3 0.335790 0.208948 0.027619
Si Si4 0.577695 0.391008 0.264111
Si Si5 0.830897 0.893685 0.745627
Si Si6 0.466944 0.974697 0.043579
Si Si7 0.083560 0.733288 0.060778
O O1 0.784042 0.842255 0.429872
O O2 0.770311 0.966140 0.584763
O O3 0.566883 0.958159 0.241992
O O4 0.766176 0.129487 0.428925
O O5 0.861372 0.023039 0.857827
O O6 0.929763 0.304628 0.976120
O O7 0.013809 0.056212 0.173625
O O8 0.477196 0.279568 0.209255
O O9 0.362729 0.091740 0.970905
O O10 0.223571 0.123489 0.964031
O O11 0.582970 0.322550 0.161608
O O12 0.720938 0.778332 0.662637
O O13 0.966226 0.810588 0.873947
O O14 0.539291 0.061645 0.038673
#
# Coordination Sequence:
#
# PCOD9134134 Si02
#       7
#     4   4   4   4   4   4   4
#     4  11  23  43  64  95 129 172 217 275 318 386
#     4  10  23  41  62  98 131 167 214 278 314 383
#     4  10  18  37  63  91 116 172 211 252 315 392
#     4   9  17  34  64  86 122 163 213 246 318 376
#     4  11  24  43  69  93 137 166 222 265 325 381
#     4  11  22  39  73  89 132 173 218 262 335 377
#     4  10  19  41  65  94 123 181 207 260 321 397
#
# _framework density 21.979997999999998
#
# number of rings (size 3 to 8) (size 9 to 14) (size 15 to 20)
#    0.000    1.714    4.286    3.429    4.000    0.000 
#    2.571    0.000    0.000    0.000    0.000    0.000 
#    0.000    0.000    0.000    0.000    0.000    0.000 
#
# Total GULP energy -77970.911068 kJ/mol
# GULP energy per Si atom -5569.350791 kJ/mol
# Density = 2.192997 g / cm^3
# Si number density = 21.979998 Si / 1000 Ang^3
#
#
#
# Elastic Constant Matrix: (Units=GPa)
#
#
# Indices 1 2 3 4 5 6 
#
# 1 43.7770 16.8391 37.8030 0.0000 15.5697 0.0000
# 2 16.8391 76.9144 18.2120 0.0000 3.9675 0.0000
# 3 37.8030 18.2120 98.8450 0.0000 12.2790 0.0000
# 4 0.0000 0.0000 0.0000 15.4296 0.0000 8.9231
# 5 15.5697 3.9675 12.2790 0.0000 39.3204 0.0000
# 6 0.0000 0.0000 0.0000 8.9231 0.0000 18.2688
#
#
#
# Elastic Compliance Matrix: (Units=1/GPa)
#
#
# Indices 1 2 3 4 5 6 
#
# 1 0.040012 -0.005109 -0.012960 0.000000 -0.011281 0.000000
# 2 -0.005109 0.014261 -0.000776 0.000000 0.000827 0.000000
# 3 -0.012960 -0.000776 0.015157 0.000000 0.000477 0.000000
# 4 0.000000 0.000000 0.000000 0.090323 0.000000 -0.044117
# 5 -0.011281 0.000827 0.000477 0.000000 0.029667 0.000000
# 6 0.000000 0.000000 0.000000 -0.044117 0.000000 0.076286
#
#
# Mechanical properties :
#
#
# Convention : Reuss Voigt Hill
#
# Bulk Modulus (GPa) = 31.50645 40.58274 36.04459
# Shear Modulus (GPa) = 15.92475 24.38258 20.15367
#
# Velocity S-wave (km/s) = 2.69459 3.33424 3.03134
# Velocity P-wave (km/s) = 4.90371 5.77291 5.35597
#
# Compressibility (1/GPa) = 0.03173953
#
# Stress axis : x y z
#
# Youngs Moduli (GPa) = 24.99273 70.12013 65.97610
#
# Poissons Ratio (x) = 0.35827 0.85502
# Poissons Ratio (y) = 0.12770 0.05121
# Poissons Ratio (z) = 0.32390 0.05443
#
# Static dielectric constant tensor:
#      x y z
#    x 1.843850 0.000000 0.077330 
#    y 0.000000 1.846370 0.000000 
#    z 0.077330 0.000000 1.900810 
# 
# From -- ./inp_files/17558.got.cif
#   From: 2010.05.17/outbox.cif.g08.bks.cpg/sg9_9_cif.got.tgz:17558.got - 2010.06.03 20:04:27.
