data_PCOD9134004
_publ_section_title
;
Structure prediction by ZEFSAII (Michael W. Deem and Ramdas Pophale) SiO2 
 PCOD9134004
Probable space group: C C
;
_chemical_formula_sum "Si O2"
_cell_formula_units_Z 32
_cell_length_a 13.453513
_cell_length_b 24.036240
_cell_length_c 5.370200
_cell_angle_alpha 90.000000
_cell_angle_beta 116.663634
_cell_angle_gamma 90.000000
_cell_volume 1551.898316
_symmetry_space_group_name_H-M "C C"
_symmetry_group_IT_number 9
_symmetry_cell_setting 'monoclinic'
loop_
_space_group_symop_operation_xyz
x,y,z
x,-y,1/2+z
1/2+x,1/2+y,z
1/2+x,1/2-y,1/2+z
loop_
_atom_site_type_symbol
_atom_site_label
_atom_site_fract_x
_atom_site_fract_y
_atom_site_fract_z
Si Si1 0.542730 0.300172 0.858330
Si Si2 0.303552 0.468006 0.074597
Si Si3 0.027906 0.334829 0.297983
Si Si4 0.304076 0.196825 0.663911
Si Si5 0.655372 0.139161 0.434507
Si Si6 0.559649 0.340354 0.377837
Si Si7 0.766064 0.254754 0.620173
Si Si8 0.071174 0.966244 0.384996
O O1 0.542585 0.233006 0.842721
O O2 0.494824 0.329829 0.560829
O O3 0.674103 0.319228 0.023571
O O4 0.492677 0.325178 0.054306
O O5 0.276730 0.510401 0.268039
O O6 0.436741 0.459838 0.234213
O O7 0.234697 0.413062 0.050623
O O8 0.896257 0.346360 0.177764
O O9 0.088546 0.362220 0.600601
O O10 0.077129 0.352811 0.088817
O O11 0.310545 0.242500 0.450360
O O12 0.336233 0.218350 0.974790
O O13 0.729813 0.194203 0.505247
O O14 0.655018 0.293036 0.500474
O O15 0.609814 0.402100 0.425595
O O16 0.102307 0.999624 0.670991
#
# Coordination Sequence:
#
# PCOD9134004 Si02
#       8
#     4   4   4   4   4   4   4   4
#     4  10  19  35  49  81 116 148 191 221 293 357
#     4  10  23  41  59  82 115 157 199 244 289 338
#     4  12  21  35  53  87 112 151 199 238 286 364
#     4  10  20  33  52  74 122 153 177 235 283 349
#     4  12  21  38  58  83 120 146 203 240 283 362
#     4  10  18  34  55  76 116 153 179 236 278 338
#     4  10  19  37  52  84 115 157 184 229 299 357
#     4  10  21  37  56  87 118 153 204 235 281 353
#
# _framework density 20.619907999999999
#
# number of rings (size 3 to 8) (size 9 to 14) (size 15 to 20)
#    0.000    1.500    5.000    2.250    0.000    2.000 
#    0.000    0.000    0.000    0.000    0.000   70.000 
#    0.000    0.000    0.000    0.000    0.000    0.000 
#
# Total GULP energy -89293.292550 kJ/mol
# GULP energy per Si atom -5580.830784 kJ/mol
# Density = 2.057298 g / cm^3
# Si number density = 20.619908 Si / 1000 Ang^3
#
#
#
# Elastic Constant Matrix: (Units=GPa)
#
#
# Indices 1 2 3 4 5 6 
#
# 1 53.5053 3.3254 17.8276 0.0000 -9.7455 0.0000
# 2 3.3254 61.5653 -4.5700 0.0000 1.4764 0.0000
# 3 17.8276 -4.5700 99.6399 0.0000 -39.6004 0.0000
# 4 0.0000 0.0000 0.0000 23.5062 0.0000 -4.0641
# 5 -9.7455 1.4764 -39.6004 0.0000 33.6142 0.0000
# 6 0.0000 0.0000 0.0000 -4.0641 0.0000 -9.6943
#
#
#
# Elastic Compliance Matrix: (Units=1/GPa)
#
#
# Indices 1 2 3 4 5 6 
#
# 1 0.020142 -0.001344 -0.002484 0.000000 0.002972 0.000000
# 2 -0.001344 0.016390 0.001036 0.000000 0.000112 0.000000
# 3 -0.002484 0.001036 0.019225 0.000000 0.021883 0.000000
# 4 0.000000 0.000000 0.000000 0.039667 0.000000 -0.016629
# 5 0.002972 0.000112 0.021883 0.000000 0.056387 0.000000
# 6 0.000000 0.000000 0.000000 -0.016629 0.000000 -0.096182
#
#
# Mechanical properties :
#
#
# Convention : Reuss Voigt Hill
#
# Bulk Modulus (GPa) = 19.93046 27.54185 23.73615
# Shear Modulus (GPa) = 64.15495 22.69374 43.42434
#
# Velocity S-wave (km/s) = 5.58396 3.32109 4.59403
# Velocity P-wave (km/s) = 7.15967 5.30020 6.29893
#
# Compressibility (1/GPa) = 0.05017447
#
# Stress axis : x y z
#
# Youngs Moduli (GPa) = 49.64673 61.01371 52.01451
#
# Poissons Ratio (x) = 0.08198 0.12922
# Poissons Ratio (y) = 0.06671 -0.05391
# Poissons Ratio (z) = 0.12334 -0.06324
#
# Static dielectric constant tensor:
#      x y z
#    x 1.819910 0.000000 -0.030660 
#    y 0.000000 1.706380 0.000000 
#    z -0.030660 0.000000 1.877530 
# 
# From -- ./inp_files/2554.got.cif
#   From: 2010.05.17/outbox.cif.g08.bks.cpg/sg9_2_cif.got.tgz:2554.got - 2010.06.03 20:04:27.
