data_PCOD9134666
_publ_section_title
;
Structure prediction by ZEFSAII (Michael W. Deem and Ramdas Pophale) SiO2 
 PCOD9134666
Probable space group: C C
;
_chemical_formula_sum "Si O2"
_cell_formula_units_Z 28
_cell_length_a 10.727846
_cell_length_b 10.439270
_cell_length_c 15.852054
_cell_angle_alpha 90.000000
_cell_angle_beta 141.256470
_cell_angle_gamma 90.000000
_cell_volume 1111.036508
_symmetry_space_group_name_H-M "C C"
_symmetry_group_IT_number 9
_symmetry_cell_setting 'monoclinic'
loop_
_space_group_symop_operation_xyz
x,y,z
x,-y,1/2+z
1/2+x,1/2+y,z
1/2+x,1/2-y,1/2+z
loop_
_atom_site_type_symbol
_atom_site_label
_atom_site_fract_x
_atom_site_fract_y
_atom_site_fract_z
Si Si1 0.033020 0.489031 0.794360
Si Si2 0.942307 0.046547 0.843803
Si Si3 0.207424 0.019473 0.342917
Si Si4 0.231380 0.790625 0.663824
Si Si5 0.806210 0.802725 0.422124
Si Si6 0.057824 0.406988 0.612183
Si Si7 0.378251 0.344217 0.075521
O O1 0.108831 0.631705 0.854645
O O2 0.826910 0.431499 0.721036
O O3 0.022842 0.468501 0.687743
O O4 0.208385 0.403362 0.927512
O O5 0.880092 0.187293 0.780995
O O6 0.908345 0.077278 0.923813
O O7 0.785466 0.946957 0.721920
O O8 0.144039 0.003244 0.908023
O O9 0.235476 0.170047 0.342971
O O10 0.427384 0.958529 0.465022
O O11 0.032837 0.945741 0.199724
O O12 0.256074 0.740775 0.579991
O O13 0.007309 0.765001 0.577158
O O14 0.012451 0.257901 0.597008
#
# Coordination Sequence:
#
# PCOD9134666 Si02
#       7
#     4   4   4   4   4   4   4
#     4  10  22  37  63  95 126 169 219 276 331 409
#     4  10  21  38  63  89 128 170 219 270 336 396
#     4  11  23  40  67  96 130 175 228 274 331 419
#     4  10  19  40  64  86 128 178 214 269 341 400
#     4  11  23  39  65  95 133 178 222 278 340 401
#     4  10  19  39  63  88 128 174 209 273 340 398
#     4  10  21  39  65  95 127 166 223 276 335 407
#
# _framework density 25.201691
#
# number of rings (size 3 to 8) (size 9 to 14) (size 15 to 20)
#    0.000    1.714    1.429    5.143    2.000    0.000 
#    2.571    0.000   12.571    0.000    0.000    0.000 
#    0.000    0.000    0.000    0.000    0.000    0.000 
#
# Total GULP energy -78066.108259 kJ/mol
# GULP energy per Si atom -5576.150590 kJ/mol
# Density = 2.514433 g / cm^3
# Si number density = 25.201691 Si / 1000 Ang^3
#
#
#
# Elastic Constant Matrix: (Units=GPa)
#
#
# Indices 1 2 3 4 5 6 
#
# 1 24.8300 20.3425 6.1065 0.0001 -2.3548 0.0000
# 2 20.3425 135.6376 50.3869 0.0001 18.9639 0.0000
# 3 6.1065 50.3869 177.8121 0.0002 13.1345 0.0001
# 4 0.0001 0.0001 0.0002 18.6430 0.0001 5.7689
# 5 -2.3548 18.9639 13.1345 0.0001 20.9344 0.0000
# 6 0.0000 0.0000 0.0001 5.7689 0.0000 39.4643
#
#
#
# Elastic Compliance Matrix: (Units=1/GPa)
#
#
# Indices 1 2 3 4 5 6 
#
# 1 0.049261 -0.009318 -0.000088 0.000000 0.014037 0.000000
# 2 -0.009318 0.010876 -0.002052 0.000000 -0.009613 0.000000
# 3 -0.000088 -0.002052 0.006367 0.000000 -0.002146 0.000000
# 4 0.000000 0.000000 0.000000 0.056181 0.000000 -0.008212
# 5 0.014037 -0.009613 -0.002146 0.000000 0.059402 0.000000
# 6 0.000000 0.000000 0.000000 -0.008212 0.000000 0.026540
#
#
# Mechanical properties :
#
#
# Convention : Reuss Voigt Hill
#
# Bulk Modulus (GPa) = 22.94208 54.66127 38.80167
# Shear Modulus (GPa) = 20.31929 33.23792 26.77861
#
# Velocity S-wave (km/s) = 2.84256 3.63557 3.26325
# Velocity P-wave (km/s) = 4.46057 6.27374 5.44318
#
# Compressibility (1/GPa) = 0.04358803
#
# Stress axis : x y z
#
# Youngs Moduli (GPa) = 20.30020 91.94259 157.06206
#
# Poissons Ratio (x) = 0.85670 0.01386
# Poissons Ratio (y) = 0.18915 0.32228
# Poissons Ratio (z) = 0.00179 0.18866
#
# Static dielectric constant tensor:
#      x y z
#    x 2.216120 0.000000 -0.133750 
#    y 0.000000 1.983510 0.000000 
#    z -0.133750 0.000000 2.192650 
# 
# From -- ./inp_files/17559.got.cif
#   From: 2010.05.17/outbox.cif.g08.bks.cpg/sg9_9_cif.got.tgz:17559.got - 2010.06.03 20:04:27.
