data_PCOD9134648
_publ_section_title
;
Structure prediction by ZEFSAII (Michael W. Deem and Ramdas Pophale) SiO2 
 PCOD9134648
Probable space group: C C
;
_chemical_formula_sum "Si O2"
_cell_formula_units_Z 28
_cell_length_a 7.496084
_cell_length_b 27.797809
_cell_length_c 8.761307
_cell_angle_alpha 90.000000
_cell_angle_beta 143.321640
_cell_angle_gamma 90.000000
_cell_volume 1090.492355
_symmetry_space_group_name_H-M "C C"
_symmetry_group_IT_number 9
_symmetry_cell_setting 'monoclinic'
loop_
_space_group_symop_operation_xyz
x,y,z
x,-y,1/2+z
1/2+x,1/2+y,z
1/2+x,1/2-y,1/2+z
loop_
_atom_site_type_symbol
_atom_site_label
_atom_site_fract_x
_atom_site_fract_y
_atom_site_fract_z
Si Si1 0.600490 0.917323 0.240900
Si Si2 0.736724 0.450978 0.262292
Si Si3 0.336432 0.812722 0.509479
Si Si4 0.215001 0.134740 0.240011
Si Si5 0.381765 0.772015 0.036955
Si Si6 0.072059 0.475903 0.787371
Si Si7 0.442678 0.292945 0.994206
O O1 0.680473 0.973439 0.286670
O O2 0.889308 0.887723 0.492272
O O3 0.446530 0.901790 0.977585
O O4 0.358432 0.915208 0.214091
O O5 0.894945 0.446969 0.535243
O O6 0.854675 0.501939 0.268229
O O7 0.382690 0.450732 0.041047
O O8 0.298026 0.841028 0.637645
O O9 0.296858 0.754014 0.477355
O O10 0.689131 0.818267 0.720448
O O11 0.089963 0.827902 0.218673
O O12 0.261633 0.178896 0.386685
O O13 0.228934 0.733443 0.817115
O O14 0.215541 0.771719 0.084992
#
# Coordination Sequence:
#
# PCOD9134648 Si02
#       7
#     4   4   4   4   4   4   4
#     4  10  24  41  64  93 139 157 206 262 335 363
#     4  10  20  38  71  94 124 167 212 258 308 387
#     4  10  20  34  62  79 113 153 207 252 323 345
#     4  12  24  39  62  90 130 170 203 269 323 380
#     4  12  23  39  62  88 116 167 224 263 309 375
#     4  10  20  38  71  94 126 163 215 255 311 384
#     4  10  19  39  56  82 110 151 211 277 291 356
#
# _framework density 25.676476000000001
#
# number of rings (size 3 to 8) (size 9 to 14) (size 15 to 20)
#    0.857    0.571    2.857    4.286    4.000    0.000 
#    0.000    0.000   31.429    0.000    0.000    0.000 
#    0.000    0.000    0.000    0.000    0.000    0.000 
#
# Total GULP energy -78165.496653 kJ/mol
# GULP energy per Si atom -5583.249761 kJ/mol
# Density = 2.561804 g / cm^3
# Si number density = 25.676476 Si / 1000 Ang^3
#
#
#
# Elastic Constant Matrix: (Units=GPa)
#
#
# Indices 1 2 3 4 5 6 
#
# 1 73.6112 11.1062 16.5595 0.0000 5.1039 0.0000
# 2 11.1062 72.0427 22.2581 0.0000 -7.6889 0.0000
# 3 16.5595 22.2581 148.3622 0.0000 21.3090 0.0000
# 4 0.0000 0.0000 0.0000 30.7523 0.0000 -3.3407
# 5 5.1039 -7.6889 21.3090 0.0000 33.7431 0.0000
# 6 0.0000 0.0000 0.0000 -3.3407 0.0000 33.0800
#
#
#
# Elastic Compliance Matrix: (Units=1/GPa)
#
#
# Indices 1 2 3 4 5 6 
#
# 1 0.014265 -0.002109 -0.000986 0.000000 -0.002016 0.000000
# 2 -0.002109 0.015734 -0.002954 0.000000 0.005770 0.000000
# 3 -0.000986 -0.002954 0.008104 0.000000 -0.005641 0.000000
# 4 0.000000 0.000000 0.000000 0.032879 0.000000 0.003320
# 5 -0.002016 0.005770 -0.005641 0.000000 0.034818 0.000000
# 6 0.000000 0.000000 0.000000 0.003320 0.000000 0.030565
#
#
# Mechanical properties :
#
#
# Convention : Reuss Voigt Hill
#
# Bulk Modulus (GPa) = 38.45589 43.76262 41.10926
# Shear Modulus (GPa) = 31.82054 35.78790 33.80422
#
# Velocity S-wave (km/s) = 3.52417 3.73741 3.63236
# Velocity P-wave (km/s) = 5.61866 5.97538 5.79976
#
# Compressibility (1/GPa) = 0.02600382
#
# Stress axis : x y z
#
# Youngs Moduli (GPa) = 70.10282 63.55576 123.39957
#
# Poissons Ratio (x) = 0.13407 0.12170
# Poissons Ratio (y) = 0.14788 0.36449
# Poissons Ratio (z) = 0.06914 0.18773
#
# Static dielectric constant tensor:
#      x y z
#    x 2.031510 0.000000 -0.035500 
#    y 0.000000 2.130070 0.000000 
#    z -0.035500 0.000000 2.021490 
# 
# From -- ./inp_files/6571.got.cif
#   From: 2010.05.17/outbox.cif.g08.bks.cpg/sg9_4_cif.got.tgz:6571.got - 2010.06.03 20:04:27.
