data_PCOD9134628
_publ_section_title
;
Structure prediction by ZEFSAII (Michael W. Deem and Ramdas Pophale) SiO2 
 PCOD9134628
Probable space group: C C
;
_chemical_formula_sum "Si O2"
_cell_formula_units_Z 32
_cell_length_a 19.222411
_cell_length_b 7.879589
_cell_length_c 16.416074
_cell_angle_alpha 90.000000
_cell_angle_beta 149.871141
_cell_angle_gamma 90.000000
_cell_volume 1248.067577
_symmetry_space_group_name_H-M "C C"
_symmetry_group_IT_number 9
_symmetry_cell_setting 'monoclinic'
loop_
_space_group_symop_operation_xyz
x,y,z
x,-y,1/2+z
1/2+x,1/2+y,z
1/2+x,1/2-y,1/2+z
loop_
_atom_site_type_symbol
_atom_site_label
_atom_site_fract_x
_atom_site_fract_y
_atom_site_fract_z
Si Si1 0.596100 0.341109 0.150950
Si Si2 0.445009 0.927896 0.727837
Si Si3 0.253204 0.044896 0.660300
Si Si4 0.866991 0.258336 0.894075
Si Si5 0.458637 0.576037 0.833524
Si Si6 0.621846 0.718837 0.247596
Si Si7 0.249347 0.569622 0.010366
Si Si8 0.837028 0.205843 0.479583
O O1 0.665024 0.332468 0.131504
O O2 0.622401 0.521794 0.223142
O O3 0.680432 0.213676 0.292739
O O4 0.436334 0.300363 0.002182
O O5 0.363225 0.066945 0.698917
O O6 0.424217 0.753046 0.755916
O O7 0.607297 0.970266 0.887743
O O8 0.380260 0.870261 0.576318
O O9 0.332544 0.924263 0.806016
O O10 0.120096 0.957482 0.482365
O O11 0.936589 0.119396 0.906005
O O12 0.721550 0.195808 0.781304
O O13 0.969072 0.287398 0.073400
O O14 0.350279 0.437341 0.690761
O O15 0.686289 0.767731 0.399564
O O16 0.343142 0.462957 0.040860
#
# Coordination Sequence:
#
# PCOD9134628 Si02
#       8
#     4   4   4   4   4   4   4   4
#     4  11  24  45  72 103 137 185 240 308 361 427
#     4  10  21  39  65 101 135 188 245 281 350 447
#     4  10  22  38  69  99 137 183 235 301 341 432
#     4  10  19  38  65  98 137 181 244 287 343 435
#     4  10  19  39  63 101 135 193 245 282 348 437
#     4  11  24  40  66 111 140 180 232 315 363 418
#     4  11  24  38  68 106 142 182 235 310 359 430
#     4  11  23  43  72  99 139 190 246 294 353 448
#
# _framework density 25.639638999999999
#
# number of rings (size 3 to 8) (size 9 to 14) (size 15 to 20)
#    0.000    1.500    3.750    3.000    7.000    0.000 
#    0.000    1.250    5.500    0.000    0.000    0.000 
#    0.000    0.000    0.000    0.000    0.000    0.000 
#
# Total GULP energy -89352.289859 kJ/mol
# GULP energy per Si atom -5584.518116 kJ/mol
# Density = 2.558128 g / cm^3
# Si number density = 25.639639 Si / 1000 Ang^3
#
#
#
# Elastic Constant Matrix: (Units=GPa)
#
#
# Indices 1 2 3 4 5 6 
#
# 1 112.6772 20.8662 10.8793 0.0000 23.7736 0.0000
# 2 20.8662 62.0592 14.3444 0.0000 -12.9346 0.0000
# 3 10.8793 14.3444 110.7053 0.0000 11.9054 0.0000
# 4 0.0000 0.0000 0.0000 23.5167 0.0000 -3.1286
# 5 23.7736 -12.9346 11.9054 0.0000 44.2945 0.0000
# 6 0.0000 0.0000 0.0000 -3.1286 0.0000 16.0289
#
#
#
# Elastic Compliance Matrix: (Units=1/GPa)
#
#
# Indices 1 2 3 4 5 6 
#
# 1 0.011562 -0.005656 0.000455 0.000000 -0.007979 0.000000
# 2 -0.005656 0.020841 -0.003218 0.000000 0.009986 0.000000
# 3 0.000455 -0.003218 0.009816 0.000000 -0.003822 0.000000
# 4 0.000000 0.000000 0.000000 0.043657 0.000000 0.008521
# 5 -0.007979 0.009986 -0.003822 0.000000 0.030802 0.000000
# 6 0.000000 0.000000 0.000000 0.008521 0.000000 0.064051
#
#
# Mechanical properties :
#
#
# Convention : Reuss Voigt Hill
#
# Bulk Modulus (GPa) = 39.40118 41.95794 40.67956
# Shear Modulus (GPa) = 24.26866 32.72480 28.49673
#
# Velocity S-wave (km/s) = 3.07991 3.57646 3.33743
# Velocity P-wave (km/s) = 5.29608 5.78401 5.54541
#
# Compressibility (1/GPa) = 0.02537995
#
# Stress axis : x y z
#
# Youngs Moduli (GPa) = 86.49129 47.98348 101.87039
#
# Poissons Ratio (x) = 0.27137 -0.04632
# Poissons Ratio (y) = 0.48916 0.32787
# Poissons Ratio (z) = -0.03933 0.15443
#
# Static dielectric constant tensor:
#      x y z
#    x 2.002600 0.000000 -0.052270 
#    y 0.000000 2.048690 0.000000 
#    z -0.052270 0.000000 1.962950 
# 
# From -- ./inp_files/31218.got.cif
#   From: 2010.05.17/outbox.cif.g08.bks.cpg/sg9_16_cif.got.tgz:31218.got - 2010.06.03 20:04:27.
