data_PCOD9134137
_publ_section_title
;
Structure prediction by ZEFSAII (Michael W. Deem and Ramdas Pophale) SiO2 
 PCOD9134137
Probable space group: C C
;
_chemical_formula_sum "Si O2"
_cell_formula_units_Z 28
_cell_length_a 7.611592
_cell_length_b 13.203845
_cell_length_c 10.612721
_cell_angle_alpha 90.000000
_cell_angle_beta 83.830081
_cell_angle_gamma 90.000000
_cell_volume 1060.424402
_symmetry_space_group_name_H-M "C C"
_symmetry_group_IT_number 9
_symmetry_cell_setting 'monoclinic'
loop_
_space_group_symop_operation_xyz
x,y,z
x,-y,1/2+z
1/2+x,1/2+y,z
1/2+x,1/2-y,1/2+z
loop_
_atom_site_type_symbol
_atom_site_label
_atom_site_fract_x
_atom_site_fract_y
_atom_site_fract_z
Si Si1 0.687260 0.125530 0.493720
Si Si2 0.837037 0.791129 0.723366
Si Si3 0.520964 0.446985 0.049769
Si Si4 0.921415 0.388496 0.368548
Si Si5 0.730415 0.093094 0.997064
Si Si6 0.212221 0.873471 0.642237
Si Si7 0.358039 0.122739 0.383523
O O1 0.787609 0.141661 0.350803
O O2 0.500444 0.173761 0.464670
O O3 0.623423 0.011052 0.534766
O O4 0.852313 0.128158 0.579252
O O5 0.729376 0.831548 0.613375
O O6 0.039920 0.806568 0.671973
O O7 0.830309 0.675890 0.767058
O O8 0.424648 0.539951 0.977095
O O9 0.624713 0.512314 0.147533
O O10 0.668818 0.387256 0.963052
O O11 0.811443 0.362360 0.503008
O O12 0.912439 0.507068 0.348220
O O13 0.126759 0.363535 0.385531
O O14 0.336372 0.837948 0.745468
#
# Coordination Sequence:
#
# PCOD9134137 Si02
#       7
#     4   4   4   4   4   4   4
#     4   9  18  34  63  86 112 160 204 245 298 378
#     4  11  20  39  62  88 131 159 197 270 318 349
#     4   8  17  33  58  87 106 151 206 245 286 366
#     4  10  22  38  60  95 122 158 212 255 313 375
#     4   8  18  38  56  82 119 161 194 252 298 367
#     4  10  19  37  61  84 123 160 205 251 301 371
#     4  10  18  37  64  86 115 159 210 246 304 372
#
# _framework density 26.404522
#
# number of rings (size 3 to 8) (size 9 to 14) (size 15 to 20)
#    0.857    1.714    1.429    0.857    0.000    0.000 
#    2.571   15.714    0.000    0.000    0.000    0.000 
#    0.000    0.000    0.000    0.000    0.000    0.000 
#
# Total GULP energy -77958.264395 kJ/mol
# GULP energy per Si atom -5568.447457 kJ/mol
# Density = 2.634442 g / cm^3
# Si number density = 26.404522 Si / 1000 Ang^3
#
#
#
# Elastic Constant Matrix: (Units=GPa)
#
#
# Indices 1 2 3 4 5 6 
#
# 1 157.2462 8.1032 37.6970 0.0000 6.6905 0.0000
# 2 8.1032 87.5474 46.5270 0.0000 9.8027 0.0000
# 3 37.6970 46.5270 68.9554 0.0000 2.8663 0.0000
# 4 0.0000 0.0000 0.0000 34.6657 0.0000 4.5044
# 5 6.6905 9.8027 2.8663 0.0000 27.7094 0.0000
# 6 0.0000 0.0000 0.0000 4.5044 0.0000 7.2428
#
#
#
# Elastic Compliance Matrix: (Units=1/GPa)
#
#
# Indices 1 2 3 4 5 6 
#
# 1 0.007744 0.002700 -0.005963 0.000000 -0.002208 0.000000
# 2 0.002700 0.019491 -0.014375 0.000000 -0.006060 0.000000
# 3 -0.005963 -0.014375 0.027308 0.000000 0.003701 0.000000
# 4 0.000000 0.000000 0.000000 0.031383 0.000000 -0.019518
# 5 -0.002208 -0.006060 0.003701 0.000000 0.038383 0.000000
# 6 0.000000 0.000000 0.000000 -0.019518 0.000000 0.150207
#
#
# Mechanical properties :
#
#
# Convention : Reuss Voigt Hill
#
# Bulk Modulus (GPa) = 51.90782 55.37816 53.64299
# Shear Modulus (GPa) = 15.81205 28.68503 22.24854
#
# Velocity S-wave (km/s) = 2.44977 3.29959 2.90591
# Velocity P-wave (km/s) = 5.26338 5.96111 5.62308
#
# Compressibility (1/GPa) = 0.01926492
#
# Stress axis : x y z
#
# Youngs Moduli (GPa) = 129.13455 51.30646 36.61954
#
# Poissons Ratio (x) = -0.13851 0.21837
# Poissons Ratio (y) = -0.34862 0.52641
# Poissons Ratio (z) = 0.77006 0.73754
#
# Static dielectric constant tensor:
#      x y z
#    x 2.159340 0.000000 0.031090 
#    y 0.000000 2.208000 0.000000 
#    z 0.031090 0.000000 2.030230 
# 
# From -- ./inp_files/14462.got.cif
#   From: 2010.05.17/outbox.cif.g08.bks.cpg/sg9_8_cif.got.tgz:14462.got - 2010.06.03 20:04:27.
