data_PCOD9134131
_publ_section_title
;
Structure prediction by ZEFSAII (Michael W. Deem and Ramdas Pophale) SiO2 
 PCOD9134131
Probable space group: C C
;
_chemical_formula_sum "Si O2"
_cell_formula_units_Z 28
_cell_length_a 26.703056
_cell_length_b 9.341205
_cell_length_c 8.908203
_cell_angle_alpha 90.000000
_cell_angle_beta 35.759320
_cell_angle_gamma 90.000000
_cell_volume 1298.525737
_symmetry_space_group_name_H-M "C C"
_symmetry_group_IT_number 9
_symmetry_cell_setting 'monoclinic'
loop_
_space_group_symop_operation_xyz
x,y,z
x,-y,1/2+z
1/2+x,1/2+y,z
1/2+x,1/2-y,1/2+z
loop_
_atom_site_type_symbol
_atom_site_label
_atom_site_fract_x
_atom_site_fract_y
_atom_site_fract_z
Si Si1 0.040570 0.033698 0.722160
Si Si2 0.096052 0.341950 0.525691
Si Si3 0.319843 0.117496 0.889835
Si Si4 0.775581 0.109880 0.703072
Si Si5 0.875079 0.889441 0.261497
Si Si6 0.919169 0.386154 0.842034
Si Si7 0.638486 0.600242 0.219642
O O1 0.058748 0.025873 0.500607
O O2 0.060390 0.201841 0.702965
O O3 0.116814 0.938078 0.605069
O O4 0.949750 0.979601 0.997424
O O5 0.173571 0.411200 0.427524
O O6 0.013803 0.427549 0.670281
O O7 0.133437 0.264892 0.283950
O O8 0.367269 0.152332 0.619064
O O9 0.374689 0.011633 0.858241
O O10 0.299907 0.254740 0.039926
O O11 0.229673 0.048738 0.056563
O O12 0.805990 0.140701 0.798078
O O13 0.827347 0.977732 0.507100
O O14 0.917257 0.750210 0.235634
#
# Coordination Sequence:
#
# PCOD9134131 Si02
#       7
#     4   4   4   4   4   4   4
#     4  10  18  37  62  92 122 164 218 262 308 389
#     4   9  22  39  62  92 132 168 216 267 325 393
#     4  11  24  41  67  95 137 171 225 271 333 395
#     4  11  24  43  65  98 133 177 221 272 331 396
#     4  12  23  41  71  98 130 176 224 276 328 394
#     4  12  24  43  66  98 131 178 220 276 330 396
#     4   9  19  36  61  91 121 168 212 268 303 391
#
# _framework density 21.562913999999999
#
# number of rings (size 3 to 8) (size 9 to 14) (size 15 to 20)
#    0.857    0.571    1.429    5.143    2.000    1.143 
#    0.000    0.000    3.143    0.000    0.000    0.000 
#    0.000    0.000    0.000    0.000    0.000    0.000 
#
# Total GULP energy -78100.972585 kJ/mol
# GULP energy per Si atom -5578.640899 kJ/mol
# Density = 2.151384 g / cm^3
# Si number density = 21.562914 Si / 1000 Ang^3
#
#
#
# Elastic Constant Matrix: (Units=GPa)
#
#
# Indices 1 2 3 4 5 6 
#
# 1 140.5635 6.1413 30.6133 0.0000 -20.3358 0.0000
# 2 6.1413 20.0957 -1.5375 0.0000 -5.2787 0.0000
# 3 30.6133 -1.5375 70.7111 0.0000 -13.0247 0.0000
# 4 0.0000 0.0000 0.0000 10.4826 0.0000 -2.2847
# 5 -20.3358 -5.2787 -13.0247 0.0000 46.2490 0.0000
# 6 0.0000 0.0000 0.0000 -2.2847 0.0000 35.3023
#
#
#
# Elastic Compliance Matrix: (Units=1/GPa)
#
#
# Indices 1 2 3 4 5 6 
#
# 1 0.008256 -0.002108 -0.003160 0.000000 0.002500 0.000000
# 2 -0.002108 0.052200 0.003137 0.000000 0.005914 0.000000
# 3 -0.003160 0.003137 0.016230 0.000000 0.003539 0.000000
# 4 0.000000 0.000000 0.000000 0.096761 0.000000 0.006262
# 5 0.002500 0.005914 0.003539 0.000000 0.024393 0.000000
# 6 0.000000 0.000000 0.000000 0.006262 0.000000 0.028732
#
#
# Mechanical properties :
#
#
# Convention : Reuss Voigt Hill
#
# Bulk Modulus (GPa) = 13.80748 33.53384 23.67066
# Shear Modulus (GPa) = 19.60973 31.48367 25.54670
#
# Velocity S-wave (km/s) = 3.01893 3.82525 3.44576
# Velocity P-wave (km/s) = 4.30920 5.92414 5.17999
#
# Compressibility (1/GPa) = 0.07242449
#
# Stress axis : x y z
#
# Youngs Moduli (GPa) = 121.12183 19.15715 61.61353
#
# Poissons Ratio (x) = 0.04039 0.19468
# Poissons Ratio (y) = 0.25535 -0.19329
# Poissons Ratio (z) = 0.38272 -0.06010
#
# Static dielectric constant tensor:
#      x y z
#    x 1.763620 0.000000 -0.032800 
#    y 0.000000 1.777630 0.000000 
#    z -0.032800 0.000000 1.810800 
# 
# From -- ./inp_files/10436.got.cif
#   From: 2010.05.17/outbox.cif.g08.bks.cpg/sg9_6_cif.got.tgz:10436.got - 2010.06.03 20:04:27.
