data_PCOD9134244
_publ_section_title
;
Structure prediction by ZEFSAII (Michael W. Deem and Ramdas Pophale) SiO2 
 PCOD9134244
Probable space group: C C
;
_chemical_formula_sum "Si O2"
_cell_formula_units_Z 28
_cell_length_a 21.568568
_cell_length_b 7.070257
_cell_length_c 20.684802
_cell_angle_alpha 90.000000
_cell_angle_beta 18.671185
_cell_angle_gamma 90.000000
_cell_volume 1009.818179
_symmetry_space_group_name_H-M "C C"
_symmetry_group_IT_number 9
_symmetry_cell_setting 'monoclinic'
loop_
_space_group_symop_operation_xyz
x,y,z
x,-y,1/2+z
1/2+x,1/2+y,z
1/2+x,1/2-y,1/2+z
loop_
_atom_site_type_symbol
_atom_site_label
_atom_site_fract_x
_atom_site_fract_y
_atom_site_fract_z
Si Si1 0.418180 0.544883 0.047260
Si Si2 0.794205 0.268285 0.535217
Si Si3 0.186239 0.011501 0.025298
Si Si4 0.905793 0.033564 0.199480
Si Si5 0.973171 0.059063 0.854776
Si Si6 0.968747 0.407639 0.631404
Si Si7 0.481877 0.892826 0.476836
O O1 0.449518 0.629399 0.087195
O O2 0.189920 0.492927 0.268036
O O3 0.483866 0.646281 0.915656
O O4 0.509600 0.334484 0.956651
O O5 0.814210 0.366997 0.446765
O O6 0.553299 0.336424 0.780109
O O7 0.763176 0.037061 0.558220
O O8 0.857360 0.400994 0.534865
O O9 0.014600 0.111034 0.154322
O O10 0.075358 0.873494 0.188438
O O11 0.329804 0.947181 0.827852
O O12 0.677048 0.005355 0.433264
O O13 0.986518 0.819235 0.115035
O O14 0.893317 0.453334 0.633406
#
# Coordination Sequence:
#
# PCOD9134244 Si02
#       7
#     4   4   4   4   4   4   4
#     4   9  16  26  48  73  97 129 162 215 263 301
#     4   9  18  30  46  73 102 134 169 202 254 300
#     4  10  22  30  50  76 106 148 158 208 260 312
#     4  10  19  32  51  77 107 133 170 209 257 308
#     4   9  18  30  46  73 102 134 169 202 254 300
#     4  10  19  32  51  77 107 133 170 209 257 308
#     4   9  16  26  48  73  97 129 162 215 263 301
#
# _framework density 27.727762999999999
#
# number of rings (size 3 to 8) (size 9 to 14) (size 15 to 20)
#    0.857    1.714    1.429    3.429    4.000    2.286 
#    0.000    0.000    0.000    0.000    0.000    8.000 
#    0.000    0.000    0.000    0.000    0.000    0.000 
#
# Total GULP energy -77948.739981 kJ/mol
# GULP energy per Si atom -5567.767142 kJ/mol
# Density = 2.766465 g / cm^3
# Si number density = 27.727763 Si / 1000 Ang^3
#
#
#
# Elastic Constant Matrix: (Units=GPa)
#
#
# Indices 1 2 3 4 5 6 
#
# 1 312.2870 31.9830 108.7944 0.0003 28.6589 -0.0011
# 2 31.9830 72.5122 21.8276 -0.0189 0.0962 0.0071
# 3 108.7944 21.8276 132.0534 -0.0213 26.3389 0.0088
# 4 0.0003 -0.0189 -0.0213 0.8711 0.0089 13.3415
# 5 28.6589 0.0962 26.3389 0.0089 79.7439 -0.0021
# 6 -0.0011 0.0071 0.0088 13.3415 -0.0021 14.6742
#
#
#
# Elastic Compliance Matrix: (Units=1/GPa)
#
#
# Indices 1 2 3 4 5 6 
#
# 1 0.004567 -0.000958 -0.003508 0.000011 -0.000481 -0.000007
# 2 -0.000958 0.014765 -0.001838 -0.000028 0.000933 0.000019
# 3 -0.003508 -0.001838 0.011256 -0.000028 -0.002455 0.000019
# 4 0.000011 -0.000028 -0.000028 -0.088819 0.000017 0.080753
# 5 -0.000481 0.000933 -0.002455 0.000017 0.013523 -0.000013
# 6 -0.000007 0.000019 0.000019 0.080753 -0.000013 -0.005272
#
#
# Mechanical properties :
#
#
# Convention : Reuss Voigt Hill
#
# Bulk Modulus (GPa) = 55.61377 93.56251 74.58814
# Shear Modulus (GPa) = -159.33395 42.67434 -58.32981
#
# Velocity S-wave (km/s) = -7.58870 3.92733 -4.59154
# Velocity P-wave (km/s) = 7.52888 7.37439 1.07291
#
# Compressibility (1/GPa) = 0.01798116
#
# Stress axis : x y z
#
# Youngs Moduli (GPa) = 218.98578 67.72721 88.84020
#
# Poissons Ratio (x) = 0.06485 0.31164
# Poissons Ratio (y) = 0.20969 0.16328
# Poissons Ratio (z) = 0.76818 0.12447
#
# Static dielectric constant tensor:
#      x y z
#    x 2.234020 -0.000010 -0.129940 
#    y -0.000010 2.357500 0.000020 
#    z -0.129940 0.000020 2.599370 
# 
# From -- ./inp_files/10769.got.cif
#   From: 2010.05.17/outbox.cif.g08.bks.cpg/sg9_6_cif.got.tgz:10769.got - 2010.06.03 20:04:27.
