data_PCOD9134916
_publ_section_title
;
Structure prediction by ZEFSAII (Michael W. Deem and Ramdas Pophale) SiO2 
 PCOD9134916
Probable space group: C C
;
_chemical_formula_sum "Si O2"
_cell_formula_units_Z 32
_cell_length_a 8.499701
_cell_length_b 12.799662
_cell_length_c 14.154154
_cell_angle_alpha 90.000000
_cell_angle_beta 123.752735
_cell_angle_gamma 90.000000
_cell_volume 1280.320194
_symmetry_space_group_name_H-M "C C"
_symmetry_group_IT_number 9
_symmetry_cell_setting 'monoclinic'
loop_
_space_group_symop_operation_xyz
x,y,z
x,-y,1/2+z
1/2+x,1/2+y,z
1/2+x,1/2-y,1/2+z
loop_
_atom_site_type_symbol
_atom_site_label
_atom_site_fract_x
_atom_site_fract_y
_atom_site_fract_z
Si Si1 0.339820 0.726266 0.280450
Si Si2 0.267640 0.545040 0.781404
Si Si3 0.269834 0.744197 0.925949
Si Si4 0.383316 0.609296 0.125687
Si Si5 0.367517 0.938614 0.173955
Si Si6 0.820730 0.376107 0.781418
Si Si7 0.431008 0.569992 0.507339
Si Si8 0.455229 0.306565 0.200594
O O1 0.558245 0.719819 0.386466
O O2 0.279221 0.633464 0.188283
O O3 0.170184 0.765514 0.289493
O O4 0.358905 0.825495 0.216182
O O5 0.263241 0.644290 0.853663
O O6 0.406216 0.589866 0.745822
O O7 0.051251 0.544490 0.671500
O O8 0.335251 0.448549 0.872807
O O9 0.381898 0.829153 0.901683
O O10 0.370202 0.708397 0.052984
O O11 0.601717 0.598935 0.224424
O O12 0.329348 0.513958 0.041771
O O13 0.410944 0.019306 0.273737
O O14 0.153695 0.960863 0.067921
O O15 0.835914 0.288495 0.704673
O O16 0.430194 0.669247 0.579645
#
# Coordination Sequence:
#
# PCOD9134916 Si02
#       8
#     4   4   4   4   4   4   4   4
#     4   9  18  34  52  75 104 136 174 219 263 310
#     4   9  18  35  56  77 107 143 177 219 269 315
#     4   8  16  33  55  76 102 137 174 212 266 325
#     4   9  17  34  55  74 102 139 173 213 267 323
#     4   9  18  35  53  74 108 143 178 214 258 323
#     4   9  18  32  54  78 105 139 173 215 264 313
#     4   9  19  36  56  79 107 141 179 218 266 321
#     4  10  20  35  53  79 109 136 176 228 263 308
#
# _framework density 24.993749000000001
#
# number of rings (size 3 to 8) (size 9 to 14) (size 15 to 20)
#    0.000    3.000    0.000    0.750    0.000    2.000 
#    0.000   22.500    0.000    0.000    0.000    0.000 
#    0.000    0.000    0.000    0.000    0.000    0.000 
#
# Total GULP energy -89196.872968 kJ/mol
# GULP energy per Si atom -5574.804560 kJ/mol
# Density = 2.493686 g / cm^3
# Si number density = 24.993749 Si / 1000 Ang^3
#
#
#
# Elastic Constant Matrix: (Units=GPa)
#
#
# Indices 1 2 3 4 5 6 
#
# 1 132.4680 12.6608 29.1791 0.0000 -0.7517 0.0000
# 2 12.6608 23.8483 8.0722 0.0000 -9.1302 0.0000
# 3 29.1791 8.0722 87.2618 0.0000 -26.5291 0.0000
# 4 0.0000 0.0000 0.0000 30.9744 0.0000 -8.0521
# 5 -0.7517 -9.1302 -26.5291 0.0000 31.0642 0.0000
# 6 0.0000 0.0000 0.0000 -8.0521 0.0000 41.6538
#
#
#
# Elastic Compliance Matrix: (Units=1/GPa)
#
#
# Indices 1 2 3 4 5 6 
#
# 1 0.008875 -0.005166 -0.003898 0.000000 -0.004633 0.000000
# 2 -0.005166 0.050258 0.002068 0.000000 0.016412 0.000000
# 3 -0.003898 0.002068 0.017192 0.000000 0.015195 0.000000
# 4 0.000000 0.000000 0.000000 0.033993 0.000000 0.006571
# 5 -0.004633 0.016412 0.015195 0.000000 0.049880 0.000000
# 6 0.000000 0.000000 0.000000 0.006571 0.000000 0.025278
#
#
# Mechanical properties :
#
#
# Convention : Reuss Voigt Hill
#
# Bulk Modulus (GPa) = 16.04313 38.15583 27.09948
# Shear Modulus (GPa) = 22.70202 33.64954 28.17578
#
# Velocity S-wave (km/s) = 3.01708 3.67320 3.36119
# Velocity P-wave (km/s) = 4.30928 5.76968 5.09210
#
# Compressibility (1/GPa) = 0.06233196
#
# Stress axis : x y z
#
# Youngs Moduli (GPa) = 112.67459 19.89752 58.16779
#
# Poissons Ratio (x) = 0.10279 0.22675
# Poissons Ratio (y) = 0.58205 -0.12029
# Poissons Ratio (z) = 0.43924 -0.04115
#
# Static dielectric constant tensor:
#      x y z
#    x 2.021510 0.000000 -0.042390 
#    y 0.000000 2.147040 0.000000 
#    z -0.042390 0.000000 1.983490 
# 
# From -- ./inp_files/23071.got.cif
#   From: 2010.05.17/outbox.cif.g08.bks.cpg/sg9_12_cif.got.tgz:23071.got - 2010.06.03 20:04:27.
