data_PCOD9134056
_publ_section_title
;
Structure prediction by ZEFSAII (Michael W. Deem and Ramdas Pophale) SiO2 
 PCOD9134056
Probable space group: C C
;
_chemical_formula_sum "Si O2"
_cell_formula_units_Z 32
_cell_length_a 9.425452
_cell_length_b 15.430087
_cell_length_c 10.797683
_cell_angle_alpha 90.000000
_cell_angle_beta 54.603299
_cell_angle_gamma 90.000000
_cell_volume 1280.102090
_symmetry_space_group_name_H-M "C C"
_symmetry_group_IT_number 9
_symmetry_cell_setting 'monoclinic'
loop_
_space_group_symop_operation_xyz
x,y,z
x,-y,1/2+z
1/2+x,1/2+y,z
1/2+x,1/2-y,1/2+z
loop_
_atom_site_type_symbol
_atom_site_label
_atom_site_fract_x
_atom_site_fract_y
_atom_site_fract_z
Si Si1 0.652280 0.636673 0.063940
Si Si2 0.050633 0.020514 0.786753
Si Si3 0.939420 0.476966 0.178837
Si Si4 0.279879 0.395830 0.059948
Si Si5 0.421005 0.685174 0.940841
Si Si6 0.101010 0.511736 0.848536
Si Si7 0.923980 0.253900 0.332680
Si Si8 0.667684 0.824495 0.764464
O O1 0.601753 0.544926 0.149907
O O2 0.599978 0.712662 0.188994
O O3 0.530367 0.652976 0.006735
O O4 0.852757 0.654616 0.922006
O O5 0.237048 0.033921 0.759170
O O6 0.976326 0.117163 0.807925
O O7 0.899735 0.973372 0.944470
O O8 0.973430 0.513835 0.297996
O O9 0.079409 0.396968 0.107640
O O10 0.012804 0.529765 0.023643
O O11 0.379759 0.312251 0.965896
O O12 0.232024 0.418022 0.225289
O O13 0.479707 0.781949 0.878745
O O14 0.227426 0.679486 0.092111
O O15 0.198849 0.419342 0.804505
O O16 0.791853 0.236517 0.285193
#
# Coordination Sequence:
#
# PCOD9134056 Si02
#       8
#     4   4   4   4   4   4   4   4
#     4   9  21  33  60  84 121 155 207 266 314 370
#     4  11  22  38  58  93 125 167 208 265 320 382
#     4  10  23  36  62  94 125 168 211 262 316 391
#     4   9  20  37  62  87 127 163 205 260 322 374
#     4  10  21  34  58  90 120 161 213 259 318 374
#     4  10  20  40  59  91 129 164 208 261 320 375
#     4   9  17  35  57  90 117 154 209 262 314 365
#     4  10  18  35  58  85 124 158 207 269 314 365
#
# _framework density 24.998007999999999
#
# number of rings (size 3 to 8) (size 9 to 14) (size 15 to 20)
#    0.750    1.500    2.500    0.000    3.500    3.000 
#    0.000    0.000    0.000   13.500    0.000    0.000 
#    0.000    0.000    0.000    0.000    0.000    0.000 
#
# Total GULP energy -89152.369761 kJ/mol
# GULP energy per Si atom -5572.023110 kJ/mol
# Density = 2.494111 g / cm^3
# Si number density = 24.998008 Si / 1000 Ang^3
#
#
#
# Elastic Constant Matrix: (Units=GPa)
#
#
# Indices 1 2 3 4 5 6 
#
# 1 79.8941 6.4776 35.3092 0.0000 1.0654 0.0000
# 2 6.4776 67.8641 34.5661 0.0000 10.4418 0.0000
# 3 35.3092 34.5661 157.6067 0.0000 -14.9623 0.0000
# 4 0.0000 0.0000 0.0000 29.8587 0.0000 -6.4489
# 5 1.0654 10.4418 -14.9623 0.0000 33.3683 0.0000
# 6 0.0000 0.0000 0.0000 -6.4489 0.0000 18.3149
#
#
#
# Elastic Compliance Matrix: (Units=1/GPa)
#
#
# Indices 1 2 3 4 5 6 
#
# 1 0.014047 0.000817 -0.003544 0.000000 -0.002293 0.000000
# 2 0.000817 0.018434 -0.004988 0.000000 -0.008031 0.000000
# 3 -0.003544 -0.004988 0.008765 0.000000 0.005604 0.000000
# 4 0.000000 0.000000 0.000000 0.036248 0.000000 0.012763
# 5 -0.002293 -0.008031 0.005604 0.000000 0.035068 0.000000
# 6 0.000000 0.000000 0.000000 0.012763 0.000000 0.059094
#
#
# Mechanical properties :
#
#
# Convention : Reuss Voigt Hill
#
# Bulk Modulus (GPa) = 38.73634 50.89675 44.81654
# Shear Modulus (GPa) = 25.55041 31.57585 28.56313
#
# Velocity S-wave (km/s) = 3.20049 3.55792 3.38393
# Velocity P-wave (km/s) = 5.40250 6.10597 5.76497
#
# Compressibility (1/GPa) = 0.02581555
#
# Stress axis : x y z
#
# Youngs Moduli (GPa) = 71.18884 54.24796 114.09050
#
# Poissons Ratio (x) = -0.04433 0.40433
# Poissons Ratio (y) = -0.05817 0.56913
# Poissons Ratio (z) = 0.25229 0.27061
#
# Static dielectric constant tensor:
#      x y z
#    x 2.046860 0.000000 -0.011890 
#    y 0.000000 2.063570 0.000000 
#    z -0.011890 0.000000 2.029880 
# 
# From -- ./inp_files/16870.got.cif
#   From: 2010.05.17/outbox.cif.g08.bks.cpg/sg9_9_cif.got.tgz:16870.got - 2010.06.03 20:04:27.
