data_PCOD9134366
_publ_section_title
;
Structure prediction by ZEFSAII (Michael W. Deem and Ramdas Pophale) SiO2 
 PCOD9134366
Probable space group: C C
;
_chemical_formula_sum "Si O2"
_cell_formula_units_Z 32
_cell_length_a 14.628675
_cell_length_b 8.301194
_cell_length_c 16.390219
_cell_angle_alpha 90.000000
_cell_angle_beta 123.795761
_cell_angle_gamma 90.000000
_cell_volume 1654.035120
_symmetry_space_group_name_H-M "C C"
_symmetry_group_IT_number 9
_symmetry_cell_setting 'monoclinic'
loop_
_space_group_symop_operation_xyz
x,y,z
x,-y,1/2+z
1/2+x,1/2+y,z
1/2+x,1/2-y,1/2+z
loop_
_atom_site_type_symbol
_atom_site_label
_atom_site_fract_x
_atom_site_fract_y
_atom_site_fract_z
Si Si1 0.270420 0.422552 0.372270
Si Si2 0.254991 0.829433 0.740856
Si Si3 0.193771 0.134822 0.622735
Si Si4 0.510798 0.565113 0.933405
Si Si5 0.272337 0.570143 0.066536
Si Si6 0.079392 0.366398 0.060529
Si Si7 0.943915 0.849747 0.232947
Si Si8 0.575957 0.884058 0.683420
O O1 0.262829 0.237778 0.336044
O O2 0.389672 0.490282 0.402884
O O3 0.259639 0.429362 0.463472
O O4 0.174520 0.522609 0.279089
O O5 0.140466 0.760572 0.649587
O O6 0.347516 0.732560 0.737547
O O7 0.259658 0.012120 0.713857
O O8 0.266564 0.252628 0.603043
O O9 0.127104 0.248795 0.650605
O O10 0.107909 0.037255 0.522995
O O11 0.518329 0.566650 0.839131
O O12 0.518041 0.751497 0.967056
O O13 0.171726 0.469269 0.057727
O O14 0.384913 0.480593 0.146734
O O15 0.019733 0.488897 0.092798
O O16 0.001268 0.710192 0.210085
#
# Coordination Sequence:
#
# PCOD9134366 Si02
#       8
#     4   4   4   4   4   4   4   4
#     4  10  20  36  55  80 112 145 179 224 274 328
#     4   8  18  35  53  75 108 141 178 224 271 317
#     4  10  20  36  57  81 107 141 183 230 274 321
#     4  10  19  35  56  80 110 145 182 226 274 324
#     4  10  20  36  55  80 111 144 183 228 270 323
#     4   8  17  34  53  75 108 144 180 221 269 322
#     4  10  20  36  56  80 111 148 182 221 272 327
#     4  10  20  36  57  81 109 144 181 224 274 326
#
# _framework density 19.346626000000001
#
# number of rings (size 3 to 8) (size 9 to 14) (size 15 to 20)
#    0.000    2.500    0.000    3.750    0.000    2.000 
#    0.000   17.500    0.000    0.000    0.000    0.000 
#    0.000    0.000    0.000    0.000    0.000    0.000 
#
# Total GULP energy -89144.984240 kJ/mol
# GULP energy per Si atom -5571.561515 kJ/mol
# Density = 1.930259 g / cm^3
# Si number density = 19.346626 Si / 1000 Ang^3
#
#
#
# Elastic Constant Matrix: (Units=GPa)
#
#
# Indices 1 2 3 4 5 6 
#
# 1 39.0702 18.0545 20.9062 0.0000 -7.9764 0.0000
# 2 18.0545 102.0100 47.6445 0.0000 -0.8440 0.0000
# 3 20.9062 47.6445 117.0484 0.0000 -13.0990 0.0000
# 4 0.0000 0.0000 0.0000 32.8363 0.0000 -0.1430
# 5 -7.9764 -0.8440 -13.0990 0.0000 28.7968 0.0000
# 6 0.0000 0.0000 0.0000 -0.1430 0.0000 26.2975
#
#
#
# Elastic Compliance Matrix: (Units=1/GPa)
#
#
# Indices 1 2 3 4 5 6 
#
# 1 0.030456 -0.003894 -0.003080 0.000000 0.006921 0.000000
# 2 -0.003894 0.012711 -0.004802 0.000000 -0.002890 0.000000
# 3 -0.003080 -0.004802 0.011524 0.000000 0.004248 0.000000
# 4 0.000000 0.000000 0.000000 0.030455 0.000000 0.000166
# 5 0.006921 -0.002890 0.004248 0.000000 0.038491 0.000000
# 6 0.000000 0.000000 0.000000 0.000166 0.000000 0.038027
#
#
# Mechanical properties :
#
#
# Convention : Reuss Voigt Hill
#
# Bulk Modulus (GPa) = 32.11558 47.92655 40.02107
# Shear Modulus (GPa) = 25.56304 29.02102 27.29203
#
# Velocity S-wave (km/s) = 3.63894 3.87726 3.75999
# Velocity P-wave (km/s) = 5.85593 6.69855 6.29136
#
# Compressibility (1/GPa) = 0.03113754
#
# Stress axis : x y z
#
# Youngs Moduli (GPa) = 32.83474 78.67147 86.77846
#
# Poissons Ratio (x) = 0.30638 0.26728
# Poissons Ratio (y) = 0.12787 0.41670
# Poissons Ratio (z) = 0.10113 0.37777
#
# Static dielectric constant tensor:
#      x y z
#    x 1.678110 0.000000 0.018990 
#    y 0.000000 1.699990 0.000000 
#    z 0.018990 0.000000 1.712580 
# 
# From -- ./inp_files/24209.got.cif
#   From: 2010.05.17/outbox.cif.g08.bks.cpg/sg9_13_cif.got.tgz:24209.got - 2010.06.03 20:04:27.
