data_PCOD9134097
_publ_section_title
;
Structure prediction by ZEFSAII (Michael W. Deem and Ramdas Pophale) SiO2 
 PCOD9134097
Probable space group: C C
;
_chemical_formula_sum "Si O2"
_cell_formula_units_Z 28
_cell_length_a 11.397210
_cell_length_b 8.717524
_cell_length_c 11.944348
_cell_angle_alpha 90.000000
_cell_angle_beta 90.503248
_cell_angle_gamma 90.000000
_cell_volume 1186.690315
_symmetry_space_group_name_H-M "C C"
_symmetry_group_IT_number 9
_symmetry_cell_setting 'monoclinic'
loop_
_space_group_symop_operation_xyz
x,y,z
x,-y,1/2+z
1/2+x,1/2+y,z
1/2+x,1/2-y,1/2+z
loop_
_atom_site_type_symbol
_atom_site_label
_atom_site_fract_x
_atom_site_fract_y
_atom_site_fract_z
Si Si1 0.383310 0.182313 0.960030
Si Si2 0.560023 0.875145 0.279271
Si Si3 0.653358 0.375140 0.123820
Si Si4 0.243199 0.630286 0.281906
Si Si5 0.830037 0.682315 0.443059
Si Si6 0.970191 0.130299 0.121176
Si Si7 0.856695 0.389925 0.701544
O O1 0.502133 0.195864 0.890118
O O2 0.288774 0.285386 0.893984
O O3 0.356658 0.000004 0.951542
O O4 0.382551 0.208316 0.091783
O O5 0.560967 0.742875 0.186321
O O6 0.674909 0.973845 0.302727
O O7 0.463992 0.995231 0.229021
O O8 0.652421 0.242875 0.216774
O O9 0.538484 0.473861 0.100353
O O10 0.749405 0.495215 0.174062
O O11 0.711223 0.304103 0.012970
O O12 0.356696 0.613633 0.201543
O O13 0.924601 0.785353 0.509110
O O14 0.830830 0.708312 0.311305
#
# Coordination Sequence:
#
# PCOD9134097 Si02
#       7
#     4   4   4   4   4   4   4
#     4   9  17  35  62  89 119 159 204 244 304 363
#     4  10  19  37  63  88 125 157 199 253 302 362
#     4  10  19  37  63  88 125 157 199 253 302 362
#     4  10  20  39  61  91 124 158 199 250 305 362
#     4   9  17  35  62  89 119 159 204 244 304 363
#     4  10  20  39  61  91 124 158 199 250 305 362
#     4  10  18  36  62  92 116 164 204 244 308 360
#
# _framework density 23.595036
#
# number of rings (size 3 to 8) (size 9 to 14) (size 15 to 20)
#    0.000    2.286    7.143    0.000    0.000    4.571 
#    2.571    5.714    0.000    3.429    0.000    0.000 
#    0.000    0.000    0.000    0.000    0.000    0.000 
#
# Total GULP energy -78296.159715 kJ/mol
# GULP energy per Si atom -5592.582837 kJ/mol
# Density = 2.354133 g / cm^3
# Si number density = 23.595036 Si / 1000 Ang^3
#
#
#
# Elastic Constant Matrix: (Units=GPa)
#
#
# Indices 1 2 3 4 5 6 
#
# 1 80.3413 71.5213 38.1785 0.0000 23.9478 0.0000
# 2 71.5213 102.7742 51.0196 0.0000 2.3984 0.0000
# 3 38.1785 51.0196 206.7181 0.0000 -4.2006 0.0000
# 4 0.0000 0.0000 0.0000 -6.3439 0.0000 5.0387
# 5 23.9478 2.3984 -4.2006 0.0000 10.9431 0.0000
# 6 0.0000 0.0000 0.0000 5.0387 0.0000 51.0592
#
#
#
# Elastic Compliance Matrix: (Units=1/GPa)
#
#
# Indices 1 2 3 4 5 6 
#
# 1 -0.062220 0.037904 0.004772 0.000000 0.129687 0.000000
# 2 0.037904 -0.011867 -0.005749 0.000000 -0.082556 0.000000
# 3 0.004772 -0.005749 0.005229 0.000000 -0.007175 0.000000
# 4 0.000000 0.000000 0.000000 -0.146175 0.000000 0.014425
# 5 0.129687 -0.082556 -0.007175 0.000000 -0.177084 0.000000
# 6 0.000000 0.000000 0.000000 0.014425 0.000000 0.018162
#
#
# Mechanical properties :
#
#
# Convention : Reuss Voigt Hill
#
# Bulk Modulus (GPa) = 200.18253 79.03025 139.60639
# Shear Modulus (GPa) = -11.20714 26.40596 7.59941
#
# Velocity S-wave (km/s) = -2.18176 3.34897 1.79660
# Velocity P-wave (km/s) = 8.87008 6.96572 7.97495
#
# Compressibility (1/GPa) = 0.00499544
#
# Stress axis : x y z
#
# Youngs Moduli (GPa) = -16.07192 -84.26537 191.22708
#
# Poissons Ratio (x) = 3.19403 -0.91246
# Poissons Ratio (y) = 0.60920 1.09939
# Poissons Ratio (z) = 0.07669 -0.48445
#
# Static dielectric constant tensor:
#      x y z
#    x 1.929990 0.000000 0.001750 
#    y 0.000000 1.866770 0.000000 
#    z 0.001750 0.000000 1.909930 
# 
# From -- ./inp_files/15944.got.cif
#   From: 2010.05.17/outbox.cif.g08.bks.cpg/sg9_8_cif.got.tgz:15944.got - 2010.06.03 20:04:27.
