data_PCOD9134238
_publ_section_title
;
Structure prediction by ZEFSAII (Michael W. Deem and Ramdas Pophale) SiO2 
 PCOD9134238
Probable space group: C C
;
_chemical_formula_sum "Si O2"
_cell_formula_units_Z 24
_cell_length_a 12.233173
_cell_length_b 13.053655
_cell_length_c 6.841229
_cell_angle_alpha 90.000000
_cell_angle_beta 69.564586
_cell_angle_gamma 90.000000
_cell_volume 1023.707120
_symmetry_space_group_name_H-M "C C"
_symmetry_group_IT_number 9
_symmetry_cell_setting 'monoclinic'
loop_
_space_group_symop_operation_xyz
x,y,z
x,-y,1/2+z
1/2+x,1/2+y,z
1/2+x,1/2-y,1/2+z
loop_
_atom_site_type_symbol
_atom_site_label
_atom_site_fract_x
_atom_site_fract_y
_atom_site_fract_z
Si Si1 0.608380 0.145635 0.328990
Si Si2 0.401276 0.858343 0.727569
Si Si3 0.154671 0.171666 0.502346
Si Si4 0.494673 0.766920 0.284682
Si Si5 0.908913 0.124606 0.774635
Si Si6 0.326056 0.416338 0.925225
O O1 0.515734 0.088055 0.245843
O O2 0.536832 0.180923 0.563608
O O3 0.714043 0.084807 0.359559
O O4 0.662084 0.241075 0.168295
O O5 0.272442 0.888884 0.876063
O O6 0.542882 0.603034 0.628638
O O7 0.410370 0.744162 0.820236
O O8 0.106183 0.229480 0.340548
O O9 0.421778 0.837421 0.484412
O O10 0.419331 0.665502 0.284012
O O11 0.817543 0.122941 0.651976
O O12 0.872621 0.030724 0.926831
#
# Coordination Sequence:
#
# PCOD9134238 Si02
#       6
#     4   4   4   4   4   4
#     4  10  19  31  55  83 108 148 186 229 276 332
#     4   9  19  35  54  79 110 148 185 228 278 329
#     4   9  19  34  53  81 110 147 185 232 273 331
#     4   9  18  32  52  82 108 145 191 228 270 328
#     4   9  21  33  54  86 112 141 183 235 281 323
#     4  10  20  33  54  85 114 141 184 232 282 329
#
# _framework density 23.444206000000001
#
# number of rings (size 3 to 8) (size 9 to 14) (size 15 to 20)
#    0.000    3.333    0.000    3.000    7.000    0.000 
#    0.000    0.000    0.000    4.000    8.667    0.000 
#    0.000    0.000    0.000    0.000    0.000    0.000 
#
# Total GULP energy -66872.219232 kJ/mol
# GULP energy per Si atom -5572.684936 kJ/mol
# Density = 2.339085 g / cm^3
# Si number density = 23.444206 Si / 1000 Ang^3
#
#
#
# Elastic Constant Matrix: (Units=GPa)
#
#
# Indices 1 2 3 4 5 6 
#
# 1 130.8434 12.9311 38.2809 0.0000 -5.5452 0.0000
# 2 12.9311 32.5299 11.3161 0.0000 0.1655 0.0000
# 3 38.2809 11.3161 99.7105 0.0000 -8.2074 0.0000
# 4 0.0000 0.0000 0.0000 16.6656 0.0000 -4.2261
# 5 -5.5452 0.1655 -8.2074 0.0000 32.6443 0.0000
# 6 0.0000 0.0000 0.0000 -4.2261 0.0000 2.0060
#
#
#
# Elastic Compliance Matrix: (Units=1/GPa)
#
#
# Indices 1 2 3 4 5 6 
#
# 1 0.008806 -0.002446 -0.003042 0.000000 0.000743 0.000000
# 2 -0.002446 0.032723 -0.002882 0.000000 -0.001306 0.000000
# 3 -0.003042 -0.002882 0.011725 0.000000 0.002446 0.000000
# 4 0.000000 0.000000 0.000000 0.128833 0.000000 0.271422
# 5 0.000743 -0.001306 0.002446 0.000000 0.031381 0.000000
# 6 0.000000 0.000000 0.000000 0.271422 0.000000 1.070336
#
#
# Mechanical properties :
#
#
# Convention : Reuss Voigt Hill
#
# Bulk Modulus (GPa) = 27.38708 43.12666 35.25687
# Shear Modulus (GPa) = 3.80890 23.63356 13.72123
#
# Velocity S-wave (km/s) = 1.27601 3.17847 2.42186
# Velocity P-wave (km/s) = 3.72533 5.64850 4.78454
#
# Compressibility (1/GPa) = 0.03651356
#
# Stress axis : x y z
#
# Youngs Moduli (GPa) = 113.55935 30.55998 85.28555
#
# Poissons Ratio (x) = 0.07475 0.25944
# Poissons Ratio (y) = 0.27778 0.24580
# Poissons Ratio (z) = 0.34545 0.08808
#
# Static dielectric constant tensor:
#      x y z
#    x 1.985700 0.000000 -0.045160 
#    y 0.000000 1.896650 0.000000 
#    z -0.045160 0.000000 1.951030 
# 
# From -- ./inp_files/7113.got.cif
#   From: 2010.05.17/outbox.cif.g08.bks.cpg/sg9_4_cif.got.tgz:7113.got - 2010.06.03 20:04:27.
