data_PCOD9134448
_publ_section_title
;
Structure prediction by ZEFSAII (Michael W. Deem and Ramdas Pophale) SiO2 
 PCOD9134448
Probable space group: C C
;
_chemical_formula_sum "Si O2"
_cell_formula_units_Z 28
_cell_length_a 11.690064
_cell_length_b 13.218827
_cell_length_c 19.440616
_cell_angle_alpha 90.000000
_cell_angle_beta 157.974405
_cell_angle_gamma 90.000000
_cell_volume 1126.613943
_symmetry_space_group_name_H-M "C C"
_symmetry_group_IT_number 9
_symmetry_cell_setting 'monoclinic'
loop_
_space_group_symop_operation_xyz
x,y,z
x,-y,1/2+z
1/2+x,1/2+y,z
1/2+x,1/2-y,1/2+z
loop_
_atom_site_type_symbol
_atom_site_label
_atom_site_fract_x
_atom_site_fract_y
_atom_site_fract_z
Si Si1 0.498630 0.861056 0.097270
Si Si2 0.757412 0.948641 0.060536
Si Si3 0.962433 0.226919 0.774661
Si Si4 0.542467 0.925131 0.257674
Si Si5 0.827492 0.059306 0.227526
Si Si6 0.977029 0.360076 0.656103
Si Si7 0.172140 0.011645 0.166777
O O1 0.625637 0.770949 0.121486
O O2 0.501040 0.836828 0.179554
O O3 0.740954 0.952126 0.216302
O O4 0.167508 0.906319 0.897205
O O5 0.921975 0.867003 0.199512
O O6 0.992326 0.974290 0.132466
O O7 0.678210 0.040588 0.069166
O O8 0.445043 0.918678 0.848067
O O9 0.067794 0.311962 0.779788
O O10 0.197528 0.200875 0.966488
O O11 0.415509 0.024545 0.145859
O O12 0.898790 0.942529 0.469531
O O13 0.348886 0.927310 0.219612
O O14 0.707993 0.134723 0.220151
#
# Coordination Sequence:
#
# PCOD9134448 Si02
#       7
#     4   4   4   4   4   4   4
#     4  10  19  38  67  93 120 165 230 277 325 392
#     4  10  19  36  60  95 122 162 214 273 334 376
#     4  11  24  41  64  90 134 180 220 267 341 414
#     4  10  19  36  60  95 122 162 214 273 334 376
#     4  10  19  38  67  93 120 165 230 277 325 392
#     4  11  24  41  64  90 134 180 220 267 341 414
#     4  10  20  30  62  96 126 148 212 286 312 378
#
# _framework density 24.853232999999999
#
# number of rings (size 3 to 8) (size 9 to 14) (size 15 to 20)
#    0.000    1.714    0.000    8.571    4.000    0.000 
#    0.000    1.429    6.286    0.000    0.000    0.000 
#    0.000    0.000    0.000    0.000    0.000    0.000 
#
# Total GULP energy -78081.253960 kJ/mol
# GULP energy per Si atom -5577.232426 kJ/mol
# Density = 2.479667 g / cm^3
# Si number density = 24.853233 Si / 1000 Ang^3
#
#
#
# Elastic Constant Matrix: (Units=GPa)
#
#
# Indices 1 2 3 4 5 6 
#
# 1 185.4370 30.9493 31.3176 0.0014 8.7582 -0.0003
# 2 30.9493 38.9446 12.7738 0.0130 8.3661 -0.0046
# 3 31.3176 12.7738 120.8982 0.0392 5.0948 -0.0073
# 4 0.0014 0.0130 0.0392 19.4171 -0.0125 -9.3693
# 5 8.7582 8.3661 5.0948 -0.0125 52.4481 -0.0014
# 6 -0.0003 -0.0046 -0.0073 -9.3693 -0.0014 26.7250
#
#
#
# Elastic Compliance Matrix: (Units=1/GPa)
#
#
# Indices 1 2 3 4 5 6 
#
# 1 0.006372 -0.004640 -0.001151 0.000005 -0.000212 0.000001
# 2 -0.004640 0.030836 -0.001889 -0.000020 -0.003960 -0.000002
# 3 -0.001151 -0.001889 0.008784 -0.000019 -0.000360 -0.000005
# 4 0.000005 -0.000020 -0.000019 0.061987 0.000020 0.021732
# 5 -0.000212 -0.003960 -0.000360 0.000020 0.019769 0.000007
# 6 0.000001 -0.000002 -0.000005 0.021732 0.000007 0.045037
#
#
# Mechanical properties :
#
#
# Convention : Reuss Voigt Hill
#
# Bulk Modulus (GPa) = 32.64755 55.04012 43.84384
# Shear Modulus (GPa) = 25.20725 37.73398 31.47062
#
# Velocity S-wave (km/s) = 3.18818 3.90073 3.56231
# Velocity P-wave (km/s) = 5.16888 6.51780 5.88213
#
# Compressibility (1/GPa) = 0.03063017
#
# Stress axis : x y z
#
# Youngs Moduli (GPa) = 156.94692 32.43007 113.83797
#
# Poissons Ratio (x) = 0.15049 0.13106
# Poissons Ratio (y) = 0.72829 0.21505
# Poissons Ratio (z) = 0.18069 0.06126
#
# Static dielectric constant tensor:
#      x y z
#    x 2.006200 0.000000 -0.015940 
#    y 0.000000 2.155840 -0.000010 
#    z -0.015940 -0.000010 1.971070 
# 
# From -- ./inp_files/33403.got.cif
#   From: 2010.05.17/outbox.cif.g08.bks.cpg/sg9_17_cif.got.tgz:33403.got - 2010.06.03 20:04:27.
