data_PCOD9134850
_publ_section_title
;
Structure prediction by ZEFSAII (Michael W. Deem and Ramdas Pophale) SiO2 
 PCOD9134850
Probable space group: C C
;
_chemical_formula_sum "Si O2"
_cell_formula_units_Z 24
_cell_length_a 15.356111
_cell_length_b 7.607469
_cell_length_c 8.135354
_cell_angle_alpha 90.000000
_cell_angle_beta 109.604214
_cell_angle_gamma 90.000000
_cell_volume 895.290351
_symmetry_space_group_name_H-M "C C"
_symmetry_group_IT_number 9
_symmetry_cell_setting 'monoclinic'
loop_
_space_group_symop_operation_xyz
x,y,z
x,-y,1/2+z
1/2+x,1/2+y,z
1/2+x,1/2-y,1/2+z
loop_
_atom_site_type_symbol
_atom_site_label
_atom_site_fract_x
_atom_site_fract_y
_atom_site_fract_z
Si Si1 0.056960 0.763991 0.919630
Si Si2 0.716777 0.184406 0.206236
Si Si3 0.734407 0.804068 0.084460
Si Si4 0.393471 0.496211 0.791371
Si Si5 0.475960 0.955103 0.672802
Si Si6 0.359246 0.165054 0.387643
O O1 0.997356 0.935778 0.843848
O O2 0.037835 0.623568 0.763587
O O3 0.163149 0.792176 0.034653
O O4 0.017962 0.676496 0.065483
O O5 0.693532 0.227959 0.380383
O O6 0.827702 0.174931 0.261707
O O7 0.692833 0.979126 0.143404
O O8 0.759461 0.656790 0.234991
O O9 0.841013 0.874562 0.130205
O O10 0.375759 0.628936 0.935427
O O11 0.448587 0.872064 0.828646
O O12 0.378498 0.030700 0.543115
#
# Coordination Sequence:
#
# PCOD9134850 Si02
#       6
#     4   4   4   4   4   4
#     4  11  20  33  58  83 114 151 199 240 277 346
#     4   9  18  33  54  86 109 149 192 233 279 339
#     4   8  18  33  56  83 112 149 195 226 282 348
#     4   8  21  33  62  80 112 155 195 230 285 342
#     4  10  20  32  52  87 113 148 194 235 292 336
#     4   8  19  34  54  81 114 150 191 238 283 347
#
# _framework density 26.806944000000001
#
# number of rings (size 3 to 8) (size 9 to 14) (size 15 to 20)
#    2.000    0.667    0.000    2.000    4.667    0.000 
#    0.000    0.000    0.000   40.000    0.000    0.000 
#    0.000    0.000    0.000    0.000    0.000    0.000 
#
# Total GULP energy -66818.296995 kJ/mol
# GULP energy per Si atom -5568.191416 kJ/mol
# Density = 2.674593 g / cm^3
# Si number density = 26.806944 Si / 1000 Ang^3
#
#
#
# Elastic Constant Matrix: (Units=GPa)
#
#
# Indices 1 2 3 4 5 6 
#
# 1 40.5293 14.7103 23.4937 0.0000 10.1253 0.0000
# 2 14.7103 49.4846 16.5974 0.0000 10.6820 0.0000
# 3 23.4937 16.5974 135.3442 0.0000 24.0247 0.0000
# 4 0.0000 0.0000 0.0000 42.6785 0.0000 5.1111
# 5 10.1253 10.6820 24.0247 0.0000 51.8455 0.0000
# 6 0.0000 0.0000 0.0000 5.1111 0.0000 28.0728
#
#
#
# Elastic Compliance Matrix: (Units=1/GPa)
#
#
# Indices 1 2 3 4 5 6 
#
# 1 0.030164 -0.007093 -0.003901 0.000000 -0.002622 0.000000
# 2 -0.007093 0.023317 -0.001113 0.000000 -0.002903 0.000000
# 3 -0.003901 -0.001113 0.008746 0.000000 -0.003062 0.000000
# 4 0.000000 0.000000 0.000000 0.023953 0.000000 -0.004361
# 5 -0.002622 -0.002903 -0.003062 0.000000 0.021817 0.000000
# 6 0.000000 0.000000 0.000000 -0.004361 0.000000 0.036416
#
#
# Mechanical properties :
#
#
# Convention : Reuss Voigt Hill
#
# Bulk Modulus (GPa) = 26.30614 37.21787 31.76201
# Shear Modulus (GPa) = 27.57921 35.88980 31.73451
#
# Velocity S-wave (km/s) = 3.21098 3.66296 3.44440
# Velocity P-wave (km/s) = 4.85610 5.63946 5.26238
#
# Compressibility (1/GPa) = 0.03801394
#
# Stress axis : x y z
#
# Youngs Moduli (GPa) = 33.15208 42.88776 114.34321
#
# Poissons Ratio (x) = 0.30418 0.44603
# Poissons Ratio (y) = 0.23513 0.12725
# Poissons Ratio (z) = 0.12932 0.04773
#
# Static dielectric constant tensor:
#      x y z
#    x 2.156800 0.000000 -0.009280 
#    y 0.000000 2.246120 0.000000 
#    z -0.009280 0.000000 2.206980 
# 
# From -- ./inp_files/11192.got.cif
#   From: 2010.05.17/outbox.cif.g08.bks.cpg/sg9_6_cif.got.tgz:11192.got - 2010.06.03 20:04:27.
