data_PCOD9134490
_publ_section_title
;
Structure prediction by ZEFSAII (Michael W. Deem and Ramdas Pophale) SiO2 
 PCOD9134490
Probable space group: C C
;
_chemical_formula_sum "Si O2"
_cell_formula_units_Z 32
_cell_length_a 15.729208
_cell_length_b 13.470054
_cell_length_c 13.385616
_cell_angle_alpha 90.000000
_cell_angle_beta 32.153446
_cell_angle_gamma 90.000000
_cell_volume 1509.315672
_symmetry_space_group_name_H-M "C C"
_symmetry_group_IT_number 9
_symmetry_cell_setting 'monoclinic'
loop_
_space_group_symop_operation_xyz
x,y,z
x,-y,1/2+z
1/2+x,1/2+y,z
1/2+x,1/2-y,1/2+z
loop_
_atom_site_type_symbol
_atom_site_label
_atom_site_fract_x
_atom_site_fract_y
_atom_site_fract_z
Si Si1 0.427430 0.973167 0.002680
Si Si2 0.724513 0.159498 0.237910
Si Si3 0.714517 0.677993 0.582592
Si Si4 0.301974 0.718455 0.369392
Si Si5 0.324139 0.060582 0.303601
Si Si6 0.114832 0.533261 0.630796
Si Si7 0.121025 0.893973 0.611024
Si Si8 0.933198 0.046074 0.904270
O O1 0.311842 0.901642 0.053930
O O2 0.559577 0.898698 0.918777
O O3 0.493932 0.975416 0.679708
O O4 0.525035 0.038211 0.825916
O O5 0.714898 0.220860 0.144333
O O6 0.769717 0.231539 0.283525
O O7 0.863239 0.077897 0.081104
O O8 0.782342 0.663060 0.403105
O O9 0.534407 0.638281 0.763733
O O10 0.171065 0.637890 0.533419
O O11 0.267641 0.816980 0.466930
O O12 0.474282 0.668971 0.212294
O O13 0.342245 0.042325 0.168273
O O14 0.188226 0.983478 0.476667
O O15 0.280258 0.476388 0.487834
O O16 0.046407 0.949188 0.781668
#
# Coordination Sequence:
#
# PCOD9134490 Si02
#       8
#     4   4   4   4   4   4   4   4
#     4  10  20  34  57  81 115 159 197 238 313 358
#     4  11  21  33  58  88 117 154 201 252 297 355
#     4  10  21  33  55  87 123 150 203 255 294 363
#     4  11  21  33  58  88 121 147 208 256 303 347
#     4  10  19  37  54  84 119 161 192 241 314 361
#     4   9  19  37  55  83 117 160 198 253 295 370
#     4  10  22  35  56  86 122 158 194 254 310 361
#     4   9  21  38  53  87 124 163 193 251 316 357
#
# _framework density 21.201663
#
# number of rings (size 3 to 8) (size 9 to 14) (size 15 to 20)
#    0.000    2.000    1.250    2.250    5.250    0.000 
#    0.000    0.000    0.000    4.500   42.250    0.000 
#    0.000    0.000    0.000    0.000    0.000    0.000 
#
# Total GULP energy -89228.984293 kJ/mol
# GULP energy per Si atom -5576.811518 kJ/mol
# Density = 2.115341 g / cm^3
# Si number density = 21.201663 Si / 1000 Ang^3
#
#
#
# Elastic Constant Matrix: (Units=GPa)
#
#
# Indices 1 2 3 4 5 6 
#
# 1 45.8991 16.9897 31.9443 0.0000 3.5599 0.0000
# 2 16.9897 68.3107 25.3919 0.0000 5.2190 0.0000
# 3 31.9443 25.3919 101.2125 0.0001 -3.1621 0.0000
# 4 0.0000 0.0000 0.0001 35.7396 -0.0001 0.3449
# 5 3.5599 5.2190 -3.1621 -0.0001 25.6960 0.0000
# 6 0.0000 0.0000 0.0000 0.3449 0.0000 28.2913
#
#
#
# Elastic Compliance Matrix: (Units=1/GPa)
#
#
# Indices 1 2 3 4 5 6 
#
# 1 0.029435 -0.003844 -0.008461 0.000000 -0.004338 0.000000
# 2 -0.003844 0.017023 -0.003161 0.000000 -0.003314 0.000000
# 3 -0.008461 -0.003161 0.013452 0.000000 0.003470 0.000000
# 4 0.000000 0.000000 0.000000 0.027983 0.000000 -0.000341
# 5 -0.004338 -0.003314 0.003470 0.000000 0.040618 0.000000
# 6 0.000000 0.000000 0.000000 -0.000341 0.000000 0.035351
#
#
# Mechanical properties :
#
#
# Convention : Reuss Voigt Hill
#
# Bulk Modulus (GPa) = 34.50959 40.45270 37.48114
# Shear Modulus (GPa) = 24.45531 27.35182 25.90357
#
# Velocity S-wave (km/s) = 3.39995 3.59566 3.49918
# Velocity P-wave (km/s) = 5.63250 6.02991 5.83459
#
# Compressibility (1/GPa) = 0.02897746
#
# Stress axis : x y z
#
# Youngs Moduli (GPa) = 33.97296 58.74315 74.33757
#
# Poissons Ratio (x) = 0.22582 0.62899
# Poissons Ratio (y) = 0.13060 0.23498
# Poissons Ratio (z) = 0.28746 0.18568
#
# Static dielectric constant tensor:
#      x y z
#    x 1.789310 0.000000 -0.012290 
#    y 0.000000 1.788850 0.000000 
#    z -0.012290 0.000000 1.821520 
# 
# From -- ./inp_files/12753.got.cif
#   From: 2010.05.17/outbox.cif.g08.bks.cpg/sg9_7_cif.got.tgz:12753.got - 2010.06.03 20:04:27.
