data_PCOD9134861
_publ_section_title
;
Structure prediction by ZEFSAII (Michael W. Deem and Ramdas Pophale) SiO2 
 PCOD9134861
Probable space group: C C
;
_chemical_formula_sum "Si O2"
_cell_formula_units_Z 32
_cell_length_a 19.717086
_cell_length_b 17.685776
_cell_length_c 8.553547
_cell_angle_alpha 90.000000
_cell_angle_beta 30.622084
_cell_angle_gamma 90.000000
_cell_volume 1519.319591
_symmetry_space_group_name_H-M "C C"
_symmetry_group_IT_number 9
_symmetry_cell_setting 'monoclinic'
loop_
_space_group_symop_operation_xyz
x,y,z
x,-y,1/2+z
1/2+x,1/2+y,z
1/2+x,1/2-y,1/2+z
loop_
_atom_site_type_symbol
_atom_site_label
_atom_site_fract_x
_atom_site_fract_y
_atom_site_fract_z
Si Si1 0.324210 0.781554 0.657090
Si Si2 0.759333 0.181704 0.080132
Si Si3 0.699429 0.418345 0.067570
Si Si4 0.012186 0.341972 0.868370
Si Si5 0.232908 0.915711 0.370382
Si Si6 0.422506 0.335319 0.547378
Si Si7 0.584481 0.271305 0.645599
Si Si8 0.666514 0.817453 0.263135
O O1 0.454766 0.752818 0.309597
O O2 0.208273 0.759603 0.768639
O O3 0.319512 0.720891 0.808330
O O4 0.299277 0.864064 0.772269
O O5 0.625195 0.142764 0.277133
O O6 0.862319 0.142429 0.994530
O O7 0.707394 0.249831 0.292451
O O8 0.739324 0.418942 0.169674
O O9 0.552745 0.381825 0.338112
O O10 0.701211 0.502507 0.999296
O O11 0.086028 0.361439 0.556196
O O12 0.874065 0.386525 0.157637
O O13 0.969832 0.252900 0.944836
O O14 0.115326 0.855162 0.639288
O O15 0.299959 0.348363 0.913304
O O16 0.577506 0.210105 0.797451
#
# Coordination Sequence:
#
# PCOD9134861 Si02
#       8
#     4   4   4   4   4   4   4   4
#     4  11  21  36  61  92 127 165 217 258 321 382
#     4  10  20  36  65  97 124 170 216 278 310 388
#     4  12  26  42  64  96 134 171 216 279 329 390
#     4  11  20  40  65 101 134 166 227 269 328 393
#     4  12  26  42  64  96 134 171 216 279 329 390
#     4  11  20  40  65 101 134 166 227 269 328 393
#     4  11  21  36  61  92 127 165 217 258 321 382
#     4  10  20  32  67  95 120 170 210 270 314 380
#
# _framework density 21.062059000000001
#
# number of rings (size 3 to 8) (size 9 to 14) (size 15 to 20)
#    0.000    1.000    6.250    3.000    1.750    0.000 
#    0.000    0.000    0.000   25.500    0.000    0.000 
#    0.000    0.000    0.000    0.000    0.000    0.000 
#
# Total GULP energy -89195.878232 kJ/mol
# GULP energy per Si atom -5574.742390 kJ/mol
# Density = 2.101412 g / cm^3
# Si number density = 21.062059 Si / 1000 Ang^3
#
#
#
# Elastic Constant Matrix: (Units=GPa)
#
#
# Indices 1 2 3 4 5 6 
#
# 1 116.2386 9.8652 9.3082 -0.0001 -12.1072 0.0000
# 2 9.8652 81.7707 31.0052 -0.0001 -18.2146 0.0000
# 3 9.3082 31.0052 86.2288 -0.0001 -15.4992 0.0000
# 4 -0.0001 -0.0001 -0.0001 22.8814 0.0001 -3.3715
# 5 -12.1072 -18.2146 -15.4992 0.0001 39.8217 0.0000
# 6 0.0000 0.0000 0.0000 -3.3715 0.0000 19.9912
#
#
#
# Elastic Compliance Matrix: (Units=1/GPa)
#
#
# Indices 1 2 3 4 5 6 
#
# 1 0.008916 -0.000398 -0.000392 0.000000 0.002376 0.000000
# 2 -0.000398 0.015099 -0.004480 0.000000 0.005042 0.000000
# 3 -0.000392 -0.004480 0.013828 0.000000 0.003214 0.000000
# 4 0.000000 0.000000 0.000000 0.044817 0.000000 0.007558
# 5 0.002376 0.005042 0.003214 0.000000 0.029391 0.000000
# 6 0.000000 0.000000 0.000000 0.007558 0.000000 0.051297
#
#
# Mechanical properties :
#
#
# Convention : Reuss Voigt Hill
#
# Bulk Modulus (GPa) = 36.62640 42.73282 39.67961
# Shear Modulus (GPa) = 27.32407 32.14281 29.73344
#
# Velocity S-wave (km/s) = 3.60573 3.91077 3.76134
# Velocity P-wave (km/s) = 5.89598 6.38163 6.14361
#
# Compressibility (1/GPa) = 0.02730271
#
# Stress axis : x y z
#
# Youngs Moduli (GPa) = 112.16239 66.22928 72.31754
#
# Poissons Ratio (x) = 0.02633 0.02838
# Poissons Ratio (y) = 0.04459 0.32398
# Poissons Ratio (z) = 0.04401 0.29671
#
# Static dielectric constant tensor:
#      x y z
#    x 1.809530 0.000000 -0.018230 
#    y 0.000000 1.739730 0.000000 
#    z -0.018230 0.000000 1.850960 
# 
# From -- ./inp_files/11827.got.cif
#   From: 2010.05.17/outbox.cif.g08.bks.cpg/sg9_6_cif.got.tgz:11827.got - 2010.06.03 20:04:27.
