data_PCOD9134276
_publ_section_title
;
Structure prediction by ZEFSAII (Michael W. Deem and Ramdas Pophale) SiO2 
 PCOD9134276
Probable space group: C C
;
_chemical_formula_sum "Si O2"
_cell_formula_units_Z 28
_cell_length_a 8.941472
_cell_length_b 24.215860
_cell_length_c 5.385607
_cell_angle_alpha 90.000000
_cell_angle_beta 105.937191
_cell_angle_gamma 90.000000
_cell_volume 1121.299030
_symmetry_space_group_name_H-M "C C"
_symmetry_group_IT_number 9
_symmetry_cell_setting 'monoclinic'
loop_
_space_group_symop_operation_xyz
x,y,z
x,-y,1/2+z
1/2+x,1/2+y,z
1/2+x,1/2-y,1/2+z
loop_
_atom_site_type_symbol
_atom_site_label
_atom_site_fract_x
_atom_site_fract_y
_atom_site_fract_z
Si Si1 0.193140 0.633833 0.915640
Si Si2 0.321270 0.488121 0.422176
Si Si3 0.190120 0.963368 0.799472
Si Si4 0.654266 0.816187 0.892838
Si Si5 0.493953 0.030989 0.264077
Si Si6 0.046233 0.848416 0.629108
Si Si7 0.029302 0.201874 0.625015
O O1 0.242417 0.571242 0.883737
O O2 0.107713 0.660589 0.641703
O O3 0.118164 0.641548 0.150888
O O4 0.361404 0.662593 0.022173
O O5 0.411134 0.503069 0.710465
O O6 0.181118 0.532827 0.363092
O O7 0.358209 0.932009 0.815845
O O8 0.074184 0.911575 0.718095
O O9 0.189880 0.006863 0.567458
O O10 0.571645 0.760874 0.760566
O O11 0.842177 0.806552 0.007684
O O12 0.469183 0.981785 0.462378
O O13 0.097974 0.838742 0.369297
O O14 0.100324 0.810362 0.884148
#
# Coordination Sequence:
#
# PCOD9134276 Si02
#       7
#     4   4   4   4   4   4   4
#     4  10  21  36  57  82 111 148 188 230 278 335
#     4  10  19  33  52  76 109 147 182 221 268 322
#     4  10  19  33  52  76 109 147 182 221 268 322
#     4  10  21  40  61  84 113 144 186 238 288 336
#     4   8  16  30  46  66 100 140 172 214 262 304
#     4  10  21  36  57  82 111 148 188 230 278 335
#     4  10  21  40  61  84 113 144 186 238 288 336
#
# _framework density 24.971039000000001
#
# number of rings (size 3 to 8) (size 9 to 14) (size 15 to 20)
#    0.000    2.286    0.000    2.571    0.000    1.143 
#    0.000   12.857    0.000    0.000    0.000    0.000 
#    0.000    0.000    0.000    0.000    0.000    0.000 
#
# Total GULP energy -77976.453044 kJ/mol
# GULP energy per Si atom -5569.746646 kJ/mol
# Density = 2.491420 g / cm^3
# Si number density = 24.971039 Si / 1000 Ang^3
#
#
#
# Elastic Constant Matrix: (Units=GPa)
#
#
# Indices 1 2 3 4 5 6 
#
# 1 45.9906 -14.6074 33.6607 0.0000 -5.5111 0.0000
# 2 -14.6074 92.0000 69.0458 0.0000 -5.4610 0.0000
# 3 33.6607 69.0458 256.1606 0.0000 -21.1141 0.0000
# 4 0.0000 0.0000 0.0000 47.2482 0.0000 4.6014
# 5 -5.5111 -5.4610 -21.1141 0.0000 35.2254 0.0000
# 6 0.0000 0.0000 0.0000 4.6014 0.0000 22.8170
#
#
#
# Elastic Compliance Matrix: (Units=1/GPa)
#
#
# Indices 1 2 3 4 5 6 
#
# 1 0.029661 0.009563 -0.006281 0.000000 0.002358 0.000000
# 2 0.009563 0.016710 -0.005706 0.000000 0.000667 0.000000
# 3 -0.006281 -0.005706 0.006431 0.000000 0.001987 0.000000
# 4 0.000000 0.000000 0.000000 0.021589 0.000000 -0.004354
# 5 0.002358 0.000667 0.001987 0.000000 0.030052 0.000000
# 6 0.000000 0.000000 0.000000 -0.004354 0.000000 0.044705
#
#
# Mechanical properties :
#
#
# Convention : Reuss Voigt Hill
#
# Bulk Modulus (GPa) = 20.85316 63.37214 42.11265
# Shear Modulus (GPa) = 29.41551 41.46160 35.43856
#
# Velocity S-wave (km/s) = 3.43590 4.07921 3.77130
# Velocity P-wave (km/s) = 4.91016 6.90072 5.98872
#
# Compressibility (1/GPa) = 0.04795436
#
# Stress axis : x y z
#
# Youngs Moduli (GPa) = 33.71483 59.84594 155.50074
#
# Poissons Ratio (x) = -0.57231 0.97667
# Poissons Ratio (y) = -0.32242 0.88722
# Poissons Ratio (z) = 0.21176 0.34146
#
# Static dielectric constant tensor:
#      x y z
#    x 2.190250 0.000000 0.094720 
#    y 0.000000 2.169540 0.000000 
#    z 0.094720 0.000000 2.122470 
# 
# From -- ./inp_files/1706.got.cif
#   From: 2010.05.17/outbox.cif.g08.bks.cpg/sg9_1_cif.got.tgz:1706.got - 2010.06.03 20:04:27.
