data_PCOD9134612
_publ_section_title
;
Structure prediction by ZEFSAII (Michael W. Deem and Ramdas Pophale) SiO2 
 PCOD9134612
Probable space group: C C
;
_chemical_formula_sum "Si O2"
_cell_formula_units_Z 32
_cell_length_a 16.134493
_cell_length_b 11.435044
_cell_length_c 12.959098
_cell_angle_alpha 90.000000
_cell_angle_beta 146.803105
_cell_angle_gamma 90.000000
_cell_volume 1309.080159
_symmetry_space_group_name_H-M "C C"
_symmetry_group_IT_number 9
_symmetry_cell_setting 'monoclinic'
loop_
_space_group_symop_operation_xyz
x,y,z
x,-y,1/2+z
1/2+x,1/2+y,z
1/2+x,1/2-y,1/2+z
loop_
_atom_site_type_symbol
_atom_site_label
_atom_site_fract_x
_atom_site_fract_y
_atom_site_fract_z
Si Si1 0.450810 0.832264 0.828580
Si Si2 0.667935 0.271459 0.409483
Si Si3 0.293075 0.000990 0.790916
Si Si4 0.189808 0.157039 0.355854
Si Si5 0.828849 0.087198 0.270392
Si Si6 0.627917 0.265129 0.141939
Si Si7 0.861205 0.151964 0.918148
Si Si8 0.065181 0.003421 0.380132
O O1 0.335740 0.812367 0.613593
O O2 0.428347 0.956488 0.860171
O O3 0.610823 0.806968 0.944852
O O4 0.402265 0.739104 0.865753
O O5 0.641194 0.214981 0.271340
O O6 0.572597 0.393181 0.312691
O O7 0.292833 0.932572 0.898027
O O8 0.257562 0.134377 0.774120
O O9 0.146119 0.959021 0.570080
O O10 0.245376 0.282574 0.374812
O O11 0.174173 0.108747 0.455389
O O12 0.017868 0.138247 0.141505
O O13 0.680045 0.165841 0.117321
O O14 0.970260 0.168895 0.456881
O O15 0.897380 0.042948 0.233323
O O16 0.811072 0.973137 0.323105
#
# Coordination Sequence:
#
# PCOD9134612 Si02
#       8
#     4   4   4   4   4   4   4   4
#     4  10  20  35  63  91 120 158 212 259 300 365
#     4  11  19  36  62  92 117 162 215 246 305 367
#     4   9  19  37  59  90 126 158 203 252 314 355
#     4  11  21  38  69  92 123 161 212 257 315 366
#     4  11  23  43  61  87 132 165 207 252 321 369
#     4  11  22  41  62  88 127 169 199 261 313 373
#     4  11  21  42  60  95 125 164 203 265 313 367
#     4  10  19  38  64  87 120 171 199 246 309 380
#
# _framework density 24.444645000000001
#
# number of rings (size 3 to 8) (size 9 to 14) (size 15 to 20)
#    0.000    1.500    5.000    2.250    0.000    2.000 
#    6.750    1.250    0.000    0.000    0.000    0.000 
#    0.000    0.000    0.000    0.000    0.000    0.000 
#
# Total GULP energy -89401.249268 kJ/mol
# GULP energy per Si atom -5587.578079 kJ/mol
# Density = 2.438901 g / cm^3
# Si number density = 24.444645 Si / 1000 Ang^3
#
#
#
# Elastic Constant Matrix: (Units=GPa)
#
#
# Indices 1 2 3 4 5 6 
#
# 1 93.2901 30.4253 0.4446 0.0000 12.4562 0.0000
# 2 30.4253 103.5811 2.1752 0.0000 29.6643 0.0000
# 3 0.4446 2.1752 35.0131 0.0000 -0.6992 0.0000
# 4 0.0000 0.0000 0.0000 28.6567 0.0000 12.0096
# 5 12.4562 29.6643 -0.6992 0.0000 21.7183 0.0000
# 6 0.0000 0.0000 0.0000 12.0096 0.0000 51.0838
#
#
#
# Elastic Compliance Matrix: (Units=1/GPa)
#
#
# Indices 1 2 3 4 5 6 
#
# 1 0.012006 -0.002550 -0.000062 0.000000 -0.003405 0.000000
# 2 -0.002550 0.016469 -0.001412 0.000000 -0.021078 0.000000
# 3 -0.000062 -0.001412 0.028707 0.000000 0.002888 0.000000
# 4 0.000000 0.000000 0.000000 0.038710 0.000000 -0.009101
# 5 -0.003405 -0.021078 0.002888 0.000000 0.076879 0.000000
# 6 0.000000 0.000000 0.000000 -0.009101 0.000000 0.021715
#
#
# Mechanical properties :
#
#
# Convention : Reuss Voigt Hill
#
# Bulk Modulus (GPa) = 20.35235 33.10826 26.73031
# Shear Modulus (GPa) = 22.84020 33.54770 28.19395
#
# Velocity S-wave (km/s) = 3.06005 3.70860 3.39983
# Velocity P-wave (km/s) = 4.56390 5.64906 5.13523
#
# Compressibility (1/GPa) = 0.04913438
#
# Stress axis : x y z
#
# Youngs Moduli (GPa) = 83.29277 60.71854 34.83479
#
# Poissons Ratio (x) = 0.15484 0.00216
# Poissons Ratio (y) = 0.21241 0.04918
# Poissons Ratio (z) = 0.00517 0.08572
#
# Static dielectric constant tensor:
#      x y z
#    x 1.997700 0.000000 0.011940 
#    y 0.000000 1.979320 0.000000 
#    z 0.011940 0.000000 1.932830 
# 
# From -- ./inp_files/9073.got.cif
#   From: 2010.05.17/outbox.cif.g08.bks.cpg/sg9_5_cif.got.tgz:9073.got - 2010.06.03 20:04:27.
