data_PCOD9134959
_publ_section_title
;
Structure prediction by ZEFSAII (Michael W. Deem and Ramdas Pophale) SiO2 
 PCOD9134959
Probable space group: C C
;
_chemical_formula_sum "Si O2"
_cell_formula_units_Z 28
_cell_length_a 10.720834
_cell_length_b 8.699871
_cell_length_c 19.967757
_cell_angle_alpha 90.000000
_cell_angle_beta 151.036295
_cell_angle_gamma 90.000000
_cell_volume 901.872639
_symmetry_space_group_name_H-M "C C"
_symmetry_group_IT_number 9
_symmetry_cell_setting 'monoclinic'
loop_
_space_group_symop_operation_xyz
x,y,z
x,-y,1/2+z
1/2+x,1/2+y,z
1/2+x,1/2-y,1/2+z
loop_
_atom_site_type_symbol
_atom_site_label
_atom_site_fract_x
_atom_site_fract_y
_atom_site_fract_z
Si Si1 0.250000 0.731587 0.594970
Si Si2 0.679364 0.816792 0.337947
Si Si3 0.889322 0.940622 0.034676
Si Si4 0.902337 0.918418 0.819043
Si Si5 0.948590 0.531901 0.630801
Si Si6 0.200593 0.319679 0.608770
Si Si7 0.249707 0.902522 0.315265
O O1 0.242314 0.674135 0.514879
O O2 0.358138 0.904233 0.644780
O O3 0.488738 0.629398 0.737471
O O4 0.957784 0.736092 0.479601
O O5 0.411968 0.795961 0.156050
O O6 0.704022 0.942282 0.410323
O O7 0.758667 0.939089 0.306430
O O8 0.028555 0.825412 0.049628
O O9 0.119592 0.002296 0.193749
O O10 0.628322 0.950981 0.649485
O O11 0.981500 0.821298 0.780604
O O12 0.808692 0.763450 0.812404
O O13 0.188424 0.962206 0.967247
O O14 0.027642 0.425619 0.479155
#
# Coordination Sequence:
#
# PCOD9134959 Si02
#       7
#     4   4   4   4   4   4   4
#     4   9  20  37  61  94 135 162 218 293 326 403
#     4  12  21  35  72 103 121 173 241 275 341 415
#     4   9  21  38  62  98 135 172 222 278 349 412
#     4  10  20  35  62  91 121 166 221 268 336 410
#     4  11  18  36  62  93 122 166 222 273 324 421
#     4  11  20  37  66  93 131 178 218 278 355 405
#     4   8  18  38  61  88 137 169 206 279 347 398
#
# _framework density 31.046512
#
# number of rings (size 3 to 8) (size 9 to 14) (size 15 to 20)
#    0.857    1.143    4.286    2.571    0.000    0.000 
#    0.000    5.714    9.429    0.000    0.000    0.000 
#    0.000    0.000    0.000    0.000    0.000    0.000 
#
# Total GULP energy -78028.703845 kJ/mol
# GULP energy per Si atom -5573.478846 kJ/mol
# Density = 3.097585 g / cm^3
# Si number density = 31.046512 Si / 1000 Ang^3
#
#
#
# Elastic Constant Matrix: (Units=GPa)
#
#
# Indices 1 2 3 4 5 6 
#
# 1 133.8210 55.5350 104.3775 0.0012 37.8917 0.0003
# 2 55.5350 168.8897 92.3586 0.0024 2.1122 -0.0001
# 3 104.3775 92.3586 373.8115 0.0121 31.4760 0.0023
# 4 0.0012 0.0024 0.0121 41.3027 0.0015 2.3688
# 5 37.8917 2.1122 31.4760 0.0015 96.4350 0.0002
# 6 0.0003 -0.0001 0.0023 2.3688 0.0002 63.1866
#
#
#
# Elastic Compliance Matrix: (Units=1/GPa)
#
#
# Indices 1 2 3 4 5 6 
#
# 1 0.011257 -0.002434 -0.002235 0.000001 -0.003640 0.000000
# 2 -0.002434 0.007388 -0.001247 0.000000 0.001201 0.000000
# 3 -0.002235 -0.001247 0.003631 -0.000001 -0.000279 0.000000
# 4 0.000001 0.000000 -0.000001 0.024264 0.000000 -0.000910
# 5 -0.003640 0.001201 -0.000279 0.000000 0.011865 0.000000
# 6 0.000000 0.000000 0.000000 -0.000910 0.000000 0.015860
#
#
# Mechanical properties :
#
#
# Convention : Reuss Voigt Hill
#
# Bulk Modulus (GPa) = 95.74918 131.22937 113.48927
# Shear Modulus (GPa) = 55.81710 68.46825 62.14267
#
# Velocity S-wave (km/s) = 4.24471 4.70120 4.47878
# Velocity P-wave (km/s) = 7.41154 8.47519 7.96115
#
# Compressibility (1/GPa) = 0.01044395
#
# Stress axis : x y z
#
# Youngs Moduli (GPa) = 88.83446 135.35129 275.40758
#
# Poissons Ratio (x) = 0.32938 0.61565
# Poissons Ratio (y) = 0.21618 0.34345
# Poissons Ratio (z) = 0.19858 0.16879
#
# Static dielectric constant tensor:
#      x y z
#    x 3.236470 0.000000 -0.073650 
#    y 0.000000 2.752650 0.000000 
#    z -0.073650 0.000000 2.269600 
# 
# From -- ./inp_files/36749.got.cif
#   From: 2010.05.17/outbox.cif.g08.bks.cpg/sg9_19_cif.got.tgz:36749.got - 2010.06.03 20:04:27.
