data_PCOD9134102
_publ_section_title
;
Structure prediction by ZEFSAII (Michael W. Deem and Ramdas Pophale) SiO2 
 PCOD9134102
Probable space group: C C
;
_chemical_formula_sum "Si O2"
_cell_formula_units_Z 28
_cell_length_a 24.711178
_cell_length_b 6.992706
_cell_length_c 18.082832
_cell_angle_alpha 90.000000
_cell_angle_beta 160.579863
_cell_angle_gamma 90.000000
_cell_volume 1038.932106
_symmetry_space_group_name_H-M "C C"
_symmetry_group_IT_number 9
_symmetry_cell_setting 'monoclinic'
loop_
_space_group_symop_operation_xyz
x,y,z
x,-y,1/2+z
1/2+x,1/2+y,z
1/2+x,1/2-y,1/2+z
loop_
_atom_site_type_symbol
_atom_site_label
_atom_site_fract_x
_atom_site_fract_y
_atom_site_fract_z
Si Si1 0.762190 0.293911 0.504870
Si Si2 0.921303 0.220022 0.930818
Si Si3 0.600047 0.625984 0.940500
Si Si4 0.849719 0.227344 0.306986
Si Si5 0.287387 0.290984 0.406330
Si Si6 0.209127 0.715912 0.278141
Si Si7 0.315029 0.366826 0.602698
O O1 0.649951 0.397924 0.419240
O O2 0.721851 0.341138 0.368307
O O3 0.959372 0.290704 0.768713
O O4 0.720482 0.067529 0.467615
O O5 0.772635 0.326652 0.699183
O O6 0.913149 0.277591 0.006894
O O7 0.879259 0.998026 0.861703
O O8 0.105937 0.246329 0.143722
O O9 0.501082 0.446659 0.845562
O O10 0.775335 0.298721 0.287814
O O11 0.772557 0.226614 0.125962
O O12 0.022144 0.330089 0.522729
O O13 0.300250 0.521877 0.417870
O O14 0.306033 0.243532 0.516560
#
# Coordination Sequence:
#
# PCOD9134102 Si02
#       7
#     4   4   4   4   4   4   4
#     4   9  18  35  61  91 119 162 213 257 294 375
#     4  11  21  39  66  91 124 163 211 260 312 373
#     4  10  18  36  64  91 120 165 211 258 296 378
#     4  11  22  41  61  91 126 165 209 258 314 378
#     4  10  23  41  61  92 124 166 208 260 313 377
#     4  10  23  38  64  89 129 162 208 261 315 371
#     4   9  21  38  63  87 130 161 206 258 314 378
#
# _framework density 26.950752000000001
#
# number of rings (size 3 to 8) (size 9 to 14) (size 15 to 20)
#    0.857    1.143    1.429    2.571    2.000    3.429 
#    0.000    0.000    6.286    0.000    0.000    0.000 
#    0.000    0.000    0.000    0.000    0.000    0.000 
#
# Total GULP energy -78313.221988 kJ/mol
# GULP energy per Si atom -5593.801571 kJ/mol
# Density = 2.688941 g / cm^3
# Si number density = 26.950752 Si / 1000 Ang^3
#
#
#
# Elastic Constant Matrix: (Units=GPa)
#
#
# Indices 1 2 3 4 5 6 
#
# 1 198.9381 13.5403 12.2279 0.0000 -3.7304 0.0000
# 2 13.5403 73.2705 15.9119 0.0000 -8.5576 0.0000
# 3 12.2279 15.9119 87.5793 0.0000 1.5427 0.0000
# 4 0.0000 0.0000 0.0000 32.9238 0.0000 -2.7245
# 5 -3.7304 -8.5576 1.5427 0.0000 53.5693 0.0000
# 6 0.0000 0.0000 0.0000 -2.7245 0.0000 19.9466
#
#
#
# Elastic Compliance Matrix: (Units=1/GPa)
#
#
# Indices 1 2 3 4 5 6 
#
# 1 0.005121 -0.000793 -0.000575 0.000000 0.000247 0.000000
# 2 -0.000793 0.014632 -0.002589 0.000000 0.002357 0.000000
# 3 -0.000575 -0.002589 0.011983 0.000000 -0.000799 0.000000
# 4 0.000000 0.000000 0.000000 0.030720 0.000000 0.004196
# 5 0.000247 0.002357 -0.000799 0.000000 0.019084 0.000000
# 6 0.000000 0.000000 0.000000 0.004196 0.000000 0.050707
#
#
# Mechanical properties :
#
#
# Convention : Reuss Voigt Hill
#
# Bulk Modulus (GPa) = 41.97893 49.23868 45.60881
# Shear Modulus (GPa) = 33.76048 42.49511 38.12779
#
# Velocity S-wave (km/s) = 3.54315 3.97516 3.76536
# Velocity P-wave (km/s) = 5.68758 6.27525 5.98863
#
# Compressibility (1/GPa) = 0.02382148
#
# Stress axis : x y z
#
# Youngs Moduli (GPa) = 195.28900 68.34287 83.45117
#
# Poissons Ratio (x) = 0.05417 0.04801
# Poissons Ratio (y) = 0.15478 0.21608
# Poissons Ratio (z) = 0.11235 0.17696
#
# Static dielectric constant tensor:
#      x y z
#    x 2.083470 0.000000 -0.039040 
#    y 0.000000 2.154100 0.000000 
#    z -0.039040 0.000000 2.052630 
# 
# From -- ./inp_files/20697.got.cif
#   From: 2010.05.17/outbox.cif.g08.bks.cpg/sg9_11_cif.got.tgz:20697.got - 2010.06.03 20:04:27.
