data_PCOD9134896
_publ_section_title
;
Structure prediction by ZEFSAII (Michael W. Deem and Ramdas Pophale) SiO2 
 PCOD9134896
Probable space group: C C
;
_chemical_formula_sum "Si O2"
_cell_formula_units_Z 32
_cell_length_a 8.757063
_cell_length_b 11.634426
_cell_length_c 18.210681
_cell_angle_alpha 90.000000
_cell_angle_beta 41.517594
_cell_angle_gamma 90.000000
_cell_volume 1229.829437
_symmetry_space_group_name_H-M "C C"
_symmetry_group_IT_number 9
_symmetry_cell_setting 'monoclinic'
loop_
_space_group_symop_operation_xyz
x,y,z
x,-y,1/2+z
1/2+x,1/2+y,z
1/2+x,1/2-y,1/2+z
loop_
_atom_site_type_symbol
_atom_site_label
_atom_site_fract_x
_atom_site_fract_y
_atom_site_fract_z
Si Si1 0.324900 0.667002 0.201130
Si Si2 0.708111 0.800194 0.529560
Si Si3 0.134385 0.763054 0.457202
Si Si4 0.633767 0.190388 0.818500
Si Si5 0.888699 0.385150 0.780362
Si Si6 0.529748 0.872065 0.201323
Si Si7 0.568557 0.970476 0.029160
Si Si8 0.070361 0.068329 0.645980
O O1 0.435081 0.730713 0.091726
O O2 0.390271 0.754918 0.240759
O O3 0.459585 0.547618 0.154931
O O4 0.054689 0.646479 0.288002
O O5 0.541877 0.845994 0.655079
O O6 0.663580 0.662627 0.552791
O O7 0.976912 0.816142 0.450102
O O8 0.639192 0.896032 0.494219
O O9 0.358306 0.825081 0.411510
O O10 0.176295 0.625080 0.435889
O O11 0.661851 0.312464 0.848921
O O12 0.690334 0.165844 0.711015
O O13 0.855339 0.121511 0.769269
O O14 0.874493 0.520942 0.782554
O O15 0.632143 0.921485 0.088260
O O16 0.292362 0.964780 0.115150
#
# Coordination Sequence:
#
# PCOD9134896 Si02
#       8
#     4   4   4   4   4   4   4   4
#     4  10  20  38  61  84 118 160 206 237 292 373
#     4   8  17  35  61  81 112 159 197 238 290 360
#     4   9  20  37  57  86 122 154 194 257 311 341
#     4  11  21  36  60  87 122 156 196 261 309 341
#     4   9  19  36  56  84 112 152 202 240 287 356
#     4  10  20  34  59  87 107 159 205 232 292 365
#     4   9  19  38  62  83 115 160 208 246 289 369
#     4  10  20  34  62  90 116 158 208 245 296 363
#
# _framework density 26.019867999999999
#
# number of rings (size 3 to 8) (size 9 to 14) (size 15 to 20)
#    0.000    2.500    1.250    2.250    5.250    1.000 
#    0.000    2.500    5.500    0.000    0.000    0.000 
#    0.000    0.000    0.000    0.000    0.000    0.000 
#
# Total GULP energy -89075.953034 kJ/mol
# GULP energy per Si atom -5567.247065 kJ/mol
# Density = 2.596065 g / cm^3
# Si number density = 26.019868 Si / 1000 Ang^3
#
#
#
# Elastic Constant Matrix: (Units=GPa)
#
#
# Indices 1 2 3 4 5 6 
#
# 1 91.6458 53.9510 38.2021 -0.0001 -29.5928 0.0001
# 2 53.9510 190.0442 8.0327 -0.0001 -13.9289 0.0000
# 3 38.2021 8.0327 75.8886 -0.0005 -31.0112 0.0003
# 4 -0.0001 -0.0001 -0.0005 20.2139 0.0001 -5.2146
# 5 -29.5928 -13.9289 -31.0112 0.0001 37.9564 -0.0002
# 6 0.0001 0.0000 0.0003 -5.2146 -0.0002 46.2151
#
#
#
# Elastic Compliance Matrix: (Units=1/GPa)
#
#
# Indices 1 2 3 4 5 6 
#
# 1 0.018453 -0.004398 -0.005410 0.000000 0.008353 0.000000
# 2 -0.004398 0.006462 0.001648 0.000000 0.000289 0.000000
# 3 -0.005410 0.001648 0.021392 0.000000 0.013864 0.000000
# 4 0.000000 0.000000 0.000000 0.050954 0.000000 0.005749
# 5 0.008353 0.000289 0.013864 0.000000 0.044291 0.000000
# 6 0.000000 0.000000 0.000000 0.005749 0.000000 0.022287
#
#
# Mechanical properties :
#
#
# Convention : Reuss Voigt Hill
#
# Bulk Modulus (GPa) = 33.34868 61.99448 47.67158
# Shear Modulus (GPa) = 26.29444 38.03661 32.16553
#
# Velocity S-wave (km/s) = 3.18237 3.82754 3.51977
# Velocity P-wave (km/s) = 5.13300 6.58870 5.90587
#
# Compressibility (1/GPa) = 0.02998619
#
# Stress axis : x y z
#
# Youngs Moduli (GPa) = 54.19235 154.75333 46.74691
#
# Poissons Ratio (x) = 0.68055 0.25292
# Poissons Ratio (y) = 0.23832 -0.07703
# Poissons Ratio (z) = 0.29320 -0.25502
#
# Static dielectric constant tensor:
#      x y z
#    x 2.135510 0.000000 0.130170 
#    y 0.000000 2.228950 0.000000 
#    z 0.130170 0.000000 2.143770 
# 
# From -- ./inp_files/29248.got.cif
#   From: 2010.05.17/outbox.cif.g08.bks.cpg/sg9_15_cif.got.tgz:29248.got - 2010.06.03 20:04:27.
