data_PCOD9134975
_publ_section_title
;
Structure prediction by ZEFSAII (Michael W. Deem and Ramdas Pophale) SiO2 
 PCOD9134975
Probable space group: C C
;
_chemical_formula_sum "Si O2"
_cell_formula_units_Z 32
_cell_length_a 13.048902
_cell_length_b 12.650159
_cell_length_c 8.528561
_cell_angle_alpha 90.000000
_cell_angle_beta 103.770956
_cell_angle_gamma 90.000000
_cell_volume 1367.347853
_symmetry_space_group_name_H-M "C C"
_symmetry_group_IT_number 9
_symmetry_cell_setting 'monoclinic'
loop_
_space_group_symop_operation_xyz
x,y,z
x,-y,1/2+z
1/2+x,1/2+y,z
1/2+x,1/2-y,1/2+z
loop_
_atom_site_type_symbol
_atom_site_label
_atom_site_fract_x
_atom_site_fract_y
_atom_site_fract_z
Si Si1 0.721110 0.322492 0.156920
Si Si2 0.128729 0.435439 0.052324
Si Si3 0.557867 0.145959 0.210317
Si Si4 0.847989 0.921893 0.978780
Si Si5 0.483510 0.557519 0.811300
Si Si6 0.659073 0.244166 0.816258
Si Si7 0.425619 0.215669 0.884628
Si Si8 0.125277 0.942606 0.630444
O O1 0.639814 0.245420 0.223260
O O2 0.836216 0.352300 0.266365
O O3 0.666838 0.438452 0.113513
O O4 0.728730 0.257297 0.997214
O O5 0.097107 0.542978 0.126943
O O6 0.233310 0.452557 0.988904
O O7 0.161182 0.352494 0.197894
O O8 0.049292 0.387816 0.890409
O O9 0.455521 0.175271 0.068892
O O10 0.917660 0.886977 0.153464
O O11 0.860109 0.824346 0.868080
O O12 0.901435 0.017266 0.908499
O O13 0.538323 0.463414 0.733973
O O14 0.575727 0.602661 0.952597
O O15 0.537416 0.235279 0.838882
O O16 0.690406 0.348299 0.728267
#
# Coordination Sequence:
#
# PCOD9134975 Si02
#       8
#     4   4   4   4   4   4   4   4
#     4  11  24  46  70 100 144 184 234 291 353 424
#     4  12  26  45  71 102 140 191 235 295 352 419
#     4  11  24  47  71  98 145 182 236 294 354 418
#     4  11  22  40  66 109 126 184 235 292 343 414
#     4  10  20  35  67  97 135 166 227 284 346 397
#     4  11  25  45  69  99 141 188 235 290 349 417
#     4  11  24  47  69  99 143 192 232 288 358 421
#     4  11  21  41  67 102 138 179 216 294 353 404
#
# _framework density 23.402968000000001
#
# number of rings (size 3 to 8) (size 9 to 14) (size 15 to 20)
#    0.000    1.000    3.750    4.500    3.500    1.000 
#    4.500    0.000    0.000    0.000    0.000    0.000 
#    0.000    0.000    0.000    0.000    0.000    0.000 
#
# Total GULP energy -89217.107531 kJ/mol
# GULP energy per Si atom -5576.069221 kJ/mol
# Density = 2.334970 g / cm^3
# Si number density = 23.402968 Si / 1000 Ang^3
#
#
#
# Elastic Constant Matrix: (Units=GPa)
#
#
# Indices 1 2 3 4 5 6 
#
# 1 36.8411 6.1715 33.5504 0.0000 14.3420 0.0000
# 2 6.1715 99.5405 30.5669 0.0000 -5.8016 0.0000
# 3 33.5504 30.5669 137.2022 0.0000 9.4895 0.0000
# 4 0.0000 0.0000 0.0000 41.2714 0.0000 -9.0624
# 5 14.3420 -5.8016 9.4895 0.0000 38.5552 0.0000
# 6 0.0000 0.0000 0.0000 -9.0624 0.0000 9.8251
#
#
#
# Elastic Compliance Matrix: (Units=1/GPa)
#
#
# Indices 1 2 3 4 5 6 
#
# 1 0.040310 -0.000535 -0.008846 0.000000 -0.012898 0.000000
# 2 -0.000535 0.010987 -0.002487 0.000000 0.002464 0.000000
# 3 -0.008846 -0.002487 0.009974 0.000000 0.000461 0.000000
# 4 0.000000 0.000000 0.000000 0.030384 0.000000 0.028025
# 5 -0.012898 0.002464 0.000461 0.000000 0.030992 0.000000
# 6 0.000000 0.000000 0.000000 0.028025 0.000000 0.127630
#
#
# Mechanical properties :
#
#
# Convention : Reuss Voigt Hill
#
# Bulk Modulus (GPa) = 26.64189 46.01790 36.32989
# Shear Modulus (GPa) = 17.45055 31.48332 24.46693
#
# Velocity S-wave (km/s) = 2.73363 3.67177 3.23687
# Velocity P-wave (km/s) = 4.62302 6.13855 5.43388
#
# Compressibility (1/GPa) = 0.03753487
#
# Stress axis : x y z
#
# Youngs Moduli (GPa) = 24.80772 91.01851 100.26184
#
# Poissons Ratio (x) = 0.04865 0.88691
# Poissons Ratio (y) = 0.01326 0.24940
# Poissons Ratio (z) = 0.21945 0.22640
#
# Static dielectric constant tensor:
#      x y z
#    x 1.932540 0.000000 0.061540 
#    y 0.000000 1.957390 0.000000 
#    z 0.061540 0.000000 1.972090 
# 
# From -- ./inp_files/9086.got.cif
#   From: 2010.05.17/outbox.cif.g08.bks.cpg/sg9_5_cif.got.tgz:9086.got - 2010.06.03 20:04:27.
