data_PCOD9134923
_publ_section_title
;
Structure prediction by ZEFSAII (Michael W. Deem and Ramdas Pophale) SiO2 
 PCOD9134923
Probable space group: C C
;
_chemical_formula_sum "Si O2"
_cell_formula_units_Z 32
_cell_length_a 24.112938
_cell_length_b 7.709187
_cell_length_c 9.790669
_cell_angle_alpha 90.000000
_cell_angle_beta 53.836668
_cell_angle_gamma 90.000000
_cell_volume 1469.354332
_symmetry_space_group_name_H-M "C C"
_symmetry_group_IT_number 9
_symmetry_cell_setting 'monoclinic'
loop_
_space_group_symop_operation_xyz
x,y,z
x,-y,1/2+z
1/2+x,1/2+y,z
1/2+x,1/2-y,1/2+z
loop_
_atom_site_type_symbol
_atom_site_label
_atom_site_fract_x
_atom_site_fract_y
_atom_site_fract_z
Si Si1 0.353030 0.605008 0.705640
Si Si2 0.456655 0.857784 0.234300
Si Si3 0.684693 0.105002 0.739799
Si Si4 0.717489 0.206355 0.996486
Si Si5 0.081068 0.857788 0.211123
Si Si6 0.001659 0.024249 0.565926
Si Si7 0.036064 0.524246 0.879497
Si Si8 0.820233 0.793648 0.948952
O O1 0.297515 0.738488 0.849517
O O2 0.431462 0.625388 0.635919
O O3 0.328642 0.422005 0.807691
O O4 0.345844 0.610936 0.552305
O O5 0.477293 0.664213 0.156434
O O6 0.374099 0.861306 0.353940
O O7 0.489041 0.891553 0.333700
O O8 0.492453 0.987724 0.077694
O O9 0.691879 0.110935 0.893133
O O10 0.740207 0.238482 0.595921
O O11 0.709081 0.921998 0.637749
O O12 0.606261 0.125379 0.809517
O O13 0.663624 0.361310 0.091494
O O14 0.060429 0.664217 0.288989
O O15 0.048686 0.891557 0.111712
O O16 0.045266 0.987728 0.367729
#
# Coordination Sequence:
#
# PCOD9134923 Si02
#       8
#     4   4   4   4   4   4   4   4
#     4   9  17  32  54  78 108 144 184 224 272 331
#     4  10  21  35  55  85 115 145 188 234 280 332
#     4   9  17  32  54  78 108 144 184 224 272 331
#     4   9  18  32  53  82 110 139 185 235 273 323
#     4  10  21  35  55  85 115 145 188 234 280 332
#     4  10  20  35  56  83 113 146 187 234 279 332
#     4  10  20  35  56  83 113 146 187 234 279 332
#     4   9  18  32  53  82 110 139 185 235 273 323
#
# _framework density 21.778272999999999
#
# number of rings (size 3 to 8) (size 9 to 14) (size 15 to 20)
#    0.000    2.500    0.000    3.000    0.000    4.000 
#    0.000    0.000    0.000   13.500    0.000    0.000 
#    0.000    0.000    0.000    0.000    0.000    0.000 
#
# Total GULP energy -89338.168162 kJ/mol
# GULP energy per Si atom -5583.635510 kJ/mol
# Density = 2.172871 g / cm^3
# Si number density = 21.778273 Si / 1000 Ang^3
#
#
#
# Elastic Constant Matrix: (Units=GPa)
#
#
# Indices 1 2 3 4 5 6 
#
# 1 143.4629 40.2365 67.0538 0.0000 -35.1067 0.0000
# 2 40.2365 37.3325 26.0642 0.0000 -11.4081 0.0000
# 3 67.0538 26.0642 132.9965 0.0000 -18.4019 0.0000
# 4 0.0000 0.0000 0.0000 10.7639 0.0000 6.0153
# 5 -35.1067 -11.4081 -18.4019 0.0000 43.0257 0.0000
# 6 0.0000 0.0000 0.0000 6.0153 0.0000 33.4652
#
#
#
# Elastic Compliance Matrix: (Units=1/GPa)
#
#
# Indices 1 2 3 4 5 6 
#
# 1 0.012945 -0.009320 -0.003806 0.000000 0.006463 0.000000
# 2 -0.009320 0.039261 -0.002771 0.000000 0.001620 0.000000
# 3 -0.003806 -0.002771 0.010044 0.000000 0.000456 0.000000
# 4 0.000000 0.000000 0.000000 0.103277 0.000000 -0.018564
# 5 0.006463 0.001620 0.000456 0.000000 0.029140 0.000000
# 6 0.000000 0.000000 0.000000 -0.018564 0.000000 0.033219
#
#
# Mechanical properties :
#
#
# Convention : Reuss Voigt Hill
#
# Bulk Modulus (GPa) = 32.83393 64.50009 48.66701
# Shear Modulus (GPa) = 18.53012 29.48012 24.00512
#
# Velocity S-wave (km/s) = 2.92010 3.68319 3.32362
# Velocity P-wave (km/s) = 5.14573 6.91150 6.09292
#
# Compressibility (1/GPa) = 0.03045630
#
# Stress axis : x y z
#
# Youngs Moduli (GPa) = 77.25175 25.47071 99.56286
#
# Poissons Ratio (x) = 0.23737 0.37891
# Poissons Ratio (y) = 0.71995 0.27592
# Poissons Ratio (z) = 0.29400 0.07059
#
# Static dielectric constant tensor:
#      x y z
#    x 1.786020 0.000000 -0.053520 
#    y 0.000000 1.794430 0.000000 
#    z -0.053520 0.000000 1.804220 
# 
# From -- ./inp_files/12065.got.cif
#   From: 2010.05.17/outbox.cif.g08.bks.cpg/sg9_7_cif.got.tgz:12065.got - 2010.06.03 20:04:27.
