data_PCOD9134782
_publ_section_title
;
Structure prediction by ZEFSAII (Michael W. Deem and Ramdas Pophale) SiO2 
 PCOD9134782
Probable space group: C C
;
_chemical_formula_sum "Si O2"
_cell_formula_units_Z 32
_cell_length_a 14.071284
_cell_length_b 6.523150
_cell_length_c 17.115454
_cell_angle_alpha 90.000000
_cell_angle_beta 124.094410
_cell_angle_gamma 90.000000
_cell_volume 1300.978692
_symmetry_space_group_name_H-M "C C"
_symmetry_group_IT_number 9
_symmetry_cell_setting 'monoclinic'
loop_
_space_group_symop_operation_xyz
x,y,z
x,-y,1/2+z
1/2+x,1/2+y,z
1/2+x,1/2-y,1/2+z
loop_
_atom_site_type_symbol
_atom_site_label
_atom_site_fract_x
_atom_site_fract_y
_atom_site_fract_z
Si Si1 0.032280 0.141482 0.031490
Si Si2 0.582309 0.536374 0.403251
Si Si3 0.977512 0.753899 0.089942
Si Si4 0.347014 0.692410 0.761679
Si Si5 0.960810 0.610432 0.783870
Si Si6 0.841332 0.942326 0.624283
Si Si7 0.125694 0.423636 0.212825
Si Si8 0.321285 0.127100 0.475821
O O1 0.080866 0.239957 0.134537
O O2 0.922299 0.288533 0.965898
O O3 0.114161 0.090848 0.996142
O O4 0.983748 0.912337 0.022440
O O5 0.471600 0.410929 0.324150
O O6 0.530613 0.767642 0.382673
O O7 0.692725 0.552847 0.397669
O O8 0.942618 0.908315 0.142059
O O9 0.883953 0.573474 0.040992
O O10 0.096569 0.637300 0.156950
O O11 0.279875 0.603440 0.653527
O O12 0.258381 0.620769 0.786830
O O13 0.378816 0.928497 0.771973
O O14 0.054447 0.556665 0.760154
O O15 0.879995 0.766584 0.700539
O O16 0.801276 0.812821 0.530039
#
# Coordination Sequence:
#
# PCOD9134782 Si02
#       8
#     4   4   4   4   4   4   4   4
#     4  10  24  42  66 105 132 176 235 284 348 417
#     4  11  28  44  65 102 145 180 226 290 363 418
#     4  10  19  41  71 101 128 172 234 288 341 403
#     4  11  26  42  70  99 140 185 235 285 359 424
#     4  11  23  47  63  97 142 181 227 293 350 422
#     4  10  19  41  67  98 127 172 231 280 341 411
#     4  11  23  41  73  98 134 180 243 290 336 426
#     4  10  22  42  67  94 140 176 229 288 342 423
#
# _framework density 24.596865000000001
#
# number of rings (size 3 to 8) (size 9 to 14) (size 15 to 20)
#    0.000    1.500    5.000    0.000    7.000    5.000 
#    0.000    0.000    0.000    0.000    0.000    0.000 
#    0.000    0.000    0.000    0.000    0.000    0.000 
#
# Total GULP energy -89099.356229 kJ/mol
# GULP energy per Si atom -5568.709764 kJ/mol
# Density = 2.454088 g / cm^3
# Si number density = 24.596865 Si / 1000 Ang^3
#
#
#
# Elastic Constant Matrix: (Units=GPa)
#
#
# Indices 1 2 3 4 5 6 
#
# 1 99.3902 34.1434 8.5970 0.0000 15.6105 0.0000
# 2 34.1434 143.9057 16.8964 0.0000 15.2053 0.0000
# 3 8.5970 16.8964 35.7489 0.0000 14.3008 0.0000
# 4 0.0000 0.0000 0.0000 28.1722 0.0000 -2.3044
# 5 15.6105 15.2053 14.3008 0.0000 34.9517 0.0000
# 6 0.0000 0.0000 0.0000 -2.3044 0.0000 32.9874
#
#
#
# Elastic Compliance Matrix: (Units=1/GPa)
#
#
# Indices 1 2 3 4 5 6 
#
# 1 0.011498 -0.002288 -0.000033 0.000000 -0.004127 0.000000
# 2 -0.002288 0.007947 -0.002668 0.000000 -0.001344 0.000000
# 3 -0.000033 -0.002668 0.034403 0.000000 -0.012901 0.000000
# 4 0.000000 0.000000 0.000000 0.035700 0.000000 0.002494
# 5 -0.004127 -0.001344 -0.012901 0.000000 0.036317 0.000000
# 6 0.000000 0.000000 0.000000 0.002494 0.000000 0.030489
#
#
# Mechanical properties :
#
#
# Convention : Reuss Voigt Hill
#
# Bulk Modulus (GPa) = 22.79507 44.25761 33.52634
# Shear Modulus (GPa) = 27.63103 33.84947 30.74025
#
# Velocity S-wave (km/s) = 3.35529 3.71370 3.53903
# Velocity P-wave (km/s) = 4.92932 6.03498 5.50995
#
# Compressibility (1/GPa) = 0.04386913
#
# Stress axis : x y z
#
# Youngs Moduli (GPa) = 86.96841 125.83080 29.06754
#
# Poissons Ratio (x) = 0.28793 0.00096
# Poissons Ratio (y) = 0.19901 0.07756
# Poissons Ratio (z) = 0.00286 0.33577
#
# Static dielectric constant tensor:
#      x y z
#    x 2.077480 0.000000 -0.087250 
#    y 0.000000 1.953210 0.000000 
#    z -0.087250 0.000000 2.120170 
# 
# From -- ./inp_files/33545.got.cif
#   From: 2010.05.17/outbox.cif.g08.bks.cpg/sg9_17_cif.got.tgz:33545.got - 2010.06.03 20:04:27.
