data_PCOD9134668
_publ_section_title
;
Structure prediction by ZEFSAII (Michael W. Deem and Ramdas Pophale) SiO2 
 PCOD9134668
Probable space group: C C
;
_chemical_formula_sum "Si O2"
_cell_formula_units_Z 32
_cell_length_a 7.039282
_cell_length_b 13.355339
_cell_length_c 16.692624
_cell_angle_alpha 90.000000
_cell_angle_beta 50.006346
_cell_angle_gamma 90.000000
_cell_volume 1202.270567
_symmetry_space_group_name_H-M "C C"
_symmetry_group_IT_number 9
_symmetry_cell_setting 'monoclinic'
loop_
_space_group_symop_operation_xyz
x,y,z
x,-y,1/2+z
1/2+x,1/2+y,z
1/2+x,1/2-y,1/2+z
loop_
_atom_site_type_symbol
_atom_site_label
_atom_site_fract_x
_atom_site_fract_y
_atom_site_fract_z
Si Si1 0.550120 0.179618 0.120290
Si Si2 0.462552 0.714064 0.287528
Si Si3 0.107036 0.881996 0.431036
Si Si4 0.388568 0.497589 0.257056
Si Si5 0.944520 0.505763 0.649097
Si Si6 0.932616 0.110557 0.467639
Si Si7 0.125431 0.873377 0.076835
Si Si8 0.938311 0.441012 0.479952
O O1 0.254387 0.222137 0.190070
O O2 0.517111 0.082452 0.189366
O O3 0.635480 0.286177 0.137544
O O4 0.803326 0.316523 0.326176
O O5 0.837487 0.834377 0.504346
O O6 0.362772 0.617140 0.265915
O O7 0.437778 0.672973 0.385724
O O8 0.063175 0.000548 0.423732
O O9 0.229564 0.884577 0.487091
O O10 0.416931 0.451809 0.161645
O O11 0.185971 0.439744 0.362790
O O12 0.658020 0.473148 0.223432
O O13 0.153080 0.584294 0.572858
O O14 0.963078 0.419242 0.567951
O O15 0.065664 0.166510 0.504763
O O16 0.364913 0.942060 0.004816
#
# Coordination Sequence:
#
# PCOD9134668 Si02
#       8
#     4   4   4   4   4   4   4   4
#     4  10  22  41  60  98 133 168 233 276 330 420
#     4  11  22  43  73  95 136 183 225 286 342 414
#     4  10  23  41  66  97 137 174 227 285 344 407
#     4  10  20  38  66  92 124 175 225 262 347 408
#     4   9  20  38  62  90 133 168 217 282 333 400
#     4  10  22  44  66  97 135 184 220 286 346 406
#     4  10  22  40  64  93 134 174 217 284 338 405
#     4  10  19  39  63  92 128 178 216 275 336 404
#
# _framework density 26.616304
#
# number of rings (size 3 to 8) (size 9 to 14) (size 15 to 20)
#    0.000    2.000    1.250    1.500    3.500    0.000 
#   31.500    0.000   11.000    0.000    0.000    0.000 
#    0.000    0.000    0.000    0.000    0.000    0.000 
#
# Total GULP energy -89133.899366 kJ/mol
# GULP energy per Si atom -5570.868710 kJ/mol
# Density = 2.655572 g / cm^3
# Si number density = 26.616304 Si / 1000 Ang^3
#
#
#
# Elastic Constant Matrix: (Units=GPa)
#
#
# Indices 1 2 3 4 5 6 
#
# 1 101.4610 17.1233 34.4343 -0.0012 -19.3702 0.0010
# 2 17.1233 93.8021 13.1003 -0.0009 -22.8230 0.0010
# 3 34.4343 13.1003 130.3971 -0.0024 -41.6184 0.0018
# 4 -0.0012 -0.0009 -0.0024 50.9232 0.0015 -12.9220
# 5 -19.3702 -22.8230 -41.6184 0.0015 48.1178 -0.0010
# 6 0.0010 0.0010 0.0018 -12.9220 -0.0010 30.4706
#
#
#
# Elastic Compliance Matrix: (Units=1/GPa)
#
#
# Indices 1 2 3 4 5 6 
#
# 1 0.011194 -0.001245 -0.002184 0.000000 0.002026 0.000000
# 2 -0.001245 0.012258 0.001095 0.000000 0.006260 0.000000
# 3 -0.002184 0.001095 0.011079 0.000000 0.009223 0.000000
# 4 0.000000 0.000000 0.000000 0.022005 0.000000 0.009332
# 5 0.002026 0.006260 0.009223 0.000000 0.032545 0.000000
# 6 0.000000 0.000000 0.000000 0.009332 0.000000 0.036776
#
#
# Mechanical properties :
#
#
# Convention : Reuss Voigt Hill
#
# Bulk Modulus (GPa) = 33.48541 50.55291 42.01916
# Shear Modulus (GPa) = 35.59194 43.30249 39.44721
#
# Velocity S-wave (km/s) = 3.66077 4.03788 3.85394
# Velocity P-wave (km/s) = 5.52055 6.38543 5.96868
#
# Compressibility (1/GPa) = 0.02986375
#
# Stress axis : x y z
#
# Youngs Moduli (GPa) = 89.33072 81.57722 90.25809
#
# Poissons Ratio (x) = 0.10160 0.19714
# Poissons Ratio (y) = 0.11125 -0.09888
# Poissons Ratio (z) = 0.19512 -0.08937
#
# Static dielectric constant tensor:
#      x y z
#    x 2.200750 0.000000 0.064920 
#    y 0.000000 2.166980 0.000000 
#    z 0.064920 0.000000 2.108980 
# 
# From -- ./inp_files/29399.got.cif
#   From: 2010.05.17/outbox.cif.g08.bks.cpg/sg9_15_cif.got.tgz:29399.got - 2010.06.03 20:04:27.
