data_PCOD9134088
_publ_section_title
;
Structure prediction by ZEFSAII (Michael W. Deem and Ramdas Pophale) SiO2 
 PCOD9134088
Probable space group: C C
;
_chemical_formula_sum "Si O2"
_cell_formula_units_Z 28
_cell_length_a 17.274050
_cell_length_b 7.316317
_cell_length_c 16.220971
_cell_angle_alpha 90.000000
_cell_angle_beta 148.479171
_cell_angle_gamma 90.000000
_cell_volume 1071.781286
_symmetry_space_group_name_H-M "C C"
_symmetry_group_IT_number 9
_symmetry_cell_setting 'monoclinic'
loop_
_space_group_symop_operation_xyz
x,y,z
x,-y,1/2+z
1/2+x,1/2+y,z
1/2+x,1/2-y,1/2+z
loop_
_atom_site_type_symbol
_atom_site_label
_atom_site_fract_x
_atom_site_fract_y
_atom_site_fract_z
Si Si1 0.425710 0.799441 0.830350
Si Si2 0.896151 0.425908 0.971057
Si Si3 0.178697 0.102132 0.564518
Si Si4 0.248771 0.625706 0.548870
Si Si5 0.170541 0.044630 0.882058
Si Si6 0.651364 0.931945 0.798564
Si Si7 0.868312 0.183728 0.353673
O O1 0.372843 0.625536 0.730269
O O2 0.287783 0.936391 0.689064
O O3 0.584635 0.863201 0.940323
O O4 0.430987 0.780406 0.932850
O O5 0.017917 0.439380 0.152095
O O6 0.738626 0.423886 0.872044
O O7 0.902372 0.620679 0.928855
O O8 0.029097 0.105017 0.480933
O O9 0.274137 0.272936 0.684754
O O10 0.134975 0.082798 0.428528
O O11 0.283970 0.817079 0.531942
O O12 0.233876 0.498245 0.456109
O O13 0.091663 0.221484 0.765566
O O14 0.762437 0.915967 0.822768
#
# Coordination Sequence:
#
# PCOD9134088 Si02
#       7
#     4   4   4   4   4   4   4
#     4  10  21  37  58  86 121 156 197 252 302 348
#     4  10  18  36  58  88 113 153 197 250 296 346
#     4  10  19  36  52  89 118 159 186 254 293 351
#     4   9  19  37  59  85 119 156 198 247 296 352
#     4   8  19  33  59  82 115 149 197 238 294 344
#     4   9  17  32  58  86 112 155 199 250 283 358
#     4  10  19  31  58  84 122 146 204 239 296 345
#
# _framework density 26.124731000000001
#
# number of rings (size 3 to 8) (size 9 to 14) (size 15 to 20)
#    0.857    1.714    1.429    1.714    0.000    0.000 
#    5.143    1.429    0.000    0.000    0.000    0.000 
#    0.000    0.000    0.000    0.000    0.000    0.000 
#
# Total GULP energy -78013.986281 kJ/mol
# GULP energy per Si atom -5572.427591 kJ/mol
# Density = 2.606527 g / cm^3
# Si number density = 26.124731 Si / 1000 Ang^3
#
#
#
# Elastic Constant Matrix: (Units=GPa)
#
#
# Indices 1 2 3 4 5 6 
#
# 1 155.0440 24.4062 43.6645 0.0000 -4.5654 0.0000
# 2 24.4062 54.6351 10.6771 0.0000 -0.2977 0.0000
# 3 43.6645 10.6771 96.6509 0.0000 -8.4997 0.0000
# 4 0.0000 0.0000 0.0000 13.8226 0.0000 8.4182
# 5 -4.5654 -0.2977 -8.4997 0.0000 48.9623 0.0000
# 6 0.0000 0.0000 0.0000 8.4182 0.0000 20.8867
#
#
#
# Elastic Compliance Matrix: (Units=1/GPa)
#
#
# Indices 1 2 3 4 5 6 
#
# 1 0.007805 -0.002861 -0.003196 0.000000 0.000155 0.000000
# 2 -0.002861 0.019759 -0.000917 0.000000 -0.000306 0.000000
# 3 -0.003196 -0.000917 0.012049 0.000000 0.001788 0.000000
# 4 0.000000 0.000000 0.000000 0.095880 0.000000 -0.038643
# 5 0.000155 -0.000306 0.001788 0.000000 0.020747 0.000000
# 6 0.000000 0.000000 0.000000 -0.038643 0.000000 0.063452
#
#
# Mechanical properties :
#
#
# Convention : Reuss Voigt Hill
#
# Bulk Modulus (GPa) = 38.96528 51.53618 45.25073
# Shear Modulus (GPa) = 20.64449 31.90648 26.27548
#
# Velocity S-wave (km/s) = 2.81415 3.49852 3.17483
# Velocity P-wave (km/s) = 5.05042 6.00744 5.54960
#
# Compressibility (1/GPa) = 0.02566388
#
# Stress axis : x y z
#
# Youngs Moduli (GPa) = 128.12462 50.61020 82.99380
#
# Poissons Ratio (x) = 0.14480 0.26528
# Poissons Ratio (y) = 0.36657 0.07611
# Poissons Ratio (z) = 0.40953 0.04642
#
# Static dielectric constant tensor:
#      x y z
#    x 2.132180 0.000000 -0.076990 
#    y 0.000000 2.178240 0.000000 
#    z -0.076990 0.000000 2.110940 
# 
# From -- ./inp_files/25851.got.cif
#   From: 2010.05.17/outbox.cif.g08.bks.cpg/sg9_13_cif.got.tgz:25851.got - 2010.06.03 20:04:27.
