data_PCOD9134643
_publ_section_title
;
Structure prediction by ZEFSAII (Michael W. Deem and Ramdas Pophale) SiO2 
 PCOD9134643
Probable space group: C C
;
_chemical_formula_sum "Si O2"
_cell_formula_units_Z 24
_cell_length_a 6.931723
_cell_length_b 22.919309
_cell_length_c 8.603115
_cell_angle_alpha 90.000000
_cell_angle_beta 123.675375
_cell_angle_gamma 90.000000
_cell_volume 1137.423640
_symmetry_space_group_name_H-M "C C"
_symmetry_group_IT_number 9
_symmetry_cell_setting 'monoclinic'
loop_
_space_group_symop_operation_xyz
x,y,z
x,-y,1/2+z
1/2+x,1/2+y,z
1/2+x,1/2-y,1/2+z
loop_
_atom_site_type_symbol
_atom_site_label
_atom_site_fract_x
_atom_site_fract_y
_atom_site_fract_z
Si Si1 0.097060 0.124301 0.655910
Si Si2 0.167660 0.694472 0.450533
Si Si3 0.485017 0.566860 0.041276
Si Si4 0.701924 0.463544 0.945363
Si Si5 0.259117 0.826619 0.540611
Si Si6 0.662335 0.082563 0.631243
O O1 0.213614 0.090629 0.569380
O O2 0.934956 0.178404 0.533576
O O3 0.901495 0.079701 0.638227
O O4 0.257597 0.145780 0.867622
O O5 0.150587 0.762144 0.482360
O O6 0.102909 0.650237 0.562761
O O7 0.004729 0.678244 0.234183
O O8 0.641966 0.520641 0.015417
O O9 0.507411 0.549592 0.230132
O O10 0.598927 0.630231 0.068723
O O11 0.241275 0.569431 0.842170
O O12 0.958739 0.460283 0.986531
#
# Coordination Sequence:
#
# PCOD9134643 Si02
#       6
#     4   4   4   4   4   4
#     4   9  22  38  63  95 123 160 209 249 307 365
#     4  10  19  38  69  90 123 165 207 248 315 367
#     4  11  23  38  65  92 126 165 208 256 304 372
#     4  12  24  43  63  93 126 163 211 253 310 370
#     4  11  18  39  67  90 125 170 200 255 311 363
#     4   9  22  42  63  94 121 165 201 255 309 359
#
# _framework density 21.100315999999999
#
# number of rings (size 3 to 8) (size 9 to 14) (size 15 to 20)
#    1.000    0.667    3.333    2.000    0.000    5.333 
#    0.000    1.667    0.000    0.000    0.000    0.000 
#    0.000    0.000    0.000    0.000    0.000    0.000 
#
# Total GULP energy -66883.743205 kJ/mol
# GULP energy per Si atom -5573.645267 kJ/mol
# Density = 2.105229 g / cm^3
# Si number density = 21.100316 Si / 1000 Ang^3
#
#
#
# Elastic Constant Matrix: (Units=GPa)
#
#
# Indices 1 2 3 4 5 6 
#
# 1 20.3400 19.8333 19.7737 0.0000 -2.5501 0.0000
# 2 19.8333 117.6447 25.4719 0.0000 0.1602 0.0000
# 3 19.7737 25.4719 152.2158 0.0000 12.8742 0.0000
# 4 0.0000 0.0000 0.0000 30.0715 0.0000 -2.9214
# 5 -2.5501 0.1602 12.8742 0.0000 15.9610 0.0000
# 6 0.0000 0.0000 0.0000 -2.9214 0.0000 22.8289
#
#
#
# Elastic Compliance Matrix: (Units=1/GPa)
#
#
# Indices 1 2 3 4 5 6 
#
# 1 0.069827 -0.009851 -0.008988 0.000000 0.018505 0.000000
# 2 -0.009851 0.010230 -0.000312 0.000000 -0.001425 0.000000
# 3 -0.008988 -0.000312 0.008490 0.000000 -0.008281 0.000000
# 4 0.000000 0.000000 0.000000 0.033673 0.000000 0.004309
# 5 0.018505 -0.001425 -0.008281 0.000000 0.072303 0.000000
# 6 0.000000 0.000000 0.000000 0.004309 0.000000 0.044356
#
#
# Mechanical properties :
#
#
# Convention : Reuss Voigt Hill
#
# Bulk Modulus (GPa) = 19.90187 46.70647 33.30417
# Shear Modulus (GPa) = 17.01097 28.78040 22.89568
#
# Velocity S-wave (km/s) = 2.84244 3.69722 3.29764
# Velocity P-wave (km/s) = 4.49723 6.35684 5.50611
#
# Compressibility (1/GPa) = 0.05024654
#
# Stress axis : x y z
#
# Youngs Moduli (GPa) = 14.32103 97.74825 117.79001
#
# Poissons Ratio (x) = 0.96293 1.05865
# Poissons Ratio (y) = 0.14108 0.03671
# Poissons Ratio (z) = 0.12871 0.03047
#
# Static dielectric constant tensor:
#      x y z
#    x 1.811220 0.000000 0.005920 
#    y 0.000000 1.756150 0.000000 
#    z 0.005920 0.000000 1.785000 
# 
# From -- ./inp_files/5992.got.cif
#   From: 2010.05.17/outbox.cif.g08.bks.cpg/sg9_3_cif.got.tgz:5992.got - 2010.06.03 20:04:27.
