data_PCOD9134309
_publ_section_title
;
Structure prediction by ZEFSAII (Michael W. Deem and Ramdas Pophale) SiO2 
 PCOD9134309
Probable space group: C C
;
_chemical_formula_sum "Si O2"
_cell_formula_units_Z 32
_cell_length_a 9.216129
_cell_length_b 17.110867
_cell_length_c 15.330068
_cell_angle_alpha 90.000000
_cell_angle_beta 145.629824
_cell_angle_gamma 90.000000
_cell_volume 1364.763460
_symmetry_space_group_name_H-M "C C"
_symmetry_group_IT_number 9
_symmetry_cell_setting 'monoclinic'
loop_
_space_group_symop_operation_xyz
x,y,z
x,-y,1/2+z
1/2+x,1/2+y,z
1/2+x,1/2-y,1/2+z
loop_
_atom_site_type_symbol
_atom_site_label
_atom_site_fract_x
_atom_site_fract_y
_atom_site_fract_z
Si Si1 0.952790 0.308407 0.005240
Si Si2 0.344451 0.552686 0.443917
Si Si3 0.803832 0.537454 0.244191
Si Si4 0.717870 0.672699 0.057606
Si Si5 0.492663 0.389473 0.720742
Si Si6 0.693088 0.097327 0.766126
Si Si7 0.771717 0.820367 0.781154
Si Si8 0.102045 0.320122 0.402844
O O1 0.028062 0.383562 0.099118
O O2 0.722625 0.325683 0.824191
O O3 0.823285 0.245940 0.005217
O O4 0.176374 0.261084 0.069272
O O5 0.633460 0.528663 0.611632
O O6 0.248668 0.491842 0.320562
O O7 0.339702 0.640981 0.407521
O O8 0.112907 0.538222 0.398657
O O9 0.654813 0.539254 0.262468
O O10 0.743753 0.613726 0.153408
O O11 0.462584 0.641696 0.884852
O O12 0.968231 0.669509 0.123386
O O13 0.413216 0.374210 0.779975
O O14 0.234223 0.377944 0.536964
O O15 0.582616 0.138891 0.799155
O O16 0.860360 0.731217 0.812071
#
# Coordination Sequence:
#
# PCOD9134309 Si02
#       8
#     4   4   4   4   4   4   4   4
#     4  10  19  33  62  90 118 161 215 252 315 390
#     4  10  22  43  66  89 129 177 218 256 333 404
#     4  10  21  42  64  87 127 177 213 262 325 400
#     4   9  19  37  59  89 130 163 202 268 326 379
#     4  11  21  40  61  93 129 163 212 277 322 373
#     4  10  20  39  67  88 125 180 212 253 333 404
#     4  10  23  37  63  99 126 162 215 276 322 386
#     4  10  19  37  62  91 124 163 209 266 320 376
#
# _framework density 23.447286999999999
#
# number of rings (size 3 to 8) (size 9 to 14) (size 15 to 20)
#    0.000    2.000    3.750    2.250    3.500    1.000 
#    4.500    0.000    0.000    0.000    0.000    0.000 
#    0.000    0.000    0.000    0.000    0.000    0.000 
#
# Total GULP energy -89165.984747 kJ/mol
# GULP energy per Si atom -5572.874047 kJ/mol
# Density = 2.339392 g / cm^3
# Si number density = 23.447287 Si / 1000 Ang^3
#
#
#
# Elastic Constant Matrix: (Units=GPa)
#
#
# Indices 1 2 3 4 5 6 
#
# 1 95.7035 10.3435 33.7049 0.0003 38.9157 0.0001
# 2 10.3435 55.3257 11.9252 -0.0005 7.0407 -0.0002
# 3 33.7049 11.9252 76.1428 0.0002 10.5745 0.0002
# 4 0.0003 -0.0005 0.0002 16.1384 0.0003 5.1519
# 5 38.9157 7.0407 10.5745 0.0003 29.8290 0.0002
# 6 0.0001 -0.0002 0.0002 5.1519 0.0002 30.7395
#
#
#
# Elastic Compliance Matrix: (Units=1/GPa)
#
#
# Indices 1 2 3 4 5 6 
#
# 1 0.025369 0.000694 -0.007067 0.000000 -0.030755 0.000000
# 2 0.000694 0.019090 -0.002677 0.000001 -0.004463 0.000000
# 3 -0.007067 -0.002677 0.016106 0.000000 0.004142 0.000000
# 4 0.000000 0.000001 0.000000 0.065467 -0.000001 -0.010972
# 5 -0.030755 -0.004463 0.004142 -0.000001 0.073233 0.000000
# 6 0.000000 0.000000 0.000000 -0.010972 0.000000 0.034370
#
#
# Mechanical properties :
#
#
# Convention : Reuss Voigt Hill
#
# Bulk Modulus (GPa) = 23.54944 37.67992 30.61468
# Shear Modulus (GPa) = 18.80480 26.75461 22.77970
#
# Velocity S-wave (km/s) = 2.83504 3.38161 3.12032
# Velocity P-wave (km/s) = 4.55872 5.59929 5.10558
#
# Compressibility (1/GPa) = 0.04246385
#
# Stress axis : x y z
#
# Youngs Moduli (GPa) = 39.41862 52.38349 62.09041
#
# Poissons Ratio (x) = -0.03637 0.43880
# Poissons Ratio (y) = -0.02737 0.16624
# Poissons Ratio (z) = 0.27858 0.14025
#
# Static dielectric constant tensor:
#      x y z
#    x 1.935180 0.000000 -0.016650 
#    y 0.000000 1.977640 0.000000 
#    z -0.016650 0.000000 1.896960 
# 
# From -- ./inp_files/23775.got.cif
#   From: 2010.05.17/outbox.cif.g08.bks.cpg/sg9_12_cif.got.tgz:23775.got - 2010.06.03 20:04:27.
