data_PCOD9134589
_publ_section_title
;
Structure prediction by ZEFSAII (Michael W. Deem and Ramdas Pophale) SiO2 
 PCOD9134589
Probable space group: C C
;
_chemical_formula_sum "Si O2"
_cell_formula_units_Z 32
_cell_length_a 5.010833
_cell_length_b 24.003320
_cell_length_c 12.141640
_cell_angle_alpha 90.000000
_cell_angle_beta 94.126254
_cell_angle_gamma 90.000000
_cell_volume 1456.570154
_symmetry_space_group_name_H-M "C C"
_symmetry_group_IT_number 9
_symmetry_cell_setting 'monoclinic'
loop_
_space_group_symop_operation_xyz
x,y,z
x,-y,1/2+z
1/2+x,1/2+y,z
1/2+x,1/2-y,1/2+z
loop_
_atom_site_type_symbol
_atom_site_label
_atom_site_fract_x
_atom_site_fract_y
_atom_site_fract_z
Si Si1 0.801890 0.662251 0.363950
Si Si2 0.002597 0.905637 0.189072
Si Si3 0.815593 0.897745 0.935575
Si Si4 0.980731 0.683249 0.990908
Si Si5 0.323378 0.905061 0.647220
Si Si6 0.511234 0.163950 0.737704
Si Si7 0.338227 0.470206 0.729560
Si Si8 0.978873 0.249458 0.037308
O O1 0.494472 0.651090 0.385867
O O2 0.844015 0.645633 0.237990
O O3 0.890276 0.719626 0.421662
O O4 0.004695 0.618624 0.429172
O O5 0.812432 0.858612 0.236179
O O6 0.306980 0.887302 0.214029
O O7 0.920146 0.965968 0.229338
O O8 0.929501 0.906402 0.058574
O O9 0.859507 0.948790 0.855298
O O10 0.968143 0.685839 0.859125
O O11 0.881650 0.623707 0.033038
O O12 0.779914 0.729142 0.033449
O O13 0.277449 0.697638 0.042068
O O14 0.544660 0.951849 0.681229
O O15 0.041673 0.934279 0.660641
O O16 0.455814 0.208934 0.640027
#
# Coordination Sequence:
#
# PCOD9134589 Si02
#       8
#     4   4   4   4   4   4   4   4
#     4  10  20  38  64  84 121 160 214 269 295 370
#     4  12  22  43  67  96 131 170 212 272 320 380
#     4  10  19  38  59  94 119 164 210 265 307 365
#     4  12  28  42  66  95 136 172 207 268 333 374
#     4  10  23  43  61  95 131 166 218 266 315 379
#     4  12  27  44  65  99 131 162 222 266 324 381
#     4  10  23  39  68  95 129 175 218 253 331 382
#     4  12  24  43  66  94 124 173 217 261 321 387
#
# _framework density 21.969418999999998
#
# number of rings (size 3 to 8) (size 9 to 14) (size 15 to 20)
#    0.000    1.000    2.500    3.750    3.500    2.000 
#    0.000    0.000    0.000    0.000    0.000    0.000 
#    0.000    0.000    0.000    0.000    0.000    0.000 
#
# Total GULP energy -89488.823642 kJ/mol
# GULP energy per Si atom -5593.051478 kJ/mol
# Density = 2.191942 g / cm^3
# Si number density = 21.969419 Si / 1000 Ang^3
#
#
#
# Elastic Constant Matrix: (Units=GPa)
#
#
# Indices 1 2 3 4 5 6 
#
# 1 62.1468 -8.0845 9.4124 0.0000 -14.2059 0.0000
# 2 -8.0845 56.3408 21.6040 0.0000 -9.0127 0.0000
# 3 9.4124 21.6040 68.6409 0.0000 -7.3680 0.0000
# 4 0.0000 0.0000 0.0000 -4.7796 0.0000 0.1119
# 5 -14.2059 -9.0127 -7.3680 0.0000 20.5864 0.0000
# 6 0.0000 0.0000 0.0000 0.1119 0.0000 29.9546
#
#
#
# Elastic Compliance Matrix: (Units=1/GPa)
#
#
# Indices 1 2 3 4 5 6 
#
# 1 0.021289 0.006984 -0.003341 0.000000 0.016553 0.000000
# 2 0.006984 0.023443 -0.006985 0.000000 0.012582 0.000000
# 3 -0.003341 -0.006985 0.017315 0.000000 0.000834 0.000000
# 4 0.000000 0.000000 0.000000 -0.209203 0.000000 0.000781
# 5 0.016553 0.012582 0.000834 0.000000 0.065805 0.000000
# 6 0.000000 0.000000 0.000000 0.000781 0.000000 0.033381
#
#
# Mechanical properties :
#
#
# Convention : Reuss Voigt Hill
#
# Bulk Modulus (GPa) = 18.06296 25.88804 21.97550
# Shear Modulus (GPa) = -218.99247 20.09871 -99.44688
#
# Velocity S-wave (km/s) = -9.99485 3.02793 -6.73530
# Velocity P-wave (km/s) = 11.17838 4.90242 7.10361
#
# Compressibility (1/GPa) = 0.05536191
#
# Stress axis : x y z
#
# Youngs Moduli (GPa) = 46.97241 42.65755 57.75443
#
# Poissons Ratio (x) = -0.29791 0.19293
# Poissons Ratio (y) = -0.32804 0.40343
# Poissons Ratio (z) = 0.15691 0.29798
#
# Static dielectric constant tensor:
#      x y z
#    x 1.766740 0.000000 -0.009230 
#    y 0.000000 1.809570 0.000000 
#    z -0.009230 0.000000 1.805040 
# 
# From -- ./inp_files/13504.got.cif
#   From: 2010.05.17/outbox.cif.g08.bks.cpg/sg9_7_cif.got.tgz:13504.got - 2010.06.03 20:04:27.
