data_PCOD9134106
_publ_section_title
;
Structure prediction by ZEFSAII (Michael W. Deem and Ramdas Pophale) SiO2 
 PCOD9134106
Probable space group: C C
;
_chemical_formula_sum "Si O2"
_cell_formula_units_Z 28
_cell_length_a 6.642401
_cell_length_b 14.526524
_cell_length_c 14.568744
_cell_angle_alpha 90.000000
_cell_angle_beta 48.566763
_cell_angle_gamma 90.000000
_cell_volume 1053.931160
_symmetry_space_group_name_H-M "C C"
_symmetry_group_IT_number 9
_symmetry_cell_setting 'monoclinic'
loop_
_space_group_symop_operation_xyz
x,y,z
x,-y,1/2+z
1/2+x,1/2+y,z
1/2+x,1/2-y,1/2+z
loop_
_atom_site_type_symbol
_atom_site_label
_atom_site_fract_x
_atom_site_fract_y
_atom_site_fract_z
Si Si1 0.843600 0.599940 0.716930
Si Si2 0.933758 0.276673 0.509495
Si Si3 0.872079 0.244937 0.067266
Si Si4 0.259678 0.457695 0.643110
Si Si5 0.073122 0.737507 0.776655
Si Si6 0.111911 0.624541 0.373422
Si Si7 0.803035 0.482699 0.581382
O O1 0.752202 0.683278 0.677223
O O2 0.685454 0.515295 0.716303
O O3 0.125978 0.542307 0.631979
O O4 0.883460 0.650906 0.802495
O O5 0.665509 0.260043 0.527311
O O6 0.840230 0.229750 0.633287
O O7 0.935090 0.383705 0.533957
O O8 0.137322 0.256121 0.364676
O O9 0.771603 0.141576 0.091245
O O10 0.908512 0.291193 0.956935
O O11 0.094085 0.430616 0.784841
O O12 0.555159 0.484599 0.586363
O O13 0.904361 0.827460 0.793866
O O14 0.022794 0.555404 0.479731
#
# Coordination Sequence:
#
# PCOD9134106 Si02
#       7
#     4   4   4   4   4   4   4
#     4  10  20  37  65  91 129 172 222 278 344 405
#     4   9  17  34  63  89 127 172 219 266 342 407
#     4   8  18  36  58  86 123 168 205 269 339 388
#     4  11  20  40  67  90 127 176 227 271 345 417
#     4  10  18  37  67  93 126 185 213 273 361 405
#     4  10  18  36  65  85 131 175 207 280 348 389
#     4  10  21  38  61 100 129 168 231 283 327 419
#
# _framework density 26.567198000000001
#
# number of rings (size 3 to 8) (size 9 to 14) (size 15 to 20)
#    0.000    2.286    4.286    1.714    0.000    0.000 
#    0.000   20.000    3.143    0.000    0.000    0.000 
#    0.000    0.000    0.000    0.000    0.000    0.000 
#
# Total GULP energy -77970.133785 kJ/mol
# GULP energy per Si atom -5569.295270 kJ/mol
# Density = 2.650673 g / cm^3
# Si number density = 26.567198 Si / 1000 Ang^3
#
#
#
# Elastic Constant Matrix: (Units=GPa)
#
#
# Indices 1 2 3 4 5 6 
#
# 1 111.9112 20.0322 43.1136 0.0000 25.7648 0.0000
# 2 20.0322 109.8088 29.2930 0.0000 14.2794 0.0000
# 3 43.1136 29.2930 154.0157 0.0000 34.7578 0.0001
# 4 0.0000 0.0000 0.0000 54.8547 0.0000 5.9047
# 5 25.7648 14.2794 34.7578 0.0000 39.0391 -0.0001
# 6 0.0000 0.0000 0.0001 5.9047 -0.0001 29.7659
#
#
#
# Elastic Compliance Matrix: (Units=1/GPa)
#
#
# Indices 1 2 3 4 5 6 
#
# 1 0.010990 -0.000847 -0.001687 0.000000 -0.005441 0.000000
# 2 -0.000847 0.009835 -0.001186 0.000000 -0.001982 0.000000
# 3 -0.001687 -0.001186 0.008562 0.000000 -0.006075 0.000000
# 4 0.000000 0.000000 0.000000 0.018628 0.000000 -0.003695
# 5 -0.005441 -0.001982 -0.006075 0.000000 0.035340 0.000000
# 6 0.000000 0.000000 0.000000 -0.003695 0.000000 0.034328
#
#
# Mechanical properties :
#
#
# Convention : Reuss Voigt Hill
#
# Bulk Modulus (GPa) = 45.56667 62.29037 53.92852
# Shear Modulus (GPa) = 37.75270 43.61840 40.68555
#
# Velocity S-wave (km/s) = 3.77374 4.05633 3.91758
# Velocity P-wave (km/s) = 6.01472 6.74060 6.38798
#
# Compressibility (1/GPa) = 0.02194586
#
# Stress axis : x y z
#
# Youngs Moduli (GPa) = 90.99173 101.67257 116.79679
#
# Poissons Ratio (x) = 0.08614 0.19708
# Poissons Ratio (y) = 0.07709 0.13854
# Poissons Ratio (z) = 0.15354 0.12060
#
# Static dielectric constant tensor:
#      x y z
#    x 2.256420 0.000000 0.042150 
#    y 0.000000 2.058200 0.000000 
#    z 0.042150 0.000000 2.258760 
# 
# From -- ./inp_files/29409.got.cif
#   From: 2010.05.17/outbox.cif.g08.bks.cpg/sg9_15_cif.got.tgz:29409.got - 2010.06.03 20:04:27.
