data_PCOD9134161
_publ_section_title
;
Structure prediction by ZEFSAII (Michael W. Deem and Ramdas Pophale) SiO2 
 PCOD9134161
Probable space group: C C
;
_chemical_formula_sum "Si O2"
_cell_formula_units_Z 28
_cell_length_a 11.071674
_cell_length_b 10.379293
_cell_length_c 11.479804
_cell_angle_alpha 90.000000
_cell_angle_beta 83.147044
_cell_angle_gamma 90.000000
_cell_volume 1309.789926
_symmetry_space_group_name_H-M "C C"
_symmetry_group_IT_number 9
_symmetry_cell_setting 'monoclinic'
loop_
_space_group_symop_operation_xyz
x,y,z
x,-y,1/2+z
1/2+x,1/2+y,z
1/2+x,1/2-y,1/2+z
loop_
_atom_site_type_symbol
_atom_site_label
_atom_site_fract_x
_atom_site_fract_y
_atom_site_fract_z
Si Si1 0.422970 0.464817 0.338910
Si Si2 0.743684 0.306198 0.500704
Si Si3 0.337019 0.085916 0.408503
Si Si4 0.671915 0.328310 0.115118
Si Si5 0.903305 0.087844 0.579230
Si Si6 0.157366 0.911880 0.735196
Si Si7 0.075994 0.300486 0.827587
O O1 0.369395 0.497416 0.472452
O O2 0.364087 0.457358 0.215031
O O3 0.527426 0.573816 0.309729
O O4 0.491693 0.328154 0.342142
O O5 0.792009 0.442076 0.446018
O O6 0.846345 0.224782 0.553009
O O7 0.648718 0.339766 0.614087
O O8 0.680984 0.221086 0.409050
O O9 0.286477 0.175675 0.518106
O O10 0.261724 0.138893 0.306978
O O11 0.480021 0.089486 0.368652
O O12 0.549400 0.386838 0.070056
O O13 0.701344 0.442278 0.202867
O O14 0.633937 0.203450 0.192404
#
# Coordination Sequence:
#
# PCOD9134161 Si02
#       7
#     4   4   4   4   4   4   4
#     4  10  18  38  62  92 113 161 215 260 311 392
#     4  11  21  38  59  91 127 167 208 265 326 393
#     4  11  19  37  66  89 119 169 212 263 324 380
#     4   9  18  35  58  94 112 153 215 261 310 391
#     4  10  20  36  64  86 127 162 210 266 325 382
#     4   9  16  33  62  82 114 150 209 261 306 376
#     4  10  20  37  61  88 124 156 217 262 314 384
#
# _framework density 21.377472999999998
#
# number of rings (size 3 to 8) (size 9 to 14) (size 15 to 20)
#    0.000    2.286    4.286    3.429    0.000    0.000 
#    5.143    1.429    9.429    0.000    0.000    0.000 
#    0.000    0.000    0.000    0.000    0.000    0.000 
#
# Total GULP energy -77959.771526 kJ/mol
# GULP energy per Si atom -5568.555109 kJ/mol
# Density = 2.132882 g / cm^3
# Si number density = 21.377473 Si / 1000 Ang^3
#
#
#
# Elastic Constant Matrix: (Units=GPa)
#
#
# Indices 1 2 3 4 5 6 
#
# 1 52.5934 11.8817 30.0497 0.0000 7.4795 0.0000
# 2 11.8817 18.4566 17.8056 0.0000 8.5349 0.0000
# 3 30.0497 17.8056 140.6785 0.0000 21.4705 0.0000
# 4 0.0000 0.0000 0.0000 15.7975 0.0000 1.6369
# 5 7.4795 8.5349 21.4705 0.0000 20.2143 0.0000
# 6 0.0000 0.0000 0.0000 1.6369 0.0000 30.0390
#
#
#
# Elastic Compliance Matrix: (Units=1/GPa)
#
#
# Indices 1 2 3 4 5 6 
#
# 1 0.023726 -0.011833 -0.003572 0.000000 0.000011 0.000000
# 2 -0.011833 0.076300 -0.003438 0.000000 -0.024185 0.000000
# 3 -0.003572 -0.003438 0.009408 0.000000 -0.007220 0.000000
# 4 0.000000 0.000000 0.000000 0.063661 0.000000 -0.003469
# 5 0.000011 -0.024185 -0.007220 0.000000 0.067346 0.000000
# 6 0.000000 0.000000 0.000000 -0.003469 0.000000 0.033479
#
#
# Mechanical properties :
#
#
# Convention : Reuss Voigt Hill
#
# Bulk Modulus (GPa) = 13.93783 36.80027 25.36905
# Shear Modulus (GPa) = 14.90209 23.34293 19.12251
#
# Velocity S-wave (km/s) = 2.64312 3.30804 2.99409
# Velocity P-wave (km/s) = 3.98105 5.64293 4.88321
#
# Compressibility (1/GPa) = 0.07174717
#
# Stress axis : x y z
#
# Youngs Moduli (GPa) = 42.14710 13.10619 106.28689
#
# Poissons Ratio (x) = 0.15509 0.37966
# Poissons Ratio (y) = 0.49874 0.36546
# Poissons Ratio (z) = 0.15055 0.04506
#
# Static dielectric constant tensor:
#      x y z
#    x 1.778740 0.000000 -0.022620 
#    y 0.000000 1.810690 0.000000 
#    z -0.022620 0.000000 1.853620 
# 
# From -- ./inp_files/16010.got.cif
#   From: 2010.05.17/outbox.cif.g08.bks.cpg/sg9_9_cif.got.tgz:16010.got - 2010.06.03 20:04:27.
