data_PCOD9134166
_publ_section_title
;
Structure prediction by ZEFSAII (Michael W. Deem and Ramdas Pophale) SiO2 
 PCOD9134166
Probable space group: C C
;
_chemical_formula_sum "Si O2"
_cell_formula_units_Z 32
_cell_length_a 13.476367
_cell_length_b 19.807985
_cell_length_c 8.000657
_cell_angle_alpha 90.000000
_cell_angle_beta 126.736474
_cell_angle_gamma 90.000000
_cell_volume 1711.533600
_symmetry_space_group_name_H-M "C C"
_symmetry_group_IT_number 9
_symmetry_cell_setting 'monoclinic'
loop_
_space_group_symop_operation_xyz
x,y,z
x,-y,1/2+z
1/2+x,1/2+y,z
1/2+x,1/2-y,1/2+z
loop_
_atom_site_type_symbol
_atom_site_label
_atom_site_fract_x
_atom_site_fract_y
_atom_site_fract_z
Si Si1 0.014210 0.147051 0.702980
Si Si2 0.287937 0.905067 0.506390
Si Si3 0.114553 0.375852 0.124128
Si Si4 0.415455 0.006269 0.376613
Si Si5 0.878161 0.068980 0.272424
Si Si6 0.009468 0.306558 0.698753
Si Si7 0.400188 0.583243 0.909994
Si Si8 0.592908 0.109343 0.961749
O O1 0.014204 0.227171 0.679227
O O2 0.927185 0.115345 0.472180
O O3 0.970739 0.129709 0.847851
O O4 0.149739 0.114071 0.821492
O O5 0.307654 0.944572 0.699735
O O6 0.372216 0.837972 0.583488
O O7 0.353056 0.960325 0.453736
O O8 0.255825 0.397899 0.250862
O O9 0.092999 0.348735 0.289726
O O10 0.080430 0.326808 0.939382
O O11 0.027095 0.441608 0.022131
O O12 0.487032 0.948199 0.342702
O O13 0.728655 0.075662 0.112744
O O14 0.914269 0.993092 0.358512
O O15 0.929504 0.086527 0.138253
O O16 0.067360 0.346091 0.599201
#
# Coordination Sequence:
#
# PCOD9134166 Si02
#       8
#     4   4   4   4   4   4   4   4
#     4  12  27  44  61  88 145 171 209 264 322 405
#     4  10  24  38  64  92 123 168 208 261 319 381
#     4  10  20  38  68  96 123 156 217 278 305 383
#     4  10  18  38  64  96 120 156 212 262 328 360
#     4  11  23  38  67  99 124 165 216 271 332 372
#     4  10  25  42  65  90 124 179 211 245 335 386
#     4  11  23  38  67  99 124 165 216 271 332 372
#     4  10  20  38  68  96 123 156 217 278 305 383
#
# _framework density 18.696683
#
# number of rings (size 3 to 8) (size 9 to 14) (size 15 to 20)
#    0.000    1.500    3.750    0.750    5.250    1.000 
#    0.000    0.000    0.000    0.000    0.000    0.000 
#    0.000    0.000    0.000    0.000    0.000    0.000 
#
# Total GULP energy -89198.032050 kJ/mol
# GULP energy per Si atom -5574.877003 kJ/mol
# Density = 1.865413 g / cm^3
# Si number density = 18.696683 Si / 1000 Ang^3
#
#
#
# Elastic Constant Matrix: (Units=GPa)
#
#
# Indices 1 2 3 4 5 6 
#
# 1 38.8335 18.6904 23.4141 0.0000 -9.3349 0.0000
# 2 18.6904 69.0303 8.3258 0.0000 1.8533 0.0000
# 3 23.4141 8.3258 62.9495 0.0000 -8.4895 0.0000
# 4 0.0000 0.0000 0.0000 17.6169 0.0000 -4.6048
# 5 -9.3349 1.8533 -8.4895 0.0000 31.5912 0.0000
# 6 0.0000 0.0000 0.0000 -4.6048 0.0000 18.2495
#
#
#
# Elastic Compliance Matrix: (Units=1/GPa)
#
#
# Indices 1 2 3 4 5 6 
#
# 1 0.040012 -0.009582 -0.012394 0.000000 0.009055 0.000000
# 2 -0.009582 0.017079 0.000818 0.000000 -0.003614 0.000000
# 3 -0.012394 0.000818 0.020635 0.000000 0.001835 0.000000
# 4 0.000000 0.000000 0.000000 0.060772 0.000000 0.015334
# 5 0.009055 -0.003614 0.001835 0.000000 0.035035 0.000000
# 6 0.000000 0.000000 0.000000 0.015334 0.000000 0.058665
#
#
# Mechanical properties :
#
#
# Convention : Reuss Voigt Hill
#
# Bulk Modulus (GPa) = 28.24067 30.18599 29.21333
# Shear Modulus (GPa) = 17.46312 21.51704 19.49008
#
# Velocity S-wave (km/s) = 3.05949 3.39610 3.23218
# Velocity P-wave (km/s) = 5.25529 5.61766 5.43949
#
# Compressibility (1/GPa) = 0.03540993
#
# Stress axis : x y z
#
# Youngs Moduli (GPa) = 24.99256 58.55113 48.46130
#
# Poissons Ratio (x) = 0.56102 0.60063
# Poissons Ratio (y) = 0.23947 -0.03963
# Poissons Ratio (z) = 0.30976 -0.04788
#
# Static dielectric constant tensor:
#      x y z
#    x 1.650180 0.000000 -0.034470 
#    y 0.000000 1.596910 0.000000 
#    z -0.034470 0.000000 1.689810 
# 
# From -- ./inp_files/9902.got.cif
#   From: 2010.05.17/outbox.cif.g08.bks.cpg/sg9_5_cif.got.tgz:9902.got - 2010.06.03 20:04:27.
