data_PCOD9134476
_publ_section_title
;
Structure prediction by ZEFSAII (Michael W. Deem and Ramdas Pophale) SiO2 
 PCOD9134476
Probable space group: C C
;
_chemical_formula_sum "Si O2"
_cell_formula_units_Z 32
_cell_length_a 15.882116
_cell_length_b 15.064945
_cell_length_c 9.353749
_cell_angle_alpha 90.000000
_cell_angle_beta 37.090801
_cell_angle_gamma 90.000000
_cell_volume 1349.697671
_symmetry_space_group_name_H-M "C C"
_symmetry_group_IT_number 9
_symmetry_cell_setting 'monoclinic'
loop_
_space_group_symop_operation_xyz
x,y,z
x,-y,1/2+z
1/2+x,1/2+y,z
1/2+x,1/2-y,1/2+z
loop_
_atom_site_type_symbol
_atom_site_label
_atom_site_fract_x
_atom_site_fract_y
_atom_site_fract_z
Si Si1 0.778390 0.713656 0.213740
Si Si2 0.035036 0.749099 0.392701
Si Si3 0.705921 0.582088 0.556818
Si Si4 0.757782 0.157774 0.294728
Si Si5 0.077712 0.323994 0.300115
Si Si6 0.811268 0.902616 0.283530
Si Si7 0.927654 0.992744 0.394106
Si Si8 0.008552 0.397223 0.696368
O O1 0.735262 0.627981 0.363502
O O2 0.659097 0.742899 0.266060
O O3 0.802109 0.795252 0.296763
O O4 0.928462 0.701986 0.937874
O O5 0.122460 0.839534 0.251492
O O6 0.135620 0.691108 0.355428
O O7 0.880709 0.771378 0.658130
O O8 0.005275 0.696547 0.284923
O O9 0.856636 0.559973 0.419977
O O10 0.592826 0.504947 0.699375
O O11 0.679184 0.135778 0.546341
O O12 0.842028 0.080180 0.102427
O O13 0.035489 0.384510 0.491502
O O14 0.910771 0.954747 0.257200
O O15 0.657346 0.937136 0.537492
O O16 0.858165 0.920682 0.056714
#
# Coordination Sequence:
#
# PCOD9134476 Si02
#       8
#     4   4   4   4   4   4   4   4
#     4  10  19  36  65  89 121 154 204 256 314 355
#     4  11  18  34  59  90 117 153 203 264 307 356
#     4  10  19  38  66  95 111 161 216 261 295 375
#     4  11  22  35  57  93 124 155 203 266 313 359
#     4  10  20  32  57  92 120 149 199 263 305 353
#     4  11  23  41  62  88 124 168 203 250 314 386
#     4  11  25  39  64  86 127 165 211 246 320 381
#     4  10  20  37  64  85 120 163 209 248 312 373
#
# _framework density 23.709012999999999
#
# number of rings (size 3 to 8) (size 9 to 14) (size 15 to 20)
#    0.000    1.500    5.000    1.500    7.000    0.000 
#    0.000    1.250    5.500    0.000    0.000    0.000 
#    0.000    0.000    0.000    0.000    0.000    0.000 
#
# Total GULP energy -89286.293483 kJ/mol
# GULP energy per Si atom -5580.393343 kJ/mol
# Density = 2.365505 g / cm^3
# Si number density = 23.709013 Si / 1000 Ang^3
#
#
#
# Elastic Constant Matrix: (Units=GPa)
#
#
# Indices 1 2 3 4 5 6 
#
# 1 68.1863 -3.3347 48.9151 0.0000 -21.6913 0.0000
# 2 -3.3347 24.2951 19.3720 0.0000 -4.4225 0.0000
# 3 48.9151 19.3720 122.6937 0.0000 -20.2252 0.0000
# 4 0.0000 0.0000 0.0000 20.7956 0.0000 0.9831
# 5 -21.6913 -4.4225 -20.2252 0.0000 53.2081 0.0000
# 6 0.0000 0.0000 0.0000 0.9831 0.0000 5.7380
#
#
#
# Elastic Compliance Matrix: (Units=1/GPa)
#
#
# Indices 1 2 3 4 5 6 
#
# 1 0.025747 0.013833 -0.011233 0.000000 0.007376 0.000000
# 2 0.013833 0.054589 -0.013289 0.000000 0.005125 0.000000
# 3 -0.011233 -0.013289 0.014712 0.000000 -0.000092 0.000000
# 4 0.000000 0.000000 0.000000 0.048480 0.000000 -0.008306
# 5 0.007376 0.005125 -0.000092 0.000000 0.022192 0.000000
# 6 0.000000 0.000000 0.000000 -0.008306 0.000000 0.175701
#
#
# Mechanical properties :
#
#
# Convention : Reuss Voigt Hill
#
# Bulk Modulus (GPa) = 13.57404 38.34221 25.95813
# Shear Modulus (GPa) = 12.90808 25.96317 19.43563
#
# Velocity S-wave (km/s) = 2.33585 3.31278 2.86625
# Velocity P-wave (km/s) = 3.60730 5.55336 4.68254
#
# Compressibility (1/GPa) = 0.07367002
#
# Stress axis : x y z
#
# Youngs Moduli (GPa) = 38.83954 18.31884 67.97276
#
# Poissons Ratio (x) = -0.25341 0.76353
# Poissons Ratio (y) = -0.53728 0.90330
# Poissons Ratio (z) = 0.43628 0.24344
#
# Static dielectric constant tensor:
#      x y z
#    x 1.967680 0.000000 -0.008660 
#    y 0.000000 1.967520 0.000000 
#    z -0.008660 0.000000 1.892670 
# 
# From -- ./inp_files/9934.got.cif
#   From: 2010.05.17/outbox.cif.g08.bks.cpg/sg9_5_cif.got.tgz:9934.got - 2010.06.03 20:04:27.
