data_PCOD9134112
_publ_section_title
;
Structure prediction by ZEFSAII (Michael W. Deem and Ramdas Pophale) SiO2 
 PCOD9134112
Probable space group: C C
;
_chemical_formula_sum "Si O2"
_cell_formula_units_Z 32
_cell_length_a 15.450231
_cell_length_b 17.699925
_cell_length_c 11.988073
_cell_angle_alpha 90.000000
_cell_angle_beta 152.644584
_cell_angle_gamma 90.000000
_cell_volume 1506.432296
_symmetry_space_group_name_H-M "C C"
_symmetry_group_IT_number 9
_symmetry_cell_setting 'monoclinic'
loop_
_space_group_symop_operation_xyz
x,y,z
x,-y,1/2+z
1/2+x,1/2+y,z
1/2+x,1/2-y,1/2+z
loop_
_atom_site_type_symbol
_atom_site_label
_atom_site_fract_x
_atom_site_fract_y
_atom_site_fract_z
Si Si1 0.851120 0.150187 0.577210
Si Si2 0.827529 0.858873 0.430223
Si Si3 0.405921 0.816521 0.221281
Si Si4 0.005654 0.858582 0.853155
Si Si5 0.278775 0.178348 0.087432
Si Si6 0.124182 0.568354 0.503222
Si Si7 0.226658 0.809403 0.793293
Si Si8 0.227870 0.405709 0.697050
O O1 0.811461 0.238811 0.567744
O O2 0.784381 0.097456 0.602192
O O3 0.747096 0.116718 0.348776
O O4 0.075382 0.148763 0.817407
O O5 0.898967 0.895851 0.625745
O O6 0.725870 0.778450 0.325599
O O7 0.021380 0.842785 0.584366
O O8 0.684546 0.905616 0.195019
O O9 0.423794 0.726470 0.254177
O O10 0.598947 0.842899 0.493805
O O11 0.370533 0.840519 0.051758
O O12 0.226491 0.849858 0.082349
O O13 0.937651 0.900036 0.885569
O O14 0.440885 0.115712 0.254110
O O15 0.271476 0.187530 0.214101
O O16 0.126726 0.479557 0.528993
#
# Coordination Sequence:
#
# PCOD9134112 Si02
#       8
#     4   4   4   4   4   4   4   4
#     4  12  27  47  74 109 145 198 252 301 368 453
#     4  10  19  36  64 100 133 163 226 295 350 405
#     4  10  22  41  69 107 132 189 238 298 360 439
#     4  10  22  40  71  96 137 179 240 292 355 437
#     4  12  23  45  77 106 139 194 253 302 359 442
#     4  12  27  46  68 104 145 188 243 306 371 424
#     4  10  18  36  70 103 125 166 242 297 333 415
#     4  12  30  45  69 105 154 193 236 307 382 437
#
# _framework density 21.242242999999998
#
# number of rings (size 3 to 8) (size 9 to 14) (size 15 to 20)
#    0.000    1.000    5.000    0.750    7.000    2.000 
#    2.250    0.000    0.000    0.000    0.000    0.000 
#    0.000    0.000    0.000    0.000    0.000    0.000 
#
# Total GULP energy -89213.315873 kJ/mol
# GULP energy per Si atom -5575.832242 kJ/mol
# Density = 2.119389 g / cm^3
# Si number density = 21.242243 Si / 1000 Ang^3
#
#
#
# Elastic Constant Matrix: (Units=GPa)
#
#
# Indices 1 2 3 4 5 6 
#
# 1 79.1623 27.6909 18.1471 0.0000 -1.6556 0.0000
# 2 27.6909 51.1889 12.2673 0.0000 -9.5211 0.0000
# 3 18.1471 12.2673 85.1155 0.0000 3.5168 0.0000
# 4 0.0000 0.0000 0.0000 -22.0897 0.0000 17.3319
# 5 -1.6556 -9.5211 3.5168 0.0000 27.8574 0.0000
# 6 0.0000 0.0000 0.0000 17.3319 0.0000 4.8858
#
#
#
# Elastic Compliance Matrix: (Units=1/GPa)
#
#
# Indices 1 2 3 4 5 6 
#
# 1 0.016054 -0.008486 -0.002130 0.000000 -0.001677 0.000000
# 2 -0.008486 0.026323 -0.002348 0.000000 0.008789 0.000000
# 3 -0.002130 -0.002348 0.012646 0.000000 -0.002525 0.000000
# 4 0.000000 0.000000 0.000000 -0.011965 0.000000 0.042447
# 5 -0.001677 0.008789 -0.002525 0.000000 0.039120 0.000000
# 6 0.000000 0.000000 0.000000 0.042447 0.000000 0.054099
#
#
# Mechanical properties :
#
#
# Convention : Reuss Voigt Hill
#
# Bulk Modulus (GPa) = 34.37046 36.85304 35.61175
# Shear Modulus (GPa) = 29.08616 12.62144 20.85380
#
# Velocity S-wave (km/s) = 3.70437 2.44020 3.13663
# Velocity P-wave (km/s) = 5.87467 5.03250 5.46982
#
# Compressibility (1/GPa) = 0.02909476
#
# Stress axis : x y z
#
# Youngs Moduli (GPa) = 62.28997 37.98905 79.07834
#
# Poissons Ratio (x) = 0.32237 0.16847
# Poissons Ratio (y) = 0.52859 0.18566
# Poissons Ratio (z) = 0.13271 0.08919
#
# Static dielectric constant tensor:
#      x y z
#    x 1.832830 0.000000 0.002160 
#    y 0.000000 1.801730 0.000000 
#    z 0.002160 0.000000 1.762540 
# 
# From -- ./inp_files/18554.got.cif
#   From: 2010.05.17/outbox.cif.g08.bks.cpg/sg9_10_cif.got.tgz:18554.got - 2010.06.03 20:04:27.
