data_PCOD9134624
_publ_section_title
;
Structure prediction by ZEFSAII (Michael W. Deem and Ramdas Pophale) SiO2 
 PCOD9134624
Probable space group: C C
;
_chemical_formula_sum "Si O2"
_cell_formula_units_Z 28
_cell_length_a 15.461706
_cell_length_b 9.706614
_cell_length_c 16.531229
_cell_angle_alpha 90.000000
_cell_angle_beta 151.903898
_cell_angle_gamma 90.000000
_cell_volume 1168.441127
_symmetry_space_group_name_H-M "C C"
_symmetry_group_IT_number 9
_symmetry_cell_setting 'monoclinic'
loop_
_space_group_symop_operation_xyz
x,y,z
x,-y,1/2+z
1/2+x,1/2+y,z
1/2+x,1/2-y,1/2+z
loop_
_atom_site_type_symbol
_atom_site_label
_atom_site_fract_x
_atom_site_fract_y
_atom_site_fract_z
Si Si1 0.734390 0.687944 0.389980
Si Si2 0.523603 0.262620 0.420348
Si Si3 0.554067 0.047591 0.985336
Si Si4 0.566714 0.689632 0.776080
Si Si5 0.953080 0.571322 0.075076
Si Si6 0.348577 0.422583 0.592099
Si Si7 0.707386 0.411922 0.683016
O O1 0.905535 0.587706 0.554435
O O2 0.783645 0.840341 0.459151
O O3 0.703937 0.649348 0.270446
O O4 0.546958 0.641380 0.279206
O O5 0.602199 0.311763 0.400711
O O6 0.518573 0.389232 0.479784
O O7 0.323689 0.201116 0.227611
O O8 0.579976 0.117630 0.507457
O O9 0.695512 0.098258 0.034961
O O10 0.333311 0.047882 0.781473
O O11 0.571615 0.093978 0.092068
O O12 0.527913 0.840442 0.710446
O O13 0.401020 0.582467 0.621334
O O14 0.750639 0.631381 0.888015
#
# Coordination Sequence:
#
# PCOD9134624 Si02
#       7
#     4   4   4   4   4   4   4
#     4  10  23  41  68  94 136 167 218 266 330 384
#     4  10  19  38  65  93 126 168 217 262 307 388
#     4   9  22  39  64  92 133 166 216 262 323 386
#     4  11  23  42  69  98 128 170 222 270 320 385
#     4  10  23  44  65  96 130 174 214 269 326 387
#     4  11  23  43  64 101 130 173 220 265 326 387
#     4   9  19  37  63  94 123 168 219 262 308 381
#
# _framework density 23.963552
#
# number of rings (size 3 to 8) (size 9 to 14) (size 15 to 20)
#    0.857    1.143    0.000    3.429    0.000    3.429 
#    2.571    0.000   12.571    0.000    0.000    0.000 
#    0.000    0.000    0.000    0.000    0.000    0.000 
#
# Total GULP energy -77959.302311 kJ/mol
# GULP energy per Si atom -5568.521594 kJ/mol
# Density = 2.390901 g / cm^3
# Si number density = 23.963552 Si / 1000 Ang^3
#
#
#
# Elastic Constant Matrix: (Units=GPa)
#
#
# Indices 1 2 3 4 5 6 
#
# 1 163.5203 32.1129 34.9516 0.0001 -5.6909 0.0001
# 2 32.1129 54.1805 27.4050 0.0000 -20.8603 0.0000
# 3 34.9516 27.4050 58.7125 0.0003 -20.4541 0.0003
# 4 0.0001 0.0000 0.0003 25.9695 0.0001 -5.5530
# 5 -5.6909 -20.8603 -20.4541 0.0001 35.2360 0.0001
# 6 0.0001 0.0000 0.0003 -5.5530 0.0001 25.3570
#
#
#
# Elastic Compliance Matrix: (Units=1/GPa)
#
#
# Indices 1 2 3 4 5 6 
#
# 1 0.007575 -0.003786 -0.003882 0.000000 -0.003271 0.000000
# 2 -0.003786 0.029039 -0.006925 0.000000 0.012560 0.000000
# 3 -0.003882 -0.006925 0.026234 0.000000 0.010502 0.000000
# 4 0.000000 0.000000 0.000000 0.040398 0.000000 0.008847
# 5 -0.003271 0.012560 0.010502 0.000000 0.041384 0.000000
# 6 0.000000 0.000000 0.000000 0.008847 0.000000 0.041374
#
#
# Mechanical properties :
#
#
# Convention : Reuss Voigt Hill
#
# Bulk Modulus (GPa) = 29.70645 51.70580 40.70613
# Shear Modulus (GPa) = 22.08373 29.44209 25.76291
#
# Velocity S-wave (km/s) = 3.03901 3.50897 3.28241
# Velocity P-wave (km/s) = 4.97368 6.16773 5.60260
#
# Compressibility (1/GPa) = 0.03366272
#
# Stress axis : x y z
#
# Youngs Moduli (GPa) = 132.01757 34.43607 38.11834
#
# Poissons Ratio (x) = 0.13036 0.14797
# Poissons Ratio (y) = 0.49975 0.26398
# Poissons Ratio (z) = 0.51248 0.23848
#
# Static dielectric constant tensor:
#      x y z
#    x 1.935680 0.000000 0.134930 
#    y 0.000000 1.778330 0.000000 
#    z 0.134930 0.000000 2.147290 
# 
# From -- ./inp_files/25943.got.cif
#   From: 2010.05.17/outbox.cif.g08.bks.cpg/sg9_13_cif.got.tgz:25943.got - 2010.06.03 20:04:27.
