data_PCOD9134163
_publ_section_title
;
Structure prediction by ZEFSAII (Michael W. Deem and Ramdas Pophale) SiO2 
 PCOD9134163
Probable space group: C C
;
_chemical_formula_sum "Si O2"
_cell_formula_units_Z 32
_cell_length_a 9.445854
_cell_length_b 10.360010
_cell_length_c 13.487088
_cell_angle_alpha 90.000000
_cell_angle_beta 69.328165
_cell_angle_gamma 90.000000
_cell_volume 1234.860823
_symmetry_space_group_name_H-M "C C"
_symmetry_group_IT_number 9
_symmetry_cell_setting 'monoclinic'
loop_
_space_group_symop_operation_xyz
x,y,z
x,-y,1/2+z
1/2+x,1/2+y,z
1/2+x,1/2-y,1/2+z
loop_
_atom_site_type_symbol
_atom_site_label
_atom_site_fract_x
_atom_site_fract_y
_atom_site_fract_z
Si Si1 0.517950 0.353435 0.480490
Si Si2 0.546107 0.123547 0.922420
Si Si3 0.307317 0.448337 0.929478
Si Si4 0.335661 0.289478 0.102632
Si Si5 0.316002 0.112790 0.463064
Si Si6 0.746273 0.544920 0.254434
Si Si7 0.351380 0.800053 0.306336
Si Si8 0.527464 0.513086 0.654994
O O1 0.441812 0.483587 0.456876
O O2 0.413512 0.237469 0.468831
O O3 0.691689 0.343174 0.401428
O O4 0.508952 0.378494 0.600555
O O5 0.483432 0.235657 0.007525
O O6 0.512127 0.176250 0.820991
O O7 0.700492 0.063505 0.920097
O O8 0.429306 0.005232 0.954428
O O9 0.328833 0.353213 0.829358
O O10 0.242362 0.357189 0.036001
O O11 0.283019 0.160496 0.170044
O O12 0.384879 0.395504 0.170896
O O13 0.272754 0.106005 0.356816
O O14 0.169448 0.083403 0.565085
O O15 0.845641 0.411804 0.224418
O O16 0.584607 0.498932 0.252120
#
# Coordination Sequence:
#
# PCOD9134163 Si02
#       8
#     4   4   4   4   4   4   4   4
#     4  11  21  40  68  93 124 171 217 264 326 386
#     4  10  18  38  63  89 124 162 211 257 322 375
#     4  10  21  38  66  91 123 166 215 265 321 386
#     4  10  22  37  63  92 126 170 214 269 319 380
#     4  11  22  38  71  93 129 179 214 267 329 385
#     4  11  23  39  66  97 129 173 219 268 325 386
#     4  10  21  38  61  91 125 164 207 263 322 376
#     4  11  22  42  66  92 132 175 217 267 324 390
#
# _framework density 25.913848999999999
#
# number of rings (size 3 to 8) (size 9 to 14) (size 15 to 20)
#    0.000    1.500    5.000    1.500    1.750    0.000 
#    0.000    2.500   13.750    0.000    0.000    0.000 
#    0.000    0.000    0.000    0.000    0.000    0.000 
#
# Total GULP energy -89329.533202 kJ/mol
# GULP energy per Si atom -5583.095825 kJ/mol
# Density = 2.585487 g / cm^3
# Si number density = 25.913849 Si / 1000 Ang^3
#
#
#
# Elastic Constant Matrix: (Units=GPa)
#
#
# Indices 1 2 3 4 5 6 
#
# 1 92.0284 25.2128 22.3738 0.0000 37.2293 0.0000
# 2 25.2128 125.6038 10.2132 0.0000 26.3766 0.0000
# 3 22.3738 10.2132 105.6736 0.0000 35.0899 0.0000
# 4 0.0000 0.0000 0.0000 32.6834 0.0000 21.2670
# 5 37.2293 26.3766 35.0899 0.0000 42.2834 0.0000
# 6 0.0000 0.0000 0.0000 21.2670 0.0000 65.5594
#
#
#
# Elastic Compliance Matrix: (Units=1/GPa)
#
#
# Indices 1 2 3 4 5 6 
#
# 1 0.017154 -0.000110 0.001893 0.000000 -0.016606 0.000000
# 2 -0.000110 0.009314 0.001408 0.000000 -0.006882 0.000000
# 3 0.001893 0.001408 0.013488 0.000000 -0.013739 0.000000
# 4 0.000000 0.000000 0.000000 0.038783 0.000000 -0.012581
# 5 -0.016606 -0.006882 -0.013739 0.000000 0.053965 0.000000
# 6 0.000000 0.000000 0.000000 -0.012581 0.000000 0.019334
#
#
# Mechanical properties :
#
#
# Convention : Reuss Voigt Hill
#
# Bulk Modulus (GPa) = 21.58031 48.76727 35.17379
# Shear Modulus (GPa) = 31.03602 45.80564 38.42083
#
# Velocity S-wave (km/s) = 3.46448 4.20886 3.85468
# Velocity P-wave (km/s) = 4.93450 6.51761 5.78050
#
# Compressibility (1/GPa) = 0.04633854
#
# Stress axis : x y z
#
# Youngs Moduli (GPa) = 58.29602 107.36095 74.13838
#
# Poissons Ratio (x) = 0.01182 -0.14033
# Poissons Ratio (y) = 0.00642 -0.10442
# Poissons Ratio (z) = -0.11034 -0.15121
#
# Static dielectric constant tensor:
#      x y z
#    x 2.018370 0.000000 -0.053940 
#    y 0.000000 2.083070 0.000000 
#    z -0.053940 0.000000 2.145900 
# 
# From -- ./inp_files/22896.got.cif
#   From: 2010.05.17/outbox.cif.g08.bks.cpg/sg9_12_cif.got.tgz:22896.got - 2010.06.03 20:04:27.
