data_PCOD9134489
_publ_section_title
;
Structure prediction by ZEFSAII (Michael W. Deem and Ramdas Pophale) SiO2 
 PCOD9134489
Probable space group: C C
;
_chemical_formula_sum "Si O2"
_cell_formula_units_Z 28
_cell_length_a 22.589155
_cell_length_b 12.658634
_cell_length_c 7.529914
_cell_angle_alpha 90.000000
_cell_angle_beta 144.481058
_cell_angle_gamma 90.000000
_cell_volume 1250.927384
_symmetry_space_group_name_H-M "C C"
_symmetry_group_IT_number 9
_symmetry_cell_setting 'monoclinic'
loop_
_space_group_symop_operation_xyz
x,y,z
x,-y,1/2+z
1/2+x,1/2+y,z
1/2+x,1/2-y,1/2+z
loop_
_atom_site_type_symbol
_atom_site_label
_atom_site_fract_x
_atom_site_fract_y
_atom_site_fract_z
Si Si1 0.537460 0.359752 0.481240
Si Si2 0.732464 0.829421 0.828492
Si Si3 0.763711 0.964979 0.262529
Si Si4 0.566445 0.142074 0.426786
Si Si5 0.484115 0.571581 0.464271
Si Si6 0.008049 0.300784 0.391054
Si Si7 0.402493 0.815205 0.798181
O O1 0.605861 0.259201 0.588158
O O2 0.559615 0.471594 0.624873
O O3 0.487342 0.396464 0.175807
O O4 0.454828 0.300394 0.399712
O O5 0.761375 0.890671 0.083444
O O6 0.788216 0.715731 0.962491
O O7 0.611485 0.824216 0.539879
O O8 0.757284 0.908351 0.728497
O O9 0.869454 0.950308 0.622889
O O10 0.662739 0.932116 0.128484
O O11 0.513749 0.153880 0.104235
O O12 0.475889 0.116198 0.347127
O O13 0.512657 0.675276 0.426717
O O14 0.917819 0.340434 0.042496
#
# Coordination Sequence:
#
# PCOD9134489 Si02
#       7
#     4   4   4   4   4   4   4
#     4   9  19  30  51  81 106 145 181 223 285 324
#     4  11  23  34  58  90 112 148 192 229 291 333
#     4  11  20  34  56  88 113 145 188 242 278 336
#     4   8  21  35  50  81 116 146 186 225 284 334
#     4  11  17  32  55  80 116 140 186 238 274 326
#     4  10  21  36  51  84 116 150 181 238 277 337
#     4  10  19  37  53  80 115 146 182 231 285 328
#
# _framework density 22.383393999999999
#
# number of rings (size 3 to 8) (size 9 to 14) (size 15 to 20)
#    0.857    1.143    2.857    1.714    2.000    0.000 
#    0.000    0.000    0.000    1.714    3.714    0.000 
#    0.000    0.000    0.000    0.000    0.000    0.000 
#
# Total GULP energy -77943.931791 kJ/mol
# GULP energy per Si atom -5567.423699 kJ/mol
# Density = 2.233245 g / cm^3
# Si number density = 22.383394 Si / 1000 Ang^3
#
#
#
# Elastic Constant Matrix: (Units=GPa)
#
#
# Indices 1 2 3 4 5 6 
#
# 1 68.1480 15.9106 5.1078 0.0000 -11.4881 0.0000
# 2 15.9106 47.6362 14.2375 0.0000 9.1404 0.0000
# 3 5.1078 14.2375 36.1694 0.0000 -8.7802 0.0000
# 4 0.0000 0.0000 0.0000 23.1515 0.0000 8.7580
# 5 -11.4881 9.1404 -8.7802 0.0000 30.6116 0.0000
# 6 0.0000 0.0000 0.0000 8.7580 0.0000 39.4246
#
#
#
# Elastic Compliance Matrix: (Units=1/GPa)
#
#
# Indices 1 2 3 4 5 6 
#
# 1 0.018376 -0.009290 0.003664 0.000000 0.010721 0.000000
# 2 -0.009290 0.032123 -0.015593 0.000000 -0.017551 0.000000
# 3 0.003664 -0.015593 0.037332 0.000000 0.016739 0.000000
# 4 0.000000 0.000000 0.000000 0.047156 0.000000 -0.010476
# 5 0.010721 -0.017551 0.016739 0.000000 0.046732 0.000000
# 6 0.000000 0.000000 0.000000 -0.010476 0.000000 0.027692
#
#
# Mechanical properties :
#
#
# Convention : Reuss Voigt Hill
#
# Bulk Modulus (GPa) = 22.02987 24.71837 23.37412
# Shear Modulus (GPa) = 18.72798 26.41740 22.57269
#
# Velocity S-wave (km/s) = 2.89570 3.43916 3.17907
# Velocity P-wave (km/s) = 4.58732 5.18050 4.89291
#
# Compressibility (1/GPa) = 0.04539291
#
# Stress axis : x y z
#
# Youngs Moduli (GPa) = 54.42026 31.12995 26.78688
#
# Poissons Ratio (x) = 0.28919 -0.09816
# Poissons Ratio (y) = 0.50555 0.41770
# Poissons Ratio (z) = -0.19941 0.48542
#
# Static dielectric constant tensor:
#      x y z
#    x 1.905200 0.000000 -0.013310 
#    y 0.000000 1.912100 0.000000 
#    z -0.013310 0.000000 1.849950 
# 
# From -- ./inp_files/7198.got.cif
#   From: 2010.05.17/outbox.cif.g08.bks.cpg/sg9_4_cif.got.tgz:7198.got - 2010.06.03 20:04:27.
