data_PCOD9134217
_publ_section_title
;
Structure prediction by ZEFSAII (Michael W. Deem and Ramdas Pophale) SiO2 
 PCOD9134217
Probable space group: C C
;
_chemical_formula_sum "Si O2"
_cell_formula_units_Z 32
_cell_length_a 20.632533
_cell_length_b 8.554500
_cell_length_c 14.975412
_cell_angle_alpha 90.000000
_cell_angle_beta 30.647382
_cell_angle_gamma 90.000000
_cell_volume 1347.366646
_symmetry_space_group_name_H-M "C C"
_symmetry_group_IT_number 9
_symmetry_cell_setting 'monoclinic'
loop_
_space_group_symop_operation_xyz
x,y,z
x,-y,1/2+z
1/2+x,1/2+y,z
1/2+x,1/2-y,1/2+z
loop_
_atom_site_type_symbol
_atom_site_label
_atom_site_fract_x
_atom_site_fract_y
_atom_site_fract_z
Si Si1 0.633750 0.048520 0.569980
Si Si2 0.072908 0.962266 0.431356
Si Si3 0.869608 0.385818 0.818833
Si Si4 0.294887 0.217416 0.582053
Si Si5 0.452557 0.138518 0.544282
Si Si6 0.325412 0.649120 0.715534
Si Si7 0.676112 0.952498 0.235561
Si Si8 0.690115 0.396740 0.458240
O O1 0.662571 0.052558 0.643651
O O2 0.627633 0.233244 0.555607
O O3 0.502499 0.964261 0.692300
O O4 0.743160 0.967489 0.378157
O O5 0.194198 0.920064 0.225810
O O6 0.107078 0.007867 0.492688
O O7 0.017918 0.787826 0.508701
O O8 0.961549 0.072332 0.529277
O O9 0.853434 0.299700 0.743354
O O10 0.756786 0.514235 0.959495
O O11 0.826554 0.260790 0.942177
O O12 0.427329 0.176984 0.471395
O O13 0.246516 0.383388 0.673573
O O14 0.314986 0.133954 0.750136
O O15 0.538505 0.986348 0.441341
O O16 0.248198 0.671958 0.713588
#
# Coordination Sequence:
#
# PCOD9134217 Si02
#       8
#     4   4   4   4   4   4   4   4
#     4  12  25  47  75 104 152 201 248 308 383 447
#     4  10  21  40  70  94 139 190 241 295 357 445
#     4  12  27  46  73 108 151 190 254 316 371 448
#     4  10  20  41  71 104 143 202 246 286 373 454
#     4  10  18  42  71  98 138 190 249 283 361 449
#     4  12  25  45  72 113 148 190 252 315 379 437
#     4  11  22  42  74 112 151 197 245 312 369 446
#     4  11  24  45  70 101 140 196 247 299 375 446
#
# _framework density 23.750031
#
# number of rings (size 3 to 8) (size 9 to 14) (size 15 to 20)
#    0.000    1.000    5.000    3.000    1.750    0.000 
#    6.750    0.000    0.000    0.000    0.000    0.000 
#    0.000    0.000    0.000    0.000    0.000    0.000 
#
# Total GULP energy -89190.952243 kJ/mol
# GULP energy per Si atom -5574.434515 kJ/mol
# Density = 2.369598 g / cm^3
# Si number density = 23.750031 Si / 1000 Ang^3
#
#
#
# Elastic Constant Matrix: (Units=GPa)
#
#
# Indices 1 2 3 4 5 6 
#
# 1 175.9989 38.1915 49.6790 0.0000 -0.3646 0.0000
# 2 38.1915 63.4610 17.0994 -0.0001 0.9352 0.0000
# 3 49.6790 17.0994 42.1870 0.0000 0.0233 0.0000
# 4 0.0000 -0.0001 0.0000 25.4656 0.0000 2.1908
# 5 -0.3646 0.9352 0.0233 0.0000 31.2970 0.0000
# 6 0.0000 0.0000 0.0000 2.1908 0.0000 27.7862
#
#
#
# Elastic Compliance Matrix: (Units=1/GPa)
#
#
# Indices 1 2 3 4 5 6 
#
# 1 0.008951 -0.002862 -0.009381 0.000000 0.000197 0.000000
# 2 -0.002862 0.018613 -0.004174 0.000000 -0.000586 0.000000
# 3 -0.009381 -0.004174 0.036443 0.000000 -0.000012 0.000000
# 4 0.000000 0.000000 0.000000 0.039537 0.000000 -0.003117
# 5 0.000197 -0.000586 -0.000012 0.000000 0.031972 0.000000
# 6 0.000000 0.000000 0.000000 -0.003117 0.000000 0.036235
#
#
# Mechanical properties :
#
#
# Convention : Reuss Voigt Hill
#
# Bulk Modulus (GPa) = 32.07829 54.62075 43.34952
# Shear Modulus (GPa) = 23.25844 28.68823 25.97334
#
# Velocity S-wave (km/s) = 3.13277 3.47929 3.31057
# Velocity P-wave (km/s) = 5.15962 6.26009 5.73630
#
# Compressibility (1/GPa) = 0.03117373
#
# Stress axis : x y z
#
# Youngs Moduli (GPa) = 111.71543 53.72464 27.44039
#
# Poissons Ratio (x) = 0.15377 0.25742
# Poissons Ratio (y) = 0.31975 0.11453
# Poissons Ratio (z) = 1.04800 0.22423
#
# Static dielectric constant tensor:
#      x y z
#    x 2.308450 0.000000 0.105790 
#    y 0.000000 1.915950 0.000000 
#    z 0.105790 0.000000 1.937530 
# 
# From -- ./inp_files/31555.got.cif
#   From: 2010.05.17/outbox.cif.g08.bks.cpg/sg9_16_cif.got.tgz:31555.got - 2010.06.03 20:04:27.
