data_PCOD9134789
_publ_section_title
;
Structure prediction by ZEFSAII (Michael W. Deem and Ramdas Pophale) SiO2 
 PCOD9134789
Probable space group: C C
;
_chemical_formula_sum "Si O2"
_cell_formula_units_Z 32
_cell_length_a 12.148149
_cell_length_b 13.072859
_cell_length_c 20.461006
_cell_angle_alpha 90.000000
_cell_angle_beta 25.374288
_cell_angle_gamma 90.000000
_cell_volume 1392.478849
_symmetry_space_group_name_H-M "C C"
_symmetry_group_IT_number 9
_symmetry_cell_setting 'monoclinic'
loop_
_space_group_symop_operation_xyz
x,y,z
x,-y,1/2+z
1/2+x,1/2+y,z
1/2+x,1/2-y,1/2+z
loop_
_atom_site_type_symbol
_atom_site_label
_atom_site_fract_x
_atom_site_fract_y
_atom_site_fract_z
Si Si1 0.229150 0.818462 0.368030
Si Si2 0.243651 0.200325 0.658834
Si Si3 0.960799 0.402330 0.619732
Si Si4 0.732997 0.534192 0.968283
Si Si5 0.553884 0.050256 0.920051
Si Si6 0.259883 0.653813 0.255885
Si Si7 0.561773 0.674124 0.608485
Si Si8 0.501453 0.538336 0.880701
O O1 0.375286 0.898903 0.336349
O O2 0.377434 0.742166 0.239424
O O3 0.055661 0.889854 0.413978
O O4 0.039116 0.738331 0.506757
O O5 0.112251 0.282086 0.779144
O O6 0.180022 0.200180 0.616610
O O7 0.142362 0.095404 0.744024
O O8 0.982701 0.423821 0.531305
O O9 0.011061 0.282659 0.603041
O O10 0.198291 0.463721 0.527190
O O11 0.678745 0.438196 0.794994
O O12 0.833568 0.567137 0.985141
O O13 0.450245 0.580586 0.114530
O O14 0.704496 0.412537 0.987702
O O15 0.796672 0.117182 0.768928
O O16 0.618899 0.929957 0.876244
#
# Coordination Sequence:
#
# PCOD9134789 Si02
#       8
#     4   4   4   4   4   4   4   4
#     4  10  20  41  68  94 131 173 225 280 340 421
#     4  10  19  41  70  92 121 179 235 266 342 416
#     4  12  26  43  70 100 139 182 231 285 356 415
#     4  10  23  40  64  98 132 176 227 284 350 407
#     4  11  24  41  64  98 134 177 230 289 338 418
#     4   9  21  38  67  92 124 175 226 280 337 415
#     4  11  23  43  67  96 135 183 229 285 347 420
#     4  11  24  43  68 104 130 177 231 291 338 418
#
# _framework density 22.980599999999999
#
# number of rings (size 3 to 8) (size 9 to 14) (size 15 to 20)
#    0.000    1.500    2.500    2.250    3.500    3.000 
#    9.000    0.000    0.000    0.000    0.000    0.000 
#    0.000    0.000    0.000    0.000    0.000    0.000 
#
# Total GULP energy -89165.533246 kJ/mol
# GULP energy per Si atom -5572.845828 kJ/mol
# Density = 2.292830 g / cm^3
# Si number density = 22.980600 Si / 1000 Ang^3
#
#
#
# Elastic Constant Matrix: (Units=GPa)
#
#
# Indices 1 2 3 4 5 6 
#
# 1 101.7862 61.5638 4.8282 0.0007 12.7675 0.0022
# 2 61.5638 163.0638 39.8747 -0.0143 2.1461 -0.0080
# 3 4.8282 39.8747 39.5833 -0.0470 2.4601 0.0058
# 4 0.0007 -0.0143 -0.0470 29.2981 -0.0011 -5.1811
# 5 12.7675 2.1461 2.4601 -0.0011 33.2570 -0.0037
# 6 0.0022 -0.0080 0.0058 -5.1811 -0.0037 34.7013
#
#
#
# Elastic Compliance Matrix: (Units=1/GPa)
#
#
# Indices 1 2 3 4 5 6 
#
# 1 0.014240 -0.006584 0.005233 0.000004 -0.005429 -0.000003
# 2 -0.006584 0.011182 -0.010622 -0.000011 0.002592 0.000003
# 3 0.005233 -0.010622 0.035571 0.000051 -0.003955 -0.000001
# 4 0.000004 -0.000011 0.000051 0.035058 -0.000003 0.005234
# 5 -0.005429 0.002592 -0.003955 -0.000003 0.032278 0.000005
# 6 -0.000003 0.000003 -0.000001 0.005234 0.000005 0.029599
#
#
# Mechanical properties :
#
#
# Convention : Reuss Voigt Hill
#
# Bulk Modulus (GPa) = 26.99326 57.44076 42.21701
# Shear Modulus (GPa) = 25.74368 32.66240 29.20304
#
# Velocity S-wave (km/s) = 3.35062 3.77411 3.56865
# Velocity P-wave (km/s) = 5.17112 6.63637 5.94903
#
# Compressibility (1/GPa) = 0.03704629
#
# Stress axis : x y z
#
# Youngs Moduli (GPa) = 70.22616 89.43079 28.11277
#
# Poissons Ratio (x) = 0.58885 -0.14713
# Poissons Ratio (y) = 0.46240 0.29862
# Poissons Ratio (z) = -0.36752 0.94994
#
# Static dielectric constant tensor:
#      x y z
#    x 1.894040 0.000000 0.020900 
#    y 0.000000 1.889450 0.000010 
#    z 0.020900 0.000010 1.992490 
# 
# From -- ./inp_files/16505.got.cif
#   From: 2010.05.17/outbox.cif.g08.bks.cpg/sg9_9_cif.got.tgz:16505.got - 2010.06.03 20:04:27.
