data_PCOD9134933
_publ_section_title
;
Structure prediction by ZEFSAII (Michael W. Deem and Ramdas Pophale) SiO2 
 PCOD9134933
Probable space group: C C
;
_chemical_formula_sum "Si O2"
_cell_formula_units_Z 24
_cell_length_a 10.450407
_cell_length_b 9.511503
_cell_length_c 11.064403
_cell_angle_alpha 90.000000
_cell_angle_beta 107.278978
_cell_angle_gamma 90.000000
_cell_volume 1050.157691
_symmetry_space_group_name_H-M "C C"
_symmetry_group_IT_number 9
_symmetry_cell_setting 'monoclinic'
loop_
_space_group_symop_operation_xyz
x,y,z
x,-y,1/2+z
1/2+x,1/2+y,z
1/2+x,1/2-y,1/2+z
loop_
_atom_site_type_symbol
_atom_site_label
_atom_site_fract_x
_atom_site_fract_y
_atom_site_fract_z
Si Si1 0.549900 0.391844 0.745770
Si Si2 0.952524 0.459115 0.678982
Si Si3 0.152957 0.331374 0.113886
Si Si4 0.679377 0.403093 0.453717
Si Si5 0.392815 0.805330 0.341321
Si Si6 0.953122 0.164313 0.608581
O O1 0.653751 0.272893 0.730940
O O2 0.596294 0.469218 0.879433
O O3 0.414926 0.306030 0.740120
O O4 0.528948 0.518379 0.646022
O O5 0.805105 0.452956 0.573366
O O6 0.946158 0.548806 0.800165
O O7 0.990995 0.296548 0.703841
O O8 0.057015 0.541178 0.621903
O O9 0.299164 0.369963 0.105031
O O10 0.100255 0.219905 0.999819
O O11 0.748360 0.337929 0.353390
O O12 0.460313 0.736771 0.479092
#
# Coordination Sequence:
#
# PCOD9134933 Si02
#       6
#     4   4   4   4   4   4
#     4  11  21  36  58  85 117 152 192 239 289 344
#     4   9  19  38  60  82 114 153 193 238 290 342
#     4   9  20  37  55  81 115 150 191 235 285 344
#     4  10  20  35  58  85 115 152 193 240 288 340
#     4   9  20  38  57  83 115 149 192 235 283 343
#     4  10  22  38  58  86 116 152 195 237 289 345
#
# _framework density 22.853711000000001
#
# number of rings (size 3 to 8) (size 9 to 14) (size 15 to 20)
#    0.000    2.667    0.000    3.000    0.000    5.333 
#    0.000   15.000    0.000    0.000    0.000    0.000 
#    0.000    0.000    0.000    0.000    0.000    0.000 
#
# Total GULP energy -66852.109354 kJ/mol
# GULP energy per Si atom -5571.009113 kJ/mol
# Density = 2.280169 g / cm^3
# Si number density = 22.853711 Si / 1000 Ang^3
#
#
#
# Elastic Constant Matrix: (Units=GPa)
#
#
# Indices 1 2 3 4 5 6 
#
# 1 51.4639 24.9791 14.8727 0.0000 -8.4237 0.0000
# 2 24.9791 91.5492 6.2928 0.0000 1.4489 0.0000
# 3 14.8727 6.2928 58.4016 0.0000 -10.4153 0.0000
# 4 0.0000 0.0000 0.0000 39.2498 0.0000 -14.1459
# 5 -8.4237 1.4489 -10.4153 0.0000 29.3806 0.0000
# 6 0.0000 0.0000 0.0000 -14.1459 0.0000 39.8115
#
#
#
# Elastic Compliance Matrix: (Units=1/GPa)
#
#
# Indices 1 2 3 4 5 6 
#
# 1 0.024903 -0.006571 -0.004593 0.000000 0.005836 0.000000
# 2 -0.006571 0.012768 -0.000161 0.000000 -0.002571 0.000000
# 3 -0.004593 -0.000161 0.019296 0.000000 0.005532 0.000000
# 4 0.000000 0.000000 0.000000 0.029220 0.000000 0.010382
# 5 0.005836 -0.002571 0.005532 0.000000 0.037797 0.000000
# 6 0.000000 0.000000 0.000000 0.010382 0.000000 0.028807
#
#
# Mechanical properties :
#
#
# Convention : Reuss Voigt Hill
#
# Bulk Modulus (GPa) = 29.14016 32.63378 30.88697
# Shear Modulus (GPa) = 26.75497 32.03971 29.39734
#
# Velocity S-wave (km/s) = 3.42527 3.74832 3.59043
# Velocity P-wave (km/s) = 5.33120 5.74836 5.54371
#
# Compressibility (1/GPa) = 0.03431691
#
# Stress axis : x y z
#
# Youngs Moduli (GPa) = 40.15533 78.32170 51.82336
#
# Poissons Ratio (x) = 0.51469 0.23803
# Poissons Ratio (y) = 0.26388 0.00833
# Poissons Ratio (z) = 0.18444 0.01259
#
# Static dielectric constant tensor:
#      x y z
#    x 1.849360 0.000000 -0.023480 
#    y 0.000000 1.876050 0.000000 
#    z -0.023480 0.000000 1.949330 
# 
# From -- ./inp_files/15920.got.cif
#   From: 2010.05.17/outbox.cif.g08.bks.cpg/sg9_8_cif.got.tgz:15920.got - 2010.06.03 20:04:27.
