data_PCOD9134525
_publ_section_title
;
Structure prediction by ZEFSAII (Michael W. Deem and Ramdas Pophale) SiO2 
 PCOD9134525
Probable space group: C C
;
_chemical_formula_sum "Si O2"
_cell_formula_units_Z 32
_cell_length_a 13.812350
_cell_length_b 6.981109
_cell_length_c 14.000079
_cell_angle_alpha 90.000000
_cell_angle_beta 66.020020
_cell_angle_gamma 90.000000
_cell_volume 1233.446093
_symmetry_space_group_name_H-M "C C"
_symmetry_group_IT_number 9
_symmetry_cell_setting 'monoclinic'
loop_
_space_group_symop_operation_xyz
x,y,z
x,-y,1/2+z
1/2+x,1/2+y,z
1/2+x,1/2-y,1/2+z
loop_
_atom_site_type_symbol
_atom_site_label
_atom_site_fract_x
_atom_site_fract_y
_atom_site_fract_z
Si Si1 0.313480 0.254461 0.890770
Si Si2 0.546755 0.264894 0.798169
Si Si3 0.629976 0.848562 0.450487
Si Si4 0.192775 0.677633 0.270545
Si Si5 0.741742 0.865838 0.107302
Si Si6 0.299299 0.144778 0.512472
Si Si7 0.404644 0.092110 0.125465
Si Si8 0.473564 0.818721 0.810177
O O1 0.429594 0.345568 0.825023
O O2 0.265190 0.197255 0.809269
O O3 0.311615 0.059513 0.952403
O O4 0.245424 0.380808 0.992604
O O5 0.587492 0.305563 0.888071
O O6 0.643085 0.264547 0.683758
O O7 0.515475 0.036584 0.810287
O O8 0.694864 0.734156 0.505420
O O9 0.524601 0.939112 0.540499
O O10 0.682613 0.999506 0.353303
O O11 0.234454 0.570710 0.160423
O O12 0.086793 0.785056 0.277484
O O13 0.850817 0.776715 0.099352
O O14 0.332901 0.077764 0.606177
O O15 0.397769 0.253666 0.423921
O O16 0.416959 0.156191 0.231087
#
# Coordination Sequence:
#
# PCOD9134525 Si02
#       8
#     4   4   4   4   4   4   4   4
#     4  10  20  40  62  86 127 160 198 267 315 369
#     4   9  18  37  58  85 118 157 200 246 311 371
#     4  10  19  37  62  86 116 162 208 255 304 386
#     4  10  21  36  61  90 123 160 205 255 326 371
#     4   9  19  36  60  84 116 169 194 248 325 364
#     4  10  20  40  62  88 115 164 212 250 316 373
#     4  11  19  38  61  86 123 166 207 260 316 376
#     4   9  18  34  60  79 118 158 200 245 305 376
#
# _framework density 25.943572
#
# number of rings (size 3 to 8) (size 9 to 14) (size 15 to 20)
#    0.000    2.500    5.000    1.500    3.500    0.000 
#    9.000    2.500    0.000    0.000    0.000    0.000 
#    0.000    0.000    0.000    0.000    0.000    0.000 
#
# Total GULP energy -89128.181851 kJ/mol
# GULP energy per Si atom -5570.511366 kJ/mol
# Density = 2.588452 g / cm^3
# Si number density = 25.943572 Si / 1000 Ang^3
#
#
#
# Elastic Constant Matrix: (Units=GPa)
#
#
# Indices 1 2 3 4 5 6 
#
# 1 156.2120 7.1492 63.9497 0.0000 47.2830 0.0000
# 2 7.1492 29.6713 -17.3313 0.0000 3.6472 0.0000
# 3 63.9497 -17.3313 129.2461 0.0000 40.0654 0.0000
# 4 0.0000 0.0000 0.0000 18.3971 0.0000 8.0779
# 5 47.2830 3.6472 40.0654 0.0000 60.6326 0.0000
# 6 0.0000 0.0000 0.0000 8.0779 0.0000 19.2275
#
#
#
# Elastic Compliance Matrix: (Units=1/GPa)
#
#
# Indices 1 2 3 4 5 6 
#
# 1 0.009564 -0.003946 -0.003801 0.000000 -0.004709 0.000000
# 2 -0.003946 0.040600 0.009055 0.000000 -0.005348 0.000000
# 3 -0.003801 0.009055 0.012679 0.000000 -0.005959 0.000000
# 4 0.000000 0.000000 0.000000 0.066651 0.000000 -0.028002
# 5 -0.004709 -0.005348 -0.005959 0.000000 0.024424 0.000000
# 6 0.000000 0.000000 0.000000 -0.028002 0.000000 0.063773
#
#
# Mechanical properties :
#
#
# Convention : Reuss Voigt Hill
#
# Bulk Modulus (GPa) = 15.27728 46.96274 31.12001
# Shear Modulus (GPa) = 21.10635 37.07555 29.09095
#
# Velocity S-wave (km/s) = 2.85537 3.78442 3.35224
# Velocity P-wave (km/s) = 4.09540 6.10221 5.19660
#
# Compressibility (1/GPa) = 0.06545666
#
# Stress axis : x y z
#
# Youngs Moduli (GPa) = 104.56289 24.63079 78.86810
#
# Poissons Ratio (x) = 0.09719 0.29982
# Poissons Ratio (y) = 0.41261 -0.71411
# Poissons Ratio (z) = 0.39749 -0.22302
#
# Static dielectric constant tensor:
#      x y z
#    x 2.373370 0.000000 -0.125490 
#    y 0.000000 2.377500 0.000000 
#    z -0.125490 0.000000 2.167300 
# 
# From -- ./inp_files/24505.got.cif
#   From: 2010.05.17/outbox.cif.g08.bks.cpg/sg9_13_cif.got.tgz:24505.got - 2010.06.03 20:04:27.
