data_PCOD9134494
_publ_section_title
;
Structure prediction by ZEFSAII (Michael W. Deem and Ramdas Pophale) SiO2 
 PCOD9134494
Probable space group: C C
;
_chemical_formula_sum "Si O2"
_cell_formula_units_Z 28
_cell_length_a 14.905013
_cell_length_b 11.231630
_cell_length_c 12.342080
_cell_angle_alpha 90.000000
_cell_angle_beta 28.214337
_cell_angle_gamma 90.000000
_cell_volume 976.820100
_symmetry_space_group_name_H-M "C C"
_symmetry_group_IT_number 9
_symmetry_cell_setting 'monoclinic'
loop_
_space_group_symop_operation_xyz
x,y,z
x,-y,1/2+z
1/2+x,1/2+y,z
1/2+x,1/2-y,1/2+z
loop_
_atom_site_type_symbol
_atom_site_label
_atom_site_fract_x
_atom_site_fract_y
_atom_site_fract_z
Si Si1 0.752320 0.402570 0.339960
Si Si2 0.521074 0.639649 0.649327
Si Si3 0.560413 0.645705 0.834911
Si Si4 0.810321 0.588989 0.023383
Si Si5 0.685020 0.927830 0.844933
Si Si6 0.254610 0.564559 0.509972
Si Si7 0.326857 0.686961 0.644362
O O1 0.660436 0.535335 0.454766
O O2 0.636714 0.325977 0.375076
O O3 0.765268 0.363667 0.450945
O O4 0.963272 0.408771 0.067972
O O5 0.583542 0.709493 0.692761
O O6 0.352800 0.440385 0.377620
O O7 0.450145 0.713880 0.621593
O O8 0.689131 0.528554 0.675262
O O9 0.764958 0.686880 0.161898
O O10 0.036419 0.561686 0.781441
O O11 0.744843 0.882678 0.899970
O O12 0.840555 0.879212 0.596351
O O13 0.712696 0.071997 0.809496
O O14 0.378010 0.631368 0.470143
#
# Coordination Sequence:
#
# PCOD9134494 Si02
#       7
#     4   4   4   4   4   4   4
#     4  10  20  40  60  96 133 182 236 278 333 419
#     4  10  20  37  62  94 135 182 226 280 343 421
#     4  11  20  39  64  96 129 181 231 275 332 426
#     4  10  25  35  63 105 135 176 229 294 345 392
#     4  10  21  36  63  94 135 179 232 277 337 415
#     4  10  19  37  57  93 133 179 222 284 329 416
#     4  11  21  38  61 100 142 171 226 290 351 389
#
# _framework density 28.664437
#
# number of rings (size 3 to 8) (size 9 to 14) (size 15 to 20)
#    0.000    1.714    4.286    0.857    2.000    0.000 
#    0.000    2.857    0.000    0.000   11.143    8.000 
#    0.000    0.000    0.000    0.000    0.000    0.000 
#
# Total GULP energy -78230.420408 kJ/mol
# GULP energy per Si atom -5587.887172 kJ/mol
# Density = 2.859920 g / cm^3
# Si number density = 28.664437 Si / 1000 Ang^3
#
#
#
# Elastic Constant Matrix: (Units=GPa)
#
#
# Indices 1 2 3 4 5 6 
#
# 1 268.6166 39.7633 91.2329 -0.0003 57.1715 0.0003
# 2 39.7633 83.2419 40.5086 0.0000 12.8235 0.0002
# 3 91.2329 40.5086 195.8340 -0.0001 19.1122 0.0002
# 4 -0.0003 0.0000 -0.0001 7.5635 0.0001 8.2703
# 5 57.1715 12.8235 19.1122 0.0001 53.1774 -0.0001
# 6 0.0003 0.0002 0.0002 8.2703 -0.0001 55.3161
#
#
#
# Elastic Compliance Matrix: (Units=1/GPa)
#
#
# Indices 1 2 3 4 5 6 
#
# 1 0.005600 -0.000958 -0.001913 0.000000 -0.005102 0.000000
# 2 -0.000958 0.013801 -0.002263 0.000000 -0.001484 0.000000
# 3 -0.001913 -0.002263 0.006438 0.000000 0.000289 0.000000
# 4 0.000000 0.000000 0.000000 0.158051 -0.000001 -0.023630
# 5 -0.005102 -0.001484 0.000289 -0.000001 0.024545 0.000000
# 6 0.000000 0.000000 0.000000 -0.023630 0.000000 0.021611
#
#
# Mechanical properties :
#
#
# Convention : Reuss Voigt Hill
#
# Bulk Modulus (GPa) = 64.22725 98.96689 81.59707
# Shear Modulus (GPa) = 20.36619 48.29059 34.32839
#
# Velocity S-wave (km/s) = 2.66842 4.10895 3.46438
# Velocity P-wave (km/s) = 5.65236 7.55726 6.67313
#
# Compressibility (1/GPa) = 0.01556972
#
# Stress axis : x y z
#
# Youngs Moduli (GPa) = 178.56309 72.45802 155.33934
#
# Poissons Ratio (x) = 0.06944 0.29713
# Poissons Ratio (y) = 0.17111 0.35161
# Poissons Ratio (z) = 0.34156 0.16401
#
# Static dielectric constant tensor:
#      x y z
#    x 2.375630 0.000000 -0.078640 
#    y 0.000000 2.332160 0.000000 
#    z -0.078640 0.000000 2.186640 
# 
# From -- ./inp_files/18377.got.cif
#   From: 2010.05.17/outbox.cif.g08.bks.cpg/sg9_10_cif.got.tgz:18377.got - 2010.06.03 20:04:27.
