data_PCOD9134773
_publ_section_title
;
Structure prediction by ZEFSAII (Michael W. Deem and Ramdas Pophale) SiO2 
 PCOD9134773
Probable space group: C C
;
_chemical_formula_sum "Si O2"
_cell_formula_units_Z 32
_cell_length_a 6.822368
_cell_length_b 11.925033
_cell_length_c 16.085671
_cell_angle_alpha 90.000000
_cell_angle_beta 110.648954
_cell_angle_gamma 90.000000
_cell_volume 1224.609798
_symmetry_space_group_name_H-M "C C"
_symmetry_group_IT_number 9
_symmetry_cell_setting 'monoclinic'
loop_
_space_group_symop_operation_xyz
x,y,z
x,-y,1/2+z
1/2+x,1/2+y,z
1/2+x,1/2-y,1/2+z
loop_
_atom_site_type_symbol
_atom_site_label
_atom_site_fract_x
_atom_site_fract_y
_atom_site_fract_z
Si Si1 0.651630 0.847373 0.211180
Si Si2 0.104699 0.007346 0.356266
Si Si3 0.420662 0.342365 0.572459
Si Si4 0.562588 0.447313 0.175486
Si Si5 0.750851 0.737430 0.922805
Si Si6 0.613156 0.074517 0.288515
Si Si7 0.039945 0.714905 0.118590
Si Si8 0.190547 0.760056 0.893612
O O1 0.536233 0.762249 0.131911
O O2 0.846450 0.899311 0.187051
O O3 0.702673 0.770427 0.299150
O O4 0.540631 0.953256 0.240978
O O5 0.224261 0.108485 0.418184
O O6 0.863725 0.046052 0.323057
O O7 0.144583 0.882523 0.391851
O O8 0.171197 0.007031 0.269638
O O9 0.535960 0.459601 0.601262
O O10 0.204356 0.358656 0.591557
O O11 0.351105 0.312511 0.470235
O O12 0.649299 0.334046 0.150792
O O13 0.619478 0.847183 0.873373
O O14 0.958101 0.733663 0.894389
O O15 0.841884 0.737949 0.029965
O O16 0.522342 0.157962 0.205117
#
# Coordination Sequence:
#
# PCOD9134773 Si02
#       8
#     4   4   4   4   4   4   4   4
#     4  11  23  44  63  92 135 171 214 271 333 387
#     4  10  19  41  65  88 132 169 210 271 325 381
#     4  11  23  45  66  95 135 169 221 273 327 392
#     4  11  23  43  65  90 136 170 213 279 324 390
#     4  10  22  40  68  98 128 173 225 268 327 400
#     4  10  21  40  61  91 133 171 207 272 326 383
#     4  11  22  43  68  95 130 172 217 272 331 383
#     4  10  23  40  66  97 127 173 219 268 329 394
#
# _framework density 26.130772
#
# number of rings (size 3 to 8) (size 9 to 14) (size 15 to 20)
#    0.000    1.500    5.000    0.750    3.500    0.000 
#    9.000    0.000    0.000    0.000    0.000    0.000 
#    0.000    0.000    0.000    0.000    0.000    0.000 
#
# Total GULP energy -89429.430562 kJ/mol
# GULP energy per Si atom -5589.339410 kJ/mol
# Density = 2.607130 g / cm^3
# Si number density = 26.130772 Si / 1000 Ang^3
#
#
#
# Elastic Constant Matrix: (Units=GPa)
#
#
# Indices 1 2 3 4 5 6 
#
# 1 90.7101 21.7254 17.4485 0.0000 -9.0127 0.0000
# 2 21.7254 164.4925 31.9855 0.0000 -1.3032 0.0000
# 3 17.4485 31.9855 125.3983 0.0000 -3.3353 0.0000
# 4 0.0000 0.0000 0.0000 41.7115 0.0000 7.8441
# 5 -9.0127 -1.3032 -3.3353 0.0000 16.0723 0.0000
# 6 0.0000 0.0000 0.0000 7.8441 0.0000 36.6919
#
#
#
# Elastic Compliance Matrix: (Units=1/GPa)
#
#
# Indices 1 2 3 4 5 6 
#
# 1 0.012217 -0.001331 -0.001188 0.000000 0.006496 0.000000
# 2 -0.001331 0.006542 -0.001497 0.000000 -0.000527 0.000000
# 3 -0.001188 -0.001497 0.008548 0.000000 0.000987 0.000000
# 4 0.000000 0.000000 0.000000 0.024978 0.000000 -0.005340
# 5 0.006496 -0.000527 0.000987 0.000000 0.066024 0.000000
# 6 0.000000 0.000000 0.000000 -0.005340 0.000000 0.028396
#
#
# Mechanical properties :
#
#
# Convention : Reuss Voigt Hill
#
# Bulk Modulus (GPa) = 51.88188 58.10218 54.99203
# Shear Modulus (GPa) = 31.02468 39.52459 35.27463
#
# Velocity S-wave (km/s) = 3.44944 3.89339 3.67812
# Velocity P-wave (km/s) = 5.98019 6.51880 6.25530
#
# Compressibility (1/GPa) = 0.01927455
#
# Stress axis : x y z
#
# Youngs Moduli (GPa) = 81.85425 152.85543 116.98587
#
# Poissons Ratio (x) = 0.20347 0.13893
# Poissons Ratio (y) = 0.10896 0.17519
# Poissons Ratio (z) = 0.09721 0.22890
#
# Static dielectric constant tensor:
#      x y z
#    x 2.189540 0.000000 0.037390 
#    y 0.000000 2.006020 0.000000 
#    z 0.037390 0.000000 2.003380 
# 
# From -- ./inp_files/29271.got.cif
#   From: 2010.05.17/outbox.cif.g08.bks.cpg/sg9_15_cif.got.tgz:29271.got - 2010.06.03 20:04:27.
