data_PCOD9134723
_publ_section_title
;
Structure prediction by ZEFSAII (Michael W. Deem and Ramdas Pophale) SiO2 
 PCOD9134723
Probable space group: C C
;
_chemical_formula_sum "Si O2"
_cell_formula_units_Z 28
_cell_length_a 11.723956
_cell_length_b 8.200900
_cell_length_c 23.872136
_cell_angle_alpha 90.000000
_cell_angle_beta 29.135194
_cell_angle_gamma 90.000000
_cell_volume 1117.485197
_symmetry_space_group_name_H-M "C C"
_symmetry_group_IT_number 9
_symmetry_cell_setting 'monoclinic'
loop_
_space_group_symop_operation_xyz
x,y,z
x,-y,1/2+z
1/2+x,1/2+y,z
1/2+x,1/2-y,1/2+z
loop_
_atom_site_type_symbol
_atom_site_label
_atom_site_fract_x
_atom_site_fract_y
_atom_site_fract_z
Si Si1 0.389350 0.716137 0.790550
Si Si2 0.957823 0.365789 0.159175
Si Si3 0.624950 0.419100 0.747435
Si Si4 0.643981 0.216838 0.454933
Si Si5 0.950161 0.985952 0.658935
Si Si6 0.780524 0.011463 0.111539
Si Si7 0.915225 0.402727 0.508640
O O1 0.484495 0.587856 0.795821
O O2 0.417977 0.620822 0.719623
O O3 0.563490 0.866464 0.717719
O O4 0.112734 0.734909 0.918050
O O5 0.167928 0.399920 0.111939
O O6 0.792267 0.525014 0.226230
O O7 0.839338 0.190592 0.223049
O O8 0.050207 0.337366 0.056398
O O9 0.424565 0.283110 0.838354
O O10 0.775592 0.388695 0.626992
O O11 0.503123 0.377804 0.497785
O O12 0.558973 0.071696 0.451424
O O13 0.863177 0.050412 0.636902
O O14 0.224954 0.934853 0.542097
#
# Coordination Sequence:
#
# PCOD9134723 Si02
#       7
#     4   4   4   4   4   4   4
#     4  10  19  40  65  86 125 165 204 250 314 371
#     4  10  21  38  62  94 127 157 205 259 311 367
#     4   9  17  39  62  88 117 166 204 246 308 366
#     4   9  18  39  63  87 122 164 202 252 305 368
#     4  10  20  42  60  90 128 160 202 261 307 366
#     4  11  21  39  62  94 125 160 203 257 309 370
#     4   9  18  37  66  85 116 170 204 247 308 366
#
# _framework density 25.056260999999999
#
# number of rings (size 3 to 8) (size 9 to 14) (size 15 to 20)
#    0.000    2.286    5.714    0.000    0.000    2.286 
#   15.429    2.857    0.000    0.000    0.000    0.000 
#    0.000    0.000    0.000    0.000    0.000    0.000 
#
# Total GULP energy -78262.732100 kJ/mol
# GULP energy per Si atom -5590.195150 kJ/mol
# Density = 2.499923 g / cm^3
# Si number density = 25.056261 Si / 1000 Ang^3
#
#
#
# Elastic Constant Matrix: (Units=GPa)
#
#
# Indices 1 2 3 4 5 6 
#
# 1 164.0690 39.2233 16.1133 -0.0003 -35.8986 0.0001
# 2 39.2233 59.6856 7.3212 0.0003 -11.0365 0.0000
# 3 16.1133 7.3212 110.9444 -0.0008 -27.3885 0.0004
# 4 -0.0003 0.0003 -0.0008 27.2134 0.0001 -14.8774
# 5 -35.8986 -11.0365 -27.3885 0.0001 30.3002 0.0000
# 6 0.0001 0.0000 0.0004 -14.8774 0.0000 50.0150
#
#
#
# Elastic Compliance Matrix: (Units=1/GPa)
#
#
# Indices 1 2 3 4 5 6 
#
# 1 0.009380 -0.004328 0.001645 0.000000 0.011023 0.000000
# 2 -0.004328 0.019987 -0.000205 0.000000 0.001968 0.000000
# 3 0.001645 -0.000205 0.011908 0.000000 0.012638 0.000000
# 4 0.000000 0.000000 0.000000 0.043883 0.000000 0.013053
# 5 0.011023 0.001968 0.012638 0.000000 0.058203 0.000000
# 6 0.000000 0.000000 0.000000 0.013053 0.000000 0.023877
#
#
# Mechanical properties :
#
#
# Convention : Reuss Voigt Hill
#
# Bulk Modulus (GPa) = 28.16892 51.11272 39.64082
# Shear Modulus (GPa) = 27.04944 39.64180 33.34562
#
# Velocity S-wave (km/s) = 3.28921 3.98189 3.65201
# Velocity P-wave (km/s) = 5.06872 6.44857 5.79983
#
# Compressibility (1/GPa) = 0.03550012
#
# Stress axis : x y z
#
# Youngs Moduli (GPa) = 106.61002 50.03143 83.97733
#
# Poissons Ratio (x) = 0.21652 -0.13810
# Poissons Ratio (y) = 0.46137 0.01718
# Poissons Ratio (z) = -0.17532 0.01024
#
# Static dielectric constant tensor:
#      x y z
#    x 1.967110 0.000000 -0.023350 
#    y 0.000000 2.114000 0.000000 
#    z -0.023350 0.000000 2.012800 
# 
# From -- ./inp_files/29779.got.cif
#   From: 2010.05.17/outbox.cif.g08.bks.cpg/sg9_15_cif.got.tgz:29779.got - 2010.06.03 20:04:27.
