data_PCOD9134676
_publ_section_title
;
Structure prediction by ZEFSAII (Michael W. Deem and Ramdas Pophale) SiO2 
 PCOD9134676
Probable space group: C C
;
_chemical_formula_sum "Si O2"
_cell_formula_units_Z 32
_cell_length_a 8.826639
_cell_length_b 10.918335
_cell_length_c 22.272306
_cell_angle_alpha 90.000000
_cell_angle_beta 142.822786
_cell_angle_gamma 90.000000
_cell_volume 1297.050348
_symmetry_space_group_name_H-M "C C"
_symmetry_group_IT_number 9
_symmetry_cell_setting 'monoclinic'
loop_
_space_group_symop_operation_xyz
x,y,z
x,-y,1/2+z
1/2+x,1/2+y,z
1/2+x,1/2-y,1/2+z
loop_
_atom_site_type_symbol
_atom_site_label
_atom_site_fract_x
_atom_site_fract_y
_atom_site_fract_z
Si Si1 0.006870 0.122717 0.453140
Si Si2 0.063882 0.434029 0.115935
Si Si3 0.663503 0.857004 0.558271
Si Si4 0.920682 0.740611 0.186977
Si Si5 0.650216 0.774438 0.248546
Si Si6 0.462776 0.924411 0.802616
Si Si7 0.745374 0.450987 0.341121
Si Si8 0.924493 0.817752 0.790947
O O1 0.266810 0.052690 0.529686
O O2 0.029085 0.225600 0.511627
O O3 0.755741 0.049442 0.387148
O O4 0.990744 0.186898 0.382489
O O5 0.156976 0.555418 0.113198
O O6 0.167533 0.322919 0.104997
O O7 0.152743 0.398243 0.211305
O O8 0.950834 0.810915 0.647746
O O9 0.505843 0.932391 0.458835
O O10 0.871676 0.615992 0.208016
O O11 0.079711 0.829560 0.282248
O O12 0.121039 0.706722 0.198862
O O13 0.904919 0.697015 0.325722
O O14 0.539654 0.779056 0.280071
O O15 0.312532 0.021794 0.793195
O O16 0.578188 0.558879 0.318031
#
# Coordination Sequence:
#
# PCOD9134676 Si02
#       8
#     4   4   4   4   4   4   4   4
#     4  10  20  38  66  87 127 160 208 258 304 369
#     4  10  20  38  63  91 121 166 198 258 316 362
#     4  11  20  38  64  89 122 160 207 249 315 364
#     4  10  21  41  65  88 125 163 204 252 314 370
#     4   9  21  37  62  88 128 160 207 256 302 372
#     4   9  19  38  62  88 119 164 202 248 304 367
#     4  11  20  37  68  87 121 168 201 252 317 363
#     4  10  19  39  64  92 117 169 209 247 304 377
#
# _framework density 24.671361999999998
#
# number of rings (size 3 to 8) (size 9 to 14) (size 15 to 20)
#    0.000    2.000    3.750    1.500    0.000    0.000 
#    4.500   12.500   22.000    0.000    0.000    0.000 
#    0.000    0.000    0.000    0.000    0.000    0.000 
#
# Total GULP energy -89068.124042 kJ/mol
# GULP energy per Si atom -5566.757753 kJ/mol
# Density = 2.461521 g / cm^3
# Si number density = 24.671362 Si / 1000 Ang^3
#
#
#
# Elastic Constant Matrix: (Units=GPa)
#
#
# Indices 1 2 3 4 5 6 
#
# 1 161.0355 41.8546 17.7456 0.0000 18.4032 0.0000
# 2 41.8546 74.0509 12.7032 0.0000 -1.0532 0.0000
# 3 17.7456 12.7032 65.5400 0.0000 17.0136 0.0000
# 4 0.0000 0.0000 0.0000 26.4366 0.0000 -5.4941
# 5 18.4032 -1.0532 17.0136 0.0000 44.4108 0.0000
# 6 0.0000 0.0000 0.0000 -5.4941 0.0000 55.2337
#
#
#
# Elastic Compliance Matrix: (Units=1/GPa)
#
#
# Indices 1 2 3 4 5 6 
#
# 1 0.007748 -0.004349 -0.000438 0.000000 -0.003146 0.000000
# 2 -0.004349 0.016503 -0.002877 0.000000 0.003295 0.000000
# 3 -0.000438 -0.002877 0.017661 0.000000 -0.006652 0.000000
# 4 0.000000 0.000000 0.000000 0.038625 0.000000 0.003842
# 5 -0.003146 0.003295 -0.006652 0.000000 0.026447 0.000000
# 6 0.000000 0.000000 0.000000 0.003842 0.000000 0.018487
#
#
# Mechanical properties :
#
#
# Convention : Reuss Voigt Hill
#
# Bulk Modulus (GPa) = 37.61637 49.47035 43.54336
# Shear Modulus (GPa) = 33.40924 40.43776 36.92350
#
# Velocity S-wave (km/s) = 3.68390 4.05292 3.87281
# Velocity P-wave (km/s) = 5.77710 6.48049 6.13888
#
# Compressibility (1/GPa) = 0.02658417
#
# Stress axis : x y z
#
# Youngs Moduli (GPa) = 129.06719 60.59672 56.62198
#
# Poissons Ratio (x) = 0.26352 0.02482
# Poissons Ratio (y) = 0.56128 0.16288
# Poissons Ratio (z) = 0.05657 0.17431
#
# Static dielectric constant tensor:
#      x y z
#    x 1.959160 0.000000 0.012830 
#    y 0.000000 2.040350 0.000000 
#    z 0.012830 0.000000 2.055770 
# 
# From -- ./inp_files/35024.got.cif
#   From: 2010.05.17/outbox.cif.g08.bks.cpg/sg9_18_cif.got.tgz:35024.got - 2010.06.03 20:04:27.
