data_PCOD9134751
_publ_section_title
;
Structure prediction by ZEFSAII (Michael W. Deem and Ramdas Pophale) SiO2 
 PCOD9134751
Probable space group: C C
;
_chemical_formula_sum "Si O2"
_cell_formula_units_Z 28
_cell_length_a 11.917876
_cell_length_b 8.371314
_cell_length_c 10.772302
_cell_angle_alpha 90.000000
_cell_angle_beta 100.561989
_cell_angle_gamma 90.000000
_cell_volume 1056.525029
_symmetry_space_group_name_H-M "C C"
_symmetry_group_IT_number 9
_symmetry_cell_setting 'monoclinic'
loop_
_space_group_symop_operation_xyz
x,y,z
x,-y,1/2+z
1/2+x,1/2+y,z
1/2+x,1/2-y,1/2+z
loop_
_atom_site_type_symbol
_atom_site_label
_atom_site_fract_x
_atom_site_fract_y
_atom_site_fract_z
Si Si1 0.102980 0.081037 0.443190
Si Si2 0.792415 0.885517 0.088638
Si Si3 0.490030 0.359099 0.575774
Si Si4 0.647709 0.830946 0.637656
Si Si5 0.976955 0.206527 0.809531
Si Si6 0.885860 0.630857 0.712043
Si Si7 0.829526 0.435862 0.464793
O O1 0.226686 0.056975 0.413575
O O2 0.973294 0.745894 0.452334
O O3 0.019314 0.978728 0.339329
O O4 0.087862 0.250272 0.504910
O O5 0.855640 0.809350 0.219954
O O6 0.885166 0.014350 0.055619
O O7 0.684857 0.989179 0.111342
O O8 0.781839 0.743206 0.986873
O O9 0.599088 0.465354 0.567097
O O10 0.486692 0.249652 0.693890
O O11 0.567204 0.796527 0.739733
O O12 0.767403 0.733488 0.681084
O O13 0.881622 0.499983 0.603144
O O14 0.898668 0.571273 0.852448
#
# Coordination Sequence:
#
# PCOD9134751 Si02
#       7
#     4   4   4   4   4   4   4
#     4   9  20  40  65  91 135 192 240 296 367 445
#     4  11  24  38  70 104 142 184 252 308 374 444
#     4   9  21  37  66  93 134 184 243 283 370 433
#     4  10  20  42  65 100 136 189 243 304 366 445
#     4  10  19  40  69  98 141 191 242 307 368 451
#     4  10  22  41  68  96 138 188 244 299 363 451
#     4  11  24  42  67 100 142 186 244 307 380 433
#
# _framework density 26.501978000000001
#
# number of rings (size 3 to 8) (size 9 to 14) (size 15 to 20)
#    0.857    1.143    2.857    0.000    6.000    0.000 
#    2.571    0.000    0.000    0.000    0.000    0.000 
#    0.000    0.000    0.000    0.000    0.000    0.000 
#
# Total GULP energy -78248.297874 kJ/mol
# GULP energy per Si atom -5589.164134 kJ/mol
# Density = 2.644166 g / cm^3
# Si number density = 26.501978 Si / 1000 Ang^3
#
#
#
# Elastic Constant Matrix: (Units=GPa)
#
#
# Indices 1 2 3 4 5 6 
#
# 1 51.0817 19.4124 26.6766 0.0000 -19.0088 0.0000
# 2 19.4124 103.5676 61.7859 0.0000 -23.6333 0.0000
# 3 26.6766 61.7859 139.4319 0.0000 -31.4750 0.0000
# 4 0.0000 0.0000 0.0000 40.9141 0.0000 8.5261
# 5 -19.0088 -23.6333 -31.4750 0.0000 47.9390 0.0000
# 6 0.0000 0.0000 0.0000 8.5261 0.0000 40.8988
#
#
#
# Elastic Compliance Matrix: (Units=1/GPa)
#
#
# Indices 1 2 3 4 5 6 
#
# 1 0.024055 -0.001468 -0.002303 0.000000 0.007302 0.000000
# 2 -0.001468 0.013623 -0.005132 0.000000 0.002764 0.000000
# 3 -0.002303 -0.005132 0.010694 0.000000 0.003578 0.000000
# 4 0.000000 0.000000 0.000000 0.025551 0.000000 -0.005327
# 5 0.007302 0.002764 0.003578 0.000000 0.027467 0.000000
# 6 0.000000 0.000000 0.000000 -0.005327 0.000000 0.025561
#
#
# Mechanical properties :
#
#
# Convention : Reuss Voigt Hill
#
# Bulk Modulus (GPa) = 32.71678 56.64788 44.68233
# Shear Modulus (GPa) = 32.26902 38.36412 35.31657
#
# Velocity S-wave (km/s) = 3.49321 3.80885 3.65444
# Velocity P-wave (km/s) = 5.35181 6.38471 5.89094
#
# Compressibility (1/GPa) = 0.03056536
#
# Stress axis : x y z
#
# Youngs Moduli (GPa) = 41.57206 73.40480 93.50681
#
# Poissons Ratio (x) = 0.10779 0.21536
# Poissons Ratio (y) = 0.06105 0.47986
# Poissons Ratio (z) = 0.09575 0.37670
#
# Static dielectric constant tensor:
#      x y z
#    x 2.057340 0.000000 -0.038690 
#    y 0.000000 2.136250 0.000000 
#    z -0.038690 0.000000 2.102650 
# 
# From -- ./inp_files/17610.got.cif
#   From: 2010.05.17/outbox.cif.g08.bks.cpg/sg9_9_cif.got.tgz:17610.got - 2010.06.03 20:04:27.
