data_PCOD9134736
_publ_section_title
;
Structure prediction by ZEFSAII (Michael W. Deem and Ramdas Pophale) SiO2 
 PCOD9134736
Probable space group: C C
;
_chemical_formula_sum "Si O2"
_cell_formula_units_Z 28
_cell_length_a 14.799879
_cell_length_b 13.815916
_cell_length_c 9.015699
_cell_angle_alpha 90.000000
_cell_angle_beta 142.904925
_cell_angle_gamma 90.000000
_cell_volume 1111.872456
_symmetry_space_group_name_H-M "C C"
_symmetry_group_IT_number 9
_symmetry_cell_setting 'monoclinic'
loop_
_space_group_symop_operation_xyz
x,y,z
x,-y,1/2+z
1/2+x,1/2+y,z
1/2+x,1/2-y,1/2+z
loop_
_atom_site_type_symbol
_atom_site_label
_atom_site_fract_x
_atom_site_fract_y
_atom_site_fract_z
Si Si1 0.758090 0.034605 0.125000
Si Si2 0.376284 0.866867 0.445444
Si Si3 0.605827 0.776936 0.559096
Si Si4 0.061318 0.931578 0.564096
Si Si5 0.139407 0.376599 0.172100
Si Si6 0.909612 0.251921 0.009495
Si Si7 0.775933 0.477638 0.588727
O O1 0.700437 0.127877 0.139171
O O2 0.671942 0.939530 0.070008
O O3 0.715637 0.058632 0.900976
O O4 0.934339 0.014049 0.374610
O O5 0.514379 0.797950 0.588752
O O6 0.221416 0.809718 0.221853
O O7 0.366805 0.911478 0.594620
O O8 0.375023 0.950733 0.319004
O O9 0.485241 0.756667 0.270940
O O10 0.158730 0.924755 0.543120
O O11 0.971881 0.837571 0.496333
O O12 0.174337 0.958463 0.843795
O O13 0.236208 0.276552 0.297269
O O14 0.974397 0.346823 0.012797
#
# Coordination Sequence:
#
# PCOD9134736 Si02
#       7
#     4   4   4   4   4   4   4
#     4  10  22  39  66  95 130 175 215 270 333 394
#     4  11  25  44  70  97 136 176 227 275 336 394
#     4  11  23  42  69  99 133 176 226 270 335 411
#     4  10  19  40  66  97 127 175 223 271 330 399
#     4  10  22  41  66  92 129 167 217 264 327 386
#     4  10  20  38  66  92 122 170 218 264 319 390
#     4  10  23  40  67  94 135 175 220 278 332 396
#
# _framework density 25.182744
#
# number of rings (size 3 to 8) (size 9 to 14) (size 15 to 20)
#    0.000    1.714    1.429    3.429    6.000    2.286 
#    5.143    1.429    0.000    0.000    0.000    0.000 
#    0.000    0.000    0.000    0.000    0.000    0.000 
#
# Total GULP energy -78507.716966 kJ/mol
# GULP energy per Si atom -5607.694069 kJ/mol
# Density = 2.512543 g / cm^3
# Si number density = 25.182744 Si / 1000 Ang^3
#
#
#
# Elastic Constant Matrix: (Units=GPa)
#
#
# Indices 1 2 3 4 5 6 
#
# 1 161.9386 39.3222 43.8938 0.0000 1.8448 0.0000
# 2 39.3222 89.7401 29.2430 0.0000 0.5658 0.0000
# 3 43.8938 29.2430 72.6226 0.0000 2.9670 0.0000
# 4 0.0000 0.0000 0.0000 35.2410 0.0000 5.4278
# 5 1.8448 0.5658 2.9670 0.0000 42.9094 0.0000
# 6 0.0000 0.0000 0.0000 5.4278 0.0000 55.9196
#
#
#
# Elastic Compliance Matrix: (Units=1/GPa)
#
#
# Indices 1 2 3 4 5 6 
#
# 1 0.007728 -0.002146 -0.003805 0.000000 -0.000041 0.000000
# 2 -0.002146 0.013424 -0.004116 0.000000 0.000200 0.000000
# 3 -0.003805 -0.004116 0.017769 0.000000 -0.001011 0.000000
# 4 0.000000 0.000000 0.000000 0.028807 0.000000 -0.002796
# 5 -0.000041 0.000200 -0.001011 0.000000 0.023374 0.000000
# 6 0.000000 0.000000 0.000000 -0.002796 0.000000 0.018154
#
#
# Mechanical properties :
#
#
# Convention : Reuss Voigt Hill
#
# Bulk Modulus (GPa) = 53.23340 61.02436 57.12888
# Shear Modulus (GPa) = 36.85893 40.93682 38.89787
#
# Velocity S-wave (km/s) = 3.82993 4.03623 3.93443
# Velocity P-wave (km/s) = 6.38299 6.78283 6.58594
#
# Compressibility (1/GPa) = 0.01878520
#
# Stress axis : x y z
#
# Youngs Moduli (GPa) = 129.39689 74.49457 56.27925
#
# Poissons Ratio (x) = 0.15987 0.21415
# Poissons Ratio (y) = 0.27770 0.23167
# Poissons Ratio (z) = 0.49237 0.30665
#
# Static dielectric constant tensor:
#      x y z
#    x 1.959050 0.000000 0.029370 
#    y 0.000000 1.992470 0.000000 
#    z 0.029370 0.000000 1.980890 
# 
# From -- ./inp_files/9631.got.cif
#   From: 2010.05.17/outbox.cif.g08.bks.cpg/sg9_5_cif.got.tgz:9631.got - 2010.06.03 20:04:27.
