data_PCOD9134724
_publ_section_title
;
Structure prediction by ZEFSAII (Michael W. Deem and Ramdas Pophale) SiO2 
 PCOD9134724
Probable space group: C C
;
_chemical_formula_sum "Si O2"
_cell_formula_units_Z 28
_cell_length_a 7.754265
_cell_length_b 15.025186
_cell_length_c 13.374047
_cell_angle_alpha 90.000000
_cell_angle_beta 134.473354
_cell_angle_gamma 90.000000
_cell_volume 1111.895009
_symmetry_space_group_name_H-M "C C"
_symmetry_group_IT_number 9
_symmetry_cell_setting 'monoclinic'
loop_
_space_group_symop_operation_xyz
x,y,z
x,-y,1/2+z
1/2+x,1/2+y,z
1/2+x,1/2-y,1/2+z
loop_
_atom_site_type_symbol
_atom_site_label
_atom_site_fract_x
_atom_site_fract_y
_atom_site_fract_z
Si Si1 0.148570 0.060163 0.887670
Si Si2 0.197097 0.896729 0.798465
Si Si3 0.453509 0.343408 0.124612
Si Si4 0.257264 0.389207 0.484084
Si Si5 0.018968 0.762759 0.444489
Si Si6 0.260122 0.454903 0.862808
Si Si7 0.707361 0.169323 0.175714
O O1 0.026726 0.083059 0.732364
O O2 0.308959 0.975348 0.913210
O O3 0.156353 0.160804 0.936669
O O4 0.965472 0.011485 0.889423
O O5 0.021725 0.920599 0.633742
O O6 0.993824 0.849379 0.786145
O O7 0.380468 0.820530 0.838176
O O8 0.233964 0.289276 0.086118
O O9 0.653619 0.269281 0.183413
O O10 0.370659 0.385277 0.986029
O O11 0.328188 0.311133 0.437922
O O12 0.127179 0.469080 0.373191
O O13 0.122577 0.355678 0.528939
O O14 0.113339 0.402144 0.718494
#
# Coordination Sequence:
#
# PCOD9134724 Si02
#       7
#     4   4   4   4   4   4   4
#     4  10  22  41  62  97 132 166 229 268 324 426
#     4   9  20  43  61  92 134 170 221 264 332 411
#     4  12  22  41  66  97 129 166 220 285 328 396
#     4   9  20  40  66  89 125 174 214 267 333 400
#     4  11  23  39  71  94 134 176 217 280 346 390
#     4  10  19  40  65  86 132 167 211 279 319 398
#     4   9  22  36  67  93 126 167 226 265 328 407
#
# _framework density 25.182234000000001
#
# number of rings (size 3 to 8) (size 9 to 14) (size 15 to 20)
#    0.857    1.143    1.429    1.714    4.000    0.000 
#    7.714    1.429   15.714    0.000    0.000    0.000 
#    0.000    0.000    0.000    0.000    0.000    0.000 
#
# Total GULP energy -78039.232484 kJ/mol
# GULP energy per Si atom -5574.230892 kJ/mol
# Density = 2.512492 g / cm^3
# Si number density = 25.182234 Si / 1000 Ang^3
#
#
#
# Elastic Constant Matrix: (Units=GPa)
#
#
# Indices 1 2 3 4 5 6 
#
# 1 90.9433 37.9571 17.9906 0.0001 -24.7800 0.0001
# 2 37.9571 134.5971 31.5635 0.0000 -11.6689 0.0000
# 3 17.9906 31.5635 46.9527 0.0000 -28.1817 0.0001
# 4 0.0001 0.0000 0.0000 47.9375 0.0000 -12.2774
# 5 -24.7800 -11.6689 -28.1817 0.0000 37.9325 0.0001
# 6 0.0001 0.0000 0.0001 -12.2774 0.0001 23.1088
#
#
#
# Elastic Compliance Matrix: (Units=1/GPa)
#
#
# Indices 1 2 3 4 5 6 
#
# 1 0.015095 -0.004181 0.003923 0.000000 0.011490 0.000000
# 2 -0.004181 0.010178 -0.009025 0.000000 -0.006305 0.000000
# 3 0.003923 -0.009025 0.046444 0.000000 0.034292 0.000000
# 4 0.000000 0.000000 0.000000 0.024146 0.000000 0.012829
# 5 0.011490 -0.006305 0.034292 0.000000 0.057406 0.000000
# 6 0.000000 0.000000 0.000000 0.012829 0.000000 0.050089
#
#
# Mechanical properties :
#
#
# Convention : Reuss Voigt Hill
#
# Bulk Modulus (GPa) = 18.81378 49.72395 34.26886
# Shear Modulus (GPa) = 20.86446 34.12789 27.49617
#
# Velocity S-wave (km/s) = 2.88156 3.68535 3.30796
# Velocity P-wave (km/s) = 4.30795 6.15610 5.31300
#
# Compressibility (1/GPa) = 0.05315254
#
# Stress axis : x y z
#
# Youngs Moduli (GPa) = 66.24510 98.24832 21.53117
#
# Poissons Ratio (x) = 0.41076 -0.08446
# Poissons Ratio (y) = 0.27696 0.19431
# Poissons Ratio (z) = -0.25986 0.88666
#
# Static dielectric constant tensor:
#      x y z
#    x 2.073650 0.000000 0.058260 
#    y 0.000000 1.991420 0.000000 
#    z 0.058260 0.000000 2.027930 
# 
# From -- ./inp_files/23269.got.cif
#   From: 2010.05.17/outbox.cif.g08.bks.cpg/sg9_12_cif.got.tgz:23269.got - 2010.06.03 20:04:27.
