data_PCOD9134183
_publ_section_title
;
Structure prediction by ZEFSAII (Michael W. Deem and Ramdas Pophale) SiO2 
 PCOD9134183
Probable space group: C C
;
_chemical_formula_sum "Si O2"
_cell_formula_units_Z 28
_cell_length_a 11.855571
_cell_length_b 12.920618
_cell_length_c 8.063731
_cell_angle_alpha 90.000000
_cell_angle_beta 116.016054
_cell_angle_gamma 90.000000
_cell_volume 1110.050174
_symmetry_space_group_name_H-M "C C"
_symmetry_group_IT_number 9
_symmetry_cell_setting 'monoclinic'
loop_
_space_group_symop_operation_xyz
x,y,z
x,-y,1/2+z
1/2+x,1/2+y,z
1/2+x,1/2-y,1/2+z
loop_
_atom_site_type_symbol
_atom_site_label
_atom_site_fract_x
_atom_site_fract_y
_atom_site_fract_z
Si Si1 0.943190 0.875542 0.978040
Si Si2 0.220468 0.366638 0.035732
Si Si3 0.899018 0.369617 0.446623
Si Si4 0.972940 0.446857 0.824533
Si Si5 0.628602 0.635388 0.903022
Si Si6 0.819432 0.736490 0.394256
Si Si7 0.547500 0.345488 0.714062
O O1 0.810162 0.917154 0.956027
O O2 0.914553 0.752140 0.939248
O O3 0.000449 0.910907 0.840767
O O4 0.037316 0.884420 0.191884
O O5 0.152149 0.259701 0.935020
O O6 0.105696 0.439699 0.002172
O O7 0.303067 0.324802 0.242098
O O8 0.990760 0.407810 0.650257
O O9 0.923046 0.437003 0.300628
O O10 0.764371 0.403042 0.433434
O O11 0.876386 0.366800 0.847553
O O12 0.586446 0.605046 0.061903
O O13 0.675949 0.712520 0.356395
O O14 0.926204 0.776582 0.586650
#
# Coordination Sequence:
#
# PCOD9134183 Si02
#       7
#     4   4   4   4   4   4   4
#     4  11  22  39  69  99 124 178 234 275 333 409
#     4  10  18  39  65  89 132 178 220 279 334 399
#     4  11  25  38  62 102 142 172 222 292 348 397
#     4  12  22  39  64  98 140 177 217 285 356 398
#     4  10  19  42  61  94 131 174 225 286 326 397
#     4  11  20  39  63  97 130 176 225 284 324 402
#     4  11  22  34  66 103 127 167 239 279 329 396
#
# _framework density 25.224086
#
# number of rings (size 3 to 8) (size 9 to 14) (size 15 to 20)
#    0.000    1.143   10.000    0.000    6.000    0.000 
#    0.000    0.000    0.000    6.857    0.000    0.000 
#    0.000    0.000    0.000    0.000    0.000    0.000 
#
# Total GULP energy -78280.290028 kJ/mol
# GULP energy per Si atom -5591.449288 kJ/mol
# Density = 2.516667 g / cm^3
# Si number density = 25.224086 Si / 1000 Ang^3
#
#
#
# Elastic Constant Matrix: (Units=GPa)
#
#
# Indices 1 2 3 4 5 6 
#
# 1 142.3063 28.0054 72.8409 0.0000 7.6115 0.0000
# 2 28.0054 41.7654 19.4559 0.0000 2.8836 0.0000
# 3 72.8409 19.4559 97.4690 0.0000 7.7002 0.0000
# 4 0.0000 0.0000 0.0000 15.3935 0.0000 -11.8508
# 5 7.6115 2.8836 7.7002 0.0000 48.4122 0.0000
# 6 0.0000 0.0000 0.0000 -11.8508 0.0000 21.9514
#
#
#
# Elastic Compliance Matrix: (Units=1/GPa)
#
#
# Indices 1 2 3 4 5 6 
#
# 1 0.012042 -0.004268 -0.008120 0.000000 -0.000348 0.000000
# 2 -0.004268 0.027937 -0.002338 0.000000 -0.000621 0.000000
# 3 -0.008120 -0.002338 0.016895 0.000000 -0.001271 0.000000
# 4 0.000000 0.000000 0.000000 0.111165 0.000000 0.060014
# 5 -0.000348 -0.000621 -0.001271 0.000000 0.020950 0.000000
# 6 0.000000 0.000000 0.000000 0.060014 0.000000 0.077955
#
#
# Mechanical properties :
#
#
# Convention : Reuss Voigt Hill
#
# Bulk Modulus (GPa) = 36.46645 58.01615 47.24130
# Shear Modulus (GPa) = 16.36470 27.90065 22.13268
#
# Velocity S-wave (km/s) = 2.54987 3.32943 2.96538
# Velocity P-wave (km/s) = 4.81222 6.15064 5.52213
#
# Compressibility (1/GPa) = 0.02742247
#
# Stress axis : x y z
#
# Youngs Moduli (GPa) = 83.04430 35.79465 59.18970
#
# Poissons Ratio (x) = 0.15277 0.48060
# Poissons Ratio (y) = 0.35444 0.13838
# Poissons Ratio (z) = 0.67429 0.08368
#
# Static dielectric constant tensor:
#      x y z
#    x 2.014180 0.000000 0.016580 
#    y 0.000000 2.015760 0.000000 
#    z 0.016580 0.000000 2.029220 
# 
# From -- ./inp_files/7331.got.cif
#   From: 2010.05.17/outbox.cif.g08.bks.cpg/sg9_4_cif.got.tgz:7331.got - 2010.06.03 20:04:27.
