data_PCOD9134902
_publ_section_title
;
Structure prediction by ZEFSAII (Michael W. Deem and Ramdas Pophale) SiO2 
 PCOD9134902
Probable space group: C C
;
_chemical_formula_sum "Si O2"
_cell_formula_units_Z 32
_cell_length_a 11.488370
_cell_length_b 16.798758
_cell_length_c 7.443713
_cell_angle_alpha 90.000000
_cell_angle_beta 66.146897
_cell_angle_gamma 90.000000
_cell_volume 1313.860953
_symmetry_space_group_name_H-M "C C"
_symmetry_group_IT_number 9
_symmetry_cell_setting 'monoclinic'
loop_
_space_group_symop_operation_xyz
x,y,z
x,-y,1/2+z
1/2+x,1/2+y,z
1/2+x,1/2-y,1/2+z
loop_
_atom_site_type_symbol
_atom_site_label
_atom_site_fract_x
_atom_site_fract_y
_atom_site_fract_z
Si Si1 0.808290 0.301260 0.135030
Si Si2 0.184489 0.560925 0.235131
Si Si3 0.246778 0.304480 0.976732
Si Si4 0.006918 0.436712 0.549728
Si Si5 0.889965 0.926600 0.065615
Si Si6 0.838277 0.444495 0.342316
Si Si7 0.048664 0.056644 0.127641
Si Si8 0.041356 0.786314 0.417576
O O1 0.829643 0.259892 0.318568
O O2 0.828616 0.392837 0.167178
O O3 0.657302 0.288117 0.201528
O O4 0.913083 0.259740 0.946753
O O5 0.287116 0.497733 0.098554
O O6 0.109267 0.602292 0.118499
O O7 0.241901 0.623890 0.334913
O O8 0.086651 0.509969 0.415186
O O9 0.303866 0.346163 0.118099
O O10 0.109135 0.262123 0.042444
O O11 0.936069 0.403566 0.420901
O O12 0.896792 0.472167 0.744523
O O13 0.992901 0.910558 0.846613
O O14 0.978883 0.971171 0.154280
O O15 0.699930 0.451434 0.517179
O O16 0.016325 0.123711 0.998039
#
# Coordination Sequence:
#
# PCOD9134902 Si02
#       8
#     4   4   4   4   4   4   4   4
#     4   9  18  31  57  77 110 151 205 234 294 372
#     4  11  19  35  55  91 111 154 191 262 295 359
#     4  10  20  34  60  83 118 153 205 242 305 369
#     4  10  21  33  57  80 121 141 202 245 313 342
#     4  12  20  35  59  93 118 153 201 261 302 361
#     4  10  21  37  54  87 110 164 193 253 300 381
#     4  11  21  36  60  85 124 151 205 248 307 365
#     4   9  18  35  54  86 112 163 200 243 294 385
#
# _framework density 24.355695000000001
#
# number of rings (size 3 to 8) (size 9 to 14) (size 15 to 20)
#    0.750    1.000    3.750    1.500    1.750    0.000 
#    0.000    0.000    2.750    0.000   13.000    0.000 
#    0.000    0.000    0.000    0.000    0.000    0.000 
#
# Total GULP energy -89090.919355 kJ/mol
# GULP energy per Si atom -5568.182460 kJ/mol
# Density = 2.430026 g / cm^3
# Si number density = 24.355695 Si / 1000 Ang^3
#
#
#
# Elastic Constant Matrix: (Units=GPa)
#
#
# Indices 1 2 3 4 5 6 
#
# 1 57.4919 2.6149 32.3002 0.0000 -22.4796 0.0000
# 2 2.6149 58.8138 8.4229 0.0000 3.9905 0.0000
# 3 32.3002 8.4229 76.2500 0.0000 -30.7973 0.0000
# 4 0.0000 0.0000 0.0000 22.4969 0.0000 -5.6438
# 5 -22.4796 3.9905 -30.7973 0.0000 39.7585 0.0000
# 6 0.0000 0.0000 0.0000 -5.6438 0.0000 31.8815
#
#
#
# Elastic Compliance Matrix: (Units=1/GPa)
#
#
# Indices 1 2 3 4 5 6 
#
# 1 0.024688 -0.000707 -0.006859 0.000000 0.008716 0.000000
# 2 -0.000707 0.017915 -0.003736 0.000000 -0.005092 0.000000
# 3 -0.006859 -0.003736 0.021856 0.000000 0.013427 0.000000
# 4 0.000000 0.000000 0.000000 0.046516 0.000000 0.008235
# 5 0.008716 -0.005092 0.013427 0.000000 0.040991 0.000000
# 6 0.000000 0.000000 0.000000 0.008235 0.000000 0.032824
#
#
# Mechanical properties :
#
#
# Convention : Reuss Voigt Hill
#
# Bulk Modulus (GPa) = 23.89249 31.02576 27.45913
# Shear Modulus (GPa) = 22.58908 28.77525 25.68217
#
# Velocity S-wave (km/s) = 3.04874 3.44096 3.25077
# Velocity P-wave (km/s) = 4.71425 5.34352 5.03872
#
# Compressibility (1/GPa) = 0.04185415
#
# Stress axis : x y z
#
# Youngs Moduli (GPa) = 40.50607 55.81989 45.75362
#
# Poissons Ratio (x) = 0.03944 0.31385
# Poissons Ratio (y) = 0.02862 0.17094
# Poissons Ratio (z) = 0.27785 0.20855
#
# Static dielectric constant tensor:
#      x y z
#    x 2.026520 0.000000 0.021570 
#    y 0.000000 2.005770 0.000000 
#    z 0.021570 0.000000 1.928720 
# 
# From -- ./inp_files/8289.got.cif
#   From: 2010.05.17/outbox.cif.g08.bks.cpg/sg9_5_cif.got.tgz:8289.got - 2010.06.03 20:04:27.
