data_PCOD9134542
_publ_section_title
;
Structure prediction by ZEFSAII (Michael W. Deem and Ramdas Pophale) SiO2 
 PCOD9134542
Probable space group: C C
;
_chemical_formula_sum "Si O2"
_cell_formula_units_Z 32
_cell_length_a 16.324216
_cell_length_b 18.217261
_cell_length_c 9.626449
_cell_angle_alpha 90.000000
_cell_angle_beta 27.914547
_cell_angle_gamma 90.000000
_cell_volume 1340.202532
_symmetry_space_group_name_H-M "C C"
_symmetry_group_IT_number 9
_symmetry_cell_setting 'monoclinic'
loop_
_space_group_symop_operation_xyz
x,y,z
x,-y,1/2+z
1/2+x,1/2+y,z
1/2+x,1/2-y,1/2+z
loop_
_atom_site_type_symbol
_atom_site_label
_atom_site_fract_x
_atom_site_fract_y
_atom_site_fract_z
Si Si1 0.453600 0.400351 0.885550
Si Si2 0.038888 0.055331 0.718276
Si Si3 0.713237 0.947508 0.488689
Si Si4 0.970394 0.684862 0.429455
Si Si5 0.591945 0.261677 0.824977
Si Si6 0.237413 0.203084 0.381833
Si Si7 0.333675 0.600336 0.270946
Si Si8 0.150625 0.726232 0.423891
O O1 0.575910 0.468339 0.656833
O O2 0.544222 0.344207 0.852280
O O3 0.392388 0.367164 0.830234
O O4 0.285612 0.426546 0.226880
O O5 0.176243 0.119101 0.479336
O O6 0.872144 0.063498 0.862368
O O7 0.992240 0.062306 0.951713
O O8 0.552037 0.894535 0.770429
O O9 0.692655 0.036016 0.513881
O O10 0.768353 0.704182 0.700963
O O11 0.994812 0.704557 0.556257
O O12 0.100798 0.744645 0.165457
O O13 0.737516 0.267830 0.723170
O O14 0.616354 0.226776 0.638802
O O15 0.431568 0.220274 0.140960
O O16 0.278970 0.656602 0.233558
#
# Coordination Sequence:
#
# PCOD9134542 Si02
#       8
#     4   4   4   4   4   4   4   4
#     4  10  20  36  60  92 125 165 211 252 313 379
#     4  10  19  37  63  90 122 166 216 256 305 379
#     4  10  19  37  63  90 122 166 216 256 305 379
#     4  12  22  41  64  94 124 164 211 261 310 379
#     4  12  25  41  63  94 128 165 206 264 323 376
#     4  12  22  41  64  94 124 164 211 261 310 379
#     4  10  20  36  60  92 125 165 211 252 313 379
#     4  12  25  41  63  94 128 165 206 264 323 376
#
# _framework density 23.876988999999998
#
# number of rings (size 3 to 8) (size 9 to 14) (size 15 to 20)
#    0.000    1.000    5.000    3.000    0.000    0.000 
#    0.000    1.250    0.000    3.000    0.000    0.000 
#    0.000    0.000    0.000    0.000    0.000    0.000 
#
# Total GULP energy -89289.719814 kJ/mol
# GULP energy per Si atom -5580.607488 kJ/mol
# Density = 2.382264 g / cm^3
# Si number density = 23.876989 Si / 1000 Ang^3
#
#
#
# Elastic Constant Matrix: (Units=GPa)
#
#
# Indices 1 2 3 4 5 6 
#
# 1 72.6918 -1.7329 7.7977 -0.0033 15.1957 0.0012
# 2 -1.7329 89.9922 -0.1337 0.0075 -12.6110 -0.0029
# 3 7.7977 -0.1337 44.9841 0.0056 2.3373 -0.0009
# 4 -0.0033 0.0075 0.0056 37.2797 -0.0022 17.5356
# 5 15.1957 -12.6110 2.3373 -0.0022 41.8140 0.0000
# 6 0.0012 -0.0029 -0.0009 17.5356 0.0000 17.7981
#
#
#
# Elastic Compliance Matrix: (Units=1/GPa)
#
#
# Indices 1 2 3 4 5 6 
#
# 1 0.015150 -0.000485 -0.002341 0.000004 -0.005521 -0.000005
# 2 -0.000485 0.011619 -0.000073 -0.000006 0.003685 0.000008
# 3 -0.002341 -0.000073 0.022658 -0.000008 -0.000438 0.000009
# 4 0.000004 -0.000006 -0.000008 0.049993 0.000000 -0.049256
# 5 -0.005521 0.003685 -0.000438 0.000000 0.027058 0.000001
# 6 -0.000005 0.000008 0.000009 -0.049256 0.000001 0.104715
#
#
# Mechanical properties :
#
#
# Convention : Reuss Voigt Hill
#
# Bulk Modulus (GPa) = 22.92015 24.39225 23.65620
# Shear Modulus (GPa) = 19.87794 32.82748 26.35271
#
# Velocity S-wave (km/s) = 2.88846 3.71193 3.32578
# Velocity P-wave (km/s) = 4.55460 5.34876 4.96758
#
# Compressibility (1/GPa) = 0.04362973
#
# Stress axis : x y z
#
# Youngs Moduli (GPa) = 66.00466 86.06606 44.13381
#
# Poissons Ratio (x) = 0.04178 0.10331
# Poissons Ratio (y) = 0.03204 0.00321
# Poissons Ratio (z) = 0.15450 0.00626
#
# Static dielectric constant tensor:
#      x y z
#    x 1.909570 0.000010 -0.013750 
#    y 0.000010 2.087540 0.000000 
#    z -0.013750 0.000000 1.993900 
# 
# From -- ./inp_files/10093.got.cif
#   From: 2010.05.17/outbox.cif.g08.bks.cpg/sg9_6_cif.got.tgz:10093.got - 2010.06.03 20:04:27.
