data_PCOD9134855
_publ_section_title
;
Structure prediction by ZEFSAII (Michael W. Deem and Ramdas Pophale) SiO2 
 PCOD9134855
Probable space group: C C
;
_chemical_formula_sum "Si O2"
_cell_formula_units_Z 28
_cell_length_a 18.180312
_cell_length_b 5.567376
_cell_length_c 11.191348
_cell_angle_alpha 90.000000
_cell_angle_beta 70.573767
_cell_angle_gamma 90.000000
_cell_volume 1068.263612
_symmetry_space_group_name_H-M "C C"
_symmetry_group_IT_number 9
_symmetry_cell_setting 'monoclinic'
loop_
_space_group_symop_operation_xyz
x,y,z
x,-y,1/2+z
1/2+x,1/2+y,z
1/2+x,1/2-y,1/2+z
loop_
_atom_site_type_symbol
_atom_site_label
_atom_site_fract_x
_atom_site_fract_y
_atom_site_fract_z
Si Si1 0.466970 0.150203 0.175460
Si Si2 0.531367 0.514225 0.972841
Si Si3 0.242002 0.932530 0.648961
Si Si4 0.174466 0.312376 0.857128
Si Si5 0.821116 0.932694 0.273337
Si Si6 0.385037 0.799279 0.060141
Si Si7 0.094429 0.322303 0.228519
O O1 0.389669 0.256798 0.281587
O O2 0.434627 0.030910 0.071314
O O3 0.520434 0.954063 0.210233
O O4 0.518995 0.372971 0.103171
O O5 0.592600 0.730074 0.956125
O O6 0.563378 0.339285 0.854265
O O7 0.448087 0.615609 0.975606
O O8 0.289643 0.705999 0.672636
O O9 0.163039 0.841273 0.631262
O O10 0.215666 0.075572 0.782674
O O11 0.303449 0.107167 0.550267
O O12 0.242253 0.475014 0.881725
O O13 0.144818 0.462309 0.758804
O O14 0.861883 0.170820 0.198898
#
# Coordination Sequence:
#
# PCOD9134855 Si02
#       7
#     4   4   4   4   4   4   4
#     4  10  20  34  56  94 118 159 203 252 304 366
#     4  10  20  32  54  90 120 160 204 262 300 360
#     4   8  16  31  54  85 109 152 199 237 309 372
#     4   9  17  33  55  86 109 158 197 250 300 371
#     4   8  16  31  54  85 109 152 199 237 309 372
#     4   9  17  33  55  86 109 158 197 250 300 371
#     4  10  20  34  56  94 118 159 203 252 304 366
#
# _framework density 26.210761999999999
#
# number of rings (size 3 to 8) (size 9 to 14) (size 15 to 20)
#    0.000    2.857    0.000    0.857    0.000    4.571 
#    0.000    0.000    0.000    0.000  616.571    0.000 
#    0.000    0.000    0.000    0.000    0.000    0.000 
#
# Total GULP energy -78095.997936 kJ/mol
# GULP energy per Si atom -5578.285567 kJ/mol
# Density = 2.615111 g / cm^3
# Si number density = 26.210762 Si / 1000 Ang^3
#
#
#
# Elastic Constant Matrix: (Units=GPa)
#
#
# Indices 1 2 3 4 5 6 
#
# 1 170.4865 52.4406 44.8001 0.0000 -34.6633 0.0000
# 2 52.4406 88.8430 18.8407 0.0000 -26.6359 0.0000
# 3 44.8001 18.8407 58.5581 0.0000 -33.9825 0.0000
# 4 0.0000 0.0000 0.0000 38.1255 0.0000 -24.5312
# 5 -34.6633 -26.6359 -33.9825 0.0000 44.8154 0.0000
# 6 0.0000 0.0000 0.0000 -24.5312 0.0000 60.8653
#
#
#
# Elastic Compliance Matrix: (Units=1/GPa)
#
#
# Indices 1 2 3 4 5 6 
#
# 1 0.008428 -0.003767 -0.004915 0.000000 0.000553 0.000000
# 2 -0.003767 0.015390 0.002764 0.000000 0.008329 0.000000
# 3 -0.004915 0.002764 0.033387 0.000000 0.023158 0.000000
# 4 0.000000 0.000000 0.000000 0.035413 0.000000 0.014273
# 5 0.000553 0.008329 0.023158 0.000000 0.045252 0.000000
# 6 0.000000 0.000000 0.000000 0.014273 0.000000 0.022182
#
#
# Mechanical properties :
#
#
# Convention : Reuss Voigt Hill
#
# Bulk Modulus (GPa) = 22.04128 61.11671 41.57899
# Shear Modulus (GPa) = 26.73629 42.21498 34.47564
#
# Velocity S-wave (km/s) = 3.19729 4.01758 3.63067
# Velocity P-wave (km/s) = 4.69656 6.69995 5.78563
#
# Compressibility (1/GPa) = 0.04536942
#
# Stress axis : x y z
#
# Youngs Moduli (GPa) = 118.64880 64.97620 29.95180
#
# Poissons Ratio (x) = 0.24474 0.14722
# Poissons Ratio (y) = 0.44691 -0.08278
# Poissons Ratio (z) = 0.58317 -0.17958
#
# Static dielectric constant tensor:
#      x y z
#    x 2.037370 0.000000 0.000520 
#    y 0.000000 1.983120 0.000000 
#    z 0.000520 0.000000 2.119620 
# 
# From -- ./inp_files/19652.got.cif
#   From: 2010.05.17/outbox.cif.g08.bks.cpg/sg9_10_cif.got.tgz:19652.got - 2010.06.03 20:04:27.
