data_PCOD9134413
_publ_section_title
;
Structure prediction by ZEFSAII (Michael W. Deem and Ramdas Pophale) SiO2 
 PCOD9134413
Probable space group: C C
;
_chemical_formula_sum "Si O2"
_cell_formula_units_Z 32
_cell_length_a 11.616046
_cell_length_b 7.313903
_cell_length_c 20.247631
_cell_angle_alpha 90.000000
_cell_angle_beta 55.221727
_cell_angle_gamma 90.000000
_cell_volume 1412.922140
_symmetry_space_group_name_H-M "C C"
_symmetry_group_IT_number 9
_symmetry_cell_setting 'monoclinic'
loop_
_space_group_symop_operation_xyz
x,y,z
x,-y,1/2+z
1/2+x,1/2+y,z
1/2+x,1/2-y,1/2+z
loop_
_atom_site_type_symbol
_atom_site_label
_atom_site_fract_x
_atom_site_fract_y
_atom_site_fract_z
Si Si1 0.410140 0.523301 0.438800
Si Si2 0.852084 0.010503 0.811390
Si Si3 0.238305 0.080174 0.351842
Si Si4 0.444438 0.985289 0.666014
Si Si5 0.920242 0.797793 0.069813
Si Si6 0.857497 0.843934 0.677425
Si Si7 0.740744 0.348653 0.988488
Si Si8 0.634327 0.663983 0.657708
O O1 0.360988 0.574538 0.381058
O O2 0.579298 0.524103 0.388004
O O3 0.365664 0.649901 0.515218
O O4 0.347069 0.318410 0.467009
O O5 0.766729 0.200132 0.840786
O O6 0.009396 0.056883 0.734038
O O7 0.797626 0.891633 0.768823
O O8 0.286155 0.029674 0.411071
O O9 0.338545 0.007690 0.261943
O O10 0.482631 0.194917 0.639369
O O11 0.375777 0.879009 0.626111
O O12 0.567009 0.850490 0.649210
O O13 0.089375 0.778769 0.010715
O O14 0.892388 0.972129 0.126492
O O15 0.742883 0.733453 0.674847
O O16 0.704950 0.432047 0.071343
#
# Coordination Sequence:
#
# PCOD9134413 Si02
#       8
#     4   4   4   4   4   4   4   4
#     4  10  19  35  68  91 127 179 203 264 339 364
#     4  10  21  38  61  92 128 166 218 267 315 387
#     4   9  18  35  60  89 126 168 207 262 320 372
#     4  10  22  40  61  97 127 164 221 265 310 392
#     4  10  20  40  62  90 132 168 211 271 316 375
#     4  12  21  38  67  91 120 169 212 258 322 380
#     4   9  17  33  62  89 125 172 206 256 327 369
#     4  10  20  39  61  93 127 164 216 267 309 381
#
# _framework density 22.648098999999998
#
# number of rings (size 3 to 8) (size 9 to 14) (size 15 to 20)
#    0.000    2.000    5.000    0.750    0.000    1.000 
#    2.250    1.250   41.250    0.000    0.000    0.000 
#    0.000    0.000    0.000    0.000    0.000    0.000 
#
# Total GULP energy -89238.846053 kJ/mol
# GULP energy per Si atom -5577.427878 kJ/mol
# Density = 2.259655 g / cm^3
# Si number density = 22.648099 Si / 1000 Ang^3
#
#
#
# Elastic Constant Matrix: (Units=GPa)
#
#
# Indices 1 2 3 4 5 6 
#
# 1 86.3328 23.7108 43.6745 0.0000 24.4200 0.0000
# 2 23.7108 99.0298 34.5810 0.0000 15.7952 0.0000
# 3 43.6745 34.5810 142.8318 0.0000 38.0714 0.0000
# 4 0.0000 0.0000 0.0000 -0.3053 0.0000 6.2560
# 5 24.4200 15.7952 38.0714 0.0000 43.4531 0.0000
# 6 0.0000 0.0000 0.0000 6.2560 0.0000 26.6732
#
#
#
# Elastic Compliance Matrix: (Units=1/GPa)
#
#
# Indices 1 2 3 4 5 6 
#
# 1 0.014967 -0.001778 -0.002709 0.000000 -0.005391 0.000000
# 2 -0.001778 0.011402 -0.001799 0.000000 -0.001570 0.000000
# 3 -0.002709 -0.001799 0.010027 0.000000 -0.006609 0.000000
# 4 0.000000 0.000000 0.000000 -0.564140 0.000000 0.132315
# 5 -0.005391 -0.001570 -0.006609 0.000000 0.032404 0.000000
# 6 0.000000 0.000000 0.000000 0.132315 0.000000 0.006457
#
#
# Mechanical properties :
#
#
# Convention : Reuss Voigt Hill
#
# Bulk Modulus (GPa) = 41.97282 59.12521 50.54902
# Shear Modulus (GPa) = -10.67528 29.04609 9.18540
#
# Velocity S-wave (km/s) = -2.17343 3.58508 2.01606
# Velocity P-wave (km/s) = 3.50349 6.58026 5.27135
#
# Compressibility (1/GPa) = 0.02382494
#
# Stress axis : x y z
#
# Youngs Moduli (GPa) = 66.81480 87.70375 99.73532
#
# Poissons Ratio (x) = 0.15590 0.27019
# Poissons Ratio (y) = 0.11877 0.17938
# Poissons Ratio (z) = 0.18100 0.15774
#
# Static dielectric constant tensor:
#      x y z
#    x 1.878580 0.000000 0.032980 
#    y 0.000000 1.843160 0.000000 
#    z 0.032980 0.000000 1.903660 
# 
# From -- ./inp_files/33071.got.cif
#   From: 2010.05.17/outbox.cif.g08.bks.cpg/sg9_17_cif.got.tgz:33071.got - 2010.06.03 20:04:27.
