data_PCOD9134549
_publ_section_title
;
Structure prediction by ZEFSAII (Michael W. Deem and Ramdas Pophale) SiO2 
 PCOD9134549
Probable space group: C C
;
_chemical_formula_sum "Si O2"
_cell_formula_units_Z 32
_cell_length_a 22.042269
_cell_length_b 11.482569
_cell_length_c 16.976901
_cell_angle_alpha 90.000000
_cell_angle_beta 20.037364
_cell_angle_gamma 90.000000
_cell_volume 1472.254190
_symmetry_space_group_name_H-M "C C"
_symmetry_group_IT_number 9
_symmetry_cell_setting 'monoclinic'
loop_
_space_group_symop_operation_xyz
x,y,z
x,-y,1/2+z
1/2+x,1/2+y,z
1/2+x,1/2-y,1/2+z
loop_
_atom_site_type_symbol
_atom_site_label
_atom_site_fract_x
_atom_site_fract_y
_atom_site_fract_z
Si Si1 0.836220 0.376754 0.671550
Si Si2 0.700281 0.607183 0.903040
Si Si3 0.854654 0.662029 0.396201
Si Si4 0.048287 0.159650 0.406856
Si Si5 0.469644 0.710012 0.048102
Si Si6 0.739083 0.176599 0.895004
Si Si7 0.538313 0.476076 0.759286
Si Si8 0.799154 0.161890 0.095359
O O1 0.827569 0.498887 0.725725
O O2 0.738212 0.379318 0.707566
O O3 0.708458 0.291663 0.878554
O O4 0.014825 0.300142 0.451016
O O5 0.584069 0.633785 0.967544
O O6 0.812399 0.722871 0.782839
O O7 0.583109 0.577939 0.120894
O O8 0.803873 0.766406 0.397577
O O9 0.699920 0.566880 0.580217
O O10 0.865772 0.723321 0.467693
O O11 0.049908 0.615867 0.135556
O O12 0.894306 0.114804 0.655513
O O13 0.023535 0.113384 0.349333
O O14 0.596926 0.810668 0.858043
O O15 0.393116 0.647073 0.065058
O O16 0.358509 0.550580 0.974463
#
# Coordination Sequence:
#
# PCOD9134549 Si02
#       8
#     4   4   4   4   4   4   4   4
#     4  10  20  40  66  90 128 172 215 263 331 389
#     4  11  24  45  68  94 132 180 215 275 326 399
#     4  12  19  37  64  97 127 169 224 288 314 383
#     4  10  23  38  63  98 127 167 212 277 324 399
#     4  10  24  43  68  90 135 176 222 262 339 404
#     4  10  19  37  64  91 131 166 215 272 327 382
#     4  12  24  37  66  98 133 170 223 277 333 373
#     4  11  21  41  65  96 129 172 230 276 322 391
#
# _framework density 21.735377
#
# number of rings (size 3 to 8) (size 9 to 14) (size 15 to 20)
#    0.750    0.500    5.000    0.750    1.750    3.000 
#    0.000    0.000    0.000    0.000    0.000    0.000 
#    0.000    0.000    0.000    0.000    0.000    0.000 
#
# Total GULP energy -89272.552087 kJ/mol
# GULP energy per Si atom -5579.534505 kJ/mol
# Density = 2.168591 g / cm^3
# Si number density = 21.735377 Si / 1000 Ang^3
#
#
#
# Elastic Constant Matrix: (Units=GPa)
#
#
# Indices 1 2 3 4 5 6 
#
# 1 51.4632 8.8784 5.5949 -0.0001 17.8216 0.0000
# 2 8.8784 49.5305 14.5173 -0.0002 18.0476 0.0001
# 3 5.5949 14.5173 52.4873 -0.0004 18.7122 0.0002
# 4 -0.0001 -0.0002 -0.0004 30.6701 0.0002 2.4340
# 5 17.8216 18.0476 18.7122 0.0002 28.4469 -0.0001
# 6 0.0000 0.0001 0.0002 2.4340 -0.0001 27.6092
#
#
#
# Elastic Compliance Matrix: (Units=1/GPa)
#
#
# Indices 1 2 3 4 5 6 
#
# 1 0.025474 0.001361 0.003796 0.000000 -0.019319 0.000000
# 2 0.001361 0.026454 -0.001534 0.000000 -0.016626 0.000000
# 3 0.003796 -0.001534 0.025569 0.000000 -0.018224 0.000000
# 4 0.000000 0.000000 0.000000 0.032835 -0.000001 -0.002895
# 5 -0.019319 -0.016626 -0.018224 -0.000001 0.069792 0.000000
# 6 0.000000 0.000000 0.000000 -0.002895 0.000000 0.036475
#
#
# Mechanical properties :
#
#
# Convention : Reuss Voigt Hill
#
# Bulk Modulus (GPa) = 11.80073 23.49580 17.64827
# Shear Modulus (GPa) = 21.04365 25.64459 23.34412
#
# Velocity S-wave (km/s) = 3.11493 3.43863 3.28077
# Velocity P-wave (km/s) = 4.28697 5.15742 4.74221
#
# Compressibility (1/GPa) = 0.08474050
#
# Stress axis : x y z
#
# Youngs Moduli (GPa) = 39.25539 37.80217 39.11002
#
# Poissons Ratio (x) = -0.05143 -0.14845
# Poissons Ratio (y) = -0.05341 0.06001
# Poissons Ratio (z) = -0.14900 0.05800
#
# Static dielectric constant tensor:
#      x y z
#    x 1.811960 0.000000 -0.006260 
#    y 0.000000 1.811260 0.000000 
#    z -0.006260 0.000000 1.818290 
# 
# From -- ./inp_files/31608.got.cif
#   From: 2010.05.17/outbox.cif.g08.bks.cpg/sg9_16_cif.got.tgz:31608.got - 2010.06.03 20:04:27.
