data_PCOD9134389
_publ_section_title
;
Structure prediction by ZEFSAII (Michael W. Deem and Ramdas Pophale) SiO2 
 PCOD9134389
Probable space group: C C
;
_chemical_formula_sum "Si O2"
_cell_formula_units_Z 32
_cell_length_a 6.792699
_cell_length_b 13.362648
_cell_length_c 17.188467
_cell_angle_alpha 90.000000
_cell_angle_beta 130.534345
_cell_angle_gamma 90.000000
_cell_volume 1185.755316
_symmetry_space_group_name_H-M "C C"
_symmetry_group_IT_number 9
_symmetry_cell_setting 'monoclinic'
loop_
_space_group_symop_operation_xyz
x,y,z
x,-y,1/2+z
1/2+x,1/2+y,z
1/2+x,1/2-y,1/2+z
loop_
_atom_site_type_symbol
_atom_site_label
_atom_site_fract_x
_atom_site_fract_y
_atom_site_fract_z
Si Si1 0.723050 0.482429 0.158840
Si Si2 0.616092 0.076471 0.376243
Si Si3 0.995164 0.542253 0.976112
Si Si4 0.858208 0.657038 0.073197
Si Si5 0.813976 0.818656 0.785901
Si Si6 0.945811 0.367138 0.091418
Si Si7 0.357841 0.760214 0.917186
Si Si8 0.461797 0.464698 0.250969
O O1 0.199516 0.501029 0.965045
O O2 0.510995 0.476192 0.171544
O O3 0.751619 0.571183 0.103578
O O4 0.750145 0.385042 0.111582
O O5 0.793322 0.150187 0.371353
O O6 0.419991 0.146574 0.375137
O O7 0.475569 0.008228 0.276483
O O8 0.232381 0.936798 0.360349
O O9 0.046939 0.631102 0.048930
O O10 0.924496 0.456290 0.021384
O O11 0.043523 0.718345 0.179997
O O12 0.598368 0.690127 0.963032
O O13 0.875193 0.927236 0.762326
O O14 0.052537 0.744907 0.832099
O O15 0.907716 0.276816 0.023058
O O16 0.230752 0.384927 0.200751
#
# Coordination Sequence:
#
# PCOD9134389 Si02
#       8
#     4   4   4   4   4   4   4   4
#     4   9  18  36  65  93 121 170 216 283 325 388
#     4   9  18  36  66  95 127 171 224 285 332 395
#     4   9  18  36  61  97 122 169 221 289 321 395
#     4  10  22  43  64  96 140 179 223 271 345 428
#     4  11  20  40  69  92 130 186 223 277 354 395
#     4  10  19  35  61  96 120 168 222 275 323 398
#     4  11  23  42  63  96 141 181 219 274 348 423
#     4  11  18  36  65  93 125 162 224 282 340 378
#
# _framework density 26.987017999999999
#
# number of rings (size 3 to 8) (size 9 to 14) (size 15 to 20)
#    0.000    2.000    7.500    0.000    0.000    2.000 
#    6.750    0.000    2.750    0.000    0.000    0.000 
#    0.000    0.000    0.000    0.000    0.000    0.000 
#
# Total GULP energy -89283.968486 kJ/mol
# GULP energy per Si atom -5580.248030 kJ/mol
# Density = 2.692559 g / cm^3
# Si number density = 26.987018 Si / 1000 Ang^3
#
#
#
# Elastic Constant Matrix: (Units=GPa)
#
#
# Indices 1 2 3 4 5 6 
#
# 1 167.8837 29.4534 37.0673 0.0000 -26.8617 0.0000
# 2 29.4534 34.3762 17.4689 0.0000 -15.4166 0.0000
# 3 37.0673 17.4689 139.6235 0.0001 -2.1864 0.0000
# 4 0.0000 0.0000 0.0001 17.1340 0.0000 -2.0969
# 5 -26.8617 -15.4166 -2.1864 0.0000 55.3875 0.0000
# 6 0.0000 0.0000 0.0000 -2.0969 0.0000 36.2223
#
#
#
# Elastic Compliance Matrix: (Units=1/GPa)
#
#
# Indices 1 2 3 4 5 6 
#
# 1 0.007436 -0.004673 -0.001354 0.000000 0.002252 0.000000
# 2 -0.004673 0.038590 -0.003457 0.000000 0.008338 0.000000
# 3 -0.001354 -0.003457 0.007934 0.000000 -0.001306 0.000000
# 4 0.000000 0.000000 0.000000 0.058780 0.000000 0.003403
# 5 0.002252 0.008338 -0.001306 0.000000 0.021416 0.000000
# 6 0.000000 0.000000 0.000000 0.003403 0.000000 0.027804
#
#
# Mechanical properties :
#
#
# Convention : Reuss Voigt Hill
#
# Bulk Modulus (GPa) = 28.57858 56.65139 42.61499
# Shear Modulus (GPa) = 25.96177 38.94166 32.45172
#
# Velocity S-wave (km/s) = 3.10499 3.80278 3.47146
# Velocity P-wave (km/s) = 4.84431 6.34973 5.64741
#
# Compressibility (1/GPa) = 0.03499124
#
# Stress axis : x y z
#
# Youngs Moduli (GPa) = 134.48839 25.91369 126.04478
#
# Poissons Ratio (x) = 0.12109 0.17068
# Poissons Ratio (y) = 0.62842 0.43574
# Poissons Ratio (z) = 0.18211 0.08958
#
# Static dielectric constant tensor:
#      x y z
#    x 2.124320 0.000000 0.052150 
#    y 0.000000 2.282720 0.000000 
#    z 0.052150 0.000000 2.104970 
# 
# From -- ./inp_files/28823.got.cif
#   From: 2010.05.17/outbox.cif.g08.bks.cpg/sg9_15_cif.got.tgz:28823.got - 2010.06.03 20:04:27.
