data_PCOD9134093
_publ_section_title
;
Structure prediction by ZEFSAII (Michael W. Deem and Ramdas Pophale) SiO2 
 PCOD9134093
Probable space group: C C
;
_chemical_formula_sum "Si O2"
_cell_formula_units_Z 28
_cell_length_a 20.830751
_cell_length_b 9.381602
_cell_length_c 16.088020
_cell_angle_alpha 90.000000
_cell_angle_beta 152.180658
_cell_angle_gamma 90.000000
_cell_volume 1467.265101
_symmetry_space_group_name_H-M "C C"
_symmetry_group_IT_number 9
_symmetry_cell_setting 'monoclinic'
loop_
_space_group_symop_operation_xyz
x,y,z
x,-y,1/2+z
1/2+x,1/2+y,z
1/2+x,1/2-y,1/2+z
loop_
_atom_site_type_symbol
_atom_site_label
_atom_site_fract_x
_atom_site_fract_y
_atom_site_fract_z
Si Si1 0.184980 0.775605 0.315710
Si Si2 0.309645 0.182483 0.714829
Si Si3 0.650304 0.992770 0.851488
Si Si4 0.364496 0.321585 0.492558
Si Si5 0.034802 0.298006 0.336241
Si Si6 0.387341 0.393268 0.930075
Si Si7 0.855793 0.491035 0.930492
O O1 0.199326 0.671171 0.410615
O O2 0.254180 0.672632 0.325039
O O3 0.271150 0.919182 0.402482
O O4 0.027025 0.818740 0.122112
O O5 0.149132 0.200878 0.511179
O O6 0.404573 0.160247 0.743245
O O7 0.364389 0.334964 0.812113
O O8 0.331216 0.065964 0.812951
O O9 0.756193 0.099689 0.928703
O O10 0.609731 0.058137 0.892661
O O11 0.514736 0.993633 0.638105
O O12 0.485435 0.277760 0.694636
O O13 0.399780 0.440977 0.464611
O O14 0.317603 0.174808 0.395795
#
# Coordination Sequence:
#
# PCOD9134093 Si02
#       7
#     4   4   4   4   4   4   4
#     4  10  18  36  60  96 111 158 211 258 288 362
#     4  11  21  40  64  92 125 167 204 256 317 372
#     4  10  20  40  60  92 122 168 209 254 302 376
#     4  10  23  40  65  92 123 163 213 260 302 377
#     4  11  23  39  63  91 130 163 203 254 322 368
#     4  10  21  37  67  90 121 160 218 246 305 375
#     4  10  22  36  67  91 120 165 216 256 302 374
#
# _framework density 19.083121999999999
#
# number of rings (size 3 to 8) (size 9 to 14) (size 15 to 20)
#    0.000    1.714    4.286    1.714    6.000    0.000 
#    0.000    0.000   12.571    0.000    0.000    0.000 
#    0.000    0.000    0.000    0.000    0.000    0.000 
#
# Total GULP energy -77966.573795 kJ/mol
# GULP energy per Si atom -5569.040985 kJ/mol
# Density = 1.903969 g / cm^3
# Si number density = 19.083122 Si / 1000 Ang^3
#
#
#
# Elastic Constant Matrix: (Units=GPa)
#
#
# Indices 1 2 3 4 5 6 
#
# 1 54.7600 32.9242 7.7274 0.0000 10.3851 0.0000
# 2 32.9242 155.7887 27.1123 0.0000 -2.7298 0.0000
# 3 7.7274 27.1123 59.1222 0.0000 -3.1983 0.0000
# 4 0.0000 0.0000 0.0000 19.4613 0.0000 -9.3352
# 5 10.3851 -2.7298 -3.1983 0.0000 25.8141 0.0000
# 6 0.0000 0.0000 0.0000 -9.3352 0.0000 17.8734
#
#
#
# Elastic Compliance Matrix: (Units=1/GPa)
#
#
# Indices 1 2 3 4 5 6 
#
# 1 0.023281 -0.004860 -0.001358 0.000000 -0.010048 0.000000
# 2 -0.004860 0.007993 -0.002898 0.000000 0.002441 0.000000
# 3 -0.001358 -0.002898 0.018558 0.000000 0.002539 0.000000
# 4 0.000000 0.000000 0.000000 0.068561 0.000000 0.035809
# 5 -0.010048 0.002441 0.002539 0.000000 0.043354 0.000000
# 6 0.000000 0.000000 0.000000 0.035809 0.000000 0.074652
#
#
# Mechanical properties :
#
#
# Convention : Reuss Voigt Hill
#
# Bulk Modulus (GPa) = 31.64550 45.02209 38.33380
# Shear Modulus (GPa) = 18.85625 26.09021 22.47323
#
# Velocity S-wave (km/s) = 3.14683 3.70156 3.43541
# Velocity P-wave (km/s) = 5.46099 6.47399 5.98895
#
# Compressibility (1/GPa) = 0.03160007
#
# Stress axis : x y z
#
# Youngs Moduli (GPa) = 42.95413 125.10627 53.88501
#
# Poissons Ratio (x) = 0.60800 0.07316
# Poissons Ratio (y) = 0.20875 0.15617
# Poissons Ratio (z) = 0.05832 0.36259
#
# Static dielectric constant tensor:
#      x y z
#    x 1.705380 0.000000 0.012600 
#    y 0.000000 1.721600 0.000000 
#    z 0.012600 0.000000 1.665660 
# 
# From -- ./inp_files/11300.got.cif
#   From: 2010.05.17/outbox.cif.g08.bks.cpg/sg9_6_cif.got.tgz:11300.got - 2010.06.03 20:04:27.
