data_PCOD9134629
_publ_section_title
;
Structure prediction by ZEFSAII (Michael W. Deem and Ramdas Pophale) SiO2 
 PCOD9134629
Probable space group: C C
;
_chemical_formula_sum "Si O2"
_cell_formula_units_Z 32
_cell_length_a 13.103446
_cell_length_b 7.959933
_cell_length_c 14.870773
_cell_angle_alpha 90.000000
_cell_angle_beta 116.146121
_cell_angle_gamma 90.000000
_cell_volume 1392.344537
_symmetry_space_group_name_H-M "C C"
_symmetry_group_IT_number 9
_symmetry_cell_setting 'monoclinic'
loop_
_space_group_symop_operation_xyz
x,y,z
x,-y,1/2+z
1/2+x,1/2+y,z
1/2+x,1/2-y,1/2+z
loop_
_atom_site_type_symbol
_atom_site_label
_atom_site_fract_x
_atom_site_fract_y
_atom_site_fract_z
Si Si1 0.588600 0.063902 0.178990
Si Si2 0.862635 0.773023 0.387295
Si Si3 0.414751 0.935160 0.466350
Si Si4 0.172135 0.187284 0.180241
Si Si5 0.103992 0.518903 0.886080
Si Si6 0.827193 0.858988 0.819292
Si Si7 0.572746 0.612059 0.320139
Si Si8 0.632198 0.318205 0.467705
O O1 0.560675 0.054122 0.273865
O O2 0.709577 0.158362 0.218967
O O3 0.618627 0.875368 0.156146
O O4 0.482932 0.125351 0.080161
O O5 0.860503 0.619809 0.457710
O O6 0.794785 0.699069 0.275138
O O7 0.996485 0.799441 0.427317
O O8 0.818020 0.965403 0.371633
O O9 0.338384 0.792955 0.392498
O O10 0.508985 0.955601 0.424836
O O11 0.091131 0.093381 0.220420
O O12 0.179520 0.123769 0.082038
O O13 0.133546 0.711580 0.871755
O O14 0.176503 0.366381 0.957123
O O15 0.940840 0.873623 0.801343
O O16 0.634547 0.460939 0.394108
#
# Coordination Sequence:
#
# PCOD9134629 Si02
#       8
#     4   4   4   4   4   4   4   4
#     4  10  19  38  66  85 122 168 197 251 322 360
#     4   9  19  37  60  85 117 158 200 247 300 368
#     4  10  19  40  60  83 125 157 194 259 302 357
#     4  10  19  38  66  85 122 168 197 251 322 360
#     4   9  19  37  60  85 117 158 200 247 300 368
#     4   9  20  38  58  90 124 148 208 253 294 370
#     4   9  20  38  58  90 124 148 208 253 294 370
#     4  10  19  40  60  83 125 157 194 259 302 357
#
# _framework density 22.982818000000002
#
# number of rings (size 3 to 8) (size 9 to 14) (size 15 to 20)
#    0.000    2.500    2.500    0.000    0.000    1.000 
#   13.500   11.250    0.000    0.000    0.000    0.000 
#    0.000    0.000    0.000    0.000    0.000    0.000 
#
# Total GULP energy -89171.661304 kJ/mol
# GULP energy per Si atom -5573.228832 kJ/mol
# Density = 2.293051 g / cm^3
# Si number density = 22.982818 Si / 1000 Ang^3
#
#
#
# Elastic Constant Matrix: (Units=GPa)
#
#
# Indices 1 2 3 4 5 6 
#
# 1 73.6212 13.6244 24.5089 0.0000 -1.6194 0.0000
# 2 13.6244 105.5077 31.8766 0.0000 -1.3976 0.0000
# 3 24.5089 31.8766 128.4885 0.0000 -3.9976 0.0000
# 4 0.0000 0.0000 0.0000 44.7393 0.0000 -0.3015
# 5 -1.6194 -1.3976 -3.9976 0.0000 19.3885 0.0000
# 6 0.0000 0.0000 0.0000 -0.3015 0.0000 36.0086
#
#
#
# Elastic Compliance Matrix: (Units=1/GPa)
#
#
# Indices 1 2 3 4 5 6 
#
# 1 0.014635 -0.001129 -0.002492 0.000000 0.000627 0.000000
# 2 -0.001129 0.010334 -0.002343 0.000000 0.000167 0.000000
# 3 -0.002492 -0.002343 0.008885 0.000000 0.001455 0.000000
# 4 0.000000 0.000000 0.000000 0.022353 0.000000 0.000187
# 5 0.000627 0.000167 0.001455 0.000000 0.051941 0.000000
# 6 0.000000 0.000000 0.000000 0.000187 0.000000 0.027773
#
#
# Mechanical properties :
#
#
# Convention : Reuss Voigt Hill
#
# Bulk Modulus (GPa) = 45.60799 49.73747 47.67273
# Shear Modulus (GPa) = 32.22528 35.86778 34.04653
#
# Velocity S-wave (km/s) = 3.74859 3.95477 3.85306
# Velocity P-wave (km/s) = 6.21477 6.52241 6.37044
#
# Compressibility (1/GPa) = 0.02192598
#
# Stress axis : x y z
#
# Youngs Moduli (GPa) = 68.32764 96.76889 112.55224
#
# Poissons Ratio (x) = 0.10922 0.28050
# Poissons Ratio (y) = 0.07712 0.26374
# Poissons Ratio (z) = 0.17028 0.22675
#
# Static dielectric constant tensor:
#      x y z
#    x 2.161930 0.000000 0.014620 
#    y 0.000000 1.939940 0.000000 
#    z 0.014620 0.000000 1.815540 
# 
# From -- ./inp_files/26684.got.cif
#   From: 2010.05.17/outbox.cif.g08.bks.cpg/sg9_14_cif.got.tgz:26684.got - 2010.06.03 20:04:27.
