data_PCOD9134184
_publ_section_title
;
Structure prediction by ZEFSAII (Michael W. Deem and Ramdas Pophale) SiO2 
 PCOD9134184
Probable space group: C C
;
_chemical_formula_sum "Si O2"
_cell_formula_units_Z 32
_cell_length_a 13.146731
_cell_length_b 8.060057
_cell_length_c 14.382447
_cell_angle_alpha 90.000000
_cell_angle_beta 59.787624
_cell_angle_gamma 90.000000
_cell_volume 1317.000416
_symmetry_space_group_name_H-M "C C"
_symmetry_group_IT_number 9
_symmetry_cell_setting 'monoclinic'
loop_
_space_group_symop_operation_xyz
x,y,z
x,-y,1/2+z
1/2+x,1/2+y,z
1/2+x,1/2-y,1/2+z
loop_
_atom_site_type_symbol
_atom_site_label
_atom_site_fract_x
_atom_site_fract_y
_atom_site_fract_z
Si Si1 0.467800 0.914491 0.093870
Si Si2 0.585511 0.411282 0.199560
Si Si3 0.927065 0.918350 0.913629
Si Si4 0.565861 0.448022 0.508688
Si Si5 0.352062 0.741720 0.855187
Si Si6 0.753513 0.304329 0.282460
Si Si7 0.402622 0.937819 0.442710
Si Si8 0.158485 0.458839 0.385140
O O1 0.493541 0.724089 0.052452
O O2 0.383358 0.884347 0.219995
O O3 0.388072 0.018315 0.057928
O O4 0.594406 0.999783 0.014297
O O5 0.530066 0.558441 0.289354
O O6 0.607383 0.482765 0.088001
O O7 0.474332 0.284214 0.244097
O O8 0.688090 0.327042 0.212471
O O9 0.170129 0.101133 0.892202
O O10 0.854704 0.085686 0.926586
O O11 0.982967 0.926451 0.990212
O O12 0.861679 0.255234 0.435505
O O13 0.354586 0.909546 0.908528
O O14 0.235879 0.705290 0.850900
O O15 0.742211 0.110328 0.314662
O O16 0.545954 0.944581 0.369697
#
# Coordination Sequence:
#
# PCOD9134184 Si02
#       8
#     4   4   4   4   4   4   4   4
#     4   9  19  37  62  95 139 185 230 296 357 427
#     4   9  19  37  68 101 129 190 232 283 380 423
#     4   9  20  39  68  99 137 171 233 302 342 439
#     4  10  18  40  69  93 135 193 232 292 374 428
#     4  10  18  41  70  95 137 179 226 296 360 421
#     4  10  18  39  66  94 142 185 232 311 351 432
#     4  10  19  42  65 100 141 173 234 295 354 435
#     4   9  19  37  68  95 134 188 231 287 362 427
#
# _framework density 24.297637000000002
#
# number of rings (size 3 to 8) (size 9 to 14) (size 15 to 20)
#    1.500    1.000    2.500    0.750    0.000    0.000 
#    6.750    3.750   16.500    1.500    0.000    0.000 
#    0.000    0.000    0.000    0.000    0.000    0.000 
#
# Total GULP energy -89286.653629 kJ/mol
# GULP energy per Si atom -5580.415852 kJ/mol
# Density = 2.424233 g / cm^3
# Si number density = 24.297637 Si / 1000 Ang^3
#
#
#
# Elastic Constant Matrix: (Units=GPa)
#
#
# Indices 1 2 3 4 5 6 
#
# 1 86.4987 27.5572 7.6390 0.0000 7.4811 0.0000
# 2 27.5572 125.0071 6.7081 0.0000 7.1034 0.0000
# 3 7.6390 6.7081 81.2277 0.0000 1.1487 0.0000
# 4 0.0000 0.0000 0.0000 12.6917 0.0000 -1.2055
# 5 7.4811 7.1034 1.1487 0.0000 37.5562 0.0000
# 6 0.0000 0.0000 0.0000 -1.2055 0.0000 43.4916
#
#
#
# Elastic Compliance Matrix: (Units=1/GPa)
#
#
# Indices 1 2 3 4 5 6 
#
# 1 0.012653 -0.002625 -0.000945 0.000000 -0.001995 0.000000
# 2 -0.002625 0.008665 -0.000453 0.000000 -0.001102 0.000000
# 3 -0.000945 -0.000453 0.012439 0.000000 -0.000107 0.000000
# 4 0.000000 0.000000 0.000000 0.079000 0.000000 0.002190
# 5 -0.001995 -0.001102 -0.000107 0.000000 0.027236 0.000000
# 6 0.000000 0.000000 0.000000 0.002190 0.000000 0.023054
#
#
# Mechanical properties :
#
#
# Convention : Reuss Voigt Hill
#
# Bulk Modulus (GPa) = 38.89440 41.83799 40.36620
# Shear Modulus (GPa) = 27.82981 35.46985 31.64983
#
# Velocity S-wave (km/s) = 3.38800 3.82489 3.61305
# Velocity P-wave (km/s) = 5.59884 6.06322 5.83565
#
# Compressibility (1/GPa) = 0.02571064
#
# Stress axis : x y z
#
# Youngs Moduli (GPa) = 79.03115 115.40399 80.39316
#
# Poissons Ratio (x) = 0.30297 0.07597
# Poissons Ratio (y) = 0.20748 0.03643
# Poissons Ratio (z) = 0.07468 0.05229
#
# Static dielectric constant tensor:
#      x y z
#    x 1.992660 0.000000 -0.010150 
#    y 0.000000 1.925660 0.000000 
#    z -0.010150 0.000000 1.939020 
# 
# From -- ./inp_files/29985.got.cif
#   From: 2010.05.17/outbox.cif.g08.bks.cpg/sg9_15_cif.got.tgz:29985.got - 2010.06.03 20:04:27.
