data_PCOD9134233
_publ_section_title
;
Structure prediction by ZEFSAII (Michael W. Deem and Ramdas Pophale) SiO2 
 PCOD9134233
Probable space group: C C
;
_chemical_formula_sum "Si O2"
_cell_formula_units_Z 32
_cell_length_a 14.503329
_cell_length_b 19.261520
_cell_length_c 5.362127
_cell_angle_alpha 90.000000
_cell_angle_beta 120.115464
_cell_angle_gamma 90.000000
_cell_volume 1295.744898
_symmetry_space_group_name_H-M "C C"
_symmetry_group_IT_number 9
_symmetry_cell_setting 'monoclinic'
loop_
_space_group_symop_operation_xyz
x,y,z
x,-y,1/2+z
1/2+x,1/2+y,z
1/2+x,1/2-y,1/2+z
loop_
_atom_site_type_symbol
_atom_site_label
_atom_site_fract_x
_atom_site_fract_y
_atom_site_fract_z
Si Si1 0.445500 0.761453 0.603910
Si Si2 0.210525 0.830051 0.295963
Si Si3 0.270509 0.454407 0.336322
Si Si4 0.164327 0.986767 0.311213
Si Si5 0.392933 0.690141 0.035402
Si Si6 0.668763 0.732765 0.248500
Si Si7 0.899308 0.538081 0.613021
Si Si8 0.556019 0.133912 0.565849
O O1 0.327448 0.796580 0.440042
O O2 0.451027 0.713122 0.368252
O O3 0.450542 0.713143 0.859489
O O4 0.518740 0.829332 0.758175
O O5 0.210768 0.909765 0.372455
O O6 0.150096 0.791289 0.439163
O O7 0.162762 0.824360 0.954123
O O8 0.283102 0.502445 0.597840
O O9 0.350865 0.388728 0.465124
O O10 0.149432 0.422439 0.167729
O O11 0.101252 0.000622 0.474757
O O12 0.270673 0.035239 0.444872
O O13 0.288608 0.738553 0.895139
O O14 0.608456 0.800270 0.270743
O O15 0.931822 0.516300 0.936486
O O16 0.955397 0.606528 0.585595
#
# Coordination Sequence:
#
# PCOD9134233 Si02
#       8
#     4   4   4   4   4   4   4   4
#     4  10  20  34  57  80 113 151 191 247 279 337
#     4  10  19  36  53  75 109 153 195 223 270 337
#     4  11  23  39  61  87 124 163 194 238 294 367
#     4  10  19  31  51  78 105 138 180 223 265 321
#     4   9  20  37  54  81 111 152 203 232 281 340
#     4   9  21  35  53  75 110 153 188 231 275 342
#     4  10  21  33  48  78 119 150 174 214 276 351
#     4  11  23  37  57  90 123 150 187 236 308 353
#
# _framework density 24.696218999999999
#
# number of rings (size 3 to 8) (size 9 to 14) (size 15 to 20)
#    0.000    2.000    0.000    3.750    0.000   12.000 
#    0.000    0.000    0.000    0.000    0.000   17.500 
#    0.000    0.000    0.000    0.000    0.000    0.000 
#
# Total GULP energy -89418.166044 kJ/mol
# GULP energy per Si atom -5588.635378 kJ/mol
# Density = 2.464001 g / cm^3
# Si number density = 24.696219 Si / 1000 Ang^3
#
#
#
# Elastic Constant Matrix: (Units=GPa)
#
#
# Indices 1 2 3 4 5 6 
#
# 1 58.9464 38.6287 26.6853 0.0000 -16.9581 0.0000
# 2 38.6287 105.5721 56.6408 0.0000 -26.9988 0.0000
# 3 26.6853 56.6408 154.4785 0.0000 -45.6858 0.0000
# 4 0.0000 0.0000 0.0000 45.9674 0.0000 -0.0890
# 5 -16.9581 -26.9988 -45.6858 0.0000 33.0918 0.0000
# 6 0.0000 0.0000 0.0000 -0.0890 0.0000 41.8507
#
#
#
# Elastic Compliance Matrix: (Units=1/GPa)
#
#
# Indices 1 2 3 4 5 6 
#
# 1 0.023349 -0.007083 0.000665 0.000000 0.007104 0.000000
# 2 -0.007083 0.014737 -0.002869 0.000000 0.004433 0.000000
# 3 0.000665 -0.002869 0.011524 0.000000 0.013910 0.000000
# 4 0.000000 0.000000 0.000000 0.021755 0.000000 0.000046
# 5 0.007104 0.004433 0.013910 0.000000 0.056680 0.000000
# 6 0.000000 0.000000 0.000000 0.000046 0.000000 0.023895
#
#
# Mechanical properties :
#
#
# Convention : Reuss Voigt Hill
#
# Bulk Modulus (GPa) = 32.22125 62.54517 47.38321
# Shear Modulus (GPa) = 27.64578 37.31814 32.48196
#
# Velocity S-wave (km/s) = 3.34942 3.89149 3.63059
# Velocity P-wave (km/s) = 5.29467 6.75073 6.06654
#
# Compressibility (1/GPa) = 0.03103542
#
# Stress axis : x y z
#
# Youngs Moduli (GPa) = 42.82804 67.85758 86.77365
#
# Poissons Ratio (x) = 0.48065 -0.05767
# Poissons Ratio (y) = 0.30336 0.24893
# Poissons Ratio (z) = -0.02846 0.19466
#
# Static dielectric constant tensor:
#      x y z
#    x 1.985900 0.000000 0.035620 
#    y 0.000000 1.926040 0.000000 
#    z 0.035620 0.000000 2.043850 
# 
# From -- ./inp_files/3020.got.cif
#   From: 2010.05.17/outbox.cif.g08.bks.cpg/sg9_2_cif.got.tgz:3020.got - 2010.06.03 20:04:27.
