data_PCOD9134459
_publ_section_title
;
Structure prediction by ZEFSAII (Michael W. Deem and Ramdas Pophale) SiO2 
 PCOD9134459
Probable space group: C C
;
_chemical_formula_sum "Si O2"
_cell_formula_units_Z 32
_cell_length_a 20.923647
_cell_length_b 10.926146
_cell_length_c 7.109635
_cell_angle_alpha 90.000000
_cell_angle_beta 47.425988
_cell_angle_gamma 90.000000
_cell_volume 1196.927495
_symmetry_space_group_name_H-M "C C"
_symmetry_group_IT_number 9
_symmetry_cell_setting 'monoclinic'
loop_
_space_group_symop_operation_xyz
x,y,z
x,-y,1/2+z
1/2+x,1/2+y,z
1/2+x,1/2-y,1/2+z
loop_
_atom_site_type_symbol
_atom_site_label
_atom_site_fract_x
_atom_site_fract_y
_atom_site_fract_z
Si Si1 0.474910 0.112351 0.836400
Si Si2 0.606893 0.596229 0.724400
Si Si3 0.227536 0.182906 0.760863
Si Si4 0.216262 0.608672 0.997945
Si Si5 0.100055 0.586633 0.904604
Si Si6 0.491683 0.590469 0.631362
Si Si7 0.791057 0.504629 0.330526
Si Si8 0.396583 0.350602 0.970256
O O1 0.543892 0.155372 0.860519
O O2 0.534718 0.021924 0.596781
O O3 0.389694 0.041708 0.083891
O O4 0.432167 0.226045 0.811293
O O5 0.630418 0.659626 0.875594
O O6 0.532020 0.645040 0.738755
O O7 0.702223 0.579573 0.442188
O O8 0.572094 0.462635 0.852744
O O9 0.241500 0.311731 0.632490
O O10 0.284629 0.070019 0.554526
O O11 0.259405 0.139464 0.900772
O O12 0.136595 0.649355 0.020380
O O13 0.296761 0.621971 0.699187
O O14 0.181516 0.478218 0.138168
O O15 0.428958 0.662786 0.621756
O O16 0.439259 0.468526 0.793944
#
# Coordination Sequence:
#
# PCOD9134459 Si02
#       8
#     4   4   4   4   4   4   4   4
#     4  11  23  42  66  96 128 174 214 275 323 384
#     4   9  17  34  52  92 120 162 183 261 318 380
#     4  10  20  35  65  87 125 163 202 259 322 382
#     4  11  23  46  65  88 122 184 212 262 322 390
#     4  10  26  44  68  89 134 170 229 263 317 402
#     4  10  21  34  60  88 130 155 211 265 315 379
#     4  10  19  36  61  94 131 158 208 265 322 385
#     4  11  23  41  63  92 128 168 217 268 321 380
#
# _framework density 26.735122
#
# number of rings (size 3 to 8) (size 9 to 14) (size 15 to 20)
#    0.750    1.000    2.500    1.500    3.500    0.000 
#    0.000    1.250    8.250    0.000    0.000    0.000 
#    0.000    0.000    0.000    0.000    0.000    0.000 
#
# Total GULP energy -89112.559096 kJ/mol
# GULP energy per Si atom -5569.534944 kJ/mol
# Density = 2.667427 g / cm^3
# Si number density = 26.735122 Si / 1000 Ang^3
#
#
#
# Elastic Constant Matrix: (Units=GPa)
#
#
# Indices 1 2 3 4 5 6 
#
# 1 114.7610 17.2823 13.5043 0.0000 -18.0344 0.0000
# 2 17.2823 69.2302 34.2759 0.0000 -13.1468 0.0000
# 3 13.5043 34.2759 119.3831 0.0000 -21.9120 0.0000
# 4 0.0000 0.0000 0.0000 26.9737 0.0000 -0.8164
# 5 -18.0344 -13.1468 -21.9120 0.0000 31.5406 0.0000
# 6 0.0000 0.0000 0.0000 -0.8164 0.0000 18.3479
#
#
#
# Elastic Compliance Matrix: (Units=1/GPa)
#
#
# Indices 1 2 3 4 5 6 
#
# 1 0.009721 -0.001606 0.000297 0.000000 0.005095 0.000000
# 2 -0.001606 0.017602 -0.004234 0.000000 0.003477 0.000000
# 3 0.000297 -0.004234 0.010620 0.000000 0.005783 0.000000
# 4 0.000000 0.000000 0.000000 0.037123 0.000000 0.001652
# 5 0.005095 0.003477 0.005783 0.000000 0.040085 0.000000
# 6 0.000000 0.000000 0.000000 0.001652 0.000000 0.054576
#
#
# Mechanical properties :
#
#
# Convention : Reuss Voigt Hill
#
# Bulk Modulus (GPa) = 37.23461 48.16658 42.70059
# Shear Modulus (GPa) = 26.34825 31.25989 28.80407
#
# Velocity S-wave (km/s) = 3.14272 3.42313 3.28592
# Velocity P-wave (km/s) = 5.20830 5.80337 5.51387
#
# Compressibility (1/GPa) = 0.02685673
#
# Stress axis : x y z
#
# Youngs Moduli (GPa) = 102.86564 56.81185 94.16405
#
# Poissons Ratio (x) = 0.09125 -0.02793
# Poissons Ratio (y) = 0.16521 0.39867
# Poissons Ratio (z) = -0.03052 0.24053
#
# Static dielectric constant tensor:
#      x y z
#    x 2.426520 0.000000 0.311560 
#    y 0.000000 1.732200 0.000000 
#    z 0.311560 0.000000 2.267130 
# 
# From -- ./inp_files/12191.got.cif
#   From: 2010.05.17/outbox.cif.g08.bks.cpg/sg9_7_cif.got.tgz:12191.got - 2010.06.03 20:04:27.
