data_PCOD9134569
_publ_section_title
;
Structure prediction by ZEFSAII (Michael W. Deem and Ramdas Pophale) SiO2 
 PCOD9134569
Probable space group: C C
;
_chemical_formula_sum "Si O2"
_cell_formula_units_Z 28
_cell_length_a 12.332069
_cell_length_b 7.564066
_cell_length_c 11.463308
_cell_angle_alpha 90.000000
_cell_angle_beta 96.308989
_cell_angle_gamma 90.000000
_cell_volume 1062.828066
_symmetry_space_group_name_H-M "C C"
_symmetry_group_IT_number 9
_symmetry_cell_setting 'monoclinic'
loop_
_space_group_symop_operation_xyz
x,y,z
x,-y,1/2+z
1/2+x,1/2+y,z
1/2+x,1/2-y,1/2+z
loop_
_atom_site_type_symbol
_atom_site_label
_atom_site_fract_x
_atom_site_fract_y
_atom_site_fract_z
Si Si1 0.403660 0.706397 0.797440
Si Si2 0.245771 0.906204 0.095878
Si Si3 0.429248 0.344765 0.908497
Si Si4 0.324418 0.517966 0.086049
Si Si5 0.207948 0.062941 0.340478
Si Si6 0.985293 0.413431 0.609833
Si Si7 0.513686 0.742582 0.195650
O O1 0.458541 0.541552 0.867460
O O2 0.321457 0.611860 0.695256
O O3 0.326563 0.838790 0.858808
O O4 0.492079 0.811634 0.732843
O O5 0.253143 0.693640 0.080046
O O6 0.206362 0.942536 0.223150
O O7 0.363092 0.003582 0.098839
O O8 0.187396 0.986033 0.973374
O O9 0.422497 0.231680 0.788995
O O10 0.321137 0.399290 0.969586
O O11 0.494508 0.224502 0.007475
O O12 0.450460 0.595497 0.112616
O O13 0.113906 0.196106 0.289541
O O14 0.050817 0.594371 0.620926
#
# Coordination Sequence:
#
# PCOD9134569 Si02
#       7
#     4   4   4   4   4   4   4
#     4   9  19  37  63  89 118 162 221 264 318 386
#     4  10  22  39  69  91 133 171 219 259 330 399
#     4  10  19  37  67  86 121 167 222 261 320 388
#     4   9  19  39  63  88 119 172 220 264 312 399
#     4  11  23  41  61 100 133 170 210 274 332 385
#     4   9  21  38  62  91 120 175 221 266 311 396
#     4  10  23  37  59  91 132 167 217 270 329 377
#
# _framework density 26.344805999999998
#
# number of rings (size 3 to 8) (size 9 to 14) (size 15 to 20)
#    0.000    2.286    1.429    0.000   10.000    0.000 
#    2.571    0.000    0.000    0.000    0.000    0.000 
#    0.000    0.000    0.000    0.000    0.000    0.000 
#
# Total GULP energy -78029.888029 kJ/mol
# GULP energy per Si atom -5573.563431 kJ/mol
# Density = 2.628484 g / cm^3
# Si number density = 26.344806 Si / 1000 Ang^3
#
#
#
# Elastic Constant Matrix: (Units=GPa)
#
#
# Indices 1 2 3 4 5 6 
#
# 1 39.6659 13.0369 13.1377 0.0000 4.7703 0.0000
# 2 13.0369 98.8386 32.6937 0.0000 -13.1836 0.0000
# 3 13.1377 32.6937 126.0644 0.0000 -17.7196 0.0000
# 4 0.0000 0.0000 0.0000 54.2724 0.0000 2.1860
# 5 4.7703 -13.1836 -17.7196 0.0000 33.6264 0.0000
# 6 0.0000 0.0000 0.0000 2.1860 0.0000 25.2749
#
#
#
# Elastic Compliance Matrix: (Units=1/GPa)
#
#
# Indices 1 2 3 4 5 6 
#
# 1 0.028249 -0.003678 -0.002977 0.000000 -0.007018 0.000000
# 2 -0.003678 0.011844 -0.002119 0.000000 0.004048 0.000000
# 3 -0.002977 -0.002119 0.009434 0.000000 0.004562 0.000000
# 4 0.000000 0.000000 0.000000 0.018490 0.000000 -0.001599
# 5 -0.007018 0.004048 0.004562 0.000000 0.034725 0.000000
# 6 0.000000 0.000000 0.000000 -0.001599 0.000000 0.039703
#
#
# Mechanical properties :
#
#
# Convention : Reuss Voigt Hill
#
# Bulk Modulus (GPa) = 31.27011 42.47838 36.87425
# Shear Modulus (GPa) = 29.29944 36.34811 32.82377
#
# Velocity S-wave (km/s) = 3.33851 3.71847 3.53360
# Velocity P-wave (km/s) = 5.17264 5.88175 5.53856
#
# Compressibility (1/GPa) = 0.03197942
#
# Stress axis : x y z
#
# Youngs Moduli (GPa) = 35.39930 84.43406 106.00447
#
# Poissons Ratio (x) = 0.31051 0.31554
# Poissons Ratio (y) = 0.13018 0.22465
# Poissons Ratio (z) = 0.10537 0.17894
#
# Static dielectric constant tensor:
#      x y z
#    x 2.190430 0.000000 -0.056850 
#    y 0.000000 2.102570 0.000000 
#    z -0.056850 0.000000 2.167250 
# 
# From -- ./inp_files/17613.got.cif
#   From: 2010.05.17/outbox.cif.g08.bks.cpg/sg9_9_cif.got.tgz:17613.got - 2010.06.03 20:04:27.
