data_PCOD9134941
_publ_section_title
;
Structure prediction by ZEFSAII (Michael W. Deem and Ramdas Pophale) SiO2 
 PCOD9134941
Probable space group: C C
;
_chemical_formula_sum "Si O2"
_cell_formula_units_Z 28
_cell_length_a 13.700943
_cell_length_b 19.838272
_cell_length_c 7.112756
_cell_angle_alpha 90.000000
_cell_angle_beta 146.509983
_cell_angle_gamma 90.000000
_cell_volume 1066.761569
_symmetry_space_group_name_H-M "C C"
_symmetry_group_IT_number 9
_symmetry_cell_setting 'monoclinic'
loop_
_space_group_symop_operation_xyz
x,y,z
x,-y,1/2+z
1/2+x,1/2+y,z
1/2+x,1/2-y,1/2+z
loop_
_atom_site_type_symbol
_atom_site_label
_atom_site_fract_x
_atom_site_fract_y
_atom_site_fract_z
Si Si1 0.871880 0.141513 0.682310
Si Si2 0.963155 0.593298 0.693509
Si Si3 0.173598 0.593863 0.689875
Si Si4 0.356356 0.038977 0.924823
Si Si5 0.944919 0.716373 0.293528
Si Si6 0.512665 0.219508 0.971471
Si Si7 0.102605 0.137536 0.705826
O O1 0.832277 0.092714 0.794357
O O2 0.971701 0.208911 0.909439
O O3 0.694201 0.178120 0.313316
O O4 0.973396 0.113861 0.663907
O O5 0.143011 0.577316 0.861441
O O6 0.827953 0.541333 0.375679
O O7 0.939138 0.673222 0.686778
O O8 0.937380 0.567597 0.863977
O O9 0.012548 0.557007 0.323029
O O10 0.117122 0.672187 0.602361
O O11 0.182043 0.078765 0.706259
O O12 0.918433 0.717014 0.022963
O O13 0.769958 0.675861 0.070797
O O14 0.522566 0.299807 0.957396
#
# Coordination Sequence:
#
# PCOD9134941 Si02
#       7
#     4   4   4   4   4   4   4
#     4   9  16  32  59  85 122 154 194 259 323 349
#     4  12  21  38  65  85 114 164 224 246 288 381
#     4  10  20  35  59  86 115 161 214 250 294 373
#     4  11  22  39  64  85 117 164 213 255 303 370
#     4   8  15  32  56  86 118 161 199 244 309 366
#     4   9  17  33  61  87 116 161 206 244 305 373
#     4   9  17  33  62  88 122 159 192 260 324 352
#
# _framework density 26.247662999999999
#
# number of rings (size 3 to 8) (size 9 to 14) (size 15 to 20)
#    0.000    2.286    5.714    0.857    0.000    0.000 
#    2.571    0.000   12.571    0.000    0.000    0.000 
#    0.000    0.000    0.000    0.000    0.000    0.000 
#
# Total GULP energy -78010.415481 kJ/mol
# GULP energy per Si atom -5572.172534 kJ/mol
# Density = 2.618792 g / cm^3
# Si number density = 26.247663 Si / 1000 Ang^3
#
#
#
# Elastic Constant Matrix: (Units=GPa)
#
#
# Indices 1 2 3 4 5 6 
#
# 1 265.9257 62.3885 34.8956 0.0000 1.1073 0.0000
# 2 62.3885 134.5794 5.6053 0.0000 3.2603 0.0000
# 3 34.8956 5.6053 38.4995 0.0000 -7.2697 0.0000
# 4 0.0000 0.0000 0.0000 19.5114 0.0000 -1.0302
# 5 1.1073 3.2603 -7.2697 0.0000 32.6149 0.0000
# 6 0.0000 0.0000 0.0000 -1.0302 0.0000 41.0609
#
#
#
# Elastic Compliance Matrix: (Units=1/GPa)
#
#
# Indices 1 2 3 4 5 6 
#
# 1 0.004793 -0.002024 -0.004220 0.000000 -0.000901 0.000000
# 2 -0.002024 0.008364 0.000493 0.000000 -0.000658 0.000000
# 3 -0.004220 0.000493 0.031052 0.000000 0.007015 0.000000
# 4 0.000000 0.000000 0.000000 0.051320 0.000000 0.001288
# 5 -0.000901 -0.000658 0.007015 0.000000 0.032321 0.000000
# 6 0.000000 0.000000 0.000000 0.001288 0.000000 0.024386
#
#
# Mechanical properties :
#
#
# Convention : Reuss Voigt Hill
#
# Bulk Modulus (GPa) = 30.57451 71.64260 51.10855
# Shear Modulus (GPa) = 28.63024 41.04513 34.83768
#
# Velocity S-wave (km/s) = 3.30627 3.95873 3.64712
# Velocity P-wave (km/s) = 5.12337 6.94619 6.10322
#
# Compressibility (1/GPa) = 0.03270698
#
# Stress axis : x y z
#
# Youngs Moduli (GPa) = 208.64554 119.55450 32.20424
#
# Poissons Ratio (x) = 0.24201 0.13589
# Poissons Ratio (y) = 0.42236 -0.01587
# Poissons Ratio (z) = 0.88039 -0.05892
#
# Static dielectric constant tensor:
#      x y z
#    x 2.118660 0.000000 0.010050 
#    y 0.000000 2.185000 0.000000 
#    z 0.010050 0.000000 2.179660 
# 
# From -- ./inp_files/8451.got.cif
#   From: 2010.05.17/outbox.cif.g08.bks.cpg/sg9_5_cif.got.tgz:8451.got - 2010.06.03 20:04:27.
