data_PCOD9134174
_publ_section_title
;
Structure prediction by ZEFSAII (Michael W. Deem and Ramdas Pophale) SiO2 
 PCOD9134174
Probable space group: C C
;
_chemical_formula_sum "Si O2"
_cell_formula_units_Z 32
_cell_length_a 7.465261
_cell_length_b 11.810730
_cell_length_c 17.374093
_cell_angle_alpha 90.000000
_cell_angle_beta 126.090182
_cell_angle_gamma 90.000000
_cell_volume 1237.895717
_symmetry_space_group_name_H-M "C C"
_symmetry_group_IT_number 9
_symmetry_cell_setting 'monoclinic'
loop_
_space_group_symop_operation_xyz
x,y,z
x,-y,1/2+z
1/2+x,1/2+y,z
1/2+x,1/2-y,1/2+z
loop_
_atom_site_type_symbol
_atom_site_label
_atom_site_fract_x
_atom_site_fract_y
_atom_site_fract_z
Si Si1 0.556110 0.757338 0.856800
Si Si2 0.323961 0.962050 0.766385
Si Si3 0.932300 0.864260 0.567926
Si Si4 0.089055 0.576482 0.176674
Si Si5 0.326104 0.806548 0.215512
Si Si6 0.565436 0.306853 0.999378
Si Si7 0.128229 0.045595 0.977241
Si Si8 0.693399 0.169177 0.676995
O O1 0.415866 0.868252 0.848596
O O2 0.808955 0.791445 0.921494
O O3 0.545342 0.636156 0.895671
O O4 0.430853 0.725031 0.746163
O O5 0.497600 0.952124 0.738511
O O6 0.085648 0.921398 0.672550
O O7 0.328541 0.096547 0.781159
O O8 0.691837 0.813518 0.522574
O O9 0.946626 0.944467 0.499094
O O10 0.063914 0.745835 0.583132
O O11 0.257927 0.680358 0.220732
O O12 0.197879 0.463684 0.168641
O O13 0.863165 0.589649 0.070092
O O14 0.549226 0.809228 0.219450
O O15 0.140992 0.841696 0.104841
O O16 0.645527 0.411813 0.966228
#
# Coordination Sequence:
#
# PCOD9134174 Si02
#       8
#     4   4   4   4   4   4   4   4
#     4  11  24  40  64  93 130 160 202 265 322 348
#     4   9  20  40  59  88 128 162 198 261 308 361
#     4   9  18  40  64  85 120 166 206 241 304 378
#     4  10  18  38  68  88 115 169 216 239 302 387
#     4  10  18  38  68  88 115 169 216 239 302 387
#     4  11  21  39  64  94 123 163 206 258 310 368
#     4  11  21  39  64  94 123 163 206 258 310 368
#     4   9  20  40  59  88 128 162 198 261 308 361
#
# _framework density 25.850317
#
# number of rings (size 3 to 8) (size 9 to 14) (size 15 to 20)
#    0.000    2.000    6.250    0.000    3.500    0.000 
#    2.250   20.000    0.000    0.000    0.000    0.000 
#    0.000    0.000    0.000    0.000    0.000    0.000 
#
# Total GULP energy -89344.705893 kJ/mol
# GULP energy per Si atom -5584.044118 kJ/mol
# Density = 2.579148 g / cm^3
# Si number density = 25.850317 Si / 1000 Ang^3
#
#
#
# Elastic Constant Matrix: (Units=GPa)
#
#
# Indices 1 2 3 4 5 6 
#
# 1 72.3303 34.8516 15.8914 0.0000 24.1376 0.0000
# 2 34.8516 141.7254 -13.7134 0.0000 15.7846 0.0000
# 3 15.8914 -13.7134 61.2204 0.0000 30.3266 0.0000
# 4 0.0000 0.0000 0.0000 26.0486 0.0000 0.4294
# 5 24.1376 15.7846 30.3266 0.0000 33.5176 0.0000
# 6 0.0000 0.0000 0.0000 0.4294 0.0000 43.5643
#
#
#
# Elastic Compliance Matrix: (Units=1/GPa)
#
#
# Indices 1 2 3 4 5 6 
#
# 1 0.019685 -0.003288 0.000741 0.000000 -0.013298 0.000000
# 2 -0.003288 0.009551 0.007336 0.000000 -0.008768 0.000000
# 3 0.000741 0.007336 0.035813 0.000000 -0.036392 0.000000
# 4 0.000000 0.000000 0.000000 0.038396 0.000000 -0.000378
# 5 -0.013298 -0.008768 -0.036392 0.000000 0.076468 0.000000
# 6 0.000000 0.000000 0.000000 -0.000378 0.000000 0.022958
#
#
# Mechanical properties :
#
#
# Convention : Reuss Voigt Hill
#
# Bulk Modulus (GPa) = 13.39997 38.81504 26.10751
# Shear Modulus (GPa) = 22.91827 36.50920 29.71374
#
# Velocity S-wave (km/s) = 2.98077 3.76218 3.39404
# Velocity P-wave (km/s) = 4.12815 5.82408 5.04784
#
# Compressibility (1/GPa) = 0.07462705
#
# Stress axis : x y z
#
# Youngs Moduli (GPa) = 50.80117 104.70407 27.92317
#
# Poissons Ratio (x) = 0.34425 -0.02070
# Poissons Ratio (y) = 0.16702 -0.20485
# Poissons Ratio (z) = -0.03766 -0.76811
#
# Static dielectric constant tensor:
#      x y z
#    x 2.107450 0.000000 -0.062230 
#    y 0.000000 2.108470 0.000000 
#    z -0.062230 0.000000 2.043230 
# 
# From -- ./inp_files/32599.got.cif
#   From: 2010.05.17/outbox.cif.g08.bks.cpg/sg9_17_cif.got.tgz:32599.got - 2010.06.03 20:04:27.
