data_PCOD9134258
_publ_section_title
;
Structure prediction by ZEFSAII (Michael W. Deem and Ramdas Pophale) SiO2 
 PCOD9134258
Probable space group: C C
;
_chemical_formula_sum "Si O2"
_cell_formula_units_Z 32
_cell_length_a 10.114525
_cell_length_b 22.806314
_cell_length_c 6.007406
_cell_angle_alpha 90.000000
_cell_angle_beta 63.691617
_cell_angle_gamma 90.000000
_cell_volume 1242.223914
_symmetry_space_group_name_H-M "C C"
_symmetry_group_IT_number 9
_symmetry_cell_setting 'monoclinic'
loop_
_space_group_symop_operation_xyz
x,y,z
x,-y,1/2+z
1/2+x,1/2+y,z
1/2+x,1/2-y,1/2+z
loop_
_atom_site_type_symbol
_atom_site_label
_atom_site_fract_x
_atom_site_fract_y
_atom_site_fract_z
Si Si1 0.686100 0.839577 0.367790
Si Si2 0.719685 0.377836 0.678841
Si Si3 0.926041 0.645252 0.395768
Si Si4 0.051653 0.984076 0.843304
Si Si5 0.874418 0.457852 0.195276
Si Si6 0.171841 0.522660 0.903072
Si Si7 0.404123 0.273784 0.507546
Si Si8 0.694822 0.250508 0.502699
O O1 0.559407 0.834882 0.645694
O O2 0.700696 0.908938 0.328101
O O3 0.833336 0.809391 0.359439
O O4 0.626286 0.798608 0.215159
O O5 0.792062 0.383710 0.864306
O O6 0.567858 0.413663 0.801233
O O7 0.815132 0.414877 0.433472
O O8 0.728350 0.309266 0.615346
O O9 0.976737 0.592602 0.508170
O O10 0.865266 0.704916 0.537414
O O11 0.217454 0.014703 0.729535
O O12 0.993221 0.005164 0.641981
O O13 0.994558 0.509914 0.077151
O O14 0.220478 0.492896 0.625616
O O15 0.577214 0.274174 0.411008
O O16 0.324360 0.288521 0.797937
#
# Coordination Sequence:
#
# PCOD9134258 Si02
#       8
#     4   4   4   4   4   4   4   4
#     4  12  27  45  72 109 160 200 262 330 401 477
#     4  11  22  38  64 102 147 188 242 315 388 460
#     4  12  21  41  67 104 147 190 248 315 384 460
#     4  10  19  32  55  94 138 177 229 298 373 436
#     4  11  21  36  63 109 145 182 244 322 387 436
#     4  12  26  42  70 112 153 199 258 332 397 462
#     4  12  27  45  72 105 154 204 262 317 395 478
#     4  12  27  47  71 107 152 210 255 325 397 479
#
# _framework density 25.760251
#
# number of rings (size 3 to 8) (size 9 to 14) (size 15 to 20)
#    0.000    0.500    6.250    3.750    3.500    0.000 
#    0.000    0.000    0.000    3.000    0.000    0.000 
#    0.000    0.000    0.000    0.000    0.000    0.000 
#
# Total GULP energy -89125.256974 kJ/mol
# GULP energy per Si atom -5570.328561 kJ/mol
# Density = 2.570162 g / cm^3
# Si number density = 25.760251 Si / 1000 Ang^3
#
#
#
# Elastic Constant Matrix: (Units=GPa)
#
#
# Indices 1 2 3 4 5 6 
#
# 1 74.6879 24.6376 9.3025 0.0000 8.4379 0.0000
# 2 24.6376 138.6901 11.2494 0.0000 14.7625 0.0000
# 3 9.3025 11.2494 90.0889 0.0000 -4.8488 0.0000
# 4 0.0000 0.0000 0.0000 42.5006 0.0000 11.4341
# 5 8.4379 14.7625 -4.8488 0.0000 16.8772 0.0000
# 6 0.0000 0.0000 0.0000 11.4341 0.0000 17.8042
#
#
#
# Elastic Compliance Matrix: (Units=1/GPa)
#
#
# Indices 1 2 3 4 5 6 
#
# 1 0.014917 -0.001843 -0.001650 0.000000 -0.006319 0.000000
# 2 -0.001843 0.008353 -0.001215 0.000000 -0.006734 0.000000
# 3 -0.001650 -0.001215 0.011705 0.000000 0.005251 0.000000
# 4 0.000000 0.000000 0.000000 0.028443 0.000000 -0.018267
# 5 -0.006319 -0.006734 0.005251 0.000000 0.069809 0.000000
# 6 0.000000 0.000000 0.000000 -0.018267 0.000000 0.067898
#
#
# Mechanical properties :
#
#
# Convention : Reuss Voigt Hill
#
# Bulk Modulus (GPa) = 39.12799 43.76066 41.44432
# Shear Modulus (GPa) = 22.82463 32.65491 27.73977
#
# Velocity S-wave (km/s) = 2.97987 3.56427 3.28509
# Velocity P-wave (km/s) = 5.20209 5.82780 5.52381
#
# Compressibility (1/GPa) = 0.02555715
#
# Stress axis : x y z
#
# Youngs Moduli (GPa) = 67.03948 119.71565 85.43440
#
# Poissons Ratio (x) = 0.22068 0.14098
# Poissons Ratio (y) = 0.12358 0.10382
# Poissons Ratio (z) = 0.11063 0.14547
#
# Static dielectric constant tensor:
#      x y z
#    x 2.150940 0.000000 0.078490 
#    y 0.000000 2.070540 0.000000 
#    z 0.078490 0.000000 2.325700 
# 
# From -- ./inp_files/2086.got.cif
#   From: 2010.05.17/outbox.cif.g08.bks.cpg/sg9_2_cif.got.tgz:2086.got - 2010.06.03 20:04:27.
