data_PCOD9134143
_publ_section_title
;
Structure prediction by ZEFSAII (Michael W. Deem and Ramdas Pophale) SiO2 
 PCOD9134143
Probable space group: C C
;
_chemical_formula_sum "Si O2"
_cell_formula_units_Z 28
_cell_length_a 14.949894
_cell_length_b 8.529727
_cell_length_c 13.946322
_cell_angle_alpha 90.000000
_cell_angle_beta 49.423412
_cell_angle_gamma 90.000000
_cell_volume 1350.771721
_symmetry_space_group_name_H-M "C C"
_symmetry_group_IT_number 9
_symmetry_cell_setting 'monoclinic'
loop_
_space_group_symop_operation_xyz
x,y,z
x,-y,1/2+z
1/2+x,1/2+y,z
1/2+x,1/2-y,1/2+z
loop_
_atom_site_type_symbol
_atom_site_label
_atom_site_fract_x
_atom_site_fract_y
_atom_site_fract_z
Si Si1 0.781860 0.819392 0.122290
Si Si2 0.659611 0.238016 0.056637
Si Si3 0.324119 0.969975 0.054524
Si Si4 0.482478 0.466634 0.112723
Si Si5 0.004512 0.235843 0.964815
Si Si6 0.063730 0.474636 0.788594
Si Si7 0.878051 0.973103 0.390353
O O1 0.790577 0.633306 0.124527
O O2 0.865843 0.911457 0.137864
O O3 0.648984 0.878417 0.228423
O O4 0.828184 0.881179 0.986136
O O5 0.718662 0.375916 0.079139
O O6 0.572759 0.322258 0.044788
O O7 0.586727 0.122975 0.176556
O O8 0.766885 0.136929 0.940970
O O9 0.394120 0.845823 0.072556
O O10 0.426736 0.005443 0.904085
O O11 0.538521 0.617912 0.023345
O O12 0.450041 0.504806 0.244648
O O13 0.955545 0.130277 0.910718
O O14 0.096165 0.356815 0.854516
#
# Coordination Sequence:
#
# PCOD9134143 Si02
#       7
#     4   4   4   4   4   4   4
#     4  10  22  38  63  86 120 166 201 252 304 357
#     4  10  18  37  65  88 123 166 194 250 310 360
#     4   9  20  40  59  89 118 160 210 242 308 359
#     4  11  20  37  61  92 119 160 205 248 306 367
#     4   8  18  39  61  80 125 159 196 248 305 354
#     4   9  19  41  63  81 127 162 201 248 301 364
#     4   9  19  38  60  88 122 161 199 244 306 367
#
# _framework density 20.728892999999999
#
# number of rings (size 3 to 8) (size 9 to 14) (size 15 to 20)
#    0.857    1.714    1.429    0.857    0.000    2.286 
#    5.143    5.714    0.000    0.000    0.000    0.000 
#    0.000    0.000    0.000    0.000    0.000    0.000 
#
# Total GULP energy -78049.578090 kJ/mol
# GULP energy per Si atom -5574.969864 kJ/mol
# Density = 2.068171 g / cm^3
# Si number density = 20.728893 Si / 1000 Ang^3
#
#
#
# Elastic Constant Matrix: (Units=GPa)
#
#
# Indices 1 2 3 4 5 6 
#
# 1 28.5725 5.0104 10.2249 0.0000 -5.1766 0.0000
# 2 5.0104 75.8068 14.1808 0.0000 12.6860 0.0000
# 3 10.2249 14.1808 68.0265 0.0000 6.8708 0.0000
# 4 0.0000 0.0000 0.0000 9.6476 0.0000 -2.0198
# 5 -5.1766 12.6860 6.8708 0.0000 21.2763 0.0000
# 6 0.0000 0.0000 0.0000 -2.0198 0.0000 20.9836
#
#
#
# Elastic Compliance Matrix: (Units=1/GPa)
#
#
# Indices 1 2 3 4 5 6 
#
# 1 0.040696 -0.003828 -0.006770 0.000000 0.014370 0.000000
# 2 -0.003828 0.015353 -0.001661 0.000000 -0.009549 0.000000
# 3 -0.006770 -0.001661 0.016674 0.000000 -0.006042 0.000000
# 4 0.000000 0.000000 0.000000 0.105784 0.000000 0.010182
# 5 0.014370 -0.009549 -0.006042 0.000000 0.058142 0.000000
# 6 0.000000 0.000000 0.000000 0.010182 0.000000 0.048636
#
#
# Mechanical properties :
#
#
# Convention : Reuss Voigt Hill
#
# Bulk Modulus (GPa) = 20.74458 25.69313 23.21886
# Shear Modulus (GPa) = 15.34341 19.91415 17.62878
#
# Velocity S-wave (km/s) = 2.72360 3.10287 2.91940
# Velocity P-wave (km/s) = 4.46318 5.02582 4.75283
#
# Compressibility (1/GPa) = 0.04820536
#
# Stress axis : x y z
#
# Youngs Moduli (GPa) = 24.57225 65.13320 59.97292
#
# Poissons Ratio (x) = 0.24934 0.40604
# Poissons Ratio (y) = 0.09407 0.09959
# Poissons Ratio (z) = 0.16636 0.10816
#
# Static dielectric constant tensor:
#      x y z
#    x 1.733930 0.000000 -0.000650 
#    y 0.000000 1.748080 0.000000 
#    z -0.000650 0.000000 1.738700 
# 
# From -- ./inp_files/26583.got.cif
#   From: 2010.05.17/outbox.cif.g08.bks.cpg/sg9_14_cif.got.tgz:26583.got - 2010.06.03 20:04:27.
