data_PCOD9134820
_publ_section_title
;
Structure prediction by ZEFSAII (Michael W. Deem and Ramdas Pophale) SiO2 
 PCOD9134820
Probable space group: C C
;
_chemical_formula_sum "Si O2"
_cell_formula_units_Z 28
_cell_length_a 11.058872
_cell_length_b 10.480852
_cell_length_c 15.664260
_cell_angle_alpha 90.000000
_cell_angle_beta 37.306750
_cell_angle_gamma 90.000000
_cell_volume 1100.395405
_symmetry_space_group_name_H-M "C C"
_symmetry_group_IT_number 9
_symmetry_cell_setting 'monoclinic'
loop_
_space_group_symop_operation_xyz
x,y,z
x,-y,1/2+z
1/2+x,1/2+y,z
1/2+x,1/2-y,1/2+z
loop_
_atom_site_type_symbol
_atom_site_label
_atom_site_fract_x
_atom_site_fract_y
_atom_site_fract_z
Si Si1 0.337850 0.172918 0.316620
Si Si2 0.142917 0.445323 0.118920
Si Si3 0.433040 0.554786 0.820147
Si Si4 0.321170 0.054980 0.020989
Si Si5 0.064839 0.213619 0.035816
Si Si6 0.897725 0.212676 0.597255
Si Si7 0.690348 0.887025 0.817752
O O1 0.419782 0.293074 0.324398
O O2 0.335507 0.230716 0.222215
O O3 0.114446 0.146827 0.475978
O O4 0.481280 0.052803 0.226604
O O5 0.225438 0.376189 0.156453
O O6 0.058790 0.336722 0.102305
O O7 0.333764 0.503463 0.962041
O O8 0.653729 0.506011 0.676580
O O9 0.302962 0.488190 0.817202
O O10 0.417340 0.169857 0.020562
O O11 0.215834 0.118497 0.998767
O O12 0.482349 0.948797 0.909820
O O13 0.847076 0.151208 0.157496
O O14 0.143451 0.264076 0.902381
#
# Coordination Sequence:
#
# PCOD9134820 Si02
#       7
#     4   4   4   4   4   4   4
#     4  12  22  46  67 103 143 182 234 299 346 424
#     4  10  22  42  67 103 137 183 240 287 343 431
#     4  10  21  42  67  96 138 183 230 292 346 412
#     4  10  20  41  70  94 131 179 224 277 344 417
#     4   9  21  39  69  99 130 176 225 277 339 408
#     4  11  23  43  75 100 135 191 232 281 372 415
#     4  10  19  43  67  95 134 174 223 281 340 401
#
# _framework density 25.445399999999999
#
# number of rings (size 3 to 8) (size 9 to 14) (size 15 to 20)
#    0.000    1.714    2.857    1.714    0.000    3.429 
#   12.857    0.000    0.000    0.000    0.000    0.000 
#    0.000    0.000    0.000    0.000    0.000    0.000 
#
# Total GULP energy -78613.740328 kJ/mol
# GULP energy per Si atom -5615.267166 kJ/mol
# Density = 2.538749 g / cm^3
# Si number density = 25.445400 Si / 1000 Ang^3
#
#
#
# Elastic Constant Matrix: (Units=GPa)
#
#
# Indices 1 2 3 4 5 6 
#
# 1 50.5276 21.4417 24.5684 0.0000 7.0199 0.0000
# 2 21.4417 108.6321 42.8888 -0.0001 -6.3738 0.0000
# 3 24.5684 42.8888 138.3350 -0.0008 -17.6420 0.0002
# 4 0.0000 -0.0001 -0.0008 59.4923 0.0002 -3.4328
# 5 7.0199 -6.3738 -17.6420 0.0002 40.2481 0.0000
# 6 0.0000 0.0000 0.0002 -3.4328 0.0000 27.3982
#
#
#
# Elastic Compliance Matrix: (Units=1/GPa)
#
#
# Indices 1 2 3 4 5 6 
#
# 1 0.024169 -0.003567 -0.004021 0.000000 -0.006543 0.000000
# 2 -0.003567 0.011018 -0.002628 0.000000 0.001215 0.000000
# 3 -0.004021 -0.002628 0.009315 0.000000 0.004368 0.000000
# 4 0.000000 0.000000 0.000000 0.016931 0.000000 0.002121
# 5 -0.006543 0.001215 0.004368 0.000000 0.028094 0.000000
# 6 0.000000 0.000000 0.000000 0.002121 0.000000 0.036765
#
#
# Mechanical properties :
#
#
# Convention : Reuss Voigt Hill
#
# Bulk Modulus (GPa) = 41.54383 52.81029 47.17706
# Shear Modulus (GPa) = 32.31098 39.33411 35.82254
#
# Velocity S-wave (km/s) = 3.56731 3.93596 3.75616
# Velocity P-wave (km/s) = 5.77319 6.43857 6.11494
#
# Compressibility (1/GPa) = 0.02407096
#
# Stress axis : x y z
#
# Youngs Moduli (GPa) = 41.37540 90.75991 107.35755
#
# Poissons Ratio (x) = 0.32372 0.43168
# Poissons Ratio (y) = 0.14758 0.28209
# Poissons Ratio (z) = 0.16637 0.23848
#
# Static dielectric constant tensor:
#      x y z
#    x 2.021850 0.000000 -0.006050 
#    y 0.000000 1.981930 0.000000 
#    z -0.006050 0.000000 1.925520 
# 
# From -- ./inp_files/30043.got.cif
#   From: 2010.05.17/outbox.cif.g08.bks.cpg/sg9_16_cif.got.tgz:30043.got - 2010.06.03 20:04:27.
