data_PCOD9134087
_publ_section_title
;
Structure prediction by ZEFSAII (Michael W. Deem and Ramdas Pophale) SiO2 
 PCOD9134087
Probable space group: C C
;
_chemical_formula_sum "Si O2"
_cell_formula_units_Z 32
_cell_length_a 9.391554
_cell_length_b 26.768151
_cell_length_c 13.835506
_cell_angle_alpha 90.000000
_cell_angle_beta 149.564433
_cell_angle_gamma 90.000000
_cell_volume 1761.933690
_symmetry_space_group_name_H-M "C C"
_symmetry_group_IT_number 9
_symmetry_cell_setting 'monoclinic'
loop_
_space_group_symop_operation_xyz
x,y,z
x,-y,1/2+z
1/2+x,1/2+y,z
1/2+x,1/2-y,1/2+z
loop_
_atom_site_type_symbol
_atom_site_label
_atom_site_fract_x
_atom_site_fract_y
_atom_site_fract_z
Si Si1 0.192030 0.896124 0.346670
Si Si2 0.312770 0.005349 0.807495
Si Si3 0.754708 0.053445 0.943967
Si Si4 0.044000 0.399209 0.945512
Si Si5 0.784581 0.681396 0.439961
Si Si6 0.199303 0.651160 0.041838
Si Si7 0.595332 0.381847 0.514109
Si Si8 0.222807 0.293490 0.357108
O O1 0.408954 0.857230 0.426666
O O2 0.180086 0.890049 0.454297
O O3 0.301733 0.950660 0.378909
O O4 0.873557 0.890719 0.122125
O O5 0.487611 0.956720 0.942484
O O6 0.998599 0.986581 0.604488
O O7 0.460049 0.027606 0.796848
O O8 0.777347 0.098968 0.034063
O O9 0.838039 0.080773 0.893260
O O10 0.934224 0.360337 0.961550
O O11 0.850391 0.392308 0.737148
O O12 0.460651 0.665589 0.261994
O O13 0.780244 0.734874 0.383515
O O14 0.954741 0.689969 0.637576
O O15 0.179806 0.690877 0.943382
O O16 0.479487 0.326530 0.466934
#
# Coordination Sequence:
#
# PCOD9134087 Si02
#       8
#     4   4   4   4   4   4   4   4
#     4  11  23  39  61  87 128 160 198 249 309 346
#     4  10  18  36  57  86 120 162 196 248 292 350
#     4   9  18  35  57  79 123 152 196 248 287 348
#     4  11  21  39  62  88 125 160 201 253 292 354
#     4  12  20  38  69  88 117 161 202 245 304 359
#     4  10  22  39  57  92 121 152 200 254 292 359
#     4  10  21  40  59  92 118 158 207 246 294 366
#     4  11  21  38  68  90 114 159 206 243 300 368
#
# _framework density 18.161864999999999
#
# number of rings (size 3 to 8) (size 9 to 14) (size 15 to 20)
#    0.000    1.500    7.500    0.000    0.000    1.000 
#    4.500    1.250    0.000    0.000    0.000    0.000 
#    0.000    0.000    0.000    0.000    0.000    0.000 
#
# Total GULP energy -89232.882264 kJ/mol
# GULP energy per Si atom -5577.055142 kJ/mol
# Density = 1.812053 g / cm^3
# Si number density = 18.161865 Si / 1000 Ang^3
#
#
#
# Elastic Constant Matrix: (Units=GPa)
#
#
# Indices 1 2 3 4 5 6 
#
# 1 106.1721 28.9138 35.3234 0.0000 18.1735 0.0000
# 2 28.9138 92.7331 19.3326 0.0000 14.9571 0.0000
# 3 35.3234 19.3326 107.2968 0.0000 9.9865 0.0000
# 4 0.0000 0.0000 0.0000 26.5131 0.0000 2.4021
# 5 18.1735 14.9571 9.9865 0.0000 31.0144 0.0000
# 6 0.0000 0.0000 0.0000 2.4021 0.0000 9.8559
#
#
#
# Elastic Compliance Matrix: (Units=1/GPa)
#
#
# Indices 1 2 3 4 5 6 
#
# 1 0.011891 -0.002284 -0.003048 0.000000 -0.004885 0.000000
# 2 -0.002284 0.012416 -0.001085 0.000000 -0.004300 0.000000
# 3 -0.003048 -0.001085 0.010622 0.000000 -0.001111 0.000000
# 4 0.000000 0.000000 0.000000 0.038569 0.000000 -0.009400
# 5 -0.004885 -0.004300 -0.001111 0.000000 0.037537 0.000000
# 6 0.000000 0.000000 0.000000 -0.009400 0.000000 0.103753
#
#
# Mechanical properties :
#
#
# Convention : Reuss Voigt Hill
#
# Bulk Modulus (GPa) = 45.26132 52.59352 48.92742
# Shear Modulus (GPa) = 21.27781 28.31884 24.79832
#
# Velocity S-wave (km/s) = 3.42653 3.95301 3.69915
# Velocity P-wave (km/s) = 6.37416 7.06089 6.72630
#
# Compressibility (1/GPa) = 0.02209392
#
# Stress axis : x y z
#
# Youngs Moduli (GPa) = 84.09687 80.54436 94.14073
#
# Poissons Ratio (x) = 0.18398 0.28699
# Poissons Ratio (y) = 0.19209 0.10213
# Poissons Ratio (z) = 0.25637 0.08738
#
# Static dielectric constant tensor:
#      x y z
#    x 1.605570 0.000000 0.006580 
#    y 0.000000 1.640980 0.000000 
#    z 0.006580 0.000000 1.634000 
# 
# From -- ./inp_files/6308.got.cif
#   From: 2010.05.17/outbox.cif.g08.bks.cpg/sg9_4_cif.got.tgz:6308.got - 2010.06.03 20:04:27.
