data_PCOD9134511
_publ_section_title
;
Structure prediction by ZEFSAII (Michael W. Deem and Ramdas Pophale) SiO2 
 PCOD9134511
Probable space group: C C
;
_chemical_formula_sum "Si O2"
_cell_formula_units_Z 28
_cell_length_a 22.218477
_cell_length_b 8.792283
_cell_length_c 9.037789
_cell_angle_alpha 90.000000
_cell_angle_beta 135.179169
_cell_angle_gamma 90.000000
_cell_volume 1244.516937
_symmetry_space_group_name_H-M "C C"
_symmetry_group_IT_number 9
_symmetry_cell_setting 'monoclinic'
loop_
_space_group_symop_operation_xyz
x,y,z
x,-y,1/2+z
1/2+x,1/2+y,z
1/2+x,1/2-y,1/2+z
loop_
_atom_site_type_symbol
_atom_site_label
_atom_site_fract_x
_atom_site_fract_y
_atom_site_fract_z
Si Si1 0.503180 0.179282 0.507840
Si Si2 0.025550 0.116024 0.294523
Si Si3 0.318868 0.337048 0.144980
Si Si4 0.793831 0.399456 0.839953
Si Si5 0.869195 0.096951 0.428802
Si Si6 0.405497 0.887879 0.323620
Si Si7 0.117962 0.049241 0.179893
O O1 0.414501 0.263736 0.312589
O O2 0.515995 0.218645 0.704634
O O3 0.576124 0.285336 0.562731
O O4 0.485398 0.003525 0.446624
O O5 0.101585 0.045907 0.325685
O O6 0.918352 0.235021 0.437726
O O7 0.059529 0.084830 0.514329
O O8 0.938809 0.021298 0.116794
O O9 0.271282 0.234123 0.183568
O O10 0.321219 0.504581 0.217393
O O11 0.304357 0.348860 0.944512
O O12 0.839691 0.521515 0.815443
O O13 0.712591 0.458951 0.786958
O O14 0.859555 0.355828 0.086858
#
# Coordination Sequence:
#
# PCOD9134511 Si02
#       7
#     4   4   4   4   4   4   4
#     4   8  19  35  59  85 117 154 208 261 301 368
#     4   9  18  33  62  85 114 157 211 257 306 372
#     4  10  20  37  60  91 117 164 211 259 310 378
#     4  11  23  36  60  89 130 170 204 269 320 382
#     4  11  19  37  65  90 118 157 218 264 307 373
#     4  11  22  37  61  92 126 161 215 268 318 368
#     4  10  19  37  61  84 126 165 209 256 316 387
#
# _framework density 22.498688000000001
#
# number of rings (size 3 to 8) (size 9 to 14) (size 15 to 20)
#    0.857    1.143    1.429    3.429    0.000    2.286 
#    0.000    0.000    9.429    0.000    0.000    0.000 
#    0.000    0.000    0.000    0.000    0.000    0.000 
#
# Total GULP energy -77989.302308 kJ/mol
# GULP energy per Si atom -5570.664451 kJ/mol
# Density = 2.244748 g / cm^3
# Si number density = 22.498688 Si / 1000 Ang^3
#
#
#
# Elastic Constant Matrix: (Units=GPa)
#
#
# Indices 1 2 3 4 5 6 
#
# 1 96.0498 -0.3595 13.6824 0.0000 -21.1028 0.0000
# 2 -0.3595 85.7779 18.6119 0.0000 -22.1585 0.0000
# 3 13.6824 18.6119 55.5217 0.0000 -23.7523 0.0000
# 4 0.0000 0.0000 0.0000 17.0259 0.0000 -14.6202
# 5 -21.1028 -22.1585 -23.7523 0.0000 30.5981 0.0000
# 6 0.0000 0.0000 0.0000 -14.6202 0.0000 36.4330
#
#
#
# Elastic Compliance Matrix: (Units=1/GPa)
#
#
# Indices 1 2 3 4 5 6 
#
# 1 0.012848 0.002865 0.000826 0.000000 0.011577 0.000000
# 2 0.002865 0.014991 -0.000362 0.000000 0.012551 0.000000
# 3 0.000826 -0.000362 0.027040 0.000000 0.021298 0.000000
# 4 0.000000 0.000000 0.000000 0.089614 0.000000 0.035961
# 5 0.011577 0.012551 0.021298 0.000000 0.066288 0.000000
# 6 0.000000 0.000000 0.000000 0.035961 0.000000 0.041879
#
#
# Mechanical properties :
#
#
# Convention : Reuss Voigt Hill
#
# Bulk Modulus (GPa) = 16.25021 33.46878 24.85950
# Shear Modulus (GPa) = 18.76077 30.50570 24.63324
#
# Velocity S-wave (km/s) = 2.89080 3.68623 3.31248
# Velocity P-wave (km/s) = 4.28727 5.74682 5.06984
#
# Compressibility (1/GPa) = 0.06153766
#
# Stress axis : x y z
#
# Youngs Moduli (GPa) = 77.83383 66.70749 36.98223
#
# Poissons Ratio (x) = -0.19113 -0.03055
# Poissons Ratio (y) = -0.22301 0.01338
# Poissons Ratio (z) = -0.06430 0.02414
#
# Static dielectric constant tensor:
#      x y z
#    x 1.845760 0.000000 -0.026540 
#    y 0.000000 1.900370 0.000000 
#    z -0.026540 0.000000 1.859270 
# 
# From -- ./inp_files/11441.got.cif
#   From: 2010.05.17/outbox.cif.g08.bks.cpg/sg9_6_cif.got.tgz:11441.got - 2010.06.03 20:04:27.
