data_PCOD9134677
_publ_section_title
;
Structure prediction by ZEFSAII (Michael W. Deem and Ramdas Pophale) SiO2 
 PCOD9134677
Probable space group: C C
;
_chemical_formula_sum "Si O2"
_cell_formula_units_Z 32
_cell_length_a 21.448096
_cell_length_b 9.135808
_cell_length_c 13.798806
_cell_angle_alpha 90.000000
_cell_angle_beta 38.480277
_cell_angle_gamma 90.000000
_cell_volume 1682.436857
_symmetry_space_group_name_H-M "C C"
_symmetry_group_IT_number 9
_symmetry_cell_setting 'monoclinic'
loop_
_space_group_symop_operation_xyz
x,y,z
x,-y,1/2+z
1/2+x,1/2+y,z
1/2+x,1/2-y,1/2+z
loop_
_atom_site_type_symbol
_atom_site_label
_atom_site_fract_x
_atom_site_fract_y
_atom_site_fract_z
Si Si1 0.605210 0.511109 0.785430
Si Si2 0.403143 0.641800 0.487563
Si Si3 0.589425 0.515381 0.024595
Si Si4 0.060156 0.425627 0.546636
Si Si5 0.688281 0.279589 0.020980
Si Si6 0.401522 0.692513 0.717736
Si Si7 0.554404 0.193074 0.680681
Si Si8 0.179314 0.672443 0.708855
O O1 0.491992 0.479467 0.883979
O O2 0.656513 0.629597 0.654131
O O3 0.658822 0.350079 0.730425
O O4 0.600942 0.565722 0.900588
O O5 0.385171 0.670167 0.623156
O O6 0.454558 0.773559 0.364511
O O7 0.293928 0.622199 0.575625
O O8 0.676695 0.403357 0.950460
O O9 0.483148 0.426314 0.155517
O O10 0.589542 0.650452 0.097008
O O11 0.113027 0.341853 0.571709
O O12 0.046112 0.589957 0.598236
O O13 0.121998 0.391922 0.372981
O O14 0.954296 0.348484 0.662906
O O15 0.795641 0.204089 0.898321
O O16 0.630401 0.127192 0.666901
#
# Coordination Sequence:
#
# PCOD9134677 Si02
#       8
#     4   4   4   4   4   4   4   4
#     4  10  20  38  65  92 121 168 214 263 311 377
#     4  10  19  39  65  87 121 171 207 250 324 378
#     4  10  20  40  62  91 127 161 211 260 311 381
#     4  11  23  39  60  91 129 164 211 265 309 380
#     4  11  20  39  66  90 120 169 215 252 320 377
#     4  10  20  39  67  87 120 166 214 257 320 375
#     4  11  24  38  61  94 128 163 210 260 316 373
#     4  11  20  40  62  86 128 172 204 257 325 373
#
# _framework density 19.020029000000001
#
# number of rings (size 3 to 8) (size 9 to 14) (size 15 to 20)
#    0.000    1.500    8.750    0.000    1.750    2.000 
#    0.000    0.000    0.000    0.000    0.000    0.000 
#    0.000    0.000    0.000    0.000    0.000    0.000 
#
# Total GULP energy -89128.505053 kJ/mol
# GULP energy per Si atom -5570.531566 kJ/mol
# Density = 1.897674 g / cm^3
# Si number density = 19.020029 Si / 1000 Ang^3
#
#
#
# Elastic Constant Matrix: (Units=GPa)
#
#
# Indices 1 2 3 4 5 6 
#
# 1 80.7511 1.3119 33.5722 0.0000 17.2849 0.0000
# 2 1.3119 44.8283 6.9253 -0.0001 20.5087 0.0000
# 3 33.5722 6.9253 69.8256 0.0000 6.4594 0.0000
# 4 0.0000 -0.0001 0.0000 20.7276 0.0000 16.1677
# 5 17.2849 20.5087 6.4594 0.0000 31.9166 0.0000
# 6 0.0000 0.0000 0.0000 16.1677 0.0000 25.0519
#
#
#
# Elastic Compliance Matrix: (Units=1/GPa)
#
#
# Indices 1 2 3 4 5 6 
#
# 1 0.018401 0.006426 -0.008337 0.000000 -0.012407 0.000000
# 2 0.006426 0.033952 -0.004195 0.000000 -0.024447 0.000000
# 3 -0.008337 -0.004195 0.018424 0.000000 0.003482 0.000000
# 4 0.000000 0.000000 0.000000 0.097149 0.000000 -0.062697
# 5 -0.012407 -0.024447 0.003482 0.000000 0.053055 0.000000
# 6 0.000000 0.000000 0.000000 -0.062697 0.000000 0.080380
#
#
# Mechanical properties :
#
#
# Convention : Reuss Voigt Hill
#
# Bulk Modulus (GPa) = 17.07539 31.00263 24.03901
# Shear Modulus (GPa) = 15.01073 25.77893 20.39483
#
# Velocity S-wave (km/s) = 2.81233 3.68551 3.27812
# Velocity P-wave (km/s) = 4.42071 5.86907 5.19561
#
# Compressibility (1/GPa) = 0.05856381
#
# Stress axis : x y z
#
# Youngs Moduli (GPa) = 54.34452 29.45349 54.27792
#
# Poissons Ratio (x) = -0.18925 0.45250
# Poissons Ratio (y) = -0.34919 0.22770
# Poissons Ratio (z) = 0.45306 0.12356
#
# Static dielectric constant tensor:
#      x y z
#    x 1.692820 0.000000 0.022470 
#    y 0.000000 1.662170 0.000000 
#    z 0.022470 0.000000 1.681010 
# 
# From -- ./inp_files/26661.got.cif
#   From: 2010.05.17/outbox.cif.g08.bks.cpg/sg9_14_cif.got.tgz:26661.got - 2010.06.03 20:04:27.
