data_PCOD9134678
_publ_section_title
;
Structure prediction by ZEFSAII (Michael W. Deem and Ramdas Pophale) SiO2 
 PCOD9134678
Probable space group: C C
;
_chemical_formula_sum "Si O2"
_cell_formula_units_Z 28
_cell_length_a 21.043218
_cell_length_b 8.235259
_cell_length_c 11.115214
_cell_angle_alpha 90.000000
_cell_angle_beta 32.506823
_cell_angle_gamma 90.000000
_cell_volume 1035.153938
_symmetry_space_group_name_H-M "C C"
_symmetry_group_IT_number 9
_symmetry_cell_setting 'monoclinic'
loop_
_space_group_symop_operation_xyz
x,y,z
x,-y,1/2+z
1/2+x,1/2+y,z
1/2+x,1/2-y,1/2+z
loop_
_atom_site_type_symbol
_atom_site_label
_atom_site_fract_x
_atom_site_fract_y
_atom_site_fract_z
Si Si1 0.058640 0.222863 0.519600
Si Si2 0.937213 0.408639 0.431640
Si Si3 0.759494 0.692227 0.393798
Si Si4 0.247132 0.851526 0.525930
Si Si5 0.847567 0.092952 0.970094
Si Si6 0.434928 0.740805 0.064647
Si Si7 0.595249 0.925430 0.975552
O O1 0.148691 0.241992 0.489341
O O2 0.130549 0.187586 0.284621
O O3 0.017472 0.411328 0.577959
O O4 0.964724 0.080556 0.697719
O O5 0.877091 0.288903 0.623921
O O6 0.841870 0.397695 0.477176
O O7 0.932559 0.587245 0.495591
O O8 0.063212 0.380319 0.165006
O O9 0.733340 0.504450 0.462323
O O10 0.782562 0.778213 0.483574
O O11 0.318904 0.718979 0.334033
O O12 0.919648 0.119987 0.979610
O O13 0.725498 0.023210 0.222375
O O14 0.544837 0.775749 0.976886
#
# Coordination Sequence:
#
# PCOD9134678 Si02
#       7
#     4   4   4   4   4   4   4
#     4  11  23  44  64  96 145 174 224 291 339 405
#     4   9  17  38  67  89 123 172 229 260 337 410
#     4  10  21  41  69  92 129 178 224 281 341 408
#     4   9  19  38  67  92 123 183 224 272 345 405
#     4  12  23  40  64  99 133 174 222 284 341 406
#     4  10  19  39  65  93 125 170 232 275 328 418
#     4  11  24  40  68  99 126 187 233 273 345 412
#
# _framework density 27.049118
#
# number of rings (size 3 to 8) (size 9 to 14) (size 15 to 20)
#    0.000    1.714    2.857    2.571    0.000    2.286 
#    2.571    4.286    0.000    0.000    0.000    0.000 
#    0.000    0.000    0.000    0.000    0.000    0.000 
#
# Total GULP energy -78034.118992 kJ/mol
# GULP energy per Si atom -5573.865642 kJ/mol
# Density = 2.698755 g / cm^3
# Si number density = 27.049118 Si / 1000 Ang^3
#
#
#
# Elastic Constant Matrix: (Units=GPa)
#
#
# Indices 1 2 3 4 5 6 
#
# 1 67.0190 12.7792 40.6507 0.0000 -0.7740 0.0000
# 2 12.7792 40.1067 29.8853 0.0000 -0.4584 0.0000
# 3 40.6507 29.8853 258.0730 0.0000 17.1652 0.0000
# 4 0.0000 0.0000 0.0000 31.9901 0.0000 -3.1474
# 5 -0.7740 -0.4584 17.1652 0.0000 39.1195 0.0000
# 6 0.0000 0.0000 0.0000 -3.1474 0.0000 16.1575
#
#
#
# Elastic Compliance Matrix: (Units=1/GPa)
#
#
# Indices 1 2 3 4 5 6 
#
# 1 0.017062 -0.003670 -0.002351 0.000000 0.001326 0.000000
# 2 -0.003670 0.028195 -0.002785 0.000000 0.001480 0.000000
# 3 -0.002351 -0.002785 0.004710 0.000000 -0.002146 0.000000
# 4 0.000000 0.000000 0.000000 0.031870 0.000000 0.006208
# 5 0.001326 0.001480 -0.002146 0.000000 0.026548 0.000000
# 6 0.000000 0.000000 0.000000 0.006208 0.000000 0.063100
#
#
# Mechanical properties :
#
#
# Convention : Reuss Voigt Hill
#
# Bulk Modulus (GPa) = 30.90624 59.09212 44.99918
# Shear Modulus (GPa) = 25.01456 36.24565 30.63010
#
# Velocity S-wave (km/s) = 3.04432 3.66456 3.36875
# Velocity P-wave (km/s) = 4.87934 6.30865 5.63946
#
# Compressibility (1/GPa) = 0.03235592
#
# Stress axis : x y z
#
# Youngs Moduli (GPa) = 58.60948 35.46701 212.29328
#
# Poissons Ratio (x) = 0.13015 0.49906
# Poissons Ratio (y) = 0.21508 0.59134
# Poissons Ratio (z) = 0.13778 0.09879
#
# Static dielectric constant tensor:
#      x y z
#    x 2.183020 0.000000 0.014550 
#    y 0.000000 2.168660 0.000000 
#    z 0.014550 0.000000 2.220190 
# 
# From -- ./inp_files/16051.got.cif
#   From: 2010.05.17/outbox.cif.g08.bks.cpg/sg9_9_cif.got.tgz:16051.got - 2010.06.03 20:04:27.
