data_PCOD9134421
_publ_section_title
;
Structure prediction by ZEFSAII (Michael W. Deem and Ramdas Pophale) SiO2 
 PCOD9134421
Probable space group: C C
;
_chemical_formula_sum "Si O2"
_cell_formula_units_Z 32
_cell_length_a 16.350426
_cell_length_b 20.458383
_cell_length_c 9.735650
_cell_angle_alpha 90.000000
_cell_angle_beta 151.619516
_cell_angle_gamma 90.000000
_cell_volume 1547.945199
_symmetry_space_group_name_H-M "C C"
_symmetry_group_IT_number 9
_symmetry_cell_setting 'monoclinic'
loop_
_space_group_symop_operation_xyz
x,y,z
x,-y,1/2+z
1/2+x,1/2+y,z
1/2+x,1/2-y,1/2+z
loop_
_atom_site_type_symbol
_atom_site_label
_atom_site_fract_x
_atom_site_fract_y
_atom_site_fract_z
Si Si1 0.417660 0.834174 0.821040
Si Si2 0.691673 0.864039 0.453276
Si Si3 0.090283 0.750348 0.344275
Si Si4 0.160902 0.544998 0.316944
Si Si5 0.688799 0.532004 0.966729
Si Si6 0.738624 0.185143 0.309357
Si Si7 0.971990 0.033986 0.380115
Si Si8 0.506903 0.013132 0.819707
O O1 0.275121 0.780490 0.659497
O O2 0.507970 0.808568 0.813020
O O3 0.307183 0.902370 0.654644
O O4 0.578262 0.839344 0.160952
O O5 0.709565 0.812756 0.603815
O O6 0.580335 0.923126 0.355107
O O7 0.875769 0.898646 0.693292
O O8 0.124916 0.732275 0.236345
O O9 0.940044 0.803443 0.132709
O O10 0.192493 0.614394 0.299255
O O11 0.321619 0.519591 0.641341
O O12 0.011502 0.541541 0.208765
O O13 0.117011 0.499875 0.120432
O O14 0.538858 0.543663 0.633489
O O15 0.615415 0.497923 0.994199
O O16 0.815358 0.478574 0.087764
#
# Coordination Sequence:
#
# PCOD9134421 Si02
#       8
#     4   4   4   4   4   4   4   4
#     4  11  23  42  61  86 118 155 199 249 291 339
#     4  10  22  40  59  83 118 153 189 236 293 352
#     4  10  23  40  62  85 110 154 206 248 295 338
#     4  10  19  36  56  80 116 154 189 231 285 349
#     4  12  22  36  58  88 123 151 188 237 286 349
#     4  10  21  39  61  84 115 153 198 248 293 340
#     4  11  22  35  57  88 119 153 186 226 287 358
#     4  10  20  34  56  86 115 153 189 225 288 361
#
# _framework density 20.672566
#
# number of rings (size 3 to 8) (size 9 to 14) (size 15 to 20)
#    0.000    1.500    0.000    7.500    0.000    3.000 
#    0.000    1.250    0.000    0.000    0.000    0.000 
#    0.000    0.000    0.000    0.000    0.000    0.000 
#
# Total GULP energy -89155.048333 kJ/mol
# GULP energy per Si atom -5572.190521 kJ/mol
# Density = 2.062551 g / cm^3
# Si number density = 20.672566 Si / 1000 Ang^3
#
#
#
# Elastic Constant Matrix: (Units=GPa)
#
#
# Indices 1 2 3 4 5 6 
#
# 1 108.1878 27.4141 22.4551 0.0000 4.2305 0.0000
# 2 27.4141 39.8476 8.3353 0.0000 -4.7004 0.0000
# 3 22.4551 8.3353 85.2381 0.0000 -19.0286 0.0000
# 4 0.0000 0.0000 0.0000 26.7035 0.0000 2.0655
# 5 4.2305 -4.7004 -19.0286 0.0000 39.5309 0.0000
# 6 0.0000 0.0000 0.0000 2.0655 0.0000 26.5056
#
#
#
# Elastic Compliance Matrix: (Units=1/GPa)
#
#
# Indices 1 2 3 4 5 6 
#
# 1 0.012124 -0.008112 -0.003256 0.000000 -0.003829 0.000000
# 2 -0.008112 0.031198 0.000121 0.000000 0.004636 0.000000
# 3 -0.003256 0.000121 0.014183 0.000000 0.007190 0.000000
# 4 0.000000 0.000000 0.000000 0.037675 0.000000 -0.002936
# 5 -0.003829 0.004636 0.007190 0.000000 0.029719 0.000000
# 6 0.000000 0.000000 0.000000 -0.002936 0.000000 0.037957
#
#
# Mechanical properties :
#
#
# Convention : Reuss Voigt Hill
#
# Bulk Modulus (GPa) = 28.56144 38.85359 33.70752
# Shear Modulus (GPa) = 25.37837 30.21927 27.79882
#
# Velocity S-wave (km/s) = 3.50756 3.82750 3.67102
# Velocity P-wave (km/s) = 5.50001 6.19424 5.85742
#
# Compressibility (1/GPa) = 0.03501224
#
# Stress axis : x y z
#
# Youngs Moduli (GPa) = 82.48047 32.05359 70.50844
#
# Poissons Ratio (x) = 0.26001 0.22954
# Poissons Ratio (y) = 0.66906 -0.00854
# Poissons Ratio (z) = 0.26852 -0.00388
#
# Static dielectric constant tensor:
#      x y z
#    x 1.797510 0.000000 -0.003450 
#    y 0.000000 1.794000 0.000000 
#    z -0.003450 0.000000 1.779650 
# 
# From -- ./inp_files/6191.got.cif
#   From: 2010.05.17/outbox.cif.g08.bks.cpg/sg9_4_cif.got.tgz:6191.got - 2010.06.03 20:04:27.
