data_PCOD9134541
_publ_section_title
;
Structure prediction by ZEFSAII (Michael W. Deem and Ramdas Pophale) SiO2 
 PCOD9134541
Probable space group: C C
;
_chemical_formula_sum "Si O2"
_cell_formula_units_Z 32
_cell_length_a 8.997224
_cell_length_b 11.073059
_cell_length_c 14.562291
_cell_angle_alpha 90.000000
_cell_angle_beta 72.016835
_cell_angle_gamma 90.000000
_cell_volume 1379.919079
_symmetry_space_group_name_H-M "C C"
_symmetry_group_IT_number 9
_symmetry_cell_setting 'monoclinic'
loop_
_space_group_symop_operation_xyz
x,y,z
x,-y,1/2+z
1/2+x,1/2+y,z
1/2+x,1/2-y,1/2+z
loop_
_atom_site_type_symbol
_atom_site_label
_atom_site_fract_x
_atom_site_fract_y
_atom_site_fract_z
Si Si1 0.284490 0.258144 0.641190
Si Si2 0.531345 0.538870 0.054183
Si Si3 0.002032 0.596080 0.478459
Si Si4 0.307738 0.178609 0.347078
Si Si5 0.014277 0.127542 0.729074
Si Si6 0.288553 0.231216 0.970064
Si Si7 0.997685 0.921312 0.867199
Si Si8 0.568369 0.174613 0.022627
O O1 0.417531 0.360726 0.622211
O O2 0.370407 0.150544 0.570397
O O3 0.175860 0.189150 0.736017
O O4 0.148452 0.321399 0.606059
O O5 0.549308 0.432302 0.124132
O O6 0.693220 0.604962 0.993143
O O7 0.464033 0.482698 0.972886
O O8 0.938271 0.619037 0.387712
O O9 0.151967 0.674220 0.477525
O O10 0.044451 0.459028 0.489030
O O11 0.385786 0.269216 0.261578
O O12 0.184959 0.090471 0.323032
O O13 0.194031 0.253931 0.436831
O O14 0.949074 0.018683 0.802621
O O15 0.395572 0.230244 0.041128
O O16 0.418232 0.288801 0.875200
#
# Coordination Sequence:
#
# PCOD9134541 Si02
#       8
#     4   4   4   4   4   4   4   4
#     4  10  23  38  59  92 126 162 212 259 317 389
#     4  11  24  43  65  91 125 167 212 266 322 380
#     4  10  19  37  63  90 121 164 208 260 318 379
#     4  10  23  38  59  92 126 162 212 259 317 389
#     4  12  24  40  64  94 132 168 210 272 328 380
#     4  10  20  36  64  92 120 162 214 254 310 380
#     4  11  24  43  65  91 125 167 212 266 322 380
#     4  10  19  37  63  90 121 164 208 260 318 379
#
# _framework density 23.189765999999999
#
# number of rings (size 3 to 8) (size 9 to 14) (size 15 to 20)
#    0.000    1.500    0.000    7.500    0.000    6.000 
#    0.000    0.000    0.000    6.000    0.000    0.000 
#    0.000    0.000    0.000    0.000    0.000    0.000 
#
# Total GULP energy -89200.707483 kJ/mol
# GULP energy per Si atom -5575.044218 kJ/mol
# Density = 2.313699 g / cm^3
# Si number density = 23.189766 Si / 1000 Ang^3
#
#
#
# Elastic Constant Matrix: (Units=GPa)
#
#
# Indices 1 2 3 4 5 6 
#
# 1 109.7818 19.6622 4.4405 0.0000 -7.8583 0.0000
# 2 19.6622 89.0231 15.7235 0.0000 5.2622 0.0000
# 3 4.4405 15.7235 48.4872 0.0000 -9.9271 0.0000
# 4 0.0000 0.0000 0.0000 32.4892 0.0000 -7.6565
# 5 -7.8583 5.2622 -9.9271 0.0000 17.1956 0.0000
# 6 0.0000 0.0000 0.0000 -7.6565 0.0000 49.6567
#
#
#
# Elastic Compliance Matrix: (Units=1/GPa)
#
#
# Indices 1 2 3 4 5 6 
#
# 1 0.009998 -0.002792 0.001247 0.000000 0.006144 0.000000
# 2 -0.002792 0.013409 -0.005890 0.000000 -0.008780 0.000000
# 3 0.001247 -0.005890 0.025976 0.000000 0.017368 0.000000
# 4 0.000000 0.000000 0.000000 0.031940 0.000000 0.004925
# 5 0.006144 -0.008780 0.017368 0.000000 0.073675 0.000000
# 6 0.000000 0.000000 0.000000 0.004925 0.000000 0.020898
#
#
# Mechanical properties :
#
#
# Convention : Reuss Voigt Hill
#
# Bulk Modulus (GPa) = 28.97355 36.32716 32.65035
# Shear Modulus (GPa) = 24.71949 33.69938 29.20943
#
# Velocity S-wave (km/s) = 3.26845 3.81622 3.55291
# Velocity P-wave (km/s) = 5.17349 5.92598 5.56247
#
# Compressibility (1/GPa) = 0.03451423
#
# Stress axis : x y z
#
# Youngs Moduli (GPa) = 100.01703 74.57710 38.49743
#
# Poissons Ratio (x) = 0.20820 -0.04803
# Poissons Ratio (y) = 0.27922 0.22675
# Poissons Ratio (z) = -0.12477 0.43927
#
# Static dielectric constant tensor:
#      x y z
#    x 1.916200 0.000000 -0.006730 
#    y 0.000000 1.891930 0.000000 
#    z -0.006730 0.000000 1.906610 
# 
# From -- ./inp_files/22706.got.cif
#   From: 2010.05.17/outbox.cif.g08.bks.cpg/sg9_12_cif.got.tgz:22706.got - 2010.06.03 20:04:27.
