data_PCOD9134282
_publ_section_title
;
Structure prediction by ZEFSAII (Michael W. Deem and Ramdas Pophale) SiO2 
 PCOD9134282
Probable space group: C C
;
_chemical_formula_sum "Si O2"
_cell_formula_units_Z 32
_cell_length_a 10.420532
_cell_length_b 27.665035
_cell_length_c 5.461679
_cell_angle_alpha 90.000000
_cell_angle_beta 121.854113
_cell_angle_gamma 90.000000
_cell_volume 1337.386080
_symmetry_space_group_name_H-M "C C"
_symmetry_group_IT_number 9
_symmetry_cell_setting 'monoclinic'
loop_
_space_group_symop_operation_xyz
x,y,z
x,-y,1/2+z
1/2+x,1/2+y,z
1/2+x,1/2-y,1/2+z
loop_
_atom_site_type_symbol
_atom_site_label
_atom_site_fract_x
_atom_site_fract_y
_atom_site_fract_z
Si Si1 0.212710 0.681676 0.700130
Si Si2 0.161629 0.985654 0.733208
Si Si3 0.010012 0.523861 0.095410
Si Si4 0.139449 0.215775 0.300043
Si Si5 0.421451 0.820743 0.584095
Si Si6 0.944389 0.215033 0.599907
Si Si7 0.289116 0.882144 0.808362
Si Si8 0.081189 0.616111 0.891691
O O1 0.228485 0.732979 0.860151
O O2 0.041803 0.681542 0.426789
O O3 0.315733 0.678611 0.561994
O O4 0.224776 0.634991 0.886730
O O5 0.083635 0.003953 0.410459
O O6 0.185985 0.928494 0.731073
O O7 0.325267 0.015325 0.910397
O O8 0.062479 0.506599 0.412570
O O9 0.074220 0.576779 0.097726
O O10 0.236387 0.166432 0.393369
O O11 0.036956 0.211817 0.441290
O O12 0.048238 0.214010 0.949712
O O13 0.360572 0.767119 0.499824
O O14 0.516676 0.835142 0.447070
O O15 0.308058 0.862780 0.550153
O O16 0.448755 0.901120 0.074709
#
# Coordination Sequence:
#
# PCOD9134282 Si02
#       8
#     4   4   4   4   4   4   4   4
#     4  10  23  39  56  85 117 163 204 244 291 346
#     4  10  19  33  53  84 123 146 179 240 305 361
#     4  10  19  34  52  84 125 142 182 238 307 364
#     4  11  25  39  59  86 115 167 202 245 288 346
#     4  10  21  34  58  83 115 160 198 238 296 346
#     4  11  24  42  56  80 124 158 204 246 275 349
#     4  11  22  35  58  90 123 155 194 241 305 365
#     4  11  21  34  62  88 120 159 191 244 305 361
#
# _framework density 23.927273
#
# number of rings (size 3 to 8) (size 9 to 14) (size 15 to 20)
#    0.000    1.500    5.000    1.500    5.250    0.000 
#    0.000    0.000    0.000    0.000    0.000    5.250 
#    0.000    0.000    0.000    0.000    0.000    0.000 
#
# Total GULP energy -89272.096179 kJ/mol
# GULP energy per Si atom -5579.506011 kJ/mol
# Density = 2.387281 g / cm^3
# Si number density = 23.927273 Si / 1000 Ang^3
#
#
#
# Elastic Constant Matrix: (Units=GPa)
#
#
# Indices 1 2 3 4 5 6 
#
# 1 79.9476 20.1833 30.9044 0.0000 -36.8040 0.0000
# 2 20.1833 87.2692 16.1198 0.0000 -9.6562 0.0000
# 3 30.9044 16.1198 101.9119 0.0000 -34.3550 0.0000
# 4 0.0000 0.0000 0.0000 30.2701 0.0000 -17.9987
# 5 -36.8040 -9.6562 -34.3550 0.0000 42.2586 0.0000
# 6 0.0000 0.0000 0.0000 -17.9987 0.0000 27.7541
#
#
#
# Elastic Compliance Matrix: (Units=1/GPa)
#
#
# Indices 1 2 3 4 5 6 
#
# 1 0.021615 -0.002996 0.000047 0.000000 0.018179 0.000000
# 2 -0.002996 0.012301 -0.001335 0.000000 -0.000884 0.000000
# 3 0.000047 -0.001335 0.013665 0.000000 0.010846 0.000000
# 4 0.000000 0.000000 0.000000 0.053770 0.000000 0.034870
# 5 0.018179 -0.000884 0.010846 0.000000 0.048111 0.000000
# 6 0.000000 0.000000 0.000000 0.034870 0.000000 0.058644
#
#
# Mechanical properties :
#
#
# Convention : Reuss Voigt Hill
#
# Bulk Modulus (GPa) = 25.63251 44.83817 35.23534
# Shear Modulus (GPa) = 21.76962 33.51798 27.64380
#
# Velocity S-wave (km/s) = 3.01960 3.74682 3.40270
# Velocity P-wave (km/s) = 4.78469 6.12358 5.49507
#
# Compressibility (1/GPa) = 0.03901296
#
# Stress axis : x y z
#
# Youngs Moduli (GPa) = 46.26433 81.29725 73.17781
#
# Poissons Ratio (x) = 0.24359 -0.00347
# Poissons Ratio (y) = 0.13862 0.09770
# Poissons Ratio (z) = -0.00220 0.10854
#
# Static dielectric constant tensor:
#      x y z
#    x 1.959320 0.000000 0.012650 
#    y 0.000000 1.964770 0.000000 
#    z 0.012650 0.000000 1.994990 
# 
# From -- ./inp_files/1975.got.cif
#   From: 2010.05.17/outbox.cif.g08.bks.cpg/sg9_1_cif.got.tgz:1975.got - 2010.06.03 20:04:27.
