data_PCOD9134457
_publ_section_title
;
Structure prediction by ZEFSAII (Michael W. Deem and Ramdas Pophale) SiO2 
 PCOD9134457
Probable space group: C C
;
_chemical_formula_sum "Si O2"
_cell_formula_units_Z 28
_cell_length_a 5.039475
_cell_length_b 18.103413
_cell_length_c 14.739846
_cell_angle_alpha 90.000000
_cell_angle_beta 110.488646
_cell_angle_gamma 90.000000
_cell_volume 1259.674952
_symmetry_space_group_name_H-M "C C"
_symmetry_group_IT_number 9
_symmetry_cell_setting 'monoclinic'
loop_
_space_group_symop_operation_xyz
x,y,z
x,-y,1/2+z
1/2+x,1/2+y,z
1/2+x,1/2-y,1/2+z
loop_
_atom_site_type_symbol
_atom_site_label
_atom_site_fract_x
_atom_site_fract_y
_atom_site_fract_z
Si Si1 0.291820 0.599859 0.663640
Si Si2 0.472705 0.649665 0.199182
Si Si3 0.573606 0.879902 0.332404
Si Si4 0.699232 0.653715 0.943722
Si Si5 0.020555 0.463767 0.585328
Si Si6 0.292452 0.983120 0.763659
Si Si7 0.929445 0.261479 0.638054
O O1 0.102555 0.623881 0.727426
O O2 0.538010 0.543229 0.725448
O O3 0.417932 0.673852 0.638826
O O4 0.106487 0.547607 0.576443
O O5 0.657948 0.593372 0.282805
O O6 0.685526 0.701289 0.169829
O O7 0.293285 0.590855 0.116197
O O8 0.224799 0.702368 0.205466
O O9 0.323553 0.841337 0.357713
O O10 0.533482 0.968819 0.342361
O O11 0.863303 0.845251 0.403353
O O12 0.791026 0.574097 0.994880
O O13 0.851482 0.711317 0.027649
O O14 0.911776 0.464105 0.677132
#
# Coordination Sequence:
#
# PCOD9134457 Si02
#       7
#     4   4   4   4   4   4   4
#     4  10  23  40  65  95 125 165 211 250 308 378
#     4  10  19  36  61  93 116 152 215 254 286 354
#     4  11  23  38  63  91 128 161 205 257 322 360
#     4  11  21  39  63  93 121 162 210 261 309 361
#     4   9  20  37  66  90 120 155 216 253 292 372
#     4  10  19  41  61  93 120 163 207 258 291 383
#     4  11  23  37  65  93 124 164 212 255 300 372
#
# _framework density 22.227954
#
# number of rings (size 3 to 8) (size 9 to 14) (size 15 to 20)
#    0.000    1.714    4.286    1.714    6.000    0.000 
#    0.000    0.000    3.143    6.857    0.000    0.000 
#    0.000    0.000    0.000    0.000    0.000    0.000 
#
# Total GULP energy -78089.669764 kJ/mol
# GULP energy per Si atom -5577.833555 kJ/mol
# Density = 2.217736 g / cm^3
# Si number density = 22.227954 Si / 1000 Ang^3
#
#
#
# Elastic Constant Matrix: (Units=GPa)
#
#
# Indices 1 2 3 4 5 6 
#
# 1 111.9998 21.7060 -2.0324 0.0000 -10.7864 0.0000
# 2 21.7060 148.3859 10.8776 0.0000 -5.0624 0.0000
# 3 -2.0324 10.8776 27.0254 0.0000 -10.1264 0.0000
# 4 0.0000 0.0000 0.0000 20.4559 0.0000 -3.2409
# 5 -10.7864 -5.0624 -10.1264 0.0000 19.5239 0.0000
# 6 0.0000 0.0000 0.0000 -3.2409 0.0000 29.5800
#
#
#
# Elastic Compliance Matrix: (Units=1/GPa)
#
#
# Indices 1 2 3 4 5 6 
#
# 1 0.009993 -0.001513 0.004074 0.000000 0.007242 0.000000
# 2 -0.001513 0.007176 -0.003250 0.000000 -0.000661 0.000000
# 3 0.004074 -0.003250 0.048587 0.000000 0.026609 0.000000
# 4 0.000000 0.000000 0.000000 0.049749 0.000000 0.005451
# 5 0.007242 -0.000661 0.026609 0.000000 0.068850 0.000000
# 6 0.000000 0.000000 0.000000 0.005451 0.000000 0.034404
#
#
# Mechanical properties :
#
#
# Convention : Reuss Voigt Hill
#
# Bulk Modulus (GPa) = 15.53325 38.72370 27.12848
# Shear Modulus (GPa) = 20.69563 31.03595 25.86579
#
# Velocity S-wave (km/s) = 3.05464 3.74071 3.41495
# Velocity P-wave (km/s) = 4.40959 6.00967 5.27070
#
# Compressibility (1/GPa) = 0.06437803
#
# Stress axis : x y z
#
# Youngs Moduli (GPa) = 100.06759 139.34841 20.58167
#
# Poissons Ratio (x) = 0.21089 -0.08385
# Poissons Ratio (y) = 0.15144 0.06689
# Poissons Ratio (z) = -0.40769 0.45287
#
# Static dielectric constant tensor:
#      x y z
#    x 1.896900 0.000000 0.028050 
#    y 0.000000 1.855370 0.000000 
#    z 0.028050 0.000000 1.866270 
# 
# From -- ./inp_files/21825.got.cif
#   From: 2010.05.17/outbox.cif.g08.bks.cpg/sg9_11_cif.got.tgz:21825.got - 2010.06.03 20:04:27.
