data_PCOD9134328
_publ_section_title
;
Structure prediction by ZEFSAII (Michael W. Deem and Ramdas Pophale) SiO2 
 PCOD9134328
Probable space group: C C
;
_chemical_formula_sum "Si O2"
_cell_formula_units_Z 32
_cell_length_a 7.343390
_cell_length_b 12.960368
_cell_length_c 20.351627
_cell_angle_alpha 90.000000
_cell_angle_beta 41.565940
_cell_angle_gamma 90.000000
_cell_volume 1285.114780
_symmetry_space_group_name_H-M "C C"
_symmetry_group_IT_number 9
_symmetry_cell_setting 'monoclinic'
loop_
_space_group_symop_operation_xyz
x,y,z
x,-y,1/2+z
1/2+x,1/2+y,z
1/2+x,1/2-y,1/2+z
loop_
_atom_site_type_symbol
_atom_site_label
_atom_site_fract_x
_atom_site_fract_y
_atom_site_fract_z
Si Si1 0.042940 0.421457 0.639300
Si Si2 0.092068 0.483834 0.484173
Si Si3 0.955655 0.668191 0.669969
Si Si4 0.882936 0.823498 0.347291
Si Si5 0.611284 0.617503 0.571693
Si Si6 0.528147 0.308983 0.461136
Si Si7 0.452360 0.645894 0.464610
Si Si8 0.628564 0.760302 0.259371
O O1 0.021398 0.414391 0.566135
O O2 0.363218 0.383746 0.556667
O O3 0.988638 0.542183 0.672441
O O4 0.809017 0.341810 0.726601
O O5 0.199463 0.424560 0.391491
O O6 0.334148 0.561158 0.445571
O O7 0.796357 0.527617 0.547914
O O8 0.646239 0.680890 0.731429
O O9 0.168606 0.703579 0.557838
O O10 0.007314 0.741787 0.718028
O O11 0.702311 0.722782 0.386212
O O12 0.996479 0.840277 0.391585
O O13 0.527934 0.604344 0.517779
O O14 0.348636 0.647846 0.686624
O O15 0.833498 0.709541 0.514585
O O16 0.855887 0.284953 0.376345
#
# Coordination Sequence:
#
# PCOD9134328 Si02
#       8
#     4   4   4   4   4   4   4   4
#     4   9  18  32  56  81 111 156 190 238 295 350
#     4  10  19  34  57  82 118 144 193 244 281 347
#     4   9  17  32  60  81 109 157 192 233 296 356
#     4   9  18  34  59  82 108 155 193 229 298 350
#     4   9  18  33  56  82 109 151 190 235 288 345
#     4   8  16  32  55  78 106 153 185 226 299 346
#     4   9  19  38  58  76 119 154 180 243 298 340
#     4   9  17  33  57  76 114 154 191 232 299 352
#
# _framework density 24.900497999999999
#
# number of rings (size 3 to 8) (size 9 to 14) (size 15 to 20)
#    0.000    3.000    0.000    2.250    1.750    0.000 
#    0.000   12.500   60.500    0.000    0.000    0.000 
#    0.000    0.000    0.000    0.000    0.000    0.000 
#
# Total GULP energy -89070.001026 kJ/mol
# GULP energy per Si atom -5566.875064 kJ/mol
# Density = 2.484382 g / cm^3
# Si number density = 24.900498 Si / 1000 Ang^3
#
#
#
# Elastic Constant Matrix: (Units=GPa)
#
#
# Indices 1 2 3 4 5 6 
#
# 1 92.0637 28.2707 26.8181 -0.0018 -15.2060 -0.0006
# 2 28.2707 74.9821 69.3581 -0.0019 -22.5265 0.0005
# 3 26.8181 69.3581 209.0507 -0.0050 -37.2332 0.0014
# 4 -0.0018 -0.0019 -0.0050 25.4235 0.0014 -19.2649
# 5 -15.2060 -22.5265 -37.2332 0.0014 32.4691 0.0007
# 6 -0.0006 0.0005 0.0014 -19.2649 0.0007 29.8057
#
#
#
# Elastic Compliance Matrix: (Units=1/GPa)
#
#
# Indices 1 2 3 4 5 6 
#
# 1 0.012570 -0.004001 0.000338 0.000001 0.003499 0.000001
# 2 -0.004001 0.022122 -0.005563 -0.000001 0.007095 -0.000001
# 3 0.000338 -0.005563 0.007448 0.000001 0.004839 0.000000
# 4 0.000001 -0.000001 0.000001 0.077091 -0.000003 0.049828
# 5 0.003499 0.007095 0.004839 -0.000003 0.042909 -0.000003
# 6 0.000001 -0.000001 0.000000 0.049828 -0.000003 0.065757
#
#
# Mechanical properties :
#
#
# Convention : Reuss Voigt Hill
#
# Bulk Modulus (GPa) = 42.21412 69.44335 55.82873
# Shear Modulus (GPa) = 19.66620 34.31631 26.99126
#
# Velocity S-wave (km/s) = 2.81337 3.71635 3.29593
# Velocity P-wave (km/s) = 5.24817 6.80911 6.07895
#
# Compressibility (1/GPa) = 0.02368876
#
# Stress axis : x y z
#
# Youngs Moduli (GPa) = 79.55427 45.20404 134.27091
#
# Poissons Ratio (x) = 0.18085 -0.04538
# Poissons Ratio (y) = 0.31828 0.74689
# Poissons Ratio (z) = -0.02689 0.25145
#
# Static dielectric constant tensor:
#      x y z
#    x 2.074450 0.000000 -0.003820 
#    y 0.000000 2.102360 0.000000 
#    z -0.003820 0.000000 2.080630 
# 
# From -- ./inp_files/32684.got.cif
#   From: 2010.05.17/outbox.cif.g08.bks.cpg/sg9_17_cif.got.tgz:32684.got - 2010.06.03 20:04:27.
