data_PCOD9134031
_publ_section_title
;
Structure prediction by ZEFSAII (Michael W. Deem and Ramdas Pophale) SiO2 
 PCOD9134031
Probable space group: C C
;
_chemical_formula_sum "Si O2"
_cell_formula_units_Z 32
_cell_length_a 8.466501
_cell_length_b 29.852900
_cell_length_c 5.534427
_cell_angle_alpha 90.000000
_cell_angle_beta 112.796341
_cell_angle_gamma 90.000000
_cell_volume 1289.559149
_symmetry_space_group_name_H-M "C C"
_symmetry_group_IT_number 9
_symmetry_cell_setting 'monoclinic'
loop_
_space_group_symop_operation_xyz
x,y,z
x,-y,1/2+z
1/2+x,1/2+y,z
1/2+x,1/2-y,1/2+z
loop_
_atom_site_type_symbol
_atom_site_label
_atom_site_fract_x
_atom_site_fract_y
_atom_site_fract_z
Si Si1 0.694580 0.011148 0.021190
Si Si2 0.039403 0.174470 0.956180
Si Si3 0.932428 0.249879 0.280733
Si Si4 0.328510 0.390501 0.614572
Si Si5 0.150310 0.885369 0.139278
Si Si6 0.154804 0.310787 0.776803
Si Si7 0.085009 0.022702 0.801277
Si Si8 0.364842 0.832080 0.965495
O O1 0.741172 0.062872 0.012681
O O2 0.604772 0.005921 0.226313
O O3 0.876130 0.983728 0.160976
O O4 0.079527 0.161613 0.704333
O O5 0.993778 0.218203 0.091788
O O6 0.887014 0.139927 0.926412
O O7 0.223552 0.161196 0.176958
O O8 0.051865 0.282061 0.514085
O O9 0.820626 0.220786 0.402955
O O10 0.818670 0.286584 0.076443
O O11 0.211898 0.358096 0.704501
O O12 0.507496 0.399833 0.859149
O O13 0.144625 0.925937 0.322776
O O14 0.332302 0.873341 0.127141
O O15 0.044300 0.321233 0.946983
O O16 0.143293 0.999060 0.587129
#
# Coordination Sequence:
#
# PCOD9134031 Si02
#       8
#     4   4   4   4   4   4   4   4
#     4  10  18  34  62 101 136 177 229 290 344 419
#     4  10  22  40  66  92 133 170 229 285 342 412
#     4  11  24  45  67  94 124 186 232 290 344 417
#     4  10  22  38  64 101 131 179 225 287 356 404
#     4  11  22  39  66 103 138 176 231 293 354 418
#     4  11  26  44  65  93 136 175 236 286 352 421
#     4  10  19  34  64 104 142 181 231 293 349 421
#     4  11  25  40  64  92 128 178 221 286 351 410
#
# _framework density 24.814679999999999
#
# number of rings (size 3 to 8) (size 9 to 14) (size 15 to 20)
#    0.000    1.500    3.750    2.250    5.250    2.000 
#    0.000    0.000    0.000    1.500    0.000    0.000 
#    0.000    0.000    0.000    0.000    0.000    0.000 
#
# Total GULP energy -89338.549480 kJ/mol
# GULP energy per Si atom -5583.659342 kJ/mol
# Density = 2.475820 g / cm^3
# Si number density = 24.814680 Si / 1000 Ang^3
#
#
#
# Elastic Constant Matrix: (Units=GPa)
#
#
# Indices 1 2 3 4 5 6 
#
# 1 70.5445 58.1640 15.5562 0.0000 -33.7168 0.0000
# 2 58.1640 135.2893 26.4664 0.0000 -17.1487 0.0000
# 3 15.5562 26.4664 77.8378 0.0000 -15.3832 0.0000
# 4 0.0000 0.0000 0.0000 28.5511 0.0000 -14.5819
# 5 -33.7168 -17.1487 -15.3832 0.0000 35.7862 0.0000
# 6 0.0000 0.0000 0.0000 -14.5819 0.0000 24.2956
#
#
#
# Elastic Compliance Matrix: (Units=1/GPa)
#
#
# Indices 1 2 3 4 5 6 
#
# 1 0.040837 -0.013971 0.003136 0.000000 0.033129 0.000000
# 2 -0.013971 0.012980 -0.003271 0.000000 -0.008349 0.000000
# 3 0.003136 -0.003271 0.014870 0.000000 0.007779 0.000000
# 4 0.000000 0.000000 0.000000 0.050507 0.000000 0.030314
# 5 0.033129 -0.008349 0.007779 0.000000 0.058500 0.000000
# 6 0.000000 0.000000 0.000000 0.030314 0.000000 0.059354
#
#
# Mechanical properties :
#
#
# Convention : Reuss Voigt Hill
#
# Bulk Modulus (GPa) = 24.70681 53.78275 39.24478
# Shear Modulus (GPa) = 17.93718 29.95890 23.94804
#
# Velocity S-wave (km/s) = 2.69150 3.47840 3.10994
# Velocity P-wave (km/s) = 4.43137 6.15249 5.36144
#
# Compressibility (1/GPa) = 0.04047467
#
# Stress axis : x y z
#
# Youngs Moduli (GPa) = 24.48772 77.04385 67.24856
#
# Poissons Ratio (x) = 1.07638 -0.21091
# Poissons Ratio (y) = 0.34212 0.21999
# Poissons Ratio (z) = -0.07680 0.25203
#
# Static dielectric constant tensor:
#      x y z
#    x 2.052170 0.000000 -0.028780 
#    y 0.000000 1.948260 0.000000 
#    z -0.028780 0.000000 2.062410 
# 
# From -- ./inp_files/1321.got.cif
#   From: 2010.05.17/outbox.cif.g08.bks.cpg/sg9_1_cif.got.tgz:1321.got - 2010.06.03 20:04:27.
