data_PCOD9134901
_publ_section_title
;
Structure prediction by ZEFSAII (Michael W. Deem and Ramdas Pophale) SiO2 
 PCOD9134901
Probable space group: C C
;
_chemical_formula_sum "Si O2"
_cell_formula_units_Z 24
_cell_length_a 17.773876
_cell_length_b 11.626927
_cell_length_c 5.262745
_cell_angle_alpha 90.000000
_cell_angle_beta 86.665178
_cell_angle_gamma 90.000000
_cell_volume 1085.733860
_symmetry_space_group_name_H-M "C C"
_symmetry_group_IT_number 9
_symmetry_cell_setting 'monoclinic'
loop_
_space_group_symop_operation_xyz
x,y,z
x,-y,1/2+z
1/2+x,1/2+y,z
1/2+x,1/2-y,1/2+z
loop_
_atom_site_type_symbol
_atom_site_label
_atom_site_fract_x
_atom_site_fract_y
_atom_site_fract_z
Si Si1 0.070680 0.629457 0.300050
Si Si2 0.673600 0.709778 0.067673
Si Si3 0.813755 0.573096 0.834693
Si Si4 0.040715 0.074231 0.298193
Si Si5 0.214170 0.541742 0.754043
Si Si6 0.978234 0.676064 0.808801
O O1 0.116071 0.745556 0.362372
O O2 0.136558 0.533983 0.278737
O O3 0.013891 0.617836 0.549248
O O4 0.026214 0.641863 0.047951
O O5 0.745256 0.655558 0.921398
O O6 0.626507 0.621892 0.249159
O O7 0.695754 0.824904 0.219351
O O8 0.809788 0.527704 0.547243
O O9 0.893180 0.636517 0.854705
O O10 0.988946 0.187191 0.280918
O O11 0.028825 0.012594 0.567766
O O12 0.255624 0.490338 0.502706
#
# Coordination Sequence:
#
# PCOD9134901 Si02
#       6
#     4   4   4   4   4   4
#     4  10  21  40  68  96 123 164 217 267 311 364
#     4  10  23  41  64  94 130 166 212 262 316 380
#     4  12  28  45  65  95 132 172 209 261 330 389
#     4  11  22  38  62  89 119 161 209 257 307 369
#     4  10  20  34  59  93 120 153 204 256 306 353
#     4  11  24  42  64  93 128 166 213 265 316 377
#
# _framework density 22.104866999999999
#
# number of rings (size 3 to 8) (size 9 to 14) (size 15 to 20)
#    0.000    1.333    0.000    7.000    0.000   17.333 
#    0.000    3.333    0.000    0.000    0.000    0.000 
#    0.000    0.000    0.000    0.000    0.000    0.000 
#
# Total GULP energy -67166.605863 kJ/mol
# GULP energy per Si atom -5597.217155 kJ/mol
# Density = 2.205455 g / cm^3
# Si number density = 22.104867 Si / 1000 Ang^3
#
#
#
# Elastic Constant Matrix: (Units=GPa)
#
#
# Indices 1 2 3 4 5 6 
#
# 1 74.4845 6.9850 9.1711 0.0000 -24.1654 0.0000
# 2 6.9850 94.1646 12.8471 0.0000 -9.2084 0.0000
# 3 9.1711 12.8471 126.6238 0.0000 11.8108 0.0000
# 4 0.0000 0.0000 0.0000 43.3324 0.0000 -13.8123
# 5 -24.1654 -9.2084 11.8108 0.0000 29.8514 0.0000
# 6 0.0000 0.0000 0.0000 -13.8123 0.0000 21.1220
#
#
#
# Elastic Compliance Matrix: (Units=1/GPa)
#
#
# Indices 1 2 3 4 5 6 
#
# 1 0.019252 0.000649 -0.003045 0.000000 0.016989 0.000000
# 2 0.000649 0.011246 -0.001620 0.000000 0.004635 0.000000
# 3 -0.003045 -0.001620 0.008887 0.000000 -0.006481 0.000000
# 4 0.000000 0.000000 0.000000 0.029154 0.000000 0.019065
# 5 0.016989 0.004635 -0.006481 0.000000 0.051247 0.000000
# 6 0.000000 0.000000 0.000000 0.019065 0.000000 0.059811
#
#
# Mechanical properties :
#
#
# Convention : Reuss Voigt Hill
#
# Bulk Modulus (GPa) = 31.89637 39.25325 35.57481
# Shear Modulus (GPa) = 25.24230 36.61247 30.92738
#
# Velocity S-wave (km/s) = 3.38292 4.07419 3.74454
# Velocity P-wave (km/s) = 5.45158 6.31889 5.90119
#
# Compressibility (1/GPa) = 0.03135153
#
# Stress axis : x y z
#
# Youngs Moduli (GPa) = 51.94353 88.92099 112.52593
#
# Poissons Ratio (x) = -0.05769 0.34263
# Poissons Ratio (y) = -0.03370 0.18233
# Poissons Ratio (z) = 0.15816 0.14408
#
# Static dielectric constant tensor:
#      x y z
#    x 1.769450 0.000000 0.027450 
#    y 0.000000 1.835430 0.000000 
#    z 0.027450 0.000000 1.892790 
# 
# From -- ./inp_files/2865.got.cif
#   From: 2010.05.17/outbox.cif.g08.bks.cpg/sg9_2_cif.got.tgz:2865.got - 2010.06.03 20:04:27.
