data_PCOD9134825
_publ_section_title
;
Structure prediction by ZEFSAII (Michael W. Deem and Ramdas Pophale) SiO2 
 PCOD9134825
Probable space group: C C
;
_chemical_formula_sum "Si O2"
_cell_formula_units_Z 24
_cell_length_a 8.390949
_cell_length_b 11.019138
_cell_length_c 10.389458
_cell_angle_alpha 90.000000
_cell_angle_beta 81.587803
_cell_angle_gamma 90.000000
_cell_volume 950.284830
_symmetry_space_group_name_H-M "C C"
_symmetry_group_IT_number 9
_symmetry_cell_setting 'monoclinic'
loop_
_space_group_symop_operation_xyz
x,y,z
x,-y,1/2+z
1/2+x,1/2+y,z
1/2+x,1/2-y,1/2+z
loop_
_atom_site_type_symbol
_atom_site_label
_atom_site_fract_x
_atom_site_fract_y
_atom_site_fract_z
Si Si1 0.229280 0.537201 0.357900
Si Si2 0.202028 0.938110 0.720378
Si Si3 0.011694 0.614049 0.039201
Si Si4 0.038433 0.032552 0.977605
Si Si5 0.533828 0.823773 0.271347
Si Si6 0.313500 0.722498 0.120624
O O1 0.386925 0.533367 0.428459
O O2 0.258568 0.642009 0.251567
O O3 0.089897 0.512714 0.479781
O O4 0.177743 0.422021 0.272143
O O5 0.384861 0.904989 0.665169
O O6 0.113793 0.000384 0.607407
O O7 0.116349 0.806766 0.745970
O O8 0.171201 0.012771 0.853043
O O9 0.153131 0.709591 0.056295
O O10 0.938608 0.668720 0.917917
O O11 0.953906 0.161677 0.016821
O O12 0.401191 0.835246 0.175230
#
# Coordination Sequence:
#
# PCOD9134825 Si02
#       6
#     4   4   4   4   4   4
#     4   9  19  41  67  95 130 190 227 285 361 424
#     4  11  22  41  64 103 137 177 243 291 352 428
#     4   9  23  39  63  99 135 176 241 283 355 427
#     4  10  20  38  70  91 135 185 229 286 354 419
#     4   9  21  40  61  97 136 176 236 286 343 431
#     4  10  19  43  69  95 139 186 232 289 369 417
#
# _framework density 25.255586000000001
#
# number of rings (size 3 to 8) (size 9 to 14) (size 15 to 20)
#    1.000    1.333    3.333    0.000    2.333    1.333 
#    3.000    1.667    0.000    0.000    0.000    0.000 
#    0.000    0.000    0.000    0.000    0.000    0.000 
#
# Total GULP energy -66858.732018 kJ/mol
# GULP energy per Si atom -5571.561002 kJ/mol
# Density = 2.519810 g / cm^3
# Si number density = 25.255586 Si / 1000 Ang^3
#
#
#
# Elastic Constant Matrix: (Units=GPa)
#
#
# Indices 1 2 3 4 5 6 
#
# 1 109.7538 38.7453 50.4815 0.0000 1.7764 0.0000
# 2 38.7453 74.2862 36.4560 0.0000 -4.2323 0.0000
# 3 50.4815 36.4560 128.2880 0.0000 -0.8947 0.0000
# 4 0.0000 0.0000 0.0000 33.2925 0.0000 -1.4726
# 5 1.7764 -4.2323 -0.8947 0.0000 70.6437 0.0000
# 6 0.0000 0.0000 0.0000 -1.4726 0.0000 26.1693
#
#
#
# Elastic Compliance Matrix: (Units=1/GPa)
#
#
# Indices 1 2 3 4 5 6 
#
# 1 0.012440 -0.004788 -0.003539 0.000000 -0.000644 0.000000
# 2 -0.004788 0.017541 -0.003093 0.000000 0.001132 0.000000
# 3 -0.003539 -0.003093 0.010067 0.000000 0.000031 0.000000
# 4 0.000000 0.000000 0.000000 0.030112 0.000000 0.001694
# 5 -0.000644 0.001132 0.000031 0.000000 0.014240 0.000000
# 6 0.000000 0.000000 0.000000 0.001694 0.000000 0.038308
#
#
# Mechanical properties :
#
#
# Convention : Reuss Voigt Hill
#
# Bulk Modulus (GPa) = 58.11263 62.63261 60.37262
# Shear Modulus (GPa) = 33.05074 38.46412 35.75743
#
# Velocity S-wave (km/s) = 3.62145 3.90679 3.76682
# Velocity P-wave (km/s) = 6.36760 6.72339 6.54791
#
# Compressibility (1/GPa) = 0.01720796
#
# Stress axis : x y z
#
# Youngs Moduli (GPa) = 80.38727 57.00919 99.33864
#
# Poissons Ratio (x) = 0.27297 0.35155
# Poissons Ratio (y) = 0.38491 0.30722
# Poissons Ratio (z) = 0.28448 0.17631
#
# Static dielectric constant tensor:
#      x y z
#    x 2.032290 0.000000 0.010740 
#    y 0.000000 2.044100 0.000000 
#    z 0.010740 0.000000 2.010680 
# 
# From -- ./inp_files/14324.got.cif
#   From: 2010.05.17/outbox.cif.g08.bks.cpg/sg9_8_cif.got.tgz:14324.got - 2010.06.03 20:04:27.
