data_PCOD9134256
_publ_section_title
;
Structure prediction by ZEFSAII (Michael W. Deem and Ramdas Pophale) SiO2 
 PCOD9134256
Probable space group: C C
;
_chemical_formula_sum "Si O2"
_cell_formula_units_Z 32
_cell_length_a 18.135386
_cell_length_b 8.421126
_cell_length_c 25.641817
_cell_angle_alpha 90.000000
_cell_angle_beta 21.640024
_cell_angle_gamma 90.000000
_cell_volume 1444.129072
_symmetry_space_group_name_H-M "C C"
_symmetry_group_IT_number 9
_symmetry_cell_setting 'monoclinic'
loop_
_space_group_symop_operation_xyz
x,y,z
x,-y,1/2+z
1/2+x,1/2+y,z
1/2+x,1/2-y,1/2+z
loop_
_atom_site_type_symbol
_atom_site_label
_atom_site_fract_x
_atom_site_fract_y
_atom_site_fract_z
Si Si1 0.652830 0.462174 0.795320
Si Si2 0.800932 0.946943 0.943414
Si Si3 0.087037 0.064522 0.672924
Si Si4 0.422546 0.949231 0.532566
Si Si5 0.474878 0.904731 0.727966
Si Si6 0.345995 0.072388 0.917220
Si Si7 0.045204 0.901296 0.972217
Si Si8 0.700652 0.920582 0.266629
O O1 0.470620 0.489776 0.875310
O O2 0.851782 0.518658 0.634391
O O3 0.585066 0.515416 0.896955
O O4 0.689862 0.272030 0.779018
O O5 0.797883 0.757653 0.945866
O O6 0.878315 0.010246 0.836671
O O7 0.596678 0.016822 0.100677
O O8 0.094815 0.253636 0.669528
O O9 0.251094 0.990389 0.603782
O O10 0.156414 0.012781 0.569467
O O11 0.423218 0.756914 0.536415
O O12 0.628651 0.992376 0.368847
O O13 0.260753 0.844908 0.849060
O O14 0.420154 0.017012 0.812074
O O15 0.534042 0.042141 0.832317
O O16 0.914136 0.973006 0.104800
#
# Coordination Sequence:
#
# PCOD9134256 Si02
#       8
#     4   4   4   4   4   4   4   4
#     4   8  15  30  54  78 102 143 201 243 279 350
#     4  10  20  38  62  85 117 164 208 249 304 370
#     4  10  21  36  56  90 122 152 203 262 306 351
#     4   8  16  31  52  75 107 148 192 240 296 354
#     4  12  24  35  58  95 130 156 202 266 309 356
#     4  10  20  38  62  85 117 164 208 249 304 370
#     4  10  19  32  54  86 115 152 201 244 293 361
#     4   8  15  30  54  78 102 143 201 243 279 350
#
# _framework density 22.158684999999998
#
# number of rings (size 3 to 8) (size 9 to 14) (size 15 to 20)
#    0.000    2.500    0.000    3.750    0.000    8.000 
#    0.000    0.000    0.000   18.000    0.000    0.000 
#    0.000    0.000    0.000    0.000    0.000    0.000 
#
# Total GULP energy -89204.031123 kJ/mol
# GULP energy per Si atom -5575.251945 kJ/mol
# Density = 2.210825 g / cm^3
# Si number density = 22.158685 Si / 1000 Ang^3
#
#
#
# Elastic Constant Matrix: (Units=GPa)
#
#
# Indices 1 2 3 4 5 6 
#
# 1 30.7877 6.0793 26.3004 0.0440 5.9677 -0.0247
# 2 6.0793 40.9999 29.9837 -0.0093 -4.7303 0.0030
# 3 26.3004 29.9837 213.0043 -0.0391 42.7382 0.0192
# 4 0.0440 -0.0093 -0.0391 -5.0372 0.0198 23.4885
# 5 5.9677 -4.7303 42.7382 0.0198 32.0934 -0.0117
# 6 -0.0247 0.0030 0.0192 23.4885 -0.0117 3.1005
#
#
#
# Elastic Compliance Matrix: (Units=1/GPa)
#
#
# Indices 1 2 3 4 5 6 
#
# 1 0.036640 -0.003096 -0.003589 0.000049 -0.002491 -0.000063
# 2 -0.003096 0.031640 -0.006991 0.000006 0.014549 -0.000004
# 3 -0.003589 -0.006991 0.008453 -0.000019 -0.011620 0.000024
# 4 0.000049 0.000006 -0.000019 -0.005465 0.000035 0.041402
# 5 -0.002491 0.014549 -0.011620 0.000035 0.049241 -0.000043
# 6 -0.000063 -0.000004 0.000024 0.041402 -0.000043 0.008879
#
#
# Mechanical properties :
#
#
# Convention : Reuss Voigt Hill
#
# Bulk Modulus (GPa) = 20.24967 45.50209 32.87588
# Shear Modulus (GPa) = 28.86834 20.85990 24.86412
#
# Velocity S-wave (km/s) = 3.61335 3.07153 3.35340
# Velocity P-wave (km/s) = 5.15429 5.75833 5.46466
#
# Compressibility (1/GPa) = 0.04938351
#
# Stress axis : x y z
#
# Youngs Moduli (GPa) = 27.29259 31.60538 118.29503
#
# Poissons Ratio (x) = 0.09785 0.42450
# Poissons Ratio (y) = 0.08449 0.82696
# Poissons Ratio (z) = 0.09794 0.22094
#
# Static dielectric constant tensor:
#      x y z
#    x 1.850200 0.000040 0.042000 
#    y 0.000040 1.893950 -0.000010 
#    z 0.042000 -0.000010 1.914570 
# 
# From -- ./inp_files/36953.got.cif
#   From: 2010.05.17/outbox.cif.g08.bks.cpg/sg9_19_cif.got.tgz:36953.got - 2010.06.03 20:04:27.
