data_PCOD9134626
_publ_section_title
;
Structure prediction by ZEFSAII (Michael W. Deem and Ramdas Pophale) SiO2 
 PCOD9134626
Probable space group: C C
;
_chemical_formula_sum "Si O2"
_cell_formula_units_Z 24
_cell_length_a 6.960128
_cell_length_b 28.561576
_cell_length_c 5.202585
_cell_angle_alpha 90.000000
_cell_angle_beta 119.219082
_cell_angle_gamma 90.000000
_cell_volume 902.637118
_symmetry_space_group_name_H-M "C C"
_symmetry_group_IT_number 9
_symmetry_cell_setting 'monoclinic'
loop_
_space_group_symop_operation_xyz
x,y,z
x,-y,1/2+z
1/2+x,1/2+y,z
1/2+x,1/2-y,1/2+z
loop_
_atom_site_type_symbol
_atom_site_label
_atom_site_fract_x
_atom_site_fract_y
_atom_site_fract_z
Si Si1 0.621090 0.860025 0.324470
Si Si2 0.565338 0.531265 0.817270
Si Si3 0.061388 0.816158 0.374191
Si Si4 0.930214 0.115146 0.412059
Si Si5 0.811754 0.399846 0.746267
Si Si6 0.986794 0.741283 0.733884
O O1 0.849118 0.838288 0.376257
O O2 0.689473 0.882446 0.636527
O O3 0.469100 0.814623 0.224535
O O4 0.515883 0.896772 0.066058
O O5 0.524345 0.498332 0.546621
O O6 0.443901 0.579080 0.655556
O O7 0.797755 0.556321 0.045060
O O8 0.070380 0.766118 0.522398
O O9 0.264752 0.849832 0.578675
O O10 0.995099 0.831811 0.041865
O O11 0.107401 0.097023 0.319473
O O12 0.716047 0.753283 0.566882
#
# Coordination Sequence:
#
# PCOD9134626 Si02
#       6
#     4   4   4   4   4   4
#     4  10  21  39  65  96 135 189 241 301 363 440
#     4  11  22  43  73 104 139 186 234 305 380 463
#     4   9  20  38  61  93 135 190 233 296 358 435
#     4  10  22  40  68  98 137 186 239 296 380 437
#     4  10  20  40  68  94 138 179 233 296 373 437
#     4  10  19  38  65  95 144 198 256 308 360 440
#
# _framework density 26.588757999999999
#
# number of rings (size 3 to 8) (size 9 to 14) (size 15 to 20)
#    0.000    2.000    3.333    0.000    0.000    2.667 
#    0.000   11.667    0.000    0.000    0.000    0.000 
#    0.000    0.000    0.000    0.000    0.000    0.000 
#
# Total GULP energy -66813.755400 kJ/mol
# GULP energy per Si atom -5567.812950 kJ/mol
# Density = 2.652824 g / cm^3
# Si number density = 26.588758 Si / 1000 Ang^3
#
#
#
# Elastic Constant Matrix: (Units=GPa)
#
#
# Indices 1 2 3 4 5 6 
#
# 1 83.8997 22.1256 40.8733 0.0000 8.4969 0.0000
# 2 22.1256 93.6914 47.2469 0.0000 -11.4392 0.0000
# 3 40.8733 47.2469 207.0656 0.0000 7.2943 0.0000
# 4 0.0000 0.0000 0.0000 45.8684 0.0000 -6.9131
# 5 8.4969 -11.4392 7.2943 0.0000 45.7938 0.0000
# 6 0.0000 0.0000 0.0000 -6.9131 0.0000 22.8399
#
#
#
# Elastic Compliance Matrix: (Units=1/GPa)
#
#
# Indices 1 2 3 4 5 6 
#
# 1 0.013897 -0.002604 -0.002047 0.000000 -0.002903 0.000000
# 2 -0.002604 0.013124 -0.002628 0.000000 0.004180 0.000000
# 3 -0.002047 -0.002628 0.005876 0.000000 -0.001213 0.000000
# 4 0.000000 0.000000 0.000000 0.022844 0.000000 0.006914
# 5 -0.002903 0.004180 -0.001213 0.000000 0.023613 0.000000
# 6 0.000000 0.000000 0.000000 0.006914 0.000000 0.045876
#
#
# Mechanical properties :
#
#
# Convention : Reuss Voigt Hill
#
# Bulk Modulus (GPa) = 54.52791 67.23871 60.88331
# Shear Modulus (GPa) = 34.27034 41.19447 37.73241
#
# Velocity S-wave (km/s) = 3.59402 3.94041 3.77120
# Velocity P-wave (km/s) = 6.14614 6.78570 6.47382
#
# Compressibility (1/GPa) = 0.01833923
#
# Stress axis : x y z
#
# Youngs Moduli (GPa) = 71.95895 76.19757 170.19321
#
# Poissons Ratio (x) = 0.19843 0.34833
# Poissons Ratio (y) = 0.18739 0.44722
# Poissons Ratio (z) = 0.14728 0.20023
#
# Static dielectric constant tensor:
#      x y z
#    x 2.238890 0.000000 -0.092240 
#    y 0.000000 2.130440 0.000000 
#    z -0.092240 0.000000 2.263070 
# 
# From -- ./inp_files/1078.got.cif
#   From: 2010.05.17/outbox.cif.g08.bks.cpg/sg9_1_cif.got.tgz:1078.got - 2010.06.03 20:04:27.
