data_PCOD9134682
_publ_section_title
;
Structure prediction by ZEFSAII (Michael W. Deem and Ramdas Pophale) SiO2 
 PCOD9134682
Probable space group: C C
;
_chemical_formula_sum "Si O2"
_cell_formula_units_Z 32
_cell_length_a 18.613098
_cell_length_b 9.483409
_cell_length_c 29.264468
_cell_angle_alpha 90.000000
_cell_angle_beta 161.000046
_cell_angle_gamma 90.000000
_cell_volume 1681.762575
_symmetry_space_group_name_H-M "C C"
_symmetry_group_IT_number 9
_symmetry_cell_setting 'monoclinic'
loop_
_space_group_symop_operation_xyz
x,y,z
x,-y,1/2+z
1/2+x,1/2+y,z
1/2+x,1/2-y,1/2+z
loop_
_atom_site_type_symbol
_atom_site_label
_atom_site_fract_x
_atom_site_fract_y
_atom_site_fract_z
Si Si1 0.083690 0.506634 0.524480
Si Si2 0.484785 0.691612 0.123686
Si Si3 0.998010 0.612097 0.814271
Si Si4 0.120424 0.891065 0.232538
Si Si5 0.623420 0.850745 0.952915
Si Si6 0.773411 0.124473 0.728273
Si Si7 0.336981 0.695915 0.293121
Si Si8 0.321866 0.245349 0.624060
O O1 0.041131 0.591660 0.452153
O O2 0.168016 0.610861 0.614473
O O3 0.266229 0.387868 0.619817
O O4 0.849300 0.431514 0.396122
O O5 0.564519 0.530265 0.169336
O O6 0.624422 0.791101 0.174983
O O7 0.477597 0.726696 0.173836
O O8 0.231368 0.693212 0.955340
O O9 0.046607 0.463594 0.868040
O O10 0.833414 0.699860 0.747659
O O11 0.909193 0.623873 0.709800
O O12 0.178346 0.760238 0.235488
O O13 0.888937 0.855042 0.117202
O O14 0.508593 0.704050 0.871096
O O15 0.788726 0.962943 0.752109
O O16 0.584362 0.706382 0.461151
#
# Coordination Sequence:
#
# PCOD9134682 Si02
#       8
#     4   4   4   4   4   4   4   4
#     4  11  21  41  68  90 130 178 211 261 342 402
#     4  10  21  37  63  92 127 162 219 272 321 390
#     4  10  19  39  66  87 120 177 215 255 327 409
#     4  10  20  43  64  86 127 177 212 259 328 403
#     4  11  23  43  66  93 134 169 221 277 328 394
#     4  12  25  38  64 102 126 169 217 289 326 385
#     4  10  21  39  60  89 131 162 214 275 321 390
#     4  10  20  40  67  91 121 176 217 264 329 403
#
# _framework density 19.027656
#
# number of rings (size 3 to 8) (size 9 to 14) (size 15 to 20)
#    0.000    1.500    7.500    0.000    1.750    3.000 
#    2.250    2.500    0.000    0.000    0.000    0.000 
#    0.000    0.000    0.000    0.000    0.000    0.000 
#
# Total GULP energy -89177.371393 kJ/mol
# GULP energy per Si atom -5573.585712 kJ/mol
# Density = 1.898435 g / cm^3
# Si number density = 19.027656 Si / 1000 Ang^3
#
#
#
# Elastic Constant Matrix: (Units=GPa)
#
#
# Indices 1 2 3 4 5 6 
#
# 1 82.8172 18.2346 43.8260 -0.0088 -5.4850 0.0046
# 2 18.2346 50.7393 6.9144 -0.0112 7.0635 0.0059
# 3 43.8260 6.9144 54.5619 -0.0350 13.8201 0.0216
# 4 -0.0088 -0.0112 -0.0350 14.8049 0.0151 -3.6901
# 5 -5.4850 7.0635 13.8201 0.0151 32.5059 -0.0075
# 6 0.0046 0.0059 0.0216 -3.6901 -0.0075 22.1088
#
#
#
# Elastic Compliance Matrix: (Units=1/GPa)
#
#
# Indices 1 2 3 4 5 6 
#
# 1 0.030232 -0.009720 -0.027882 -0.000070 0.019068 0.000018
# 2 -0.009720 0.023579 0.007321 0.000037 -0.009876 -0.000009
# 3 -0.027882 0.007321 0.046386 0.000118 -0.026017 -0.000031
# 4 -0.000070 0.000037 0.000118 0.070477 -0.000100 0.011763
# 5 0.019068 -0.009876 -0.026017 -0.000100 0.047188 0.000023
# 6 0.000018 -0.000009 -0.000031 0.011763 0.000023 0.047194
#
#
# Mechanical properties :
#
#
# Convention : Reuss Voigt Hill
#
# Bulk Modulus (GPa) = 25.22987 36.22982 30.72984
# Shear Modulus (GPa) = 14.75666 21.82681 18.29173
#
# Velocity S-wave (km/s) = 2.78787 3.39058 3.10389
# Velocity P-wave (km/s) = 4.86326 5.86600 5.38801
#
# Compressibility (1/GPa) = 0.03963557
#
# Stress axis : x y z
#
# Youngs Moduli (GPa) = 33.07704 42.41073 21.55842
#
# Poissons Ratio (x) = 0.41222 0.60109
# Poissons Ratio (y) = 0.32150 -0.15783
# Poissons Ratio (z) = 0.92225 -0.31048
#
# Static dielectric constant tensor:
#      x y z
#    x 1.683740 0.000000 0.015260 
#    y 0.000000 1.658650 -0.000010 
#    z 0.015260 -0.000010 1.683970 
# 
# From -- ./inp_files/27258.got.cif
#   From: 2010.05.17/outbox.cif.g08.bks.cpg/sg9_14_cif.got.tgz:27258.got - 2010.06.03 20:04:27.
