data_PCOD9134054
_publ_section_title
;
Structure prediction by ZEFSAII (Michael W. Deem and Ramdas Pophale) SiO2 
 PCOD9134054
Probable space group: C C
;
_chemical_formula_sum "Si O2"
_cell_formula_units_Z 32
_cell_length_a 26.806782
_cell_length_b 7.384086
_cell_length_c 20.826295
_cell_angle_alpha 90.000000
_cell_angle_beta 19.131589
_cell_angle_gamma 90.000000
_cell_volume 1351.080865
_symmetry_space_group_name_H-M "C C"
_symmetry_group_IT_number 9
_symmetry_cell_setting 'monoclinic'
loop_
_space_group_symop_operation_xyz
x,y,z
x,-y,1/2+z
1/2+x,1/2+y,z
1/2+x,1/2-y,1/2+z
loop_
_atom_site_type_symbol
_atom_site_label
_atom_site_fract_x
_atom_site_fract_y
_atom_site_fract_z
Si Si1 0.125000 0.783335 0.625000
Si Si2 0.733178 0.675851 0.477700
Si Si3 0.673884 0.089166 0.258896
Si Si4 0.702314 0.561322 0.817599
Si Si5 0.939585 0.460565 0.440877
Si Si6 0.945574 0.507002 0.126845
Si Si7 0.946142 0.832626 0.711921
Si Si8 0.895078 0.224975 0.900389
O O1 0.263848 0.654121 0.433401
O O2 0.037055 0.700075 0.792018
O O3 0.010772 0.825991 0.705323
O O4 0.209676 0.972674 0.534735
O O5 0.848642 0.662412 0.278606
O O6 0.791230 0.794223 0.465164
O O7 0.563298 0.727355 0.667866
O O8 0.679216 0.270863 0.296221
O O9 0.552354 0.083546 0.348027
O O10 0.594845 0.948328 0.403993
O O11 0.837005 0.082149 0.024989
O O12 0.794617 0.416660 0.661999
O O13 0.824054 0.594064 0.727313
O O14 0.544285 0.532988 0.047359
O O15 0.882025 0.583494 0.452310
O O16 0.986378 0.363235 0.132073
#
# Coordination Sequence:
#
# PCOD9134054 Si02
#       8
#     4   4   4   4   4   4   4   4
#     4  11  23  36  63  98 132 159 215 274 323 369
#     4  11  23  40  66  95 126 169 220 268 320 382
#     4   9  19  34  63  88 123 172 212 248 316 386
#     4   9  17  34  59  88 124 173 211 254 307 386
#     4  10  20  36  60  95 127 164 206 271 319 373
#     4   9  18  36  59  89 123 160 212 265 303 372
#     4  10  18  35  57  92 121 170 211 255 304 385
#     4  11  22  41  63  91 128 173 215 261 318 395
#
# _framework density 23.684740999999999
#
# number of rings (size 3 to 8) (size 9 to 14) (size 15 to 20)
#    0.000    2.000    3.750    1.500    1.750    0.000 
#    0.000    0.000    5.500    1.500    0.000    0.000 
#    0.000    0.000    0.000    0.000    0.000    0.000 
#
# Total GULP energy -89159.866580 kJ/mol
# GULP energy per Si atom -5572.491661 kJ/mol
# Density = 2.363083 g / cm^3
# Si number density = 23.684741 Si / 1000 Ang^3
#
#
#
# Elastic Constant Matrix: (Units=GPa)
#
#
# Indices 1 2 3 4 5 6 
#
# 1 96.8391 23.2083 18.1875 0.0001 14.5448 -0.0001
# 2 23.2083 25.9984 22.4806 0.0002 0.4520 -0.0001
# 3 18.1875 22.4806 141.0921 0.0006 27.9390 -0.0003
# 4 0.0001 0.0002 0.0006 30.0174 -0.0002 1.2470
# 5 14.5448 0.4520 27.9390 -0.0002 31.8809 0.0001
# 6 -0.0001 -0.0001 -0.0003 1.2470 0.0001 7.5169
#
#
#
# Elastic Compliance Matrix: (Units=1/GPa)
#
#
# Indices 1 2 3 4 5 6 
#
# 1 0.014746 -0.014856 0.002126 0.000000 -0.008380 0.000000
# 2 -0.014856 0.060818 -0.010825 0.000000 0.015402 0.000000
# 3 0.002126 -0.010825 0.010527 0.000000 -0.010041 0.000000
# 4 0.000000 0.000000 0.000000 0.033545 0.000000 -0.005565
# 5 -0.008380 0.015402 -0.010041 0.000000 0.043771 -0.000001
# 6 0.000000 0.000000 0.000000 -0.005565 -0.000001 0.133957
#
#
# Mechanical properties :
#
#
# Convention : Reuss Voigt Hill
#
# Bulk Modulus (GPa) = 25.65426 43.52028 34.58727
# Shear Modulus (GPa) = 13.98723 27.21992 20.60357
#
# Velocity S-wave (km/s) = 2.43278 3.39375 2.95262
# Velocity P-wave (km/s) = 4.32970 5.81132 5.12434
#
# Compressibility (1/GPa) = 0.03897988
#
# Stress axis : x y z
#
# Youngs Moduli (GPa) = 67.81439 16.44245 94.99547
#
# Poissons Ratio (x) = 0.24427 -0.20191
# Poissons Ratio (y) = 1.00744 1.02835
# Poissons Ratio (z) = -0.14414 0.17799
#
# Static dielectric constant tensor:
#      x y z
#    x 1.851870 0.000000 0.027910 
#    y 0.000000 1.963330 0.000000 
#    z 0.027910 0.000000 1.983050 
# 
# From -- ./inp_files/34041.got.cif
#   From: 2010.05.17/outbox.cif.g08.bks.cpg/sg9_18_cif.got.tgz:34041.got - 2010.06.03 20:04:27.
