data_PCOD9134324
_publ_section_title
;
Structure prediction by ZEFSAII (Michael W. Deem and Ramdas Pophale) SiO2 
 PCOD9134324
Probable space group: C C
;
_chemical_formula_sum "Si O2"
_cell_formula_units_Z 32
_cell_length_a 11.570072
_cell_length_b 21.692906
_cell_length_c 9.748310
_cell_angle_alpha 90.000000
_cell_angle_beta 34.058930
_cell_angle_gamma 90.000000
_cell_volume 1370.270404
_symmetry_space_group_name_H-M "C C"
_symmetry_group_IT_number 9
_symmetry_cell_setting 'monoclinic'
loop_
_space_group_symop_operation_xyz
x,y,z
x,-y,1/2+z
1/2+x,1/2+y,z
1/2+x,1/2-y,1/2+z
loop_
_atom_site_type_symbol
_atom_site_label
_atom_site_fract_x
_atom_site_fract_y
_atom_site_fract_z
Si Si1 0.207780 0.464679 0.354390
Si Si2 0.150523 0.409421 0.983830
Si Si3 0.841817 0.375317 0.063350
Si Si4 0.484209 0.396754 0.859532
Si Si5 0.086888 0.700969 0.105827
Si Si6 0.717081 0.329728 0.839953
Si Si7 0.947443 0.888451 0.319558
Si Si8 0.874913 0.480764 0.477895
O O1 0.257692 0.537000 0.287506
O O2 0.298040 0.443431 0.414047
O O3 0.970734 0.463082 0.533116
O O4 0.331248 0.422845 0.126132
O O5 0.982046 0.372905 0.061776
O O6 0.020054 0.449642 0.221764
O O7 0.336998 0.377568 0.879908
O O8 0.591303 0.377098 0.311166
O O9 0.880674 0.445205 0.969058
O O10 0.930466 0.319183 0.882885
O O11 0.649756 0.451726 0.673789
O O12 0.615881 0.340877 0.793229
O O13 0.963557 0.669505 0.101169
O O14 0.146136 0.766432 0.983253
O O15 0.294812 0.668922 0.950004
O O16 0.622681 0.382436 0.029848
#
# Coordination Sequence:
#
# PCOD9134324 Si02
#       8
#     4   4   4   4   4   4   4   4
#     4   9  19  34  55  85 119 159 202 248 299 366
#     4  10  21  37  55  85 128 165 200 245 301 385
#     4  10  23  34  55  90 122 163 202 242 305 371
#     4  10  21  36  59  88 122 164 203 251 313 365
#     4  11  20  37  59  89 113 146 199 261 312 350
#     4  10  21  36  60  90 110 146 201 262 309 357
#     4  10  19  34  56  85 116 151 193 249 306 353
#     4  10  20  36  55  86 126 164 204 244 305 381
#
# _framework density 23.353055000000001
#
# number of rings (size 3 to 8) (size 9 to 14) (size 15 to 20)
#    0.000    2.000    1.250    2.250    0.000   10.000 
#    0.000    0.000    0.000    3.000    0.000    0.000 
#    0.000    0.000    0.000    0.000    0.000    0.000 
#
# Total GULP energy -89069.411412 kJ/mol
# GULP energy per Si atom -5566.838213 kJ/mol
# Density = 2.329990 g / cm^3
# Si number density = 23.353055 Si / 1000 Ang^3
#
#
#
# Elastic Constant Matrix: (Units=GPa)
#
#
# Indices 1 2 3 4 5 6 
#
# 1 196.4764 37.9839 39.7465 0.0000 -63.7247 0.0000
# 2 37.9839 58.3770 7.1441 0.0000 -5.9205 0.0000
# 3 39.7465 7.1441 70.5579 0.0002 -27.1347 0.0002
# 4 0.0000 0.0000 0.0002 33.7500 0.0000 -11.7703
# 5 -63.7247 -5.9205 -27.1347 0.0000 47.5041 0.0000
# 6 0.0000 0.0000 0.0002 -11.7703 0.0000 24.7393
#
#
#
# Elastic Compliance Matrix: (Units=1/GPa)
#
#
# Indices 1 2 3 4 5 6 
#
# 1 0.010493 -0.005452 -0.000265 0.000000 0.013245 0.000000
# 2 -0.005452 0.020260 -0.001053 0.000000 -0.005390 0.000000
# 3 -0.000265 -0.001053 0.018251 0.000000 0.009938 0.000000
# 4 0.000000 0.000000 0.000000 0.035524 0.000000 0.016901
# 5 0.013245 -0.005390 0.009938 0.000000 0.043824 0.000000
# 6 0.000000 0.000000 0.000000 0.016901 0.000000 0.048463
#
#
# Mechanical properties :
#
#
# Convention : Reuss Voigt Hill
#
# Bulk Modulus (GPa) = 28.19818 55.01781 41.60799
# Shear Modulus (GPa) = 24.73104 37.23446 30.98275
#
# Velocity S-wave (km/s) = 3.25777 3.99734 3.64636
# Velocity P-wave (km/s) = 5.12364 6.70189 5.96519
#
# Compressibility (1/GPa) = 0.03546328
#
# Stress axis : x y z
#
# Youngs Moduli (GPa) = 95.29933 49.35939 54.79258
#
# Poissons Ratio (x) = 0.26910 0.01453
# Poissons Ratio (y) = 0.51956 0.05770
# Poissons Ratio (z) = 0.02528 0.05198
#
# Static dielectric constant tensor:
#      x y z
#    x 2.054910 0.000000 -0.013100 
#    y 0.000000 1.920070 0.000000 
#    z -0.013100 0.000000 1.937150 
# 
# From -- ./inp_files/2778.got.cif
#   From: 2010.05.17/outbox.cif.g08.bks.cpg/sg9_2_cif.got.tgz:2778.got - 2010.06.03 20:04:27.
