data_PCOD9134119
_publ_section_title
;
Structure prediction by ZEFSAII (Michael W. Deem and Ramdas Pophale) SiO2 
 PCOD9134119
Probable space group: C C
;
_chemical_formula_sum "Si O2"
_cell_formula_units_Z 32
_cell_length_a 17.334042
_cell_length_b 12.719750
_cell_length_c 7.492789
_cell_angle_alpha 90.000000
_cell_angle_beta 51.006822
_cell_angle_gamma 90.000000
_cell_volume 1284.004028
_symmetry_space_group_name_H-M "C C"
_symmetry_group_IT_number 9
_symmetry_cell_setting 'monoclinic'
loop_
_space_group_symop_operation_xyz
x,y,z
x,-y,1/2+z
1/2+x,1/2+y,z
1/2+x,1/2-y,1/2+z
loop_
_atom_site_type_symbol
_atom_site_label
_atom_site_fract_x
_atom_site_fract_y
_atom_site_fract_z
Si Si1 0.071460 0.623728 0.532070
Si Si2 0.868943 0.120400 0.302051
Si Si3 0.968781 0.222706 0.612187
Si Si4 0.314097 0.591567 0.764294
Si Si5 0.355253 0.835328 0.444636
Si Si6 0.095285 0.147588 0.892037
Si Si7 0.146992 0.926506 0.709067
Si Si8 0.612410 0.113153 0.890252
O O1 0.106991 0.512275 0.408941
O O2 0.106356 0.726197 0.371205
O O3 0.102904 0.640808 0.694300
O O4 0.950936 0.613911 0.711241
O O5 0.824581 0.236057 0.367115
O O6 0.884483 0.087923 0.487099
O O7 0.799486 0.028605 0.335313
O O8 0.976924 0.128018 0.061966
O O9 0.878217 0.152596 0.819263
O O10 0.906272 0.283131 0.545394
O O11 0.059181 0.140032 0.438339
O O12 0.024957 0.321887 0.614728
O O13 0.214407 0.643240 0.838588
O O14 0.256996 0.900999 0.622013
O O15 0.135862 0.052955 0.713083
O O16 0.136953 0.115855 0.024160
#
# Coordination Sequence:
#
# PCOD9134119 Si02
#       8
#     4   4   4   4   4   4   4   4
#     4  10  23  45  64  92 133 170 221 265 324 386
#     4  10  18  37  58  93 124 160 210 268 314 375
#     4  10  19  37  60  91 127 164 214 258 320 381
#     4  11  20  33  66  93 119 166 219 260 321 383
#     4   9  21  37  67  89 127 177 205 258 336 389
#     4  11  22  41  64  96 129 168 208 276 324 382
#     4  12  21  40  68  96 129 169 217 265 335 385
#     4  11  22  40  67  92 128 178 214 268 322 393
#
# _framework density 24.922039000000002
#
# number of rings (size 3 to 8) (size 9 to 14) (size 15 to 20)
#    0.000    1.500    6.250    2.250    1.750    2.000 
#    2.250    1.250    2.750    0.000    0.000    0.000 
#    0.000    0.000    0.000    0.000    0.000    0.000 
#
# Total GULP energy -89249.433232 kJ/mol
# GULP energy per Si atom -5578.089577 kJ/mol
# Density = 2.486532 g / cm^3
# Si number density = 24.922039 Si / 1000 Ang^3
#
#
#
# Elastic Constant Matrix: (Units=GPa)
#
#
# Indices 1 2 3 4 5 6 
#
# 1 118.6839 51.8217 38.2337 0.0000 -32.6591 0.0000
# 2 51.8217 150.6008 48.5513 0.0000 -21.3545 0.0000
# 3 38.2337 48.5513 55.0936 0.0000 -38.7040 0.0000
# 4 0.0000 0.0000 0.0000 36.6185 0.0000 -8.2352
# 5 -32.6591 -21.3545 -38.7040 0.0000 45.8902 0.0000
# 6 0.0000 0.0000 0.0000 -8.2352 0.0000 36.5300
#
#
#
# Elastic Compliance Matrix: (Units=1/GPa)
#
#
# Indices 1 2 3 4 5 6 
#
# 1 0.011705 -0.002608 -0.002025 0.000000 0.005409 0.000000
# 2 -0.002608 0.010670 -0.013274 0.000000 -0.008086 0.000000
# 3 -0.002025 -0.013274 0.063564 0.000000 0.045992 0.000000
# 4 0.000000 0.000000 0.000000 0.028767 0.000000 0.006485
# 5 0.005409 -0.008086 0.045992 0.000000 0.060667 0.000000
# 6 0.000000 0.000000 0.000000 0.006485 0.000000 0.028837
#
#
# Mechanical properties :
#
#
# Convention : Reuss Voigt Hill
#
# Bulk Modulus (GPa) = 19.94995 66.84353 43.39674
# Shear Modulus (GPa) = 19.47553 36.19248 27.83401
#
# Velocity S-wave (km/s) = 2.79849 3.81495 3.34555
# Velocity P-wave (km/s) = 4.29702 6.80326 5.68985
#
# Compressibility (1/GPa) = 0.05012543
#
# Stress axis : x y z
#
# Youngs Moduli (GPa) = 85.43180 93.71949 15.73226
#
# Poissons Ratio (x) = 0.24441 0.03186
# Poissons Ratio (y) = 0.22280 0.20882
# Poissons Ratio (z) = 0.17302 1.24400
#
# Static dielectric constant tensor:
#      x y z
#    x 2.049080 0.000000 0.047070 
#    y 0.000000 2.059850 0.000000 
#    z 0.047070 0.000000 2.062020 
# 
# From -- ./inp_files/20177.got.cif
#   From: 2010.05.17/outbox.cif.g08.bks.cpg/sg9_11_cif.got.tgz:20177.got - 2010.06.03 20:04:27.
