data_PCOD9134774
_publ_section_title
;
Structure prediction by ZEFSAII (Michael W. Deem and Ramdas Pophale) SiO2 
 PCOD9134774
Probable space group: C C
;
_chemical_formula_sum "Si O2"
_cell_formula_units_Z 32
_cell_length_a 11.898320
_cell_length_b 7.143449
_cell_length_c 14.983457
_cell_angle_alpha 90.000000
_cell_angle_beta 81.048119
_cell_angle_gamma 90.000000
_cell_volume 1258.007290
_symmetry_space_group_name_H-M "C C"
_symmetry_group_IT_number 9
_symmetry_cell_setting 'monoclinic'
loop_
_space_group_symop_operation_xyz
x,y,z
x,-y,1/2+z
1/2+x,1/2+y,z
1/2+x,1/2-y,1/2+z
loop_
_atom_site_type_symbol
_atom_site_label
_atom_site_fract_x
_atom_site_fract_y
_atom_site_fract_z
Si Si1 0.871580 0.473084 0.758730
Si Si2 0.137021 0.801859 0.486239
Si Si3 0.590214 0.244883 0.969020
Si Si4 0.970283 0.814285 0.647213
Si Si5 0.850788 0.615448 0.070305
Si Si6 0.077073 0.290641 0.807453
Si Si7 0.244248 0.306625 0.612531
Si Si8 0.612758 0.601564 0.289504
O O1 0.914443 0.676454 0.725889
O O2 0.878544 0.341317 0.670466
O O3 0.739376 0.472258 0.794243
O O4 0.960425 0.402692 0.818853
O O5 0.251911 0.784797 0.527433
O O6 0.030349 0.723590 0.554631
O O7 0.144298 0.695867 0.391457
O O8 0.106045 0.027371 0.482908
O O9 0.466649 0.168049 0.006994
O O10 0.678298 0.154785 0.028744
O O11 0.604524 0.230591 0.860114
O O12 0.858695 0.922029 0.624365
O O13 0.081969 0.875501 0.689709
O O14 0.799407 0.402032 0.088945
O O15 0.154018 0.315951 0.707409
O O16 0.033372 0.075158 0.818409
#
# Coordination Sequence:
#
# PCOD9134774 Si02
#       8
#     4   4   4   4   4   4   4   4
#     4  11  23  43  67  92 132 172 219 266 323 388
#     4  10  23  41  64  97 133 166 220 271 326 382
#     4  10  22  39  69  96 127 173 216 269 326 385
#     4  11  23  43  64  97 129 173 214 274 322 388
#     4  10  19  41  65  91 127 171 212 265 317 390
#     4  11  22  44  67  94 132 171 217 270 323 387
#     4  10  21  39  64  91 127 171 213 260 325 381
#     4  11  23  44  66  96 129 173 219 265 330 387
#
# _framework density 25.437052999999999
#
# number of rings (size 3 to 8) (size 9 to 14) (size 15 to 20)
#    0.000    1.500    5.000    0.750    3.500    1.000 
#    6.750    0.000    0.000    0.000    0.000    0.000 
#    0.000    0.000    0.000    0.000    0.000    0.000 
#
# Total GULP energy -89185.880173 kJ/mol
# GULP energy per Si atom -5574.117511 kJ/mol
# Density = 2.537916 g / cm^3
# Si number density = 25.437053 Si / 1000 Ang^3
#
#
#
# Elastic Constant Matrix: (Units=GPa)
#
#
# Indices 1 2 3 4 5 6 
#
# 1 185.2184 17.8307 37.7065 0.0000 19.7459 0.0000
# 2 17.8307 51.8625 -13.0045 0.0000 -1.5905 0.0000
# 3 37.7065 -13.0045 88.2495 0.0000 20.1320 0.0000
# 4 0.0000 0.0000 0.0000 18.8549 0.0000 3.9366
# 5 19.7459 -1.5905 20.1320 0.0000 44.6769 0.0000
# 6 0.0000 0.0000 0.0000 3.9366 0.0000 13.6563
#
#
#
# Elastic Compliance Matrix: (Units=1/GPa)
#
#
# Indices 1 2 3 4 5 6 
#
# 1 0.006435 -0.002967 -0.002802 0.000000 -0.001687 0.000000
# 2 -0.002967 0.021408 0.004402 0.000000 0.000090 0.000000
# 3 -0.002802 0.004402 0.014332 0.000000 -0.005063 0.000000
# 4 0.000000 0.000000 0.000000 0.056433 0.000000 -0.016268
# 5 -0.001687 0.000090 -0.005063 0.000000 0.025413 0.000000
# 6 0.000000 0.000000 0.000000 -0.016268 0.000000 0.077916
#
#
# Mechanical properties :
#
#
# Convention : Reuss Voigt Hill
#
# Bulk Modulus (GPa) = 25.35350 45.59955 35.47653
# Shear Modulus (GPa) = 22.95492 34.29080 28.62286
#
# Velocity S-wave (km/s) = 3.00729 3.67558 3.35810
# Velocity P-wave (km/s) = 4.69544 5.99821 5.38636
#
# Compressibility (1/GPa) = 0.03944228
#
# Stress axis : x y z
#
# Youngs Moduli (GPa) = 155.40358 46.71111 69.77232
#
# Poissons Ratio (x) = 0.13857 0.19548
# Poissons Ratio (y) = 0.46102 -0.30712
# Poissons Ratio (z) = 0.43540 -0.20561
#
# Static dielectric constant tensor:
#      x y z
#    x 2.028500 0.000000 0.032740 
#    y 0.000000 2.122620 0.000000 
#    z 0.032740 0.000000 2.105680 
# 
# From -- ./inp_files/24373.got.cif
#   From: 2010.05.17/outbox.cif.g08.bks.cpg/sg9_13_cif.got.tgz:24373.got - 2010.06.03 20:04:27.
