data_PCOD9134251
_publ_section_title
;
Structure prediction by ZEFSAII (Michael W. Deem and Ramdas Pophale) SiO2 
 PCOD9134251
Probable space group: C C
;
_chemical_formula_sum "Si O2"
_cell_formula_units_Z 28
_cell_length_a 17.310570
_cell_length_b 5.429948
_cell_length_c 17.455009
_cell_angle_alpha 90.000000
_cell_angle_beta 132.979769
_cell_angle_gamma 90.000000
_cell_volume 1200.321345
_symmetry_space_group_name_H-M "C C"
_symmetry_group_IT_number 9
_symmetry_cell_setting 'monoclinic'
loop_
_space_group_symop_operation_xyz
x,y,z
x,-y,1/2+z
1/2+x,1/2+y,z
1/2+x,1/2-y,1/2+z
loop_
_atom_site_type_symbol
_atom_site_label
_atom_site_fract_x
_atom_site_fract_y
_atom_site_fract_z
Si Si1 0.094810 0.141861 0.305400
Si Si2 0.136725 0.722436 0.009493
Si Si3 0.367095 0.775484 0.795354
Si Si4 0.254711 0.797201 0.460096
Si Si5 0.159228 0.222500 0.065907
Si Si6 0.307284 0.707380 0.921749
Si Si7 0.886475 0.779291 0.719003
O O1 0.116486 0.252347 0.405789
O O2 0.182035 0.274780 0.313661
O O3 0.972935 0.194122 0.210202
O O4 0.139974 0.862251 0.343222
O O5 0.094562 0.471396 0.015797
O O6 0.097339 0.968676 0.023208
O O7 0.263882 0.719001 0.111536
O O8 0.242630 0.773582 0.689505
O O9 0.373693 0.745240 0.890470
O O10 0.408401 0.528588 0.782078
O O11 0.403553 0.031004 0.780392
O O12 0.227213 0.777739 0.531311
O O13 0.311717 0.556187 0.466380
O O14 0.317269 0.048069 0.481491
#
# Coordination Sequence:
#
# PCOD9134251 Si02
#       7
#     4   4   4   4   4   4   4
#     4   9  20  32  59  77 107 140 188 219 263 327
#     4   9  17  31  51  78  99 137 177 220 255 317
#     4  10  21  33  51  84 111 138 175 236 274 318
#     4   9  17  30  54  79  97 146 181 212 258 339
#     4   9  15  31  49  77  97 137 178 211 255 323
#     4  10  19  32  53  81 108 139 179 220 282 315
#     4  10  21  33  55  82 107 139 188 222 267 325
#
# _framework density 23.327085
#
# number of rings (size 3 to 8) (size 9 to 14) (size 15 to 20)
#    0.857    1.714    1.429    0.857    2.000    0.000 
#    0.000    0.000    0.000    8.571    0.000    0.000 
#    0.000    0.000    0.000    0.000    0.000    0.000 
#
# Total GULP energy -77984.578768 kJ/mol
# GULP energy per Si atom -5570.327055 kJ/mol
# Density = 2.327399 g / cm^3
# Si number density = 23.327085 Si / 1000 Ang^3
#
#
#
# Elastic Constant Matrix: (Units=GPa)
#
#
# Indices 1 2 3 4 5 6 
#
# 1 68.0465 40.1407 25.9578 0.0000 3.9529 0.0000
# 2 40.1407 224.5703 12.5995 0.0000 -12.5975 -0.0001
# 3 25.9578 12.5995 62.0302 -0.0001 12.9332 -0.0001
# 4 0.0000 0.0000 -0.0001 4.0521 0.0000 -1.3596
# 5 3.9529 -12.5975 12.9332 0.0000 30.8025 0.0000
# 6 0.0000 -0.0001 -0.0001 -1.3596 0.0000 17.7799
#
#
#
# Elastic Compliance Matrix: (Units=1/GPa)
#
#
# Indices 1 2 3 4 5 6 
#
# 1 0.019352 -0.003085 -0.007332 0.000000 -0.000666 0.000000
# 2 -0.003085 0.005170 -0.000310 0.000000 0.002640 0.000000
# 3 -0.007332 -0.000310 0.020914 0.000000 -0.007967 0.000000
# 4 0.000000 0.000000 0.000000 0.253283 0.000000 0.019369
# 5 -0.000666 0.002640 -0.007967 0.000000 0.036975 0.000000
# 6 0.000000 0.000000 0.000000 0.019369 0.000000 0.057724
#
#
# Mechanical properties :
#
#
# Convention : Reuss Voigt Hill
#
# Bulk Modulus (GPa) = 41.70006 56.89365 49.29686
# Shear Modulus (GPa) = 11.82410 28.92351 20.37380
#
# Velocity S-wave (km/s) = 2.25385 3.52506 2.95853
# Velocity P-wave (km/s) = 4.96872 6.40394 5.73143
#
# Compressibility (1/GPa) = 0.02398078
#
# Stress axis : x y z
#
# Youngs Moduli (GPa) = 51.67555 193.42946 47.81585
#
# Poissons Ratio (x) = 0.59672 0.35061
# Poissons Ratio (y) = 0.15942 0.01480
# Poissons Ratio (z) = 0.37891 0.05989
#
# Static dielectric constant tensor:
#      x y z
#    x 1.869990 0.000000 0.046040 
#    y 0.000000 1.965510 0.000000 
#    z 0.046040 0.000000 1.898000 
# 
# From -- ./inp_files/26265.got.cif
#   From: 2010.05.17/outbox.cif.g08.bks.cpg/sg9_14_cif.got.tgz:26265.got - 2010.06.03 20:04:27.
