data_PCOD9134548
_publ_section_title
;
Structure prediction by ZEFSAII (Michael W. Deem and Ramdas Pophale) SiO2 
 PCOD9134548
Probable space group: C C
;
_chemical_formula_sum "Si O2"
_cell_formula_units_Z 28
_cell_length_a 12.331105
_cell_length_b 7.894136
_cell_length_c 24.081306
_cell_angle_alpha 90.000000
_cell_angle_beta 153.885389
_cell_angle_gamma 90.000000
_cell_volume 1031.823137
_symmetry_space_group_name_H-M "C C"
_symmetry_group_IT_number 9
_symmetry_cell_setting 'monoclinic'
loop_
_space_group_symop_operation_xyz
x,y,z
x,-y,1/2+z
1/2+x,1/2+y,z
1/2+x,1/2-y,1/2+z
loop_
_atom_site_type_symbol
_atom_site_label
_atom_site_fract_x
_atom_site_fract_y
_atom_site_fract_z
Si Si1 0.521320 0.306021 0.509110
Si Si2 0.004040 0.143212 0.710340
Si Si3 0.874122 0.304072 0.479168
Si Si4 0.613161 0.028094 0.185897
Si Si5 0.714776 0.337703 0.048001
Si Si6 0.540361 0.274849 0.846868
Si Si7 0.102793 0.013290 0.647506
O O1 0.711088 0.164464 0.577212
O O2 0.573157 0.479053 0.496795
O O3 0.246980 0.242437 0.394808
O O4 0.615760 0.352531 0.614670
O O5 0.153394 0.162307 0.835703
O O6 0.093124 0.308045 0.716246
O O7 0.071982 0.994813 0.698882
O O8 0.920588 0.446104 0.546687
O O9 0.113328 0.280242 0.549740
O O10 0.880872 0.129040 0.518475
O O11 0.874691 0.054340 0.276976
O O12 0.501474 0.883931 0.172950
O O13 0.643587 0.256719 0.956635
O O14 0.349025 0.121569 0.750050
#
# Coordination Sequence:
#
# PCOD9134548 Si02
#       7
#     4   4   4   4   4   4   4
#     4  10  22  34  65  88 115 166 197 238 320 353
#     4   9  17  37  58  86 125 152 199 254 290 366
#     4   9  16  34  61  85 118 158 194 246 304 350
#     4   9  20  35  61  92 117 157 205 248 297 365
#     4  10  19  37  64  86 118 163 195 247 313 345
#     4  10  20  38  60  94 122 151 215 250 284 388
#     4   9  20  33  63  89 117 157 205 245 298 361
#
# _framework density 27.136433
#
# number of rings (size 3 to 8) (size 9 to 14) (size 15 to 20)
#    0.000    2.857    2.857    0.000    4.000    2.286 
#    2.571    1.429   15.714    0.000    0.000    0.000 
#    0.000    0.000    0.000    0.000    0.000    0.000 
#
# Total GULP energy -78250.528636 kJ/mol
# GULP energy per Si atom -5589.323474 kJ/mol
# Density = 2.707467 g / cm^3
# Si number density = 27.136433 Si / 1000 Ang^3
#
#
#
# Elastic Constant Matrix: (Units=GPa)
#
#
# Indices 1 2 3 4 5 6 
#
# 1 164.1587 45.6069 78.5152 0.0000 22.0886 0.0000
# 2 45.6069 92.1101 15.6347 -0.0003 9.7838 0.0000
# 3 78.5152 15.6347 109.7878 0.0026 2.1171 -0.0005
# 4 0.0000 -0.0003 0.0026 18.5984 -0.0003 2.0419
# 5 22.0886 9.7838 2.1171 -0.0003 73.2878 -0.0003
# 6 0.0000 0.0000 -0.0005 2.0419 -0.0003 50.6917
#
#
#
# Elastic Compliance Matrix: (Units=1/GPa)
#
#
# Indices 1 2 3 4 5 6 
#
# 1 0.011007 -0.003943 -0.007260 0.000001 -0.002581 0.000000
# 2 -0.003943 0.012692 0.001023 0.000000 -0.000535 0.000000
# 3 -0.007260 0.001023 0.014123 -0.000002 0.001644 0.000000
# 4 0.000001 0.000000 -0.000002 0.054007 0.000000 -0.002175
# 5 -0.002581 -0.000535 0.001644 0.000000 0.014447 0.000000
# 6 0.000000 0.000000 0.000000 -0.002175 0.000000 0.019815
#
#
# Mechanical properties :
#
#
# Convention : Reuss Voigt Hill
#
# Bulk Modulus (GPa) = 57.27004 71.73002 64.50003
# Shear Modulus (GPa) = 32.83561 43.60223 38.21892
#
# Velocity S-wave (km/s) = 3.48231 4.01281 3.75694
# Velocity P-wave (km/s) = 6.10892 6.92537 6.52992
#
# Compressibility (1/GPa) = 0.01746114
#
# Stress axis : x y z
#
# Youngs Moduli (GPa) = 90.84977 78.78760 70.80426
#
# Poissons Ratio (x) = 0.31070 0.51407
# Poissons Ratio (y) = 0.35826 -0.07243
# Poissons Ratio (z) = 0.65961 -0.08060
#
# Static dielectric constant tensor:
#      x y z
#    x 2.104570 0.000000 0.034530 
#    y 0.000000 2.197800 0.000000 
#    z 0.034530 0.000000 2.182410 
# 
# From -- ./inp_files/30003.got.cif
#   From: 2010.05.17/outbox.cif.g08.bks.cpg/sg9_16_cif.got.tgz:30003.got - 2010.06.03 20:04:27.
