data_PCOD9134120
_publ_section_title
;
Structure prediction by ZEFSAII (Michael W. Deem and Ramdas Pophale) SiO2 
 PCOD9134120
Probable space group: C C
;
_chemical_formula_sum "Si O2"
_cell_formula_units_Z 32
_cell_length_a 9.018877
_cell_length_b 21.316597
_cell_length_c 8.766780
_cell_angle_alpha 90.000000
_cell_angle_beta 113.522532
_cell_angle_gamma 90.000000
_cell_volume 1545.375176
_symmetry_space_group_name_H-M "C C"
_symmetry_group_IT_number 9
_symmetry_cell_setting 'monoclinic'
loop_
_space_group_symop_operation_xyz
x,y,z
x,-y,1/2+z
1/2+x,1/2+y,z
1/2+x,1/2-y,1/2+z
loop_
_atom_site_type_symbol
_atom_site_label
_atom_site_fract_x
_atom_site_fract_y
_atom_site_fract_z
Si Si1 0.238830 0.440327 0.786670
Si Si2 0.760104 0.633278 0.511424
Si Si3 0.179152 0.027833 0.710210
Si Si4 0.620212 0.631300 0.947730
Si Si5 0.673134 0.726973 0.716354
Si Si6 0.896994 0.412363 0.786052
Si Si7 0.926342 0.824830 0.895326
Si Si8 0.369544 0.557038 0.006670
O O1 0.362718 0.392633 0.922676
O O2 0.269203 0.431166 0.619114
O O3 0.062869 0.420601 0.767782
O O4 0.275184 0.511441 0.852073
O O5 0.719289 0.567471 0.575302
O O6 0.787437 0.680657 0.662324
O O7 0.897755 0.625943 0.444064
O O8 0.589567 0.657969 0.368222
O O9 0.143761 0.076491 0.830375
O O10 0.327607 0.981075 0.799690
O O11 0.025504 0.983375 0.623412
O O12 0.639505 0.696272 0.866146
O O13 0.765301 0.620809 0.124898
O O14 0.448133 0.617246 0.956817
O O15 0.770875 0.791111 0.762270
O O16 0.503756 0.720489 0.555763
#
# Coordination Sequence:
#
# PCOD9134120 Si02
#       8
#     4   4   4   4   4   4   4   4
#     4  12  25  37  63  97 135 169 216 282 324 397
#     4   9  20  40  63  90 124 178 212 262 326 397
#     4  10  18  37  59  86 122 177 203 251 328 409
#     4  10  20  37  63  89 122 177 213 257 332 398
#     4   9  22  41  74  88 124 169 222 274 320 390
#     4  11  23  33  60  94 139 164 212 269 332 389
#     4  10  21  44  70  93 128 169 224 270 338 381
#     4  11  21  39  60  91 130 167 220 257 334 393
#
# _framework density 20.706945999999999
#
# number of rings (size 3 to 8) (size 9 to 14) (size 15 to 20)
#    0.750    1.000    2.500    3.000    5.250    0.000 
#    0.000    2.500    0.000    0.000    0.000    0.000 
#    0.000    0.000    0.000    0.000    0.000    0.000 
#
# Total GULP energy -89197.525229 kJ/mol
# GULP energy per Si atom -5574.845327 kJ/mol
# Density = 2.065982 g / cm^3
# Si number density = 20.706946 Si / 1000 Ang^3
#
#
#
# Elastic Constant Matrix: (Units=GPa)
#
#
# Indices 1 2 3 4 5 6 
#
# 1 121.3053 13.9264 31.4237 0.0000 -35.1062 0.0000
# 2 13.9264 49.8564 5.8664 0.0000 -7.3387 0.0000
# 3 31.4237 5.8664 53.5579 0.0000 -24.0192 0.0000
# 4 0.0000 0.0000 0.0000 21.5177 0.0000 10.1608
# 5 -35.1062 -7.3387 -24.0192 0.0000 31.1834 0.0000
# 6 0.0000 0.0000 0.0000 10.1608 0.0000 16.9494
#
#
#
# Elastic Compliance Matrix: (Units=1/GPa)
#
#
# Indices 1 2 3 4 5 6 
#
# 1 0.012411 -0.001454 -0.001543 0.000000 0.012442 0.000000
# 2 -0.001454 0.020948 0.000054 0.000000 0.003335 0.000000
# 3 -0.001543 0.000054 0.028718 0.000000 0.020396 0.000000
# 4 0.000000 0.000000 0.000000 0.064824 0.000000 -0.038860
# 5 0.012442 0.003335 0.020396 0.000000 0.062570 0.000000
# 6 0.000000 0.000000 0.000000 -0.038860 0.000000 0.082295
#
#
# Mechanical properties :
#
#
# Convention : Reuss Voigt Hill
#
# Bulk Modulus (GPa) = 17.79625 36.35029 27.07327
# Shear Modulus (GPa) = 16.87019 25.49699 21.18359
#
# Velocity S-wave (km/s) = 2.85741 3.51283 3.20194
# Velocity P-wave (km/s) = 4.41581 5.83490 5.17424
#
# Compressibility (1/GPa) = 0.05619161
#
# Stress axis : x y z
#
# Youngs Moduli (GPa) = 80.57461 47.73675 34.82188
#
# Poissons Ratio (x) = 0.06940 0.05372
# Poissons Ratio (y) = 0.11714 -0.00188
# Poissons Ratio (z) = 0.12431 -0.00258
#
# Static dielectric constant tensor:
#      x y z
#    x 1.729340 0.000000 -0.004460 
#    y 0.000000 1.753060 0.000000 
#    z -0.004460 0.000000 1.791000 
# 
# From -- ./inp_files/6100.got.cif
#   From: 2010.05.17/outbox.cif.g08.bks.cpg/sg9_4_cif.got.tgz:6100.got - 2010.06.03 20:04:27.
