data_PCOD9134606
_publ_section_title
;
Structure prediction by ZEFSAII (Michael W. Deem and Ramdas Pophale) SiO2 
 PCOD9134606
Probable space group: C C
;
_chemical_formula_sum "Si O2"
_cell_formula_units_Z 32
_cell_length_a 11.064970
_cell_length_b 10.025777
_cell_length_c 19.147904
_cell_angle_alpha 90.000000
_cell_angle_beta 145.282895
_cell_angle_gamma 90.000000
_cell_volume 1209.768493
_symmetry_space_group_name_H-M "C C"
_symmetry_group_IT_number 9
_symmetry_cell_setting 'monoclinic'
loop_
_space_group_symop_operation_xyz
x,y,z
x,-y,1/2+z
1/2+x,1/2+y,z
1/2+x,1/2-y,1/2+z
loop_
_atom_site_type_symbol
_atom_site_label
_atom_site_fract_x
_atom_site_fract_y
_atom_site_fract_z
Si Si1 0.414560 0.030227 0.771640
Si Si2 0.161421 0.718849 0.145118
Si Si3 0.640944 0.726299 0.146122
Si Si4 0.466968 0.437678 0.237459
Si Si5 0.417975 0.157988 0.919616
Si Si6 0.940188 0.075802 0.363485
Si Si7 0.894748 0.781369 0.397145
Si Si8 0.767045 0.893956 0.001027
O O1 0.343067 0.174979 0.710910
O O2 0.402037 0.058737 0.848260
O O3 0.250739 0.914001 0.676065
O O4 0.653996 0.976141 0.884912
O O5 0.951612 0.805100 0.056377
O O6 0.087006 0.608618 0.055705
O O7 0.027261 0.796196 0.945406
O O8 0.791129 0.842941 0.188174
O O9 0.684064 0.741318 0.250950
O O10 0.428048 0.738314 0.996967
O O11 0.680523 0.348796 0.335217
O O12 0.513686 0.550586 0.318083
O O13 0.392232 0.470277 0.122908
O O14 0.209279 0.359940 0.738552
O O15 0.940370 0.936442 0.401524
O O16 0.086398 0.698924 0.450489
#
# Coordination Sequence:
#
# PCOD9134606 Si02
#       8
#     4   4   4   4   4   4   4   4
#     4  10  20  34  57  92 127 173 220 279 345 409
#     4  11  21  36  60  94 129 170 234 276 347 435
#     4   9  18  33  58  89 126 174 214 274 345 399
#     4  10  19  38  63  92 127 170 224 282 337 419
#     4  11  21  36  60  94 128 172 226 277 348 417
#     4  10  20  34  57  94 129 168 221 284 343 407
#     4   9  18  33  58  87 128 168 222 279 338 413
#     4  10  19  38  63  94 126 175 225 281 357 413
#
# _framework density 26.451343000000001
#
# number of rings (size 3 to 8) (size 9 to 14) (size 15 to 20)
#    0.000    2.000    2.500    3.750    0.000    1.000 
#    0.000    0.000    0.000   45.000    0.000    0.000 
#    0.000    0.000    0.000    0.000    0.000    0.000 
#
# Total GULP energy -89219.043798 kJ/mol
# GULP energy per Si atom -5576.190237 kJ/mol
# Density = 2.639114 g / cm^3
# Si number density = 26.451343 Si / 1000 Ang^3
#
#
#
# Elastic Constant Matrix: (Units=GPa)
#
#
# Indices 1 2 3 4 5 6 
#
# 1 57.0817 26.4486 30.6114 0.0000 -7.5153 0.0000
# 2 26.4486 146.6544 31.2992 0.0000 16.6991 0.0000
# 3 30.6114 31.2992 185.0254 0.0001 -32.4089 0.0000
# 4 0.0000 0.0000 0.0001 9.3702 0.0000 17.4876
# 5 -7.5153 16.6991 -32.4089 0.0000 30.7345 0.0000
# 6 0.0000 0.0000 0.0000 17.4876 0.0000 28.0076
#
#
#
# Elastic Compliance Matrix: (Units=1/GPa)
#
#
# Indices 1 2 3 4 5 6 
#
# 1 0.021088 -0.004015 -0.001870 0.000000 0.005367 0.000000
# 2 -0.004015 0.008980 -0.002308 0.000000 -0.008294 0.000000
# 3 -0.001870 -0.002308 0.007658 0.000001 0.008872 0.000000
# 4 0.000000 0.000000 0.000001 -0.645649 0.000001 0.403135
# 5 0.005367 -0.008294 0.008872 0.000001 0.047711 -0.000001
# 6 0.000000 0.000000 0.000000 0.403135 -0.000001 -0.216007
#
#
# Mechanical properties :
#
#
# Convention : Reuss Voigt Hill
#
# Bulk Modulus (GPa) = 46.85682 62.83109 54.84395
# Shear Modulus (GPa) = -6.64258 33.64927 13.50334
#
# Velocity S-wave (km/s) = -1.58641 3.57055 2.26187
# Velocity P-wave (km/s) = 3.79436 6.38776 5.25360
#
# Compressibility (1/GPa) = 0.02134161
#
# Stress axis : x y z
#
# Youngs Moduli (GPa) = 47.41934 111.36115 130.57587
#
# Poissons Ratio (x) = 0.44715 0.24414
# Poissons Ratio (y) = 0.19040 0.30131
# Poissons Ratio (z) = 0.08866 0.25697
#
# Static dielectric constant tensor:
#      x y z
#    x 2.148550 0.000000 -0.042030 
#    y 0.000000 2.177590 0.000000 
#    z -0.042030 0.000000 2.213090 
# 
# From -- ./inp_files/35622.got.cif
#   From: 2010.05.17/outbox.cif.g08.bks.cpg/sg9_18_cif.got.tgz:35622.got - 2010.06.03 20:04:27.
