data_PCOD9134617
_publ_section_title
;
Structure prediction by ZEFSAII (Michael W. Deem and Ramdas Pophale) SiO2 
 PCOD9134617
Probable space group: C C
;
_chemical_formula_sum "Si O2"
_cell_formula_units_Z 24
_cell_length_a 11.714047
_cell_length_b 16.048499
_cell_length_c 8.838790
_cell_angle_alpha 90.000000
_cell_angle_beta 148.198313
_cell_angle_gamma 90.000000
_cell_volume 875.646882
_symmetry_space_group_name_H-M "C C"
_symmetry_group_IT_number 9
_symmetry_cell_setting 'monoclinic'
loop_
_space_group_symop_operation_xyz
x,y,z
x,-y,1/2+z
1/2+x,1/2+y,z
1/2+x,1/2-y,1/2+z
loop_
_atom_site_type_symbol
_atom_site_label
_atom_site_fract_x
_atom_site_fract_y
_atom_site_fract_z
Si Si1 0.351410 0.751479 0.291380
Si Si2 0.147067 0.923079 0.805394
Si Si3 0.326000 0.817760 0.765172
Si Si4 0.855481 0.567293 0.849918
Si Si5 0.196448 0.553906 0.637178
Si Si6 0.405505 0.653152 0.648185
O O1 0.583949 0.751640 0.454980
O O2 0.383059 0.837035 0.422951
O O3 0.382868 0.679927 0.451742
O O4 0.231098 0.834747 0.827419
O O5 0.908148 0.938672 0.476760
O O6 0.287135 0.998258 0.892313
O O7 0.175009 0.926895 0.014674
O O8 0.358104 0.730890 0.712091
O O9 0.151864 0.866957 0.466989
O O10 0.543501 0.869759 0.012257
O O11 0.067572 0.530761 0.007207
O O12 0.261653 0.576595 0.539620
#
# Coordination Sequence:
#
# PCOD9134617 Si02
#       6
#     4   4   4   4   4   4
#     4  12  28  49  78 116 157 207 262 333 399 473
#     4  10  26  45  71 105 146 206 255 322 398 477
#     4  10  19  38  65 104 140 182 254 315 380 453
#     4  11  28  50  71 110 155 201 265 326 401 472
#     4  10  23  45  72 105 148 199 254 323 391 471
#     4  11  20  39  75 112 142 197 264 319 385 476
#
# _framework density 27.408308999999999
#
# number of rings (size 3 to 8) (size 9 to 14) (size 15 to 20)
#    0.000    1.333    3.333    0.000    9.333    2.667 
#    6.000    0.000    0.000    0.000    0.000    0.000 
#    0.000    0.000    0.000    0.000    0.000    0.000 
#
# Total GULP energy -67098.816878 kJ/mol
# GULP energy per Si atom -5591.568073 kJ/mol
# Density = 2.734593 g / cm^3
# Si number density = 27.408309 Si / 1000 Ang^3
#
#
#
# Elastic Constant Matrix: (Units=GPa)
#
#
# Indices 1 2 3 4 5 6 
#
# 1 102.3116 47.3800 31.1736 0.0000 14.9184 0.0000
# 2 47.3800 90.4765 17.1907 0.0000 14.0347 0.0000
# 3 31.1736 17.1907 116.1829 0.0000 31.0462 0.0000
# 4 0.0000 0.0000 0.0000 36.4494 0.0000 4.0581
# 5 14.9184 14.0347 31.0462 0.0000 54.7829 0.0000
# 6 0.0000 0.0000 0.0000 4.0581 0.0000 65.0206
#
#
#
# Elastic Compliance Matrix: (Units=1/GPa)
#
#
# Indices 1 2 3 4 5 6 
#
# 1 0.013688 -0.006593 -0.002537 0.000000 -0.000601 0.000000
# 2 -0.006593 0.014801 0.000132 0.000000 -0.002072 0.000000
# 3 -0.002537 0.000132 0.010715 0.000000 -0.005416 0.000000
# 4 0.000000 0.000000 0.000000 0.027627 0.000000 -0.001724
# 5 -0.000601 -0.002072 -0.005416 0.000000 0.022017 0.000000
# 6 0.000000 0.000000 0.000000 -0.001724 0.000000 0.015487
#
#
# Mechanical properties :
#
#
# Convention : Reuss Voigt Hill
#
# Bulk Modulus (GPa) = 47.14620 55.60662 51.37641
# Shear Modulus (GPa) = 38.64000 45.46570 42.05285
#
# Velocity S-wave (km/s) = 3.75879 4.07729 3.92128
# Velocity P-wave (km/s) = 6.00640 6.51905 6.26797
#
# Compressibility (1/GPa) = 0.02121062
#
# Stress axis : x y z
#
# Youngs Moduli (GPa) = 73.05902 67.56235 93.32462
#
# Poissons Ratio (x) = 0.44541 0.23672
# Poissons Ratio (y) = 0.48165 -0.01236
# Poissons Ratio (z) = 0.18532 -0.00895
#
# Static dielectric constant tensor:
#      x y z
#    x 2.226110 0.000000 0.076530 
#    y 0.000000 2.120200 0.000000 
#    z 0.076530 0.000000 2.145800 
# 
# From -- ./inp_files/8073.got.cif
#   From: 2010.05.17/outbox.cif.g08.bks.cpg/sg9_5_cif.got.tgz:8073.got - 2010.06.03 20:04:27.
