data_PCOD9134769
_publ_section_title
;
Structure prediction by ZEFSAII (Michael W. Deem and Ramdas Pophale) SiO2 
 PCOD9134769
Probable space group: C C
;
_chemical_formula_sum "Si O2"
_cell_formula_units_Z 28
_cell_length_a 8.084189
_cell_length_b 12.571283
_cell_length_c 14.207775
_cell_angle_alpha 90.000000
_cell_angle_beta 125.968609
_cell_angle_gamma 90.000000
_cell_volume 1168.617944
_symmetry_space_group_name_H-M "C C"
_symmetry_group_IT_number 9
_symmetry_cell_setting 'monoclinic'
loop_
_space_group_symop_operation_xyz
x,y,z
x,-y,1/2+z
1/2+x,1/2+y,z
1/2+x,1/2-y,1/2+z
loop_
_atom_site_type_symbol
_atom_site_label
_atom_site_fract_x
_atom_site_fract_y
_atom_site_fract_z
Si Si1 0.349760 0.154315 0.602100
Si Si2 0.426457 0.614330 0.940362
Si Si3 0.172558 0.575056 0.398466
Si Si4 0.216959 0.018107 0.900699
Si Si5 0.252987 0.967629 0.701939
Si Si6 0.455006 0.232866 0.014898
Si Si7 0.656368 0.194191 0.565772
O O1 0.581270 0.184121 0.647985
O O2 0.191865 0.250457 0.568322
O O3 0.277140 0.075487 0.493199
O O4 0.316354 0.082108 0.682180
O O5 0.586134 0.578215 0.075937
O O6 0.464077 0.738978 0.957277
O O7 0.230864 0.545344 0.895988
O O8 0.510915 0.570676 0.870933
O O9 0.338740 0.665393 0.427373
O O10 0.155856 0.585585 0.506077
O O11 0.960727 0.598813 0.277722
O O12 0.181781 0.978729 0.784384
O O13 0.374216 0.117683 0.958083
O O14 0.362965 0.252527 0.090960
#
# Coordination Sequence:
#
# PCOD9134769 Si02
#       7
#     4   4   4   4   4   4   4
#     4  11  21  42  64  89 135 162 209 277 312 376
#     4  10  22  44  63  90 133 166 209 272 320 377
#     4  10  20  42  61  91 127 161 216 259 311 390
#     4  10  19  41  64  86 130 164 204 274 310 371
#     4  11  22  40  64  94 121 164 218 255 320 387
#     4   9  20  39  62  89 123 170 208 256 322 375
#     4   9  20  40  64  87 127 173 200 269 319 372
#
# _framework density 23.959927
#
# number of rings (size 3 to 8) (size 9 to 14) (size 15 to 20)
#    0.857    1.143    4.286    0.000    2.000    0.000 
#   20.571    0.000    0.000    0.000    0.000    0.000 
#    0.000    0.000    0.000    0.000    0.000    0.000 
#
# Total GULP energy -77992.013887 kJ/mol
# GULP energy per Si atom -5570.858135 kJ/mol
# Density = 2.390539 g / cm^3
# Si number density = 23.959927 Si / 1000 Ang^3
#
#
#
# Elastic Constant Matrix: (Units=GPa)
#
#
# Indices 1 2 3 4 5 6 
#
# 1 99.3296 32.8916 24.5545 0.0000 -9.2484 0.0000
# 2 32.8916 65.6174 -13.0820 0.0000 -6.0083 0.0000
# 3 24.5545 -13.0820 52.0523 0.0000 -1.8126 0.0000
# 4 0.0000 0.0000 0.0000 17.7123 0.0000 0.3066
# 5 -9.2484 -6.0083 -1.8126 0.0000 25.0483 0.0000
# 6 0.0000 0.0000 0.0000 0.3066 0.0000 44.3871
#
#
#
# Elastic Compliance Matrix: (Units=1/GPa)
#
#
# Indices 1 2 3 4 5 6 
#
# 1 0.016003 -0.009733 -0.009895 0.000000 0.002858 0.000000
# 2 -0.009733 0.022405 0.010310 0.000000 0.002527 0.000000
# 3 -0.009895 0.010310 0.026496 0.000000 0.000737 0.000000
# 4 0.000000 0.000000 0.000000 0.056465 0.000000 -0.000390
# 5 0.002858 0.002527 0.000737 0.000000 0.041638 0.000000
# 6 0.000000 0.000000 0.000000 -0.000390 0.000000 0.022532
#
#
# Mechanical properties :
#
#
# Convention : Reuss Voigt Hill
#
# Bulk Modulus (GPa) = 21.61303 33.96972 27.79138
# Shear Modulus (GPa) = 22.76904 28.93857 25.85380
#
# Velocity S-wave (km/s) = 3.08603 3.47910 3.28844
# Velocity P-wave (km/s) = 4.66242 5.50884 5.10321
#
# Compressibility (1/GPa) = 0.04626838
#
# Stress axis : x y z
#
# Youngs Moduli (GPa) = 62.49005 44.63219 37.74132
#
# Poissons Ratio (x) = 0.43439 0.37346
# Poissons Ratio (y) = 0.60819 -0.38912
# Poissons Ratio (z) = 0.61836 -0.46016
#
# Static dielectric constant tensor:
#      x y z
#    x 1.988060 0.000000 0.014780 
#    y 0.000000 1.991940 0.000000 
#    z 0.014780 0.000000 1.916660 
# 
# From -- ./inp_files/23278.got.cif
#   From: 2010.05.17/outbox.cif.g08.bks.cpg/sg9_12_cif.got.tgz:23278.got - 2010.06.03 20:04:27.
