data_PCOD9134038
_publ_section_title
;
Structure prediction by ZEFSAII (Michael W. Deem and Ramdas Pophale) SiO2 
 PCOD9134038
Probable space group: C C
;
_chemical_formula_sum "Si O2"
_cell_formula_units_Z 32
_cell_length_a 9.568457
_cell_length_b 18.576561
_cell_length_c 9.789178
_cell_angle_alpha 90.000000
_cell_angle_beta 55.957395
_cell_angle_gamma 90.000000
_cell_volume 1441.815420
_symmetry_space_group_name_H-M "C C"
_symmetry_group_IT_number 9
_symmetry_cell_setting 'monoclinic'
loop_
_space_group_symop_operation_xyz
x,y,z
x,-y,1/2+z
1/2+x,1/2+y,z
1/2+x,1/2-y,1/2+z
loop_
_atom_site_type_symbol
_atom_site_label
_atom_site_fract_x
_atom_site_fract_y
_atom_site_fract_z
Si Si1 0.934270 0.110891 0.657510
Si Si2 0.161646 0.591194 0.476122
Si Si3 0.092708 0.676937 0.748817
Si Si4 0.349954 0.924374 0.551995
Si Si5 0.002123 0.115544 0.923768
Si Si6 0.228902 0.978309 0.877498
Si Si7 0.718589 0.019306 0.189559
Si Si8 0.515938 0.667417 0.206796
O O1 0.792120 0.163585 0.671033
O O2 0.992768 0.139333 0.772704
O O3 0.838490 0.032968 0.717763
O O4 0.098525 0.086078 0.483166
O O5 0.103248 0.556519 0.366913
O O6 0.172628 0.533252 0.591737
O O7 0.345075 0.625471 0.340626
O O8 0.055373 0.651095 0.613581
O O9 0.032329 0.758489 0.779535
O O10 0.993147 0.626211 0.909575
O O11 0.370044 0.952617 0.694091
O O12 0.177608 0.879612 0.653710
O O13 0.304526 0.987617 0.472049
O O14 0.032132 0.171378 0.031252
O O15 0.127727 0.046581 0.867437
O O16 0.822048 0.081923 0.060733
#
# Coordination Sequence:
#
# PCOD9134038 Si02
#       8
#     4   4   4   4   4   4   4   4
#     4  10  18  34  62  91 119 156 218 249 302 372
#     4  10  19  34  59  88 111 156 198 256 291 372
#     4  11  24  36  59  92 124 168 205 248 309 362
#     4  11  22  38  62  90 130 154 199 273 311 364
#     4   9  16  32  63  90 113 154 208 262 285 370
#     4  10  20  37  62  95 122 159 205 251 328 370
#     4   9  16  28  55  91 110 133 200 249 301 337
#     4  10  21  39  62  85 119 168 213 240 301 379
#
# _framework density 22.194241000000002
#
# number of rings (size 3 to 8) (size 9 to 14) (size 15 to 20)
#    0.000    2.000    2.500    3.750    0.000    2.000 
#    0.000    0.000    2.750    9.000    0.000    0.000 
#    0.000    0.000    0.000    0.000    0.000    0.000 
#
# Total GULP energy -89248.349745 kJ/mol
# GULP energy per Si atom -5578.021859 kJ/mol
# Density = 2.214373 g / cm^3
# Si number density = 22.194241 Si / 1000 Ang^3
#
#
#
# Elastic Constant Matrix: (Units=GPa)
#
#
# Indices 1 2 3 4 5 6 
#
# 1 62.8648 40.8458 41.0389 0.0000 -7.6886 0.0000
# 2 40.8458 77.2285 60.9422 0.0000 -6.0967 0.0000
# 3 41.0389 60.9422 166.4447 0.0000 4.4677 0.0000
# 4 0.0000 0.0000 0.0000 16.7499 0.0000 -4.3677
# 5 -7.6886 -6.0967 4.4677 0.0000 27.2143 0.0000
# 6 0.0000 0.0000 0.0000 -4.3677 0.0000 17.3678
#
#
#
# Elastic Compliance Matrix: (Units=1/GPa)
#
#
# Indices 1 2 3 4 5 6 
#
# 1 0.025262 -0.011173 -0.002272 0.000000 0.005007 0.000000
# 2 -0.011173 0.023914 -0.006087 0.000000 0.003200 0.000000
# 3 -0.002272 -0.006087 0.008890 0.000000 -0.003465 0.000000
# 4 0.000000 0.000000 0.000000 0.063892 0.000000 0.016068
# 5 0.005007 0.003200 -0.003465 0.000000 0.039446 0.000000
# 6 0.000000 0.000000 0.000000 0.016068 0.000000 0.061618
#
#
# Mechanical properties :
#
#
# Convention : Reuss Voigt Hill
#
# Bulk Modulus (GPa) = 52.62592 65.79907 59.21249
# Shear Modulus (GPa) = 18.62754 23.18048 20.90401
#
# Velocity S-wave (km/s) = 2.90020 3.23528 3.07231
# Velocity P-wave (km/s) = 5.91421 6.60813 6.27077
#
# Compressibility (1/GPa) = 0.01900204
#
# Stress axis : x y z
#
# Youngs Moduli (GPa) = 39.58463 41.81702 112.48655
#
# Poissons Ratio (x) = 0.46721 0.25561
# Poissons Ratio (y) = 0.44227 0.68470
# Poissons Ratio (z) = 0.08995 0.25454
#
# Static dielectric constant tensor:
#      x y z
#    x 1.864940 0.000000 0.003610 
#    y 0.000000 1.844500 0.000000 
#    z 0.003610 0.000000 1.867100 
# 
# From -- ./inp_files/9892.got.cif
#   From: 2010.05.17/outbox.cif.g08.bks.cpg/sg9_5_cif.got.tgz:9892.got - 2010.06.03 20:04:27.
