data_PCOD9134527
_publ_section_title
;
Structure prediction by ZEFSAII (Michael W. Deem and Ramdas Pophale) SiO2 
 PCOD9134527
Probable space group: C C
;
_chemical_formula_sum "Si O2"
_cell_formula_units_Z 28
_cell_length_a 7.213677
_cell_length_b 12.137922
_cell_length_c 22.204377
_cell_angle_alpha 90.000000
_cell_angle_beta 146.939179
_cell_angle_gamma 90.000000
_cell_volume 1060.614277
_symmetry_space_group_name_H-M "C C"
_symmetry_group_IT_number 9
_symmetry_cell_setting 'monoclinic'
loop_
_space_group_symop_operation_xyz
x,y,z
x,-y,1/2+z
1/2+x,1/2+y,z
1/2+x,1/2-y,1/2+z
loop_
_atom_site_type_symbol
_atom_site_label
_atom_site_fract_x
_atom_site_fract_y
_atom_site_fract_z
Si Si1 0.315430 0.480477 0.552860
Si Si2 0.658409 0.361746 0.972934
Si Si3 0.632495 0.435880 0.760352
Si Si4 0.000695 0.978510 0.340686
Si Si5 0.271979 0.698804 0.481228
Si Si6 0.093526 0.815913 0.540671
Si Si7 0.379256 0.347476 0.207770
O O1 0.478070 0.416022 0.653197
O O2 0.393057 0.610052 0.564946
O O3 0.464494 0.429059 0.532340
O O4 0.910683 0.472921 0.449671
O O5 0.423789 0.456500 0.880792
O O6 0.523260 0.298013 0.993953
O O7 0.769728 0.268923 0.955192
O O8 0.026746 0.406855 0.092126
O O9 0.405603 0.437933 0.759618
O O10 0.680943 0.570345 0.770329
O O11 0.943845 0.359760 0.862519
O O12 0.878719 0.861107 0.280625
O O13 0.216730 0.807535 0.505750
O O14 0.346050 0.763606 0.660828
#
# Coordination Sequence:
#
# PCOD9134527 Si02
#       7
#     4   4   4   4   4   4   4
#     4  11  19  37  68  86 119 172 209 254 333 371
#     4  10  19  37  62  86 123 169 201 260 320 376
#     4   9  16  36  63  82 117 168 208 257 320 389
#     4   9  15  36  64  82 120 169 206 256 323 386
#     4  11  21  39  62  90 128 167 212 261 325 388
#     4  10  20  41  57  87 129 159 207 279 300 378
#     4   8  16  36  60  79 126 158 199 269 311 364
#
# _framework density 26.399798000000001
#
# number of rings (size 3 to 8) (size 9 to 14) (size 15 to 20)
#    1.714    0.571    5.714    0.000    0.000    1.143 
#    5.143    0.000    6.286    0.000    0.000    0.000 
#    0.000    0.000    0.000    0.000    0.000    0.000 
#
# Total GULP energy -77935.304386 kJ/mol
# GULP energy per Si atom -5566.807456 kJ/mol
# Density = 2.633971 g / cm^3
# Si number density = 26.399798 Si / 1000 Ang^3
#
#
#
# Elastic Constant Matrix: (Units=GPa)
#
#
# Indices 1 2 3 4 5 6 
#
# 1 137.6131 24.5232 27.2815 0.0001 -30.7319 0.0001
# 2 24.5232 74.5698 13.3995 0.0002 -2.0054 0.0000
# 3 27.2815 13.3995 78.3727 0.0019 -29.7732 0.0004
# 4 0.0001 0.0002 0.0019 19.7841 0.0001 -4.0340
# 5 -30.7319 -2.0054 -29.7732 0.0001 27.6045 0.0000
# 6 0.0001 0.0000 0.0004 -4.0340 0.0000 40.3912
#
#
#
# Elastic Compliance Matrix: (Units=1/GPa)
#
#
# Indices 1 2 3 4 5 6 
#
# 1 0.010547 -0.003489 0.002185 0.000000 0.013845 0.000000
# 2 -0.003489 0.015102 -0.004111 0.000000 -0.007220 0.000000
# 3 0.002185 -0.004111 0.022892 -0.000002 0.026824 0.000000
# 4 0.000000 0.000000 -0.000002 0.051596 -0.000003 0.005153
# 5 0.013845 -0.007220 0.026824 -0.000003 0.080046 -0.000001
# 6 0.000000 0.000000 0.000000 0.005153 -0.000001 0.025272
#
#
# Mechanical properties :
#
#
# Convention : Reuss Voigt Hill
#
# Bulk Modulus (GPa) = 26.51689 46.77377 36.64533
# Shear Modulus (GPa) = 21.84773 32.57940 27.21356
#
# Velocity S-wave (km/s) = 2.87988 3.51676 3.21413
# Velocity P-wave (km/s) = 4.59613 5.85201 5.26167
#
# Compressibility (1/GPa) = 0.03771181
#
# Stress axis : x y z
#
# Youngs Moduli (GPa) = 94.81152 66.21614 43.68312
#
# Poissons Ratio (x) = 0.23102 -0.09543
# Poissons Ratio (y) = 0.33078 0.17956
# Poissons Ratio (z) = -0.20712 0.27219
#
# Static dielectric constant tensor:
#      x y z
#    x 2.086520 0.000000 -0.050740 
#    y 0.000000 2.101380 0.000000 
#    z -0.050740 0.000000 2.138130 
# 
# From -- ./inp_files/23030.got.cif
#   From: 2010.05.17/outbox.cif.g08.bks.cpg/sg9_12_cif.got.tgz:23030.got - 2010.06.03 20:04:27.
