data_PCOD9134505
_publ_section_title
;
Structure prediction by ZEFSAII (Michael W. Deem and Ramdas Pophale) SiO2 
 PCOD9134505
Probable space group: C C
;
_chemical_formula_sum "Si O2"
_cell_formula_units_Z 28
_cell_length_a 11.428740
_cell_length_b 9.311559
_cell_length_c 24.569725
_cell_angle_alpha 90.000000
_cell_angle_beta 149.174949
_cell_angle_gamma 90.000000
_cell_volume 1339.817791
_symmetry_space_group_name_H-M "C C"
_symmetry_group_IT_number 9
_symmetry_cell_setting 'monoclinic'
loop_
_space_group_symop_operation_xyz
x,y,z
x,-y,1/2+z
1/2+x,1/2+y,z
1/2+x,1/2-y,1/2+z
loop_
_atom_site_type_symbol
_atom_site_label
_atom_site_fract_x
_atom_site_fract_y
_atom_site_fract_z
Si Si1 0.358620 0.426504 0.048310
Si Si2 0.135124 0.935848 0.852650
Si Si3 0.978221 0.256103 0.772332
Si Si4 0.739220 0.022113 0.880417
Si Si5 0.071262 0.272925 0.021775
Si Si6 0.703474 0.422994 0.754853
Si Si7 0.823038 0.303637 0.250068
O O1 0.164657 0.355431 0.006591
O O2 0.470159 0.554515 0.127916
O O3 0.568054 0.313620 0.124840
O O4 0.284429 0.484735 0.961433
O O5 0.148056 0.888222 0.794217
O O6 0.927783 0.852190 0.798743
O O7 0.372845 0.871075 0.969718
O O8 0.088426 0.104489 0.832356
O O9 0.781569 0.244618 0.647632
O O10 0.858010 0.322460 0.778506
O O11 0.170116 0.368941 0.828004
O O12 0.505639 0.114184 0.784585
O O13 0.953079 0.125104 0.953882
O O14 0.804790 0.586795 0.793734
#
# Coordination Sequence:
#
# PCOD9134505 Si02
#       7
#     4   4   4   4   4   4   4
#     4  10  19  38  65  84 121 162 206 254 310 358
#     4  11  22  39  63  91 123 161 207 256 308 367
#     4  11  21  39  63  93 125 161 208 254 310 369
#     4  10  19  37  60  89 123 164 206 253 306 366
#     4  11  21  37  66  93 121 166 208 254 308 368
#     4   9  19  40  62  84 119 165 200 253 308 361
#     4   8  19  36  59  84 122 157 199 254 302 359
#
# _framework density 20.898364999999998
#
# number of rings (size 3 to 8) (size 9 to 14) (size 15 to 20)
#    0.857    1.143    2.857    1.714    0.000    1.143 
#    0.000   12.857    0.000    1.714    0.000    0.000 
#    0.000    0.000    0.000    0.000    0.000    0.000 
#
# Total GULP energy -77952.058648 kJ/mol
# GULP energy per Si atom -5568.004189 kJ/mol
# Density = 2.085080 g / cm^3
# Si number density = 20.898365 Si / 1000 Ang^3
#
#
#
# Elastic Constant Matrix: (Units=GPa)
#
#
# Indices 1 2 3 4 5 6 
#
# 1 62.1673 16.7060 1.1821 0.0000 0.6520 0.0000
# 2 16.7060 139.1867 26.4389 0.0000 14.4017 0.0000
# 3 1.1821 26.4389 82.2634 -0.0004 8.3537 0.0000
# 4 0.0000 0.0000 -0.0004 28.3758 -0.0002 12.4521
# 5 0.6520 14.4017 8.3537 -0.0002 26.4674 0.0000
# 6 0.0000 0.0000 0.0000 12.4521 0.0000 38.9370
#
#
#
# Elastic Compliance Matrix: (Units=1/GPa)
#
#
# Indices 1 2 3 4 5 6 
#
# 1 0.016646 -0.002136 0.000383 0.000000 0.000631 0.000000
# 2 -0.002136 0.008253 -0.002243 0.000000 -0.003730 0.000000
# 3 0.000383 -0.002243 0.013171 0.000000 -0.002946 0.000000
# 4 0.000000 0.000000 0.000000 0.040994 0.000000 -0.013110
# 5 0.000631 -0.003730 -0.002946 0.000000 0.040726 0.000000
# 6 0.000000 0.000000 0.000000 -0.013110 0.000000 0.029875
#
#
# Mechanical properties :
#
#
# Convention : Reuss Voigt Hill
#
# Bulk Modulus (GPa) = 33.24719 41.36348 37.30534
# Shear Modulus (GPa) = 29.81826 34.70874 32.26350
#
# Velocity S-wave (km/s) = 3.78143 4.07976 3.93342
# Velocity P-wave (km/s) = 5.91685 6.48292 6.20634
#
# Compressibility (1/GPa) = 0.03007773
#
# Stress axis : x y z
#
# Youngs Moduli (GPa) = 60.07550 121.16810 75.92668
#
# Poissons Ratio (x) = 0.25882 -0.02910
# Poissons Ratio (y) = 0.12832 0.17030
# Poissons Ratio (z) = -0.02302 0.27178
#
# Static dielectric constant tensor:
#      x y z
#    x 1.737970 0.000000 0.030790 
#    y 0.000000 1.825210 0.000000 
#    z 0.030790 0.000000 1.802940 
# 
# From -- ./inp_files/36538.got.cif
#   From: 2010.05.17/outbox.cif.g08.bks.cpg/sg9_19_cif.got.tgz:36538.got - 2010.06.03 20:04:27.
