data_PCOD9134479
_publ_section_title
;
Structure prediction by ZEFSAII (Michael W. Deem and Ramdas Pophale) SiO2 
 PCOD9134479
Probable space group: C C
;
_chemical_formula_sum "Si O2"
_cell_formula_units_Z 28
_cell_length_a 6.990164
_cell_length_b 12.302660
_cell_length_c 16.755142
_cell_angle_alpha 90.000000
_cell_angle_beta 48.299391
_cell_angle_gamma 90.000000
_cell_volume 1075.822400
_symmetry_space_group_name_H-M "C C"
_symmetry_group_IT_number 9
_symmetry_cell_setting 'monoclinic'
loop_
_space_group_symop_operation_xyz
x,y,z
x,-y,1/2+z
1/2+x,1/2+y,z
1/2+x,1/2-y,1/2+z
loop_
_atom_site_type_symbol
_atom_site_label
_atom_site_fract_x
_atom_site_fract_y
_atom_site_fract_z
Si Si1 0.234960 0.763381 0.935890
Si Si2 0.609635 0.951148 0.991820
Si Si3 0.539418 0.571451 0.812022
Si Si4 0.004008 0.428550 0.744886
Si Si5 0.771709 0.369569 0.528456
Si Si6 0.808458 0.263381 0.121021
Si Si7 0.433794 0.451149 0.065090
O O1 0.418803 0.662978 0.905114
O O2 0.399674 0.854132 0.844784
O O3 0.015103 0.706156 0.940767
O O4 0.057046 0.833554 0.044253
O O5 0.486383 0.833552 0.012657
O O6 0.771710 0.946072 0.028457
O O7 0.391829 0.044449 0.057711
O O8 0.802164 0.988921 0.869170
O O9 0.771720 0.500004 0.778451
O O10 0.643735 0.645868 0.712127
O O11 0.124620 0.337023 0.651794
O O12 0.241274 0.511074 0.687739
O O13 0.528309 0.293848 0.616146
O O14 0.651604 0.455552 0.499194
#
# Coordination Sequence:
#
# PCOD9134479 Si02
#       7
#     4   4   4   4   4   4   4
#     4  10  20  39  62  86 127 163 196 257 304 350
#     4  11  21  40  64  88 125 159 204 254 300 362
#     4  10  19  36  66  87 120 166 198 248 312 353
#     4  10  19  36  66  87 120 166 198 248 312 353
#     4  10  22  40  62  90 126 164 204 248 304 360
#     4  10  20  39  62  86 127 163 196 257 304 350
#     4  11  21  40  64  88 125 159 204 254 300 362
#
# _framework density 26.026599999999998
#
# number of rings (size 3 to 8) (size 9 to 14) (size 15 to 20)
#    0.000    1.714    4.286    0.000    0.000    0.000 
#   10.286   14.286    0.000    0.000    0.000    0.000 
#    0.000    0.000    0.000    0.000    0.000    0.000 
#
# Total GULP energy -78135.918935 kJ/mol
# GULP energy per Si atom -5581.137067 kJ/mol
# Density = 2.596736 g / cm^3
# Si number density = 26.026600 Si / 1000 Ang^3
#
#
#
# Elastic Constant Matrix: (Units=GPa)
#
#
# Indices 1 2 3 4 5 6 
#
# 1 121.6046 49.7770 29.9768 -0.0007 -24.8435 0.0005
# 2 49.7770 188.7418 82.9200 -0.0005 -35.3295 0.0000
# 3 29.9768 82.9200 117.9565 -0.0019 -33.0448 0.0010
# 4 -0.0007 -0.0005 -0.0019 80.7547 0.0008 -25.3620
# 5 -24.8435 -35.3295 -33.0448 0.0008 37.0489 -0.0005
# 6 0.0005 0.0000 0.0010 -25.3620 -0.0005 55.1822
#
#
#
# Elastic Compliance Matrix: (Units=1/GPa)
#
#
# Indices 1 2 3 4 5 6 
#
# 1 0.009946 -0.001712 0.000116 0.000000 0.005140 0.000000
# 2 -0.001712 0.008283 -0.004661 0.000000 0.002593 0.000000
# 3 0.000116 -0.004661 0.013999 0.000000 0.008119 0.000000
# 4 0.000000 0.000000 0.000000 0.014472 0.000000 0.006651
# 5 0.005140 0.002593 0.008119 0.000000 0.040153 0.000000
# 6 0.000000 0.000000 0.000000 0.006651 0.000000 0.021179
#
#
# Mechanical properties :
#
#
# Convention : Reuss Voigt Hill
#
# Bulk Modulus (GPa) = 50.72596 83.73897 67.23246
# Shear Modulus (GPa) = 39.33380 52.30577 45.81978
#
# Velocity S-wave (km/s) = 3.89175 4.48784 4.20038
# Velocity P-wave (km/s) = 6.30291 7.68755 7.02941
#
# Compressibility (1/GPa) = 0.01971377
#
# Stress axis : x y z
#
# Youngs Moduli (GPa) = 100.54705 120.73123 71.43118
#
# Poissons Ratio (x) = 0.20665 -0.00826
# Poissons Ratio (y) = 0.17210 0.33295
# Poissons Ratio (z) = -0.01163 0.56274
#
# Static dielectric constant tensor:
#      x y z
#    x 2.113580 0.000000 0.039100 
#    y 0.000000 2.012450 0.000000 
#    z 0.039100 0.000000 2.121620 
# 
# From -- ./inp_files/22548.got.cif
#   From: 2010.05.17/outbox.cif.g08.bks.cpg/sg9_12_cif.got.tgz:22548.got - 2010.06.03 20:04:27.
