data_PCOD9134978
_publ_section_title
;
Structure prediction by ZEFSAII (Michael W. Deem and Ramdas Pophale) SiO2 
 PCOD9134978
Probable space group: C C
;
_chemical_formula_sum "Si O2"
_cell_formula_units_Z 32
_cell_length_a 14.205896
_cell_length_b 17.497722
_cell_length_c 5.413128
_cell_angle_alpha 90.000000
_cell_angle_beta 107.199883
_cell_angle_gamma 90.000000
_cell_volume 1285.371467
_symmetry_space_group_name_H-M "C C"
_symmetry_group_IT_number 9
_symmetry_cell_setting 'monoclinic'
loop_
_space_group_symop_operation_xyz
x,y,z
x,-y,1/2+z
1/2+x,1/2+y,z
1/2+x,1/2-y,1/2+z
loop_
_atom_site_type_symbol
_atom_site_label
_atom_site_fract_x
_atom_site_fract_y
_atom_site_fract_z
Si Si1 0.513990 0.125012 0.277560
Si Si2 0.457837 0.129771 0.730293
Si Si3 0.744472 0.660555 0.686243
Si Si4 0.729243 0.459488 0.545814
Si Si5 0.933244 0.201117 0.643072
Si Si6 0.697753 0.212233 0.457958
Si Si7 0.993326 0.042454 0.884660
Si Si8 0.092022 0.781588 0.862467
O O1 0.476029 0.086694 0.493688
O O2 0.469466 0.213281 0.247705
O O3 0.631334 0.137576 0.379323
O O4 0.474576 0.087914 0.999958
O O5 0.349027 0.166484 0.647263
O O6 0.540080 0.195299 0.808616
O O7 0.758649 0.623214 0.961428
O O8 0.679963 0.739896 0.682281
O O9 0.655682 0.633464 0.450778
O O10 0.765451 0.490506 0.835396
O O11 0.611462 0.459751 0.458457
O O12 0.814681 0.202385 0.543877
O O13 0.964405 0.132472 0.848364
O O14 0.991968 0.185737 0.434091
O O15 0.655883 0.261062 0.652824
O O16 0.957722 0.999491 0.606396
#
# Coordination Sequence:
#
# PCOD9134978 Si02
#       8
#     4   4   4   4   4   4   4   4
#     4  10  20  36  50  84 121 144 185 225 289 355
#     4  10  21  33  53  81 116 149 181 224 290 352
#     4  12  20  35  58  80 117 151 186 236 288 350
#     4  10  23  37  54  78 110 151 194 232 280 337
#     4  11  20  39  57  88 121 159 191 245 293 358
#     4  11  21  34  57  86 123 153 189 235 310 351
#     4  10  22  40  57  81 114 160 201 238 287 343
#     4  10  21  34  52  86 122 147 187 233 295 354
#
# _framework density 24.895524999999999
#
# number of rings (size 3 to 8) (size 9 to 14) (size 15 to 20)
#    0.000    1.500    6.250    0.750    1.750    4.000 
#    2.250    0.000    0.000    0.000    0.000   12.250 
#    0.000    0.000    0.000    0.000    0.000    0.000 
#
# Total GULP energy -89094.356988 kJ/mol
# GULP energy per Si atom -5568.397312 kJ/mol
# Density = 2.483886 g / cm^3
# Si number density = 24.895525 Si / 1000 Ang^3
#
#
#
# Elastic Constant Matrix: (Units=GPa)
#
#
# Indices 1 2 3 4 5 6 
#
# 1 200.8899 33.9057 61.3672 0.0000 5.2295 0.0000
# 2 33.9057 96.3001 28.7173 0.0000 0.3759 0.0000
# 3 61.3672 28.7173 147.4651 0.0000 -39.5800 0.0000
# 4 0.0000 0.0000 0.0000 11.0279 0.0000 4.9150
# 5 5.2295 0.3759 -39.5800 0.0000 35.5891 0.0000
# 6 0.0000 0.0000 0.0000 4.9150 0.0000 17.3121
#
#
#
# Elastic Compliance Matrix: (Units=1/GPa)
#
#
# Indices 1 2 3 4 5 6 
#
# 1 0.006495 -0.001101 -0.003908 0.000000 -0.005289 0.000000
# 2 -0.001101 0.011539 -0.002535 0.000000 -0.002779 0.000000
# 3 -0.003908 -0.002535 0.012919 0.000000 0.014969 0.000000
# 4 0.000000 0.000000 0.000000 0.103815 0.000000 -0.029474
# 5 -0.005289 -0.002779 0.014969 0.000000 0.045552 0.000000
# 6 0.000000 0.000000 0.000000 -0.029474 0.000000 0.066131
#
#
# Mechanical properties :
#
#
# Convention : Reuss Voigt Hill
#
# Bulk Modulus (GPa) = 63.03236 76.95950 69.99593
# Shear Modulus (GPa) = 18.73871 34.16348 26.45110
#
# Velocity S-wave (km/s) = 2.74650 3.70844 3.26311
# Velocity P-wave (km/s) = 5.95243 7.02259 6.50954
#
# Compressibility (1/GPa) = 0.01586487
#
# Stress axis : x y z
#
# Youngs Moduli (GPa) = 153.95964 86.66617 77.40549
#
# Poissons Ratio (x) = 0.09540 0.30252
# Poissons Ratio (y) = 0.16947 0.19622
# Poissons Ratio (z) = 0.60172 0.21969
#
# Static dielectric constant tensor:
#      x y z
#    x 1.914060 0.000000 -0.015060 
#    y 0.000000 2.107250 0.000000 
#    z -0.015060 0.000000 2.227110 
# 
# From -- ./inp_files/2652.got.cif
#   From: 2010.05.17/outbox.cif.g08.bks.cpg/sg9_2_cif.got.tgz:2652.got - 2010.06.03 20:04:27.
