data_PCOD9134303
_publ_section_title
;
Structure prediction by ZEFSAII (Michael W. Deem and Ramdas Pophale) SiO2 
 PCOD9134303
Probable space group: C C
;
_chemical_formula_sum "Si O2"
_cell_formula_units_Z 32
_cell_length_a 14.832965
_cell_length_b 13.919976
_cell_length_c 15.438656
_cell_angle_alpha 90.000000
_cell_angle_beta 28.215786
_cell_angle_gamma 90.000000
_cell_volume 1507.118853
_symmetry_space_group_name_H-M "C C"
_symmetry_group_IT_number 9
_symmetry_cell_setting 'monoclinic'
loop_
_space_group_symop_operation_xyz
x,y,z
x,-y,1/2+z
1/2+x,1/2+y,z
1/2+x,1/2-y,1/2+z
loop_
_atom_site_type_symbol
_atom_site_label
_atom_site_fract_x
_atom_site_fract_y
_atom_site_fract_z
Si Si1 0.378400 0.190342 0.368380
Si Si2 0.297378 0.359309 0.549755
Si Si3 0.285511 0.986300 0.472844
Si Si4 0.102616 0.473121 0.850147
Si Si5 0.400152 0.448498 0.877636
Si Si6 0.300074 0.177413 0.253012
Si Si7 0.509523 0.982517 0.110480
Si Si8 0.374102 0.357560 0.080482
O O1 0.386949 0.260499 0.442614
O O2 0.589369 0.146747 0.180312
O O3 0.317615 0.235898 0.328775
O O4 0.239454 0.100172 0.499897
O O5 0.235514 0.389152 0.697993
O O6 0.415379 0.448708 0.413736
O O7 0.447263 0.990853 0.410693
O O8 0.373472 0.954196 0.306218
O O9 0.099045 0.930842 0.661434
O O10 0.242332 0.564799 0.740663
O O11 0.000331 0.436642 0.022996
O O12 0.222513 0.462405 0.964138
O O13 0.354557 0.374957 0.994068
O O14 0.327082 0.250463 0.151827
O O15 0.094811 0.128671 0.417626
O O16 0.450565 0.091745 0.135052
#
# Coordination Sequence:
#
# PCOD9134303 Si02
#       8
#     4   4   4   4   4   4   4   4
#     4  10  19  33  58  91 132 156 206 275 325 377
#     4  10  19  36  54  92 123 169 201 260 328 380
#     4  10  21  41  61  94 125 172 211 268 336 386
#     4  10  22  38  60  89 132 167 220 263 319 402
#     4  11  22  40  62  87 136 173 208 260 332 398
#     4  11  22  35  62 100 131 167 214 273 336 389
#     4  11  22  41  61  94 129 163 217 266 322 392
#     4  11  23  38  60  95 136 175 209 269 338 390
#
# _framework density 21.232565999999998
#
# number of rings (size 3 to 8) (size 9 to 14) (size 15 to 20)
#    0.000    1.500    5.000    3.000    5.250    0.000 
#    0.000    0.000    0.000    3.000    0.000    0.000 
#    0.000    0.000    0.000    0.000    0.000    0.000 
#
# Total GULP energy -89195.114590 kJ/mol
# GULP energy per Si atom -5574.694662 kJ/mol
# Density = 2.118424 g / cm^3
# Si number density = 21.232566 Si / 1000 Ang^3
#
#
#
# Elastic Constant Matrix: (Units=GPa)
#
#
# Indices 1 2 3 4 5 6 
#
# 1 91.4619 26.1400 55.7021 0.0012 12.1107 0.0002
# 2 26.1400 24.7129 15.0539 0.0011 -1.4404 0.0010
# 3 55.7021 15.0539 130.3846 0.0011 20.7328 0.0008
# 4 0.0012 0.0011 0.0011 24.5403 0.0010 2.1714
# 5 12.1107 -1.4404 20.7328 0.0010 39.5212 -0.0007
# 6 0.0002 0.0010 0.0008 2.1714 -0.0007 24.5211
#
#
#
# Elastic Compliance Matrix: (Units=1/GPa)
#
#
# Indices 1 2 3 4 5 6 
#
# 1 0.020179 -0.017930 -0.005961 0.000000 -0.003710 0.000001
# 2 -0.017930 0.060240 -0.000565 -0.000002 0.007986 -0.000002
# 3 -0.005961 -0.000565 0.010904 0.000000 -0.003914 0.000000
# 4 0.000000 -0.000002 0.000000 0.041071 -0.000001 -0.003637
# 5 -0.003710 0.007986 -0.003914 -0.000001 0.028784 0.000001
# 6 0.000001 -0.000002 0.000000 -0.003637 0.000001 0.041103
#
#
# Mechanical properties :
#
#
# Convention : Reuss Voigt Hill
#
# Bulk Modulus (GPa) = 23.57866 48.92796 36.25331
# Shear Modulus (GPa) = 18.84440 27.69409 23.26924
#
# Velocity S-wave (km/s) = 2.98236 3.61546 3.31406
# Velocity P-wave (km/s) = 4.79462 6.36573 5.63520
#
# Compressibility (1/GPa) = 0.04241123
#
# Stress axis : x y z
#
# Youngs Moduli (GPa) = 49.55530 16.60028 91.71098
#
# Poissons Ratio (x) = 0.29764 0.54667
# Poissons Ratio (y) = 0.88853 0.05183
# Poissons Ratio (z) = 0.29539 0.00938
#
# Static dielectric constant tensor:
#      x y z
#    x 1.799760 0.000000 0.043380 
#    y 0.000000 1.850100 0.000000 
#    z 0.043380 0.000000 1.849970 
# 
# From -- ./inp_files/26005.got.cif
#   From: 2010.05.17/outbox.cif.g08.bks.cpg/sg9_14_cif.got.tgz:26005.got - 2010.06.03 20:04:27.
