data_PCOD9134039
_publ_section_title
;
Structure prediction by ZEFSAII (Michael W. Deem and Ramdas Pophale) SiO2 
 PCOD9134039
Probable space group: C C
;
_chemical_formula_sum "Si O2"
_cell_formula_units_Z 28
_cell_length_a 16.157937
_cell_length_b 10.750804
_cell_length_c 19.372508
_cell_angle_alpha 90.000000
_cell_angle_beta 21.490070
_cell_angle_gamma 90.000000
_cell_volume 1232.812441
_symmetry_space_group_name_H-M "C C"
_symmetry_group_IT_number 9
_symmetry_cell_setting 'monoclinic'
loop_
_space_group_symop_operation_xyz
x,y,z
x,-y,1/2+z
1/2+x,1/2+y,z
1/2+x,1/2-y,1/2+z
loop_
_atom_site_type_symbol
_atom_site_label
_atom_site_fract_x
_atom_site_fract_y
_atom_site_fract_z
Si Si1 0.564950 0.419902 0.512040
Si Si2 0.443014 0.490450 0.241288
Si Si3 0.398104 0.912243 0.449436
Si Si4 0.555879 0.850317 0.085508
Si Si5 0.154941 0.359943 0.736880
Si Si6 0.317584 0.649551 0.525860
Si Si7 0.935384 0.894908 0.396036
O O1 0.516586 0.529911 0.604760
O O2 0.522847 0.285950 0.580862
O O3 0.382863 0.413693 0.592971
O O4 0.821359 0.414340 0.287456
O O5 0.207816 0.564169 0.418617
O O6 0.413590 0.397537 0.329511
O O7 0.653551 0.573395 0.104976
O O8 0.399384 0.783023 0.489924
O O9 0.602897 0.888305 0.237571
O O10 0.460308 0.053616 0.421718
O O11 0.713979 0.835277 0.029936
O O12 0.198583 0.370023 0.620257
O O13 0.095992 0.216569 0.795419
O O14 0.491645 0.535639 0.378363
#
# Coordination Sequence:
#
# PCOD9134039 Si02
#       7
#     4   4   4   4   4   4   4
#     4  12  21  37  64  98 139 170 229 282 336 393
#     4  11  22  37  66  95 130 176 226 280 322 392
#     4  11  20  37  64  95 131 168 229 270 331 396
#     4  11  19  33  60  99 129 161 219 284 326 373
#     4  11  25  42  62 102 142 182 210 282 355 406
#     4  10  18  34  62  97 122 167 224 281 312 387
#     4  10  23  40  62  96 139 174 221 267 348 399
#
# _framework density 22.712295999999998
#
# number of rings (size 3 to 8) (size 9 to 14) (size 15 to 20)
#    0.000    1.143    4.286    3.429    0.000    0.000 
#    2.571    0.000    0.000    6.857    3.714    0.000 
#    0.000    0.000    0.000    0.000    0.000    0.000 
#
# Total GULP energy -77966.796989 kJ/mol
# GULP energy per Si atom -5569.056928 kJ/mol
# Density = 2.266060 g / cm^3
# Si number density = 22.712296 Si / 1000 Ang^3
#
#
#
# Elastic Constant Matrix: (Units=GPa)
#
#
# Indices 1 2 3 4 5 6 
#
# 1 53.1933 24.2466 23.5021 0.0065 -5.7865 0.0001
# 2 24.2466 102.6167 34.0623 -0.0396 -4.1975 0.0025
# 3 23.5021 34.0623 125.9398 -0.0106 4.4613 -0.0008
# 4 0.0065 -0.0396 -0.0106 23.0134 -0.0150 4.2377
# 5 -5.7865 -4.1975 4.4613 -0.0150 16.5911 0.0023
# 6 0.0001 0.0025 -0.0008 4.2377 0.0023 19.3345
#
#
#
# Elastic Compliance Matrix: (Units=1/GPa)
#
#
# Indices 1 2 3 4 5 6 
#
# 1 0.023017 -0.003947 -0.003510 -0.000010 0.007973 0.000001
# 2 -0.003947 0.011591 -0.002477 0.000023 0.002222 -0.000007
# 3 -0.003510 -0.002477 0.009421 -0.000002 -0.004384 0.000002
# 4 -0.000010 0.000023 -0.000002 0.045281 0.000045 -0.009924
# 5 0.007973 0.002222 -0.004384 0.000045 0.064795 -0.000018
# 6 0.000001 -0.000007 0.000002 -0.009924 -0.000018 0.053896
#
#
# Mechanical properties :
#
#
# Convention : Reuss Voigt Hill
#
# Bulk Modulus (GPa) = 41.39165 49.48576 45.43870
# Shear Modulus (GPa) = 21.19350 25.11706 23.15528
#
# Velocity S-wave (km/s) = 3.05803 3.32908 3.19643
# Velocity P-wave (km/s) = 5.54370 6.05082 5.80281
#
# Compressibility (1/GPa) = 0.02415946
#
# Stress axis : x y z
#
# Youngs Moduli (GPa) = 43.44671 86.27560 106.15068
#
# Poissons Ratio (x) = 0.34055 0.37260
# Poissons Ratio (y) = 0.17149 0.26293
# Poissons Ratio (z) = 0.15250 0.21370
#
# Static dielectric constant tensor:
#      x y z
#    x 1.876170 0.000010 0.065570 
#    y 0.000010 1.985220 0.000010 
#    z 0.065570 0.000010 1.874840 
# 
# From -- ./inp_files/34106.got.cif
#   From: 2010.05.17/outbox.cif.g08.bks.cpg/sg9_18_cif.got.tgz:34106.got - 2010.06.03 20:04:27.
