data_PCOD9134043
_publ_section_title
;
Structure prediction by ZEFSAII (Michael W. Deem and Ramdas Pophale) SiO2 
 PCOD9134043
Probable space group: C C
;
_chemical_formula_sum "Si O2"
_cell_formula_units_Z 32
_cell_length_a 21.313342
_cell_length_b 10.189206
_cell_length_c 9.051020
_cell_angle_alpha 90.000000
_cell_angle_beta 130.212694
_cell_angle_gamma 90.000000
_cell_volume 1501.016573
_symmetry_space_group_name_H-M "C C"
_symmetry_group_IT_number 9
_symmetry_cell_setting 'monoclinic'
loop_
_space_group_symop_operation_xyz
x,y,z
x,-y,1/2+z
1/2+x,1/2+y,z
1/2+x,1/2-y,1/2+z
loop_
_atom_site_type_symbol
_atom_site_label
_atom_site_fract_x
_atom_site_fract_y
_atom_site_fract_z
Si Si1 0.536720 0.906661 0.288480
Si Si2 0.772563 0.510372 0.662546
Si Si3 0.886687 0.387648 0.588085
Si Si4 0.520960 0.679296 0.806322
Si Si5 0.471068 0.494092 0.981384
Si Si6 0.119249 0.400065 0.098250
Si Si7 0.742714 0.311557 0.863473
Si Si8 0.915837 0.183377 0.148791
O O1 0.561383 0.904747 0.154578
O O2 0.499916 0.767247 0.278460
O O3 0.461528 0.008417 0.195332
O O4 0.610875 0.961278 0.502721
O O5 0.829219 0.424125 0.638584
O O6 0.727034 0.409757 0.702639
O O7 0.721389 0.608890 0.480463
O O8 0.832564 0.594625 0.859305
O O9 0.930806 0.247748 0.667772
O O10 0.522564 0.584014 0.948717
O O11 0.528111 0.597470 0.668723
O O12 0.584559 0.795210 0.927507
O O13 0.413655 0.403536 0.792419
O O14 0.421372 0.586917 0.017460
O O15 0.201157 0.329676 0.279191
O O16 0.839954 0.281769 0.018881
#
# Coordination Sequence:
#
# PCOD9134043 Si02
#       8
#     4   4   4   4   4   4   4   4
#     4  11  22  41  70  92 126 167 231 274 317 393
#     4  10  19  36  64  92 124 167 217 271 320 378
#     4  10  18  34  67  98 110 158 230 282 294 368
#     4  10  20  35  56  85 127 153 214 257 323 374
#     4  10  22  35  59  94 119 169 200 279 320 370
#     4  11  26  41  61  96 129 169 206 281 339 390
#     4  11  24  40  61  97 138 170 214 272 338 400
#     4  11  21  40  66  94 127 167 228 272 317 393
#
# _framework density 21.318887
#
# number of rings (size 3 to 8) (size 9 to 14) (size 15 to 20)
#    0.000    1.500    3.750    3.000    3.500    2.000 
#    0.000    2.500    0.000    0.000    0.000    0.000 
#    0.000    0.000    0.000    0.000    0.000    0.000 
#
# Total GULP energy -89364.380576 kJ/mol
# GULP energy per Si atom -5585.273786 kJ/mol
# Density = 2.127036 g / cm^3
# Si number density = 21.318887 Si / 1000 Ang^3
#
#
#
# Elastic Constant Matrix: (Units=GPa)
#
#
# Indices 1 2 3 4 5 6 
#
# 1 32.4712 20.0015 32.2008 0.0000 -14.1518 0.0000
# 2 20.0015 92.5458 42.6894 0.0000 -13.8120 0.0000
# 3 32.2008 42.6894 88.7137 0.0000 -25.3861 0.0000
# 4 0.0000 0.0000 0.0000 50.3804 0.0000 1.7469
# 5 -14.1518 -13.8120 -25.3861 0.0000 30.0323 0.0000
# 6 0.0000 0.0000 0.0000 1.7469 0.0000 18.2103
#
#
#
# Elastic Compliance Matrix: (Units=1/GPa)
#
#
# Indices 1 2 3 4 5 6 
#
# 1 0.051357 -0.002972 -0.014084 0.000000 0.010929 0.000000
# 2 -0.002972 0.014082 -0.005599 0.000000 0.000343 0.000000
# 3 -0.014084 -0.005599 0.021689 0.000000 0.009122 0.000000
# 4 0.000000 0.000000 0.000000 0.019915 0.000000 -0.001910
# 5 0.010929 0.000343 0.009122 0.000000 0.046315 0.000000
# 6 0.000000 0.000000 0.000000 -0.001910 0.000000 0.055097
#
#
# Mechanical properties :
#
#
# Convention : Reuss Voigt Hill
#
# Bulk Modulus (GPa) = 23.91358 44.83491 34.37424
# Shear Modulus (GPa) = 18.67730 27.64720 23.16225
#
# Velocity S-wave (km/s) = 2.96310 3.60507 3.29973
# Velocity P-wave (km/s) = 4.79041 6.19718 5.53864
#
# Compressibility (1/GPa) = 0.04181724
#
# Stress axis : x y z
#
# Youngs Moduli (GPa) = 19.47168 71.01358 46.10630
#
# Poissons Ratio (x) = 0.21105 0.64935
# Poissons Ratio (y) = 0.05787 0.25817
# Poissons Ratio (z) = 0.27423 0.39763
#
# Static dielectric constant tensor:
#      x y z
#    x 1.752050 0.000000 0.021630 
#    y 0.000000 1.789970 0.000000 
#    z 0.021630 0.000000 1.799850 
# 
# From -- ./inp_files/10549.got.cif
#   From: 2010.05.17/outbox.cif.g08.bks.cpg/sg9_6_cif.got.tgz:10549.got - 2010.06.03 20:04:27.
