data_PCOD9134089
_publ_section_title
;
Structure prediction by ZEFSAII (Michael W. Deem and Ramdas Pophale) SiO2 
 PCOD9134089
Probable space group: C C
;
_chemical_formula_sum "Si O2"
_cell_formula_units_Z 32
_cell_length_a 15.515430
_cell_length_b 8.378452
_cell_length_c 9.650295
_cell_angle_alpha 90.000000
_cell_angle_beta 90.088731
_cell_angle_gamma 90.000000
_cell_volume 1254.491349
_symmetry_space_group_name_H-M "C C"
_symmetry_group_IT_number 9
_symmetry_cell_setting 'monoclinic'
loop_
_space_group_symop_operation_xyz
x,y,z
x,-y,1/2+z
1/2+x,1/2+y,z
1/2+x,1/2-y,1/2+z
loop_
_atom_site_type_symbol
_atom_site_label
_atom_site_fract_x
_atom_site_fract_y
_atom_site_fract_z
Si Si1 0.233940 0.791268 0.911800
Si Si2 0.354121 0.907608 0.146271
Si Si3 0.897532 0.761457 0.096315
Si Si4 0.547414 0.679355 0.399403
Si Si5 0.214691 0.160104 0.850773
Si Si6 0.046503 0.642281 0.623634
Si Si7 0.230205 0.630571 0.622204
Si Si8 0.529450 0.684570 0.842189
O O1 0.137038 0.758675 0.965280
O O2 0.248163 0.677233 0.781840
O O3 0.218410 0.970484 0.859582
O O4 0.314271 0.812901 0.014652
O O5 0.302666 0.814755 0.267541
O O6 0.455278 0.920245 0.175473
O O7 0.341668 0.098306 0.118581
O O8 0.827926 0.904740 0.072838
O O9 0.955202 0.798150 0.230332
O O10 0.965439 0.740562 0.972448
O O11 0.559640 0.714993 0.235260
O O12 0.530862 0.490720 0.411926
O O13 0.124960 0.201761 0.777463
O O14 0.206099 0.242598 0.999934
O O15 0.136542 0.546806 0.630682
O O16 0.024438 0.690858 0.467182
#
# Coordination Sequence:
#
# PCOD9134089 Si02
#       8
#     4   4   4   4   4   4   4   4
#     4  10  18  36  59  90 114 153 204 264 290 345
#     4  12  23  35  64  97 124 151 207 262 316 354
#     4  12  22  37  65  91 121 158 206 259 307 367
#     4  10  22  39  64  88 120 160 211 252 305 360
#     4  10  18  36  59  90 114 153 204 264 290 345
#     4  10  23  37  58  90 127 160 194 260 309 363
#     4  10  20  35  57  82 124 163 197 239 306 360
#     4  10  22  39  64  88 120 160 211 252 305 360
#
# _framework density 25.508344000000001
#
# number of rings (size 3 to 8) (size 9 to 14) (size 15 to 20)
#    0.000    1.500    2.500    3.000    0.000    2.000 
#    0.000    0.000   22.000    0.000    0.000    0.000 
#    0.000    0.000    0.000    0.000    0.000    0.000 
#
# Total GULP energy -89121.105833 kJ/mol
# GULP energy per Si atom -5570.069115 kJ/mol
# Density = 2.545029 g / cm^3
# Si number density = 25.508344 Si / 1000 Ang^3
#
#
#
# Elastic Constant Matrix: (Units=GPa)
#
#
# Indices 1 2 3 4 5 6 
#
# 1 202.6218 -2.8560 37.8506 0.0000 3.4934 0.0000
# 2 -2.8560 41.2650 17.0562 0.0000 2.0829 0.0000
# 3 37.8506 17.0562 100.6411 0.0000 -7.0997 0.0000
# 4 0.0000 0.0000 0.0000 19.7855 0.0000 1.7229
# 5 3.4934 2.0829 -7.0997 0.0000 45.9035 0.0000
# 6 0.0000 0.0000 0.0000 1.7229 0.0000 19.1905
#
#
#
# Elastic Compliance Matrix: (Units=1/GPa)
#
#
# Indices 1 2 3 4 5 6 
#
# 1 0.005403 0.001377 -0.002324 0.000000 -0.000833 0.000000
# 2 0.001377 0.026572 -0.005170 0.000000 -0.002110 0.000000
# 3 -0.002324 -0.005170 0.011845 0.000000 0.002243 0.000000
# 4 0.000000 0.000000 0.000000 0.050940 0.000000 -0.004573
# 5 -0.000833 -0.002110 0.002243 0.000000 0.022291 0.000000
# 6 0.000000 0.000000 0.000000 -0.004573 0.000000 0.052520
#
#
# Mechanical properties :
#
#
# Convention : Reuss Voigt Hill
#
# Bulk Modulus (GPa) = 31.66019 49.84774 40.75397
# Shear Modulus (GPa) = 25.99630 36.47436 31.23533
#
# Velocity S-wave (km/s) = 3.19584 3.78550 3.50310
# Velocity P-wave (km/s) = 5.10456 6.22020 5.68979
#
# Compressibility (1/GPa) = 0.03158540
#
# Stress axis : x y z
#
# Youngs Moduli (GPa) = 185.07385 37.63315 84.42466
#
# Poissons Ratio (x) = -0.05181 0.19622
# Poissons Ratio (y) = -0.25479 0.43647
# Poissons Ratio (z) = 0.43015 0.19456
#
# Static dielectric constant tensor:
#      x y z
#    x 2.156510 0.000000 -0.027890 
#    y 0.000000 2.130580 0.000000 
#    z -0.027890 0.000000 2.007730 
# 
# From -- ./inp_files/9279.got.cif
#   From: 2010.05.17/outbox.cif.g08.bks.cpg/sg9_5_cif.got.tgz:9279.got - 2010.06.03 20:04:27.
