data_PCOD9134711
_publ_section_title
;
Structure prediction by ZEFSAII (Michael W. Deem and Ramdas Pophale) SiO2 
 PCOD9134711
Probable space group: C C
;
_chemical_formula_sum "Si O2"
_cell_formula_units_Z 28
_cell_length_a 7.557906
_cell_length_b 11.499761
_cell_length_c 19.014352
_cell_angle_alpha 90.000000
_cell_angle_beta 45.031811
_cell_angle_gamma 90.000000
_cell_volume 1169.224270
_symmetry_space_group_name_H-M "C C"
_symmetry_group_IT_number 9
_symmetry_cell_setting 'monoclinic'
loop_
_space_group_symop_operation_xyz
x,y,z
x,-y,1/2+z
1/2+x,1/2+y,z
1/2+x,1/2-y,1/2+z
loop_
_atom_site_type_symbol
_atom_site_label
_atom_site_fract_x
_atom_site_fract_y
_atom_site_fract_z
Si Si1 0.765950 0.093585 0.100030
Si Si2 0.319083 0.069307 0.715730
Si Si3 0.268368 0.687479 0.244710
Si Si4 0.479321 0.982273 0.905853
Si Si5 0.087811 0.962946 0.898624
Si Si6 0.747994 0.214052 0.823529
Si Si7 0.655657 0.645023 0.610309
O O1 0.864272 0.109796 0.152442
O O2 0.766861 0.224718 0.071064
O O3 0.489777 0.041658 0.182153
O O4 0.890038 0.005333 0.011113
O O5 0.425993 0.195058 0.709672
O O6 0.265146 0.081715 0.648769
O O7 0.082241 0.040892 0.830979
O O8 0.203764 0.609400 0.329288
O O9 0.002027 0.742538 0.292054
O O10 0.345545 0.993700 0.867566
O O11 0.589266 0.105909 0.896660
O O12 0.266553 0.926674 0.014665
O O13 0.078504 0.828825 0.878517
O O14 0.867440 0.170239 0.715084
#
# Coordination Sequence:
#
# PCOD9134711 Si02
#       7
#     4   4   4   4   4   4   4
#     4  10  20  40  66  87 126 167 209 262 318 376
#     4  10  19  40  62  88 125 166 208 260 315 379
#     4   9  21  41  64  92 128 165 209 261 320 370
#     4  11  22  39  64  90 129 172 208 263 315 376
#     4  11  22  39  65  91 127 170 212 256 323 375
#     4   9  21  42  58  91 130 157 219 258 308 385
#     4  10  23  39  63  91 127 167 213 262 323 365
#
# _framework density 23.947500999999999
#
# number of rings (size 3 to 8) (size 9 to 14) (size 15 to 20)
#    0.000    2.286    4.286    0.857    2.000    6.857 
#    0.000    2.857    0.000    0.000    0.000    0.000 
#    0.000    0.000    0.000    0.000    0.000    0.000 
#
# Total GULP energy -78058.799559 kJ/mol
# GULP energy per Si atom -5575.628540 kJ/mol
# Density = 2.389299 g / cm^3
# Si number density = 23.947501 Si / 1000 Ang^3
#
#
#
# Elastic Constant Matrix: (Units=GPa)
#
#
# Indices 1 2 3 4 5 6 
#
# 1 49.1149 31.0926 9.4448 0.0001 9.6915 -0.0003
# 2 31.0926 163.8365 82.7809 0.0003 24.2147 -0.0001
# 3 9.4448 82.7809 136.8353 0.0004 19.1191 -0.0002
# 4 0.0001 0.0003 0.0004 56.2277 0.0000 -8.8008
# 5 9.6915 24.2147 19.1191 0.0000 17.1255 0.0002
# 6 -0.0003 -0.0001 -0.0002 -8.8008 0.0002 20.3858
#
#
#
# Elastic Compliance Matrix: (Units=1/GPa)
#
#
# Indices 1 2 3 4 5 6 
#
# 1 0.024728 -0.004347 0.002393 0.000000 -0.010518 0.000000
# 2 -0.004347 0.010502 -0.005121 0.000000 -0.006672 0.000000
# 3 0.002393 -0.005121 0.011159 0.000000 -0.006571 0.000000
# 4 0.000000 0.000000 0.000000 0.019074 0.000000 0.008234
# 5 -0.010518 -0.006672 -0.006571 0.000000 0.081116 -0.000001
# 6 0.000000 0.000000 0.000000 0.008234 -0.000001 0.052609
#
#
# Mechanical properties :
#
#
# Convention : Reuss Voigt Hill
#
# Bulk Modulus (GPa) = 31.01919 66.26924 48.64422
# Shear Modulus (GPa) = 22.31299 33.84571 28.07935
#
# Velocity S-wave (km/s) = 3.05576 3.76351 3.42795
# Velocity P-wave (km/s) = 5.04295 6.82774 6.00206
#
# Compressibility (1/GPa) = 0.03223810
#
# Stress axis : x y z
#
# Youngs Moduli (GPa) = 40.44028 95.21614 89.61182
#
# Poissons Ratio (x) = 0.41392 -0.21442
# Poissons Ratio (y) = 0.17580 0.45893
# Poissons Ratio (z) = -0.09676 0.48763
#
# Static dielectric constant tensor:
#      x y z
#    x 1.961210 0.000000 -0.057410 
#    y 0.000000 1.952180 0.000000 
#    z -0.057410 0.000000 1.972750 
# 
# From -- ./inp_files/32619.got.cif
#   From: 2010.05.17/outbox.cif.g08.bks.cpg/sg9_17_cif.got.tgz:32619.got - 2010.06.03 20:04:27.
