data_PCOD9134717
_publ_section_title
;
Structure prediction by ZEFSAII (Michael W. Deem and Ramdas Pophale) SiO2 
 PCOD9134717
Probable space group: C C
;
_chemical_formula_sum "Si O2"
_cell_formula_units_Z 32
_cell_length_a 16.542511
_cell_length_b 9.356340
_cell_length_c 10.768967
_cell_angle_alpha 90.000000
_cell_angle_beta 117.186668
_cell_angle_gamma 90.000000
_cell_volume 1482.649563
_symmetry_space_group_name_H-M "C C"
_symmetry_group_IT_number 9
_symmetry_cell_setting 'monoclinic'
loop_
_space_group_symop_operation_xyz
x,y,z
x,-y,1/2+z
1/2+x,1/2+y,z
1/2+x,1/2-y,1/2+z
loop_
_atom_site_type_symbol
_atom_site_label
_atom_site_fract_x
_atom_site_fract_y
_atom_site_fract_z
Si Si1 0.748160 0.515729 0.498930
Si Si2 0.487317 0.984698 0.476970
Si Si3 0.724396 0.790154 0.315013
Si Si4 0.709390 0.303294 0.289067
Si Si5 0.918640 0.206195 0.999686
Si Si6 0.611424 0.566772 0.087493
Si Si7 0.864605 0.300153 0.231090
Si Si8 0.597347 0.953081 0.806424
O O1 0.737596 0.667490 0.426943
O O2 0.776062 0.394932 0.423295
O O3 0.649299 0.472382 0.479369
O O4 0.822939 0.546218 0.655456
O O5 0.431287 0.130544 0.461726
O O6 0.556854 0.029847 0.415279
O O7 0.439448 0.846088 0.383059
O O8 0.527610 0.949692 0.640946
O O9 0.826423 0.848140 0.369477
O O10 0.673862 0.701952 0.172187
O O11 0.659377 0.910801 0.320351
O O12 0.642152 0.424532 0.185241
O O13 0.774510 0.233389 0.230608
O O14 0.656988 0.187486 0.330749
O O15 0.904824 0.218271 0.140152
O O16 0.007945 0.114190 0.031344
#
# Coordination Sequence:
#
# PCOD9134717 Si02
#       8
#     4   4   4   4   4   4   4   4
#     4   9  19  38  69  90 127 174 220 268 323 393
#     4  12  23  43  68  98 133 174 225 264 334 396
#     4  10  22  42  66  94 132 174 216 270 337 382
#     4  10  23  40  64  95 131 171 225 266 331 395
#     4  11  21  40  68  98 131 178 219 274 330 391
#     4  10  19  40  63  95 128 174 220 270 326 397
#     4  10  20  40  65  99 128 174 223 269 328 397
#     4  12  27  43  67  99 136 175 212 283 335 387
#
# _framework density 21.582982999999999
#
# number of rings (size 3 to 8) (size 9 to 14) (size 15 to 20)
#    0.000    1.500    2.500    3.750    5.250    0.000 
#    2.250    1.250    0.000    0.000    0.000    0.000 
#    0.000    0.000    0.000    0.000    0.000    0.000 
#
# Total GULP energy -89254.066117 kJ/mol
# GULP energy per Si atom -5578.379132 kJ/mol
# Density = 2.153386 g / cm^3
# Si number density = 21.582983 Si / 1000 Ang^3
#
#
#
# Elastic Constant Matrix: (Units=GPa)
#
#
# Indices 1 2 3 4 5 6 
#
# 1 110.6533 7.5606 3.8466 0.0000 7.7058 0.0000
# 2 7.5606 49.8224 -9.4269 0.0000 1.4971 0.0000
# 3 3.8466 -9.4269 38.0303 0.0000 7.1053 0.0000
# 4 0.0000 0.0000 0.0000 8.2103 0.0000 -2.0170
# 5 7.7058 1.4971 7.1053 0.0000 26.5528 0.0000
# 6 0.0000 0.0000 0.0000 -2.0170 0.0000 13.3868
#
#
#
# Elastic Compliance Matrix: (Units=1/GPa)
#
#
# Indices 1 2 3 4 5 6 
#
# 1 0.009337 -0.001510 -0.000872 0.000000 -0.002391 0.000000
# 2 -0.001510 0.021492 0.005921 0.000000 -0.002358 0.000000
# 3 -0.000872 0.005921 0.029332 0.000000 -0.007930 0.000000
# 4 0.000000 0.000000 0.000000 0.126479 0.000000 0.019056
# 5 -0.002391 -0.002358 -0.007930 0.000000 0.040610 0.000000
# 6 0.000000 0.000000 0.000000 0.019056 0.000000 0.077572
#
#
# Mechanical properties :
#
#
# Convention : Reuss Voigt Hill
#
# Bulk Modulus (GPa) = 14.87257 22.49629 18.68443
# Shear Modulus (GPa) = 15.61733 22.73170 19.17451
#
# Velocity S-wave (km/s) = 2.69289 3.24886 2.98385
# Velocity P-wave (km/s) = 4.07120 4.95169 4.53288
#
# Compressibility (1/GPa) = 0.06723790
#
# Stress axis : x y z
#
# Youngs Moduli (GPa) = 107.09789 46.53000 34.09227
#
# Poissons Ratio (x) = 0.07026 0.02973
# Poissons Ratio (y) = 0.16173 -0.20184
# Poissons Ratio (z) = 0.09338 -0.27548
#
# Static dielectric constant tensor:
#      x y z
#    x 1.842490 0.000000 0.008610 
#    y 0.000000 1.763220 0.000000 
#    z 0.008610 0.000000 1.892470 
# 
# From -- ./inp_files/19158.got.cif
#   From: 2010.05.17/outbox.cif.g08.bks.cpg/sg9_10_cif.got.tgz:19158.got - 2010.06.03 20:04:27.
