data_PCOD9134313
_publ_section_title
;
Structure prediction by ZEFSAII (Michael W. Deem and Ramdas Pophale) SiO2 
 PCOD9134313
Probable space group: C C
;
_chemical_formula_sum "Si O2"
_cell_formula_units_Z 32
_cell_length_a 21.202516
_cell_length_b 10.098630
_cell_length_c 7.960911
_cell_angle_alpha 90.000000
_cell_angle_beta 138.074905
_cell_angle_gamma 90.000000
_cell_volume 1138.917121
_symmetry_space_group_name_H-M "C C"
_symmetry_group_IT_number 9
_symmetry_cell_setting 'monoclinic'
loop_
_space_group_symop_operation_xyz
x,y,z
x,-y,1/2+z
1/2+x,1/2+y,z
1/2+x,1/2-y,1/2+z
loop_
_atom_site_type_symbol
_atom_site_label
_atom_site_fract_x
_atom_site_fract_y
_atom_site_fract_z
Si Si1 0.367000 0.710032 0.278590
Si Si2 0.909618 0.501643 0.410550
Si Si3 0.207247 0.005462 0.978891
Si Si4 0.744349 0.784682 0.884663
Si Si5 0.045269 0.866365 0.314999
Si Si6 0.064761 0.357424 0.353680
Si Si7 0.684988 0.784363 0.273884
Si Si8 0.428561 0.295483 0.398728
O O1 0.304499 0.712749 0.328745
O O2 0.462308 0.635520 0.514854
O O3 0.405107 0.858720 0.319661
O O4 0.292009 0.661396 0.990928
O O5 0.917569 0.638953 0.322808
O O6 0.996368 0.517316 0.708272
O O7 0.804448 0.513882 0.276710
O O8 0.213708 0.136569 0.877132
O O9 0.115035 0.016889 0.907984
O O10 0.202474 0.866171 0.876023
O O11 0.645042 0.856221 0.651979
O O12 0.820036 0.841148 0.169844
O O13 0.119183 0.742016 0.482432
O O14 0.991090 0.867437 0.384142
O O15 0.123225 0.353213 0.294742
O O16 0.991163 0.232189 0.189113
#
# Coordination Sequence:
#
# PCOD9134313 Si02
#       8
#     4   4   4   4   4   4   4   4
#     4   9  18  34  57  80 100 137 180 218 267 316
#     4   8  16  33  52  80  98 131 179 218 258 311
#     4  10  20  31  51  82 106 134 181 222 260 314
#     4   9  16  30  51  76 106 131 172 221 264 306
#     4  10  19  34  52  81 113 136 171 226 267 313
#     4   8  15  30  51  75  98 137 172 213 267 311
#     4   9  19  33  56  78 102 142 177 223 263 308
#     4   7  15  31  50  72 101 136 168 213 258 307
#
# _framework density 28.096862000000002
#
# number of rings (size 3 to 8) (size 9 to 14) (size 15 to 20)
#    0.750    2.500    0.000    0.000    5.250    0.000 
#    2.250    0.000    0.000   10.500    0.000    0.000 
#    0.000    0.000    0.000    0.000    0.000    0.000 
#
# Total GULP energy -89331.047246 kJ/mol
# GULP energy per Si atom -5583.190453 kJ/mol
# Density = 2.803291 g / cm^3
# Si number density = 28.096862 Si / 1000 Ang^3
#
#
#
# Elastic Constant Matrix: (Units=GPa)
#
#
# Indices 1 2 3 4 5 6 
#
# 1 103.3782 41.4034 51.5902 0.0000 -2.4154 0.0000
# 2 41.4034 55.4480 28.2335 0.0000 17.2316 0.0000
# 3 51.5902 28.2335 292.2563 0.0000 40.8246 0.0000
# 4 0.0000 0.0000 0.0000 39.5072 0.0000 6.3001
# 5 -2.4154 17.2316 40.8246 0.0000 35.2908 0.0000
# 6 0.0000 0.0000 0.0000 6.3001 0.0000 26.4992
#
#
#
# Elastic Compliance Matrix: (Units=1/GPa)
#
#
# Indices 1 2 3 4 5 6 
#
# 1 0.017972 -0.015661 -0.003458 0.000000 0.012878 0.000000
# 2 -0.015661 0.035036 0.002289 0.000000 -0.020827 0.000000
# 3 -0.003458 0.002289 0.004771 0.000000 -0.006874 0.000000
# 4 0.000000 0.000000 0.000000 0.026309 0.000000 -0.006255
# 5 0.012878 -0.020827 -0.006874 0.000000 0.047339 0.000000
# 6 0.000000 0.000000 0.000000 -0.006255 0.000000 0.039224
#
#
# Mechanical properties :
#
#
# Convention : Reuss Voigt Hill
#
# Bulk Modulus (GPa) = 41.46134 77.05967 59.26050
# Shear Modulus (GPa) = 23.54580 42.24978 32.89779
#
# Velocity S-wave (km/s) = 2.89800 3.88199 3.42551
# Velocity P-wave (km/s) = 5.09770 6.89776 6.06488
#
# Compressibility (1/GPa) = 0.02411885
#
# Stress axis : x y z
#
# Youngs Moduli (GPa) = 55.64092 28.54201 209.59110
#
# Poissons Ratio (x) = 0.44700 0.72487
# Poissons Ratio (y) = 0.87140 -0.47980
# Poissons Ratio (z) = 0.19243 -0.06534
#
# Static dielectric constant tensor:
#      x y z
#    x 2.230330 0.000000 -0.061650 
#    y 0.000000 2.173880 0.000000 
#    z -0.061650 0.000000 2.325600 
# 
# From -- ./inp_files/21257.got.cif
#   From: 2010.05.17/outbox.cif.g08.bks.cpg/sg9_11_cif.got.tgz:21257.got - 2010.06.03 20:04:27.
