data_PCOD9134680
_publ_section_title
;
Structure prediction by ZEFSAII (Michael W. Deem and Ramdas Pophale) SiO2 
 PCOD9134680
Probable space group: C C
;
_chemical_formula_sum "Si O2"
_cell_formula_units_Z 28
_cell_length_a 13.741705
_cell_length_b 5.998540
_cell_length_c 13.644923
_cell_angle_alpha 90.000000
_cell_angle_beta 109.856924
_cell_angle_gamma 90.000000
_cell_volume 1057.879687
_symmetry_space_group_name_H-M "C C"
_symmetry_group_IT_number 9
_symmetry_cell_setting 'monoclinic'
loop_
_space_group_symop_operation_xyz
x,y,z
x,-y,1/2+z
1/2+x,1/2+y,z
1/2+x,1/2-y,1/2+z
loop_
_atom_site_type_symbol
_atom_site_label
_atom_site_fract_x
_atom_site_fract_y
_atom_site_fract_z
Si Si1 0.062780 0.607100 0.022520
Si Si2 0.543213 0.751042 0.717771
Si Si3 0.371728 0.233729 0.468284
Si Si4 0.715219 0.748472 0.041083
Si Si5 0.364640 0.896287 0.181455
Si Si6 0.774128 0.321393 0.355932
Si Si7 0.514566 0.512580 0.387313
O O1 0.045943 0.784868 0.102980
O O2 0.168079 0.471659 0.070452
O O3 0.966502 0.443036 0.995492
O O4 0.053709 0.739721 0.919621
O O5 0.472120 0.965669 0.714320
O O6 0.662606 0.771311 0.787302
O O7 0.500533 0.552735 0.769844
O O8 0.415453 0.429479 0.415190
O O9 0.355654 0.254252 0.579810
O O10 0.280769 0.088288 0.385711
O O11 0.787434 0.781129 0.970107
O O12 0.612194 0.630455 0.962438
O O13 0.775941 0.585930 0.133939
O O14 0.343205 0.797550 0.281577
#
# Coordination Sequence:
#
# PCOD9134680 Si02
#       7
#     4   4   4   4   4   4   4
#     4  10  21  41  63  96 140 178 238 296 357 434
#     4  10  21  38  64  97 132 179 237 288 359 428
#     4   9  20  39  63  96 134 179 224 299 363 412
#     4   9  21  39  66  95 138 185 226 296 362 411
#     4  10  19  39  67  98 141 181 238 295 353 437
#     4  10  19  39  65  98 135 180 234 289 356 427
#     4  10  19  41  66  94 132 178 233 293 356 425
#
# _framework density 26.468036999999999
#
# number of rings (size 3 to 8) (size 9 to 14) (size 15 to 20)
#    0.000    2.286    1.429    0.857    0.000    0.000 
#    5.143   27.143    0.000    0.000    0.000    0.000 
#    0.000    0.000    0.000    0.000    0.000    0.000 
#
# Total GULP energy -78278.505104 kJ/mol
# GULP energy per Si atom -5591.321793 kJ/mol
# Density = 2.640779 g / cm^3
# Si number density = 26.468037 Si / 1000 Ang^3
#
#
#
# Elastic Constant Matrix: (Units=GPa)
#
#
# Indices 1 2 3 4 5 6 
#
# 1 127.7413 45.3913 29.8966 0.0000 -14.3586 0.0000
# 2 45.3913 57.1646 62.1492 0.0000 -12.3544 0.0000
# 3 29.8966 62.1492 146.6850 0.0000 -27.1277 0.0000
# 4 0.0000 0.0000 0.0000 49.3896 0.0000 1.9273
# 5 -14.3586 -12.3544 -27.1277 0.0000 50.7806 0.0000
# 6 0.0000 0.0000 0.0000 1.9273 0.0000 48.6969
#
#
#
# Elastic Compliance Matrix: (Units=1/GPa)
#
#
# Indices 1 2 3 4 5 6 
#
# 1 0.011690 -0.012350 0.003224 0.000000 0.002023 0.000000
# 2 -0.012350 0.045499 -0.017043 0.000000 -0.001527 0.000000
# 3 0.003224 -0.017043 0.014184 0.000000 0.004343 0.000000
# 4 0.000000 0.000000 0.000000 0.020278 0.000000 -0.000803
# 5 0.002023 -0.001527 0.004343 0.000000 0.022213 0.000000
# 6 0.000000 0.000000 0.000000 -0.000803 0.000000 0.020567
#
#
# Mechanical properties :
#
#
# Convention : Reuss Voigt Hill
#
# Bulk Modulus (GPa) = 52.53434 67.38501 59.95967
# Shear Modulus (GPa) = 25.89148 42.71703 34.30425
#
# Velocity S-wave (km/s) = 3.13104 4.02171 3.60399
# Velocity P-wave (km/s) = 5.74130 6.86147 6.32623
#
# Compressibility (1/GPa) = 0.01903517
#
# Stress axis : x y z
#
# Youngs Moduli (GPa) = 85.54572 21.97855 70.50119
#
# Poissons Ratio (x) = 0.27144 -0.22732
# Poissons Ratio (y) = 1.05653 1.20153
# Poissons Ratio (z) = -0.27583 0.37457
#
# Static dielectric constant tensor:
#      x y z
#    x 2.107710 0.000000 0.000710 
#    y 0.000000 2.134480 0.000000 
#    z 0.000710 0.000000 2.054690 
# 
# From -- ./inp_files/25282.got.cif
#   From: 2010.05.17/outbox.cif.g08.bks.cpg/sg9_13_cif.got.tgz:25282.got - 2010.06.03 20:04:27.
