data_PCOD9134032
_publ_section_title
;
Structure prediction by ZEFSAII (Michael W. Deem and Ramdas Pophale) SiO2 
 PCOD9134032
Probable space group: C C
;
_chemical_formula_sum "Si O2"
_cell_formula_units_Z 28
_cell_length_a 10.429632
_cell_length_b 9.359951
_cell_length_c 19.792062
_cell_angle_alpha 90.000000
_cell_angle_beta 139.446819
_cell_angle_gamma 90.000000
_cell_volume 1256.173279
_symmetry_space_group_name_H-M "C C"
_symmetry_group_IT_number 9
_symmetry_cell_setting 'monoclinic'
loop_
_space_group_symop_operation_xyz
x,y,z
x,-y,1/2+z
1/2+x,1/2+y,z
1/2+x,1/2-y,1/2+z
loop_
_atom_site_type_symbol
_atom_site_label
_atom_site_fract_x
_atom_site_fract_y
_atom_site_fract_z
Si Si1 0.307870 0.961683 0.381510
Si Si2 0.500095 0.308799 0.736202
Si Si3 0.133063 0.364674 0.940636
Si Si4 0.842559 0.882045 0.308772
Si Si5 0.403116 0.707670 0.340073
Si Si6 0.109386 0.371513 0.077927
Si Si7 0.824762 0.142036 0.018014
O O1 0.281770 0.802871 0.344647
O O2 0.112640 0.052568 0.310110
O O3 0.431567 0.042079 0.370927
O O4 0.456625 0.996831 0.502869
O O5 0.673882 0.195546 0.787385
O O6 0.361875 0.263239 0.743521
O O7 0.395250 0.352229 0.624513
O O8 0.041790 0.213763 0.882613
O O9 0.216624 0.346659 0.050103
O O10 0.281195 0.483820 0.971439
O O11 0.741758 0.892218 0.195198
O O12 0.882726 0.041994 0.348246
O O13 0.625531 0.765223 0.437398
O O14 0.982046 0.229401 0.038510
#
# Coordination Sequence:
#
# PCOD9134032 Si02
#       7
#     4   4   4   4   4   4   4
#     4   8  18  35  58  80 115 149 195 227 296 334
#     4  10  20  39  59  83 115 156 185 247 287 347
#     4   8  17  34  53  85 113 147 191 234 281 351
#     4  10  20  35  61  88 120 148 198 238 295 339
#     4  11  20  36  60  86 114 154 191 243 283 356
#     4   9  17  35  61  80 118 159 183 244 283 346
#     4  10  18  34  62  82 115 157 193 229 305 333
#
# _framework density 22.289916999999999
#
# number of rings (size 3 to 8) (size 9 to 14) (size 15 to 20)
#    0.857    1.714    1.429    0.857    0.000    0.000 
#    0.000   15.714    0.000    0.000    0.000    0.000 
#    0.000    0.000    0.000    0.000    0.000    0.000 
#
# Total GULP energy -77990.387473 kJ/mol
# GULP energy per Si atom -5570.741962 kJ/mol
# Density = 2.223918 g / cm^3
# Si number density = 22.289917 Si / 1000 Ang^3
#
#
#
# Elastic Constant Matrix: (Units=GPa)
#
#
# Indices 1 2 3 4 5 6 
#
# 1 63.6444 31.7040 8.7590 0.0000 -15.0359 0.0000
# 2 31.7040 176.2743 50.9901 0.0000 -18.9966 0.0000
# 3 8.7590 50.9901 84.1688 0.0000 -24.2617 0.0000
# 4 0.0000 0.0000 0.0000 13.9254 0.0000 -2.0513
# 5 -15.0359 -18.9966 -24.2617 0.0000 13.4844 0.0000
# 6 0.0000 0.0000 0.0000 -2.0513 0.0000 28.6664
#
#
#
# Elastic Compliance Matrix: (Units=1/GPa)
#
#
# Indices 1 2 3 4 5 6 
#
# 1 0.027536 -0.003499 0.013885 0.000000 0.050757 0.000000
# 2 -0.003499 0.007460 -0.004675 0.000000 -0.001803 0.000000
# 3 0.013885 -0.004675 0.032891 0.000000 0.068075 0.000000
# 4 0.000000 0.000000 0.000000 0.072576 0.000000 0.005193
# 5 0.050757 -0.001803 0.068075 0.000000 0.250700 0.000000
# 6 0.000000 0.000000 0.000000 0.005193 0.000000 0.035256
#
#
# Mechanical properties :
#
#
# Convention : Reuss Voigt Hill
#
# Bulk Modulus (GPa) = 12.60898 56.33265 34.47081
# Shear Modulus (GPa) = 11.32672 26.72418 19.02545
#
# Velocity S-wave (km/s) = 2.25667 3.46632 2.92472
# Velocity P-wave (km/s) = 3.52976 6.43025 5.18687
#
# Compressibility (1/GPa) = 0.07930858
#
# Stress axis : x y z
#
# Youngs Moduli (GPa) = 36.31642 134.04258 30.40357
#
# Poissons Ratio (x) = 0.46901 -0.42215
# Poissons Ratio (y) = 0.12707 0.14214
# Poissons Ratio (z) = -0.50425 0.62668
#
# Static dielectric constant tensor:
#      x y z
#    x 1.955850 0.000000 -0.028320 
#    y 0.000000 1.902920 0.000000 
#    z -0.028320 0.000000 1.821120 
# 
# From -- ./inp_files/27950.got.cif
#   From: 2010.05.17/outbox.cif.g08.bks.cpg/sg9_14_cif.got.tgz:27950.got - 2010.06.03 20:04:27.
