data_PCOD9134231
_publ_section_title
;
Structure prediction by ZEFSAII (Michael W. Deem and Ramdas Pophale) SiO2 
 PCOD9134231
Probable space group: C C
;
_chemical_formula_sum "Si O2"
_cell_formula_units_Z 28
_cell_length_a 11.524240
_cell_length_b 13.863179
_cell_length_c 7.860299
_cell_angle_alpha 90.000000
_cell_angle_beta 98.692364
_cell_angle_gamma 90.000000
_cell_volume 1241.357957
_symmetry_space_group_name_H-M "C C"
_symmetry_group_IT_number 9
_symmetry_cell_setting 'monoclinic'
loop_
_space_group_symop_operation_xyz
x,y,z
x,-y,1/2+z
1/2+x,1/2+y,z
1/2+x,1/2-y,1/2+z
loop_
_atom_site_type_symbol
_atom_site_label
_atom_site_fract_x
_atom_site_fract_y
_atom_site_fract_z
Si Si1 0.861140 0.358146 0.606770
Si Si2 0.556525 0.268737 0.270965
Si Si3 0.830722 0.859091 0.119921
Si Si4 0.495022 0.775467 0.142951
Si Si5 0.411688 0.045795 0.769875
Si Si6 0.277492 0.336349 0.733001
Si Si7 0.661278 0.094576 0.872576
O O1 0.994033 0.325418 0.676267
O O2 0.799617 0.256406 0.627415
O O3 0.837560 0.451866 0.712525
O O4 0.860004 0.395291 0.415165
O O5 0.471413 0.354815 0.185725
O O6 0.538940 0.258873 0.469811
O O7 0.689255 0.254428 0.243514
O O8 0.758192 0.913995 0.246564
O O9 0.793834 0.885619 0.920875
O O10 0.426329 0.879033 0.116087
O O11 0.404131 0.700786 0.201480
O O12 0.594243 0.805394 0.301288
O O13 0.549254 0.023459 0.845132
O O14 0.223282 0.395695 0.565938
#
# Coordination Sequence:
#
# PCOD9134231 Si02
#       7
#     4   4   4   4   4   4   4
#     4  10  19  32  47  78 111 141 179 221 281 335
#     4  10  19  31  50  79 104 142 177 228 274 328
#     4  10  20  32  51  78 107 143 181 225 280 326
#     4  10  19  31  50  79 104 142 177 228 274 328
#     4  10  19  32  47  78 111 141 179 221 281 335
#     4  12  16  34  52  68 118 134 182 228 276 324
#     4  10  20  32  51  78 107 143 181 225 280 326
#
# _framework density 22.555942999999999
#
# number of rings (size 3 to 8) (size 9 to 14) (size 15 to 20)
#    1.714    0.000    5.714    1.714    0.000    0.000 
#    0.000    0.000    0.000    0.000    0.000    2.000 
#    8.571    0.286    0.000    0.000    0.000    0.000 
#
# Total GULP energy -77985.254007 kJ/mol
# GULP energy per Si atom -5570.375286 kJ/mol
# Density = 2.250460 g / cm^3
# Si number density = 22.555943 Si / 1000 Ang^3
#
#
#
# Elastic Constant Matrix: (Units=GPa)
#
#
# Indices 1 2 3 4 5 6 
#
# 1 70.0776 13.0687 42.9734 0.0000 -3.8406 0.0000
# 2 13.0687 65.5952 36.2252 0.0000 -1.8541 0.0000
# 3 42.9734 36.2252 160.8367 0.0000 2.3109 0.0000
# 4 0.0000 0.0000 0.0000 31.5128 0.0000 2.8109
# 5 -3.8406 -1.8541 2.3109 0.0000 33.7309 0.0000
# 6 0.0000 0.0000 0.0000 2.8109 0.0000 8.2004
#
#
#
# Elastic Compliance Matrix: (Units=1/GPa)
#
#
# Indices 1 2 3 4 5 6 
#
# 1 0.017289 -0.000929 -0.004442 0.000000 0.002222 0.000000
# 2 -0.000929 0.017511 -0.003712 0.000000 0.001111 0.000000
# 3 -0.004442 -0.003712 0.008259 0.000000 -0.001276 0.000000
# 4 0.000000 0.000000 0.000000 0.032734 0.000000 -0.011220
# 5 0.002222 0.001111 -0.001276 0.000000 0.030048 0.000000
# 6 0.000000 0.000000 0.000000 -0.011220 0.000000 0.125792
#
#
# Mechanical properties :
#
#
# Convention : Reuss Voigt Hill
#
# Bulk Modulus (GPa) = 40.17075 53.44933 46.81004
# Shear Modulus (GPa) = 19.37263 28.30495 23.83879
#
# Velocity S-wave (km/s) = 2.93383 3.54627 3.25449
# Velocity P-wave (km/s) = 5.41521 6.36520 5.90933
#
# Compressibility (1/GPa) = 0.02489374
#
# Stress axis : x y z
#
# Youngs Moduli (GPa) = 57.84072 57.10576 121.08385
#
# Poissons Ratio (x) = 0.05302 0.53787
# Poissons Ratio (y) = 0.05371 0.44946
# Poissons Ratio (z) = 0.25694 0.21197
#
# Static dielectric constant tensor:
#      x y z
#    x 1.860710 0.000000 0.027870 
#    y 0.000000 1.853690 0.000000 
#    z 0.027870 0.000000 1.849510 
# 
# From -- ./inp_files/7685.got.cif
#   From: 2010.05.17/outbox.cif.g08.bks.cpg/sg9_4_cif.got.tgz:7685.got - 2010.06.03 20:04:27.
