data_PCOD9134827
_publ_section_title
;
Structure prediction by ZEFSAII (Michael W. Deem and Ramdas Pophale) SiO2 
 PCOD9134827
Probable space group: C C
;
_chemical_formula_sum "Si O2"
_cell_formula_units_Z 28
_cell_length_a 23.596672
_cell_length_b 7.179415
_cell_length_c 9.426857
_cell_angle_alpha 90.000000
_cell_angle_beta 43.494362
_cell_angle_gamma 90.000000
_cell_volume 1099.192860
_symmetry_space_group_name_H-M "C C"
_symmetry_group_IT_number 9
_symmetry_cell_setting 'monoclinic'
loop_
_space_group_symop_operation_xyz
x,y,z
x,-y,1/2+z
1/2+x,1/2+y,z
1/2+x,1/2-y,1/2+z
loop_
_atom_site_type_symbol
_atom_site_label
_atom_site_fract_x
_atom_site_fract_y
_atom_site_fract_z
Si Si1 0.165220 0.257659 0.211580
Si Si2 0.420304 0.111578 0.082801
Si Si3 0.033770 0.887533 0.724596
Si Si4 0.737577 0.304081 0.865632
Si Si5 0.452941 0.773444 0.845499
Si Si6 0.780927 0.871593 0.769671
Si Si7 0.137235 0.312224 0.814238
O O1 0.102631 0.158383 0.218564
O O2 0.189980 0.148371 0.307855
O O3 0.128159 0.463567 0.312129
O O4 0.251450 0.299387 0.975657
O O5 0.321681 0.083749 0.241223
O O6 0.438247 0.146557 0.215104
O O7 0.452508 0.288779 0.935565
O O8 0.061057 0.785311 0.529940
O O9 0.016175 0.103577 0.729417
O O10 0.769892 0.092724 0.790788
O O11 0.671956 0.283947 0.110557
O O12 0.368814 0.686716 0.056730
O O13 0.470406 0.940424 0.922479
O O14 0.713199 0.795865 0.784756
#
# Coordination Sequence:
#
# PCOD9134827 Si02
#       7
#     4   4   4   4   4   4   4
#     4   9  21  41  84 123 163 215 272 346 415 512
#     4  12  29  49  82 120 165 222 287 358 411 506
#     4  11  26  51  81 119 172 225 271 349 440 495
#     4  10  19  43  85 119 155 215 280 345 410 503
#     4  12  28  52  80 118 165 223 285 352 426 496
#     4   9  18  41  79 116 155 207 273 341 413 501
#     4   9  19  43  81 119 169 215 278 335 415 507
#
# _framework density 25.473237000000001
#
# number of rings (size 3 to 8) (size 9 to 14) (size 15 to 20)
#    0.000    1.714    2.857    0.857    4.000    1.143 
#    0.000    7.143    3.143    0.000    0.000    0.000 
#    0.000    0.000    0.000    0.000    0.000    0.000 
#
# Total GULP energy -78537.698939 kJ/mol
# GULP energy per Si atom -5609.835639 kJ/mol
# Density = 2.541526 g / cm^3
# Si number density = 25.473237 Si / 1000 Ang^3
#
#
#
# Elastic Constant Matrix: (Units=GPa)
#
#
# Indices 1 2 3 4 5 6 
#
# 1 122.4748 59.5949 77.1966 0.0000 17.0363 0.0000
# 2 59.5949 165.3486 58.4498 0.0000 11.0638 0.0000
# 3 77.1966 58.4498 153.5515 0.0000 18.5060 0.0000
# 4 0.0000 0.0000 0.0000 48.4352 0.0000 -11.1236
# 5 17.0363 11.0638 18.5060 0.0000 46.3652 0.0000
# 6 0.0000 0.0000 0.0000 -11.1236 0.0000 22.6298
#
#
#
# Elastic Compliance Matrix: (Units=1/GPa)
#
#
# Indices 1 2 3 4 5 6 
#
# 1 0.013122 -0.002712 -0.005317 0.000000 -0.002052 0.000000
# 2 -0.002712 0.007567 -0.001491 0.000000 -0.000214 0.000000
# 3 -0.005317 -0.001491 0.009953 0.000000 -0.001663 0.000000
# 4 0.000000 0.000000 0.000000 0.023273 0.000000 0.011440
# 5 -0.002052 -0.000214 -0.001663 0.000000 0.023037 0.000000
# 6 0.000000 0.000000 0.000000 0.011440 0.000000 0.049813
#
#
# Mechanical properties :
#
#
# Convention : Reuss Voigt Hill
#
# Bulk Modulus (GPa) = 86.19748 92.42863 89.31306
# Shear Modulus (GPa) = 33.40631 39.89496 36.65064
#
# Velocity S-wave (km/s) = 3.62529 3.96176 3.79725
# Velocity P-wave (km/s) = 7.17186 7.56906 7.37314
#
# Compressibility (1/GPa) = 0.01160127
#
# Stress axis : x y z
#
# Youngs Moduli (GPa) = 76.21078 132.15664 100.46736
#
# Poissons Ratio (x) = 0.35847 0.53418
# Poissons Ratio (y) = 0.20672 0.14978
# Poissons Ratio (z) = 0.40521 0.19703
#
# Static dielectric constant tensor:
#      x y z
#    x 1.982570 0.000000 0.006520 
#    y 0.000000 2.022780 0.000000 
#    z 0.006520 0.000000 2.006150 
# 
# From -- ./inp_files/11556.got.cif
#   From: 2010.05.17/outbox.cif.g08.bks.cpg/sg9_6_cif.got.tgz:11556.got - 2010.06.03 20:04:27.
