data_PCOD9134982
_publ_section_title
;
Structure prediction by ZEFSAII (Michael W. Deem and Ramdas Pophale) SiO2 
 PCOD9134982
Probable space group: C C
;
_chemical_formula_sum "Si O2"
_cell_formula_units_Z 28
_cell_length_a 12.029066
_cell_length_b 20.509033
_cell_length_c 5.355496
_cell_angle_alpha 90.000000
_cell_angle_beta 80.704985
_cell_angle_gamma 90.000000
_cell_volume 1303.877040
_symmetry_space_group_name_H-M "C C"
_symmetry_group_IT_number 9
_symmetry_cell_setting 'monoclinic'
loop_
_space_group_symop_operation_xyz
x,y,z
x,-y,1/2+z
1/2+x,1/2+y,z
1/2+x,1/2-y,1/2+z
loop_
_atom_site_type_symbol
_atom_site_label
_atom_site_fract_x
_atom_site_fract_y
_atom_site_fract_z
Si Si1 0.030150 0.205885 0.582640
Si Si2 0.973911 0.539845 0.314030
Si Si3 0.242409 0.460149 0.725140
Si Si4 0.412826 0.836729 0.567773
Si Si5 0.604599 0.803586 0.203200
Si Si6 0.326022 0.336051 0.438464
Si Si7 0.238980 0.768595 0.293338
O O1 0.064152 0.229255 0.291603
O O2 0.147955 0.190680 0.671755
O O3 0.978350 0.276983 0.672355
O O4 0.929008 0.159809 0.704642
O O5 0.950035 0.490305 0.092810
O O6 0.108274 0.554938 0.258008
O O7 0.906421 0.604186 0.257964
O O8 0.263236 0.487036 0.995964
O O9 0.316176 0.398011 0.620917
O O10 0.499306 0.849610 0.302600
O O11 0.300179 0.808429 0.487716
O O12 0.707008 0.828265 0.338922
O O13 0.666280 0.792171 0.924124
O O14 0.330874 0.268990 0.595144
#
# Coordination Sequence:
#
# PCOD9134982 Si02
#       7
#     4   4   4   4   4   4   4
#     4   9  21  34  52  84 113 145 188 235 296 353
#     4  10  21  37  55  82 115 153 194 239 291 349
#     4  10  22  37  58  84 117 157 198 242 295 352
#     4  10  20  36  55  85 113 150 188 240 289 357
#     4   9  18  34  51  83 111 145 178 235 291 352
#     4  11  20  35  57  84 116 148 192 242 293 353
#     4  11  20  33  58  82 115 150 186 239 301 348
#
# _framework density 21.474416999999999
#
# number of rings (size 3 to 8) (size 9 to 14) (size 15 to 20)
#    0.857    1.143    2.857    0.857    2.000    3.429 
#    0.000    0.000    0.000    1.714    0.000    0.000 
#    0.000    0.000    0.000    0.000    0.000    0.000 
#
# Total GULP energy -77977.951964 kJ/mol
# GULP energy per Si atom -5569.853712 kJ/mol
# Density = 2.142554 g / cm^3
# Si number density = 21.474417 Si / 1000 Ang^3
#
#
#
# Elastic Constant Matrix: (Units=GPa)
#
#
# Indices 1 2 3 4 5 6 
#
# 1 90.9159 12.7728 17.8267 0.0000 9.5005 0.0000
# 2 12.7728 44.7254 -0.3188 0.0000 3.5234 0.0000
# 3 17.8267 -0.3188 59.4489 0.0000 -7.1462 0.0000
# 4 0.0000 0.0000 0.0000 25.3289 0.0000 -1.3950
# 5 9.5005 3.5234 -7.1462 0.0000 31.4567 0.0000
# 6 0.0000 0.0000 0.0000 -1.3950 0.0000 20.2437
#
#
#
# Elastic Compliance Matrix: (Units=1/GPa)
#
#
# Indices 1 2 3 4 5 6 
#
# 1 0.012799 -0.003333 -0.004396 0.000000 -0.004491 0.000000
# 2 -0.003333 0.023428 0.000957 0.000000 -0.001400 0.000000
# 3 -0.004396 0.000957 0.018805 0.000000 0.005492 0.000000
# 4 0.000000 0.000000 0.000000 0.039631 0.000000 0.002731
# 5 -0.004491 -0.001400 0.005492 0.000000 0.034551 0.000000
# 6 0.000000 0.000000 0.000000 0.002731 0.000000 0.049586
#
#
# Mechanical properties :
#
#
# Convention : Reuss Voigt Hill
#
# Bulk Modulus (GPa) = 24.10355 28.40573 26.25464
# Shear Modulus (GPa) = 24.25178 26.39317 25.32248
#
# Velocity S-wave (km/s) = 3.36420 3.50959 3.43766
# Velocity P-wave (km/s) = 5.13217 5.44788 5.29238
#
# Compressibility (1/GPa) = 0.04148767
#
# Stress axis : x y z
#
# Youngs Moduli (GPa) = 78.13415 42.68484 53.17858
#
# Poissons Ratio (x) = 0.14225 0.23375
# Poissons Ratio (y) = 0.26039 -0.05087
# Poissons Ratio (z) = 0.34344 -0.04083
#
# Static dielectric constant tensor:
#      x y z
#    x 1.778940 0.000000 -0.015500 
#    y 0.000000 1.820690 0.000000 
#    z -0.015500 0.000000 1.891990 
# 
# From -- ./inp_files/1777.got.cif
#   From: 2010.05.17/outbox.cif.g08.bks.cpg/sg9_1_cif.got.tgz:1777.got - 2010.06.03 20:04:27.
