data_PCOD9134057
_publ_section_title
;
Structure prediction by ZEFSAII (Michael W. Deem and Ramdas Pophale) SiO2 
 PCOD9134057
Probable space group: C C
;
_chemical_formula_sum "Si O2"
_cell_formula_units_Z 28
_cell_length_a 26.991834
_cell_length_b 7.772537
_cell_length_c 5.466242
_cell_angle_alpha 90.000000
_cell_angle_beta 108.108605
_cell_angle_gamma 90.000000
_cell_volume 1089.988792
_symmetry_space_group_name_H-M "C C"
_symmetry_group_IT_number 9
_symmetry_cell_setting 'monoclinic'
loop_
_space_group_symop_operation_xyz
x,y,z
x,-y,1/2+z
1/2+x,1/2+y,z
1/2+x,1/2-y,1/2+z
loop_
_atom_site_type_symbol
_atom_site_label
_atom_site_fract_x
_atom_site_fract_y
_atom_site_fract_z
Si Si1 0.242120 0.059151 0.966150
Si Si2 0.074283 0.402773 0.993752
Si Si3 0.123809 0.069345 0.268260
Si Si4 0.323563 0.592366 0.053221
Si Si5 0.413628 0.197227 0.833616
Si Si6 0.710093 0.957545 0.893715
Si Si7 0.454767 0.194142 0.397280
O O1 0.268597 0.992017 0.760567
O O2 0.185577 0.965156 0.886809
O O3 0.230317 0.262216 0.935086
O O4 0.078509 0.543459 0.217185
O O5 0.112340 0.250482 0.130556
O O6 0.015388 0.330895 0.937274
O O7 0.103485 0.054231 0.515830
O O8 0.337649 0.463505 0.299474
O O9 0.354179 0.762244 0.175222
O O10 0.260682 0.583707 0.962583
O O11 0.445501 0.271913 0.650899
O O12 0.428602 0.996622 0.877608
O O13 0.428828 0.276840 0.118424
O O14 0.681597 0.013084 0.095499
#
# Coordination Sequence:
#
# PCOD9134057 Si02
#       7
#     4   4   4   4   4   4   4
#     4  10  21  42  68  93 133 168 207 264 328 395
#     4  12  21  40  67  93 130 170 224 265 313 384
#     4  10  23  43  61  94 138 165 212 263 330 382
#     4  10  21  37  60  84 132 153 210 258 313 365
#     4  10  18  35  58  86 118 161 204 255 303 370
#     4  10  21  40  69  95 127 167 215 265 320 391
#     4  10  19  35  61  83 120 162 208 250 313 367
#
# _framework density 25.688338999999999
#
# number of rings (size 3 to 8) (size 9 to 14) (size 15 to 20)
#    0.000    1.714    2.857    2.571    0.000    0.000 
#    0.000   21.429   75.429    0.000    0.000    0.000 
#    0.000    0.000    0.000    0.000    0.000    0.000 
#
# Total GULP energy -78299.353093 kJ/mol
# GULP energy per Si atom -5592.810935 kJ/mol
# Density = 2.562987 g / cm^3
# Si number density = 25.688339 Si / 1000 Ang^3
#
#
#
# Elastic Constant Matrix: (Units=GPa)
#
#
# Indices 1 2 3 4 5 6 
#
# 1 67.1557 31.6103 36.1240 0.0000 -11.2306 0.0000
# 2 31.6103 56.3143 15.1515 0.0000 3.1028 0.0000
# 3 36.1240 15.1515 208.8415 0.0000 -48.1676 0.0000
# 4 0.0000 0.0000 0.0000 50.7636 0.0000 5.0943
# 5 -11.2306 3.1028 -48.1676 0.0000 60.0750 0.0000
# 6 0.0000 0.0000 0.0000 5.0943 0.0000 22.9253
#
#
#
# Elastic Compliance Matrix: (Units=1/GPa)
#
#
# Indices 1 2 3 4 5 6 
#
# 1 0.022298 -0.012059 -0.002303 0.000000 0.002945 0.000000
# 2 -0.012059 0.024929 -0.000662 0.000000 -0.004073 0.000000
# 3 -0.002303 -0.000662 0.006310 0.000000 0.004663 0.000000
# 4 0.000000 0.000000 0.000000 0.020148 0.000000 -0.004477
# 5 0.002945 -0.004073 0.004663 0.000000 0.021146 0.000000
# 6 0.000000 0.000000 0.000000 -0.004477 0.000000 0.044615
#
#
# Mechanical properties :
#
#
# Convention : Reuss Voigt Hill
#
# Bulk Modulus (GPa) = 42.57239 55.34256 48.95747
# Shear Modulus (GPa) = 28.19694 43.38116 35.78905
#
# Velocity S-wave (km/s) = 3.31668 4.11390 3.73661
# Velocity P-wave (km/s) = 5.59248 6.64501 6.14133
#
# Compressibility (1/GPa) = 0.02348940
#
# Stress axis : x y z
#
# Youngs Moduli (GPa) = 44.84658 40.11390 158.47330
#
# Poissons Ratio (x) = 0.48374 0.36495
# Poissons Ratio (y) = 0.54081 0.10492
# Poissons Ratio (z) = 0.10328 0.02656
#
# Static dielectric constant tensor:
#      x y z
#    x 2.073220 0.000000 -0.105590 
#    y 0.000000 2.005490 0.000000 
#    z -0.105590 0.000000 2.115330 
# 
# From -- ./inp_files/3369.got.cif
#   From: 2010.05.17/outbox.cif.g08.bks.cpg/sg9_2_cif.got.tgz:3369.got - 2010.06.03 20:04:27.
