data_PCOD9134274
_publ_section_title
;
Structure prediction by ZEFSAII (Michael W. Deem and Ramdas Pophale) SiO2 
 PCOD9134274
Probable space group: C C
;
_chemical_formula_sum "Si O2"
_cell_formula_units_Z 32
_cell_length_a 24.285337
_cell_length_b 6.599085
_cell_length_c 7.668880
_cell_angle_alpha 90.000000
_cell_angle_beta 62.682677
_cell_angle_gamma 90.000000
_cell_volume 1091.960007
_symmetry_space_group_name_H-M "C C"
_symmetry_group_IT_number 9
_symmetry_cell_setting 'monoclinic'
loop_
_space_group_symop_operation_xyz
x,y,z
x,-y,1/2+z
1/2+x,1/2+y,z
1/2+x,1/2-y,1/2+z
loop_
_atom_site_type_symbol
_atom_site_label
_atom_site_fract_x
_atom_site_fract_y
_atom_site_fract_z
Si Si1 0.027550 0.816229 0.406590
Si Si2 0.303868 0.745454 0.639959
Si Si3 0.398385 0.730431 0.032433
Si Si4 0.273642 0.216631 0.591466
Si Si5 0.657052 0.392596 0.101679
Si Si6 0.426701 0.194296 0.088574
Si Si7 0.680325 0.195920 0.692627
Si Si8 0.550656 0.097431 0.735731
O O1 0.087152 0.941723 0.262523
O O2 0.046171 0.708274 0.559006
O O3 0.028645 0.634926 0.263069
O O4 0.957292 0.894015 0.521817
O O5 0.377513 0.710261 0.520514
O O6 0.250131 0.615988 0.621738
O O7 0.290152 0.977509 0.601764
O O8 0.290862 0.741729 0.864857
O O9 0.411625 0.741995 0.806436
O O10 0.324771 0.683014 0.148159
O O11 0.409414 0.952438 0.101872
O O12 0.198587 0.226556 0.683802
O O13 0.687474 0.613586 0.052891
O O14 0.661328 0.282634 0.910812
O O15 0.498048 0.202510 0.929239
O O16 0.620290 0.084195 0.707145
#
# Coordination Sequence:
#
# PCOD9134274 Si02
#       8
#     4   4   4   4   4   4   4   4
#     4  11  21  33  49  72  99 131 165 201 242 287
#     4   8  15  26  44  68  94 121 154 194 238 281
#     4   9  15  26  44  68  94 122 155 197 240 282
#     4   8  15  26  44  68  94 121 154 194 238 281
#     4  10  19  33  51  74 101 130 161 198 240 288
#     4   9  15  26  44  68  94 122 155 197 240 282
#     4  10  19  33  51  74 101 130 161 198 240 288
#     4  11  21  33  49  72  99 131 165 201 242 287
#
# _framework density 29.305099999999999
#
# number of rings (size 3 to 8) (size 9 to 14) (size 15 to 20)
#    0.000    2.500    0.000    5.250    0.000    2.000 
#    0.000    0.000    0.000    1.500    0.000    7.000 
#    0.000    0.000    0.000    0.000    0.000    0.000 
#
# Total GULP energy -89568.888025 kJ/mol
# GULP energy per Si atom -5598.055502 kJ/mol
# Density = 2.923840 g / cm^3
# Si number density = 29.305100 Si / 1000 Ang^3
#
#
#
# Elastic Constant Matrix: (Units=GPa)
#
#
# Indices 1 2 3 4 5 6 
#
# 1 291.5995 36.5489 53.9961 0.0000 -43.9978 0.0000
# 2 36.5489 55.7918 14.3635 0.0000 -1.3328 0.0000
# 3 53.9961 14.3635 131.1583 0.0000 10.7082 0.0000
# 4 0.0000 0.0000 0.0000 36.3424 0.0000 -10.6861
# 5 -43.9978 -1.3328 10.7082 0.0000 56.2815 0.0000
# 6 0.0000 0.0000 0.0000 -10.6861 0.0000 66.1133
#
#
#
# Elastic Compliance Matrix: (Units=1/GPa)
#
#
# Indices 1 2 3 4 5 6 
#
# 1 0.004714 -0.002479 -0.001996 0.000000 0.004006 0.000000
# 2 -0.002479 0.019786 -0.001043 0.000000 -0.001271 0.000000
# 3 -0.001996 -0.001043 0.008827 0.000000 -0.003265 0.000000
# 4 0.000000 0.000000 0.000000 0.028889 0.000000 0.004669
# 5 0.004006 -0.001271 -0.003265 0.000000 0.021491 0.000000
# 6 0.000000 0.000000 0.000000 0.004669 0.000000 0.015880
#
#
# Mechanical properties :
#
#
# Convention : Reuss Voigt Hill
#
# Bulk Modulus (GPa) = 44.86017 76.48518 60.67268
# Shear Modulus (GPa) = 42.35390 56.65685 49.50537
#
# Velocity S-wave (km/s) = 3.80580 4.40175 4.11458
# Velocity P-wave (km/s) = 5.88671 7.21042 6.58193
#
# Compressibility (1/GPa) = 0.02229149
#
# Stress axis : x y z
#
# Youngs Moduli (GPa) = 212.12406 50.54196 113.28857
#
# Poissons Ratio (x) = 0.12527 0.22617
# Poissons Ratio (y) = 0.52576 0.11812
# Poissons Ratio (z) = 0.42349 0.05270
#
# Static dielectric constant tensor:
#      x y z
#    x 2.312910 0.000000 -0.100740 
#    y 0.000000 2.473540 0.000000 
#    z -0.100740 0.000000 2.206340 
# 
# From -- ./inp_files/11486.got.cif
#   From: 2010.05.17/outbox.cif.g08.bks.cpg/sg9_6_cif.got.tgz:11486.got - 2010.06.03 20:04:27.
