data_PCOD9134050
_publ_section_title
;
Structure prediction by ZEFSAII (Michael W. Deem and Ramdas Pophale) SiO2 
 PCOD9134050
Probable space group: C C
;
_chemical_formula_sum "Si O2"
_cell_formula_units_Z 28
_cell_length_a 7.690807
_cell_length_b 29.459658
_cell_length_c 5.343193
_cell_angle_alpha 90.000000
_cell_angle_beta 75.406297
_cell_angle_gamma 90.000000
_cell_volume 1171.541728
_symmetry_space_group_name_H-M "C C"
_symmetry_group_IT_number 9
_symmetry_cell_setting 'monoclinic'
loop_
_space_group_symop_operation_xyz
x,y,z
x,-y,1/2+z
1/2+x,1/2+y,z
1/2+x,1/2-y,1/2+z
loop_
_atom_site_type_symbol
_atom_site_label
_atom_site_fract_x
_atom_site_fract_y
_atom_site_fract_z
Si Si1 0.831800 0.220819 0.366830
Si Si2 0.764293 0.542074 0.105899
Si Si3 0.441742 0.613352 0.729433
Si Si4 0.227961 0.627373 0.314371
Si Si5 0.562668 0.294762 0.291958
Si Si6 0.907926 0.440612 0.048518
Si Si7 0.888780 0.009852 0.777851
O O1 0.684864 0.179581 0.407698
O O2 0.737656 0.265358 0.287890
O O3 0.934931 0.222363 0.600970
O O4 0.967086 0.207209 0.096963
O O5 0.562546 0.522369 0.184294
O O6 0.886491 0.496022 0.061088
O O7 0.791105 0.570058 0.346194
O O8 0.825922 0.570744 0.847266
O O9 0.383944 0.617990 0.461375
O O10 0.588177 0.652075 0.723044
O O11 0.461389 0.560274 0.763794
O O12 0.289248 0.624359 0.001322
O O13 0.085278 0.588324 0.431423
O O14 0.782234 0.997389 0.062910
#
# Coordination Sequence:
#
# PCOD9134050 Si02
#       7
#     4   4   4   4   4   4   4
#     4  10  21  40  68  93 130 160 207 255 316 373
#     4  10  19  35  54  75 110 149 182 250 284 327
#     4  10  23  40  59  85 119 159 194 245 302 362
#     4  10  21  40  59  86 120 154 196 245 298 366
#     4  10  21  42  66  94 128 165 203 259 313 377
#     4  10  18  35  55  75 110 149 186 229 299 328
#     4  12  21  40  57  78 115 154 198 243 296 341
#
# _framework density 23.900129
#
# number of rings (size 3 to 8) (size 9 to 14) (size 15 to 20)
#    0.000    1.714    2.857    2.571    0.000    0.000 
#   18.000    1.429    0.000    0.000    0.000    0.000 
#    0.000    0.000    0.000    0.000    0.000    0.000 
#
# Total GULP energy -78017.462231 kJ/mol
# GULP energy per Si atom -5572.675874 kJ/mol
# Density = 2.384573 g / cm^3
# Si number density = 23.900129 Si / 1000 Ang^3
#
#
#
# Elastic Constant Matrix: (Units=GPa)
#
#
# Indices 1 2 3 4 5 6 
#
# 1 46.3038 15.6523 18.1745 0.0000 18.6921 0.0000
# 2 15.6523 91.7937 14.0197 0.0000 19.0417 0.0000
# 3 18.1745 14.0197 150.1219 0.0000 37.7821 0.0000
# 4 0.0000 0.0000 0.0000 26.1589 0.0000 5.6561
# 5 18.6921 19.0417 37.7821 0.0000 32.0756 0.0000
# 6 0.0000 0.0000 0.0000 5.6561 0.0000 34.2818
#
#
#
# Elastic Compliance Matrix: (Units=1/GPa)
#
#
# Indices 1 2 3 4 5 6 
#
# 1 0.028535 -0.001519 0.000917 0.000000 -0.016807 0.000000
# 2 -0.001519 0.012609 0.000949 0.000000 -0.007718 0.000000
# 3 0.000917 0.000949 0.009577 0.000000 -0.012379 0.000000
# 4 0.000000 0.000000 0.000000 0.039642 0.000000 -0.006540
# 5 -0.016807 -0.007718 -0.012379 0.000000 0.060133 0.000000
# 6 0.000000 0.000000 0.000000 -0.006540 0.000000 0.030249
#
#
# Mechanical properties :
#
#
# Convention : Reuss Voigt Hill
#
# Bulk Modulus (GPa) = 19.44976 42.65695 31.05336
# Shear Modulus (GPa) = 25.35627 34.52813 29.94220
#
# Velocity S-wave (km/s) = 3.26072 3.80502 3.54334
# Velocity P-wave (km/s) = 4.72567 6.09844 5.45541
#
# Compressibility (1/GPa) = 0.05141451
#
# Stress axis : x y z
#
# Youngs Moduli (GPa) = 35.04483 79.30798 104.41685
#
# Poissons Ratio (x) = 0.12049 -0.09578
# Poissons Ratio (y) = 0.05324 -0.09906
# Poissons Ratio (z) = -0.03215 -0.07524
#
# Static dielectric constant tensor:
#      x y z
#    x 1.973080 0.000000 0.038340 
#    y 0.000000 1.982710 0.000000 
#    z 0.038340 0.000000 2.010420 
# 
# From -- ./inp_files/1171.got.cif
#   From: 2010.05.17/outbox.cif.g08.bks.cpg/sg9_1_cif.got.tgz:1171.got - 2010.06.03 20:04:27.
