data_PCOD9134491
_publ_section_title
;
Structure prediction by ZEFSAII (Michael W. Deem and Ramdas Pophale) SiO2 
 PCOD9134491
Probable space group: C C
;
_chemical_formula_sum "Si O2"
_cell_formula_units_Z 32
_cell_length_a 9.246135
_cell_length_b 14.569475
_cell_length_c 22.602818
_cell_angle_alpha 90.000000
_cell_angle_beta 37.315503
_cell_angle_gamma 90.000000
_cell_volume 1845.802558
_symmetry_space_group_name_H-M "C C"
_symmetry_group_IT_number 9
_symmetry_cell_setting 'monoclinic'
loop_
_space_group_symop_operation_xyz
x,y,z
x,-y,1/2+z
1/2+x,1/2+y,z
1/2+x,1/2-y,1/2+z
loop_
_atom_site_type_symbol
_atom_site_label
_atom_site_fract_x
_atom_site_fract_y
_atom_site_fract_z
Si Si1 0.707420 0.658077 0.666630
Si Si2 0.430474 0.347500 0.134158
Si Si3 0.973083 0.532589 0.786108
Si Si4 0.635692 0.151646 0.048087
Si Si5 0.055818 0.482148 0.003409
Si Si6 0.531168 0.573051 0.845023
Si Si7 0.746171 0.512521 0.988569
Si Si8 0.788963 0.868071 0.634426
O O1 0.523100 0.648771 0.671938
O O2 0.613133 0.605027 0.754315
O O3 0.750230 0.764188 0.667557
O O4 0.948712 0.611263 0.563436
O O5 0.161529 0.383957 0.219248
O O6 0.485884 0.244665 0.095020
O O7 0.589865 0.419396 0.044901
O O8 0.114229 0.440412 0.722450
O O9 0.753905 0.548675 0.813237
O O10 0.875323 0.522981 0.884154
O O11 0.727471 0.133132 0.084452
O O12 0.493866 0.063356 0.070094
O O13 0.868725 0.151442 0.929778
O O14 0.340926 0.489346 0.904363
O O15 0.932537 0.507049 0.981632
O O16 0.555904 0.594748 0.057309
#
# Coordination Sequence:
#
# PCOD9134491 Si02
#       8
#     4   4   4   4   4   4   4   4
#     4  10  20  39  58  83 113 149 189 229 288 333
#     4   9  21  36  60  79 116 146 186 239 279 336
#     4  11  21  35  60  84 114 150 190 230 282 341
#     4   9  19  39  56  81 115 148 182 238 282 322
#     4   9  20  36  59  78 116 147 181 239 274 336
#     4  10  21  35  60  81 114 145 192 228 282 336
#     4  10  19  37  55  85 112 147 189 226 288 329
#     4  10  21  37  58  85 114 148 185 241 275 337
#
# _framework density 17.336631000000001
#
# number of rings (size 3 to 8) (size 9 to 14) (size 15 to 20)
#    0.750    1.500    1.250    1.500    1.750    1.000 
#    0.000    5.000    0.000    0.000    0.000    0.000 
#    0.000    0.000    0.000    0.000    0.000    0.000 
#
# Total GULP energy -89151.581189 kJ/mol
# GULP energy per Si atom -5571.973824 kJ/mol
# Density = 1.729717 g / cm^3
# Si number density = 17.336631 Si / 1000 Ang^3
#
#
#
# Elastic Constant Matrix: (Units=GPa)
#
#
# Indices 1 2 3 4 5 6 
#
# 1 65.7765 30.5476 40.6225 0.0007 -20.1390 -0.0008
# 2 30.5476 80.0552 31.5173 -0.0005 -17.5577 -0.0001
# 3 40.6225 31.5173 103.1127 -0.0025 -9.7259 -0.0025
# 4 0.0007 -0.0005 -0.0025 14.5084 -0.0002 -0.0307
# 5 -20.1390 -17.5577 -9.7259 -0.0002 25.8428 0.0007
# 6 -0.0008 -0.0001 -0.0025 -0.0307 0.0007 20.9180
#
#
#
# Elastic Compliance Matrix: (Units=1/GPa)
#
#
# Indices 1 2 3 4 5 6 
#
# 1 0.026377 -0.003661 -0.007847 -0.000003 0.015115 0.000000
# 2 -0.003661 0.016666 -0.002958 0.000000 0.007357 -0.000001
# 3 -0.007847 -0.002958 0.013403 0.000003 -0.003081 0.000001
# 4 -0.000003 0.000000 0.000003 0.068926 0.000000 0.000101
# 5 0.015115 0.007357 -0.003081 0.000000 0.054314 -0.000002
# 6 0.000000 -0.000001 0.000001 0.000101 -0.000002 0.047806
#
#
# Mechanical properties :
#
#
# Convention : Reuss Voigt Hill
#
# Bulk Modulus (GPa) = 36.34361 50.47990 43.41175
# Shear Modulus (GPa) = 18.82566 22.00431 20.41498
#
# Velocity S-wave (km/s) = 3.29886 3.56650 3.43529
# Velocity P-wave (km/s) = 5.95978 6.79269 6.38982
#
# Compressibility (1/GPa) = 0.02751515
#
# Stress axis : x y z
#
# Youngs Moduli (GPa) = 37.91171 60.00098 74.60945
#
# Poissons Ratio (x) = 0.21964 0.58546
# Poissons Ratio (y) = 0.13878 0.22070
# Poissons Ratio (z) = 0.29749 0.17749
#
# Static dielectric constant tensor:
#      x y z
#    x 1.572410 0.000000 -0.004490 
#    y 0.000000 1.579860 0.000000 
#    z -0.004490 0.000000 1.574790 
# 
# From -- ./inp_files/23097.got.cif
#   From: 2010.05.17/outbox.cif.g08.bks.cpg/sg9_12_cif.got.tgz:23097.got - 2010.06.03 20:04:27.
