data_PCOD9134177
_publ_section_title
;
Structure prediction by ZEFSAII (Michael W. Deem and Ramdas Pophale) SiO2 
 PCOD9134177
Probable space group: C C
;
_chemical_formula_sum "Si O2"
_cell_formula_units_Z 32
_cell_length_a 9.336729
_cell_length_b 16.426620
_cell_length_c 20.674908
_cell_angle_alpha 90.000000
_cell_angle_beta 154.278852
_cell_angle_gamma 90.000000
_cell_volume 1376.156793
_symmetry_space_group_name_H-M "C C"
_symmetry_group_IT_number 9
_symmetry_cell_setting 'monoclinic'
loop_
_space_group_symop_operation_xyz
x,y,z
x,-y,1/2+z
1/2+x,1/2+y,z
1/2+x,1/2-y,1/2+z
loop_
_atom_site_type_symbol
_atom_site_label
_atom_site_fract_x
_atom_site_fract_y
_atom_site_fract_z
Si Si1 0.810160 0.622741 0.547020
Si Si2 0.960247 0.844573 0.710228
Si Si3 0.301458 0.838413 0.377228
Si Si4 0.796170 0.007938 0.370276
Si Si5 0.816050 0.261462 0.759348
Si Si6 0.701871 0.621481 0.099407
Si Si7 0.364953 0.514971 0.743187
Si Si8 0.725732 0.220680 0.238881
O O1 0.596994 0.569740 0.510002
O O2 0.533420 0.675349 0.398810
O O3 0.088137 0.684375 0.684492
O O4 0.014204 0.559167 0.585324
O O5 0.689291 0.845469 0.543462
O O6 0.837281 0.777150 0.710922
O O7 0.301959 0.820635 0.815221
O O8 0.924287 0.929136 0.733368
O O9 0.190294 0.804648 0.262693
O O10 0.156873 0.773013 0.370373
O O11 0.138431 0.922847 0.330214
O O12 0.455873 0.057196 0.236704
O O13 0.844270 0.992407 0.312727
O O14 0.882532 0.926307 0.444218
O O15 0.659206 0.307005 0.633505
O O16 0.908598 0.662887 0.124271
#
# Coordination Sequence:
#
# PCOD9134177 Si02
#       8
#     4   4   4   4   4   4   4   4
#     4  10  18  39  59  90 120 171 207 258 305 391
#     4  12  22  42  66  94 128 169 210 273 325 381
#     4  10  23  43  63  92 129 166 215 271 315 395
#     4  11  19  39  67  94 119 176 216 262 315 400
#     4  10  24  43  61  93 129 164 209 274 323 376
#     4  10  21  40  65  92 128 164 217 264 318 387
#     4  11  21  36  66  93 128 164 226 254 323 381
#     4  10  20  40  65  88 129 166 216 260 322 381
#
# _framework density 23.253164000000002
#
# number of rings (size 3 to 8) (size 9 to 14) (size 15 to 20)
#    0.000    1.500    5.000    1.500    0.000    0.000 
#   13.500    1.250    0.000    0.000    0.000    0.000 
#    0.000    0.000    0.000    0.000    0.000    0.000 
#
# Total GULP energy -89350.397353 kJ/mol
# GULP energy per Si atom -5584.399835 kJ/mol
# Density = 2.320024 g / cm^3
# Si number density = 23.253164 Si / 1000 Ang^3
#
#
#
# Elastic Constant Matrix: (Units=GPa)
#
#
# Indices 1 2 3 4 5 6 
#
# 1 77.6983 29.8004 -8.6627 0.0016 3.1180 0.0036
# 2 29.8004 100.8000 10.1773 -0.0174 -7.1303 -0.0037
# 3 -8.6627 10.1773 32.5133 0.0011 6.6001 -0.0270
# 4 0.0016 -0.0174 0.0011 27.1010 0.0031 0.6973
# 5 3.1180 -7.1303 6.6001 0.0031 20.2822 -0.0035
# 6 0.0036 -0.0037 -0.0270 0.6973 -0.0035 22.4109
#
#
#
# Elastic Compliance Matrix: (Units=1/GPa)
#
#
# Indices 1 2 3 4 5 6 
#
# 1 0.016373 -0.006131 0.007741 -0.000005 -0.007192 0.000005
# 2 -0.006131 0.013031 -0.007317 0.000008 0.007905 -0.000005
# 3 0.007741 -0.007317 0.038411 -0.000006 -0.016262 0.000041
# 4 -0.000005 0.000008 -0.000006 0.036929 0.000000 -0.001149
# 5 -0.007192 0.007905 -0.016262 0.000000 0.058481 -0.000008
# 6 0.000005 -0.000005 0.000041 -0.001149 -0.000008 0.044657
#
#
# Mechanical properties :
#
#
# Convention : Reuss Voigt Hill
#
# Bulk Modulus (GPa) = 17.72985 30.40464 24.06725
# Shear Modulus (GPa) = 20.99999 25.93859 23.46929
#
# Velocity S-wave (km/s) = 3.00843 3.34351 3.18039
# Velocity P-wave (km/s) = 4.43946 5.29238 4.88457
#
# Compressibility (1/GPa) = 0.05640205
#
# Stress axis : x y z
#
# Youngs Moduli (GPa) = 61.07436 76.73928 26.03436
#
# Poissons Ratio (x) = 0.47049 -0.20154
# Poissons Ratio (y) = 0.37445 0.19050
# Poissons Ratio (z) = -0.47281 0.56151
#
# Static dielectric constant tensor:
#      x y z
#    x 1.859230 0.000000 -0.009100 
#    y 0.000000 1.921140 -0.000020 
#    z -0.009100 -0.000020 1.943990 
# 
# From -- ./inp_files/27829.got.cif
#   From: 2010.05.17/outbox.cif.g08.bks.cpg/sg9_14_cif.got.tgz:27829.got - 2010.06.03 20:04:27.
