data_PCOD9134011
_publ_section_title
;
Structure prediction by ZEFSAII (Michael W. Deem and Ramdas Pophale) SiO2 
 PCOD9134011
Probable space group: C C
;
_chemical_formula_sum "Si O2"
_cell_formula_units_Z 32
_cell_length_a 14.390836
_cell_length_b 10.486015
_cell_length_c 22.986256
_cell_angle_alpha 90.000000
_cell_angle_beta 158.404558
_cell_angle_gamma 90.000000
_cell_volume 1276.651180
_symmetry_space_group_name_H-M "C C"
_symmetry_group_IT_number 9
_symmetry_cell_setting 'monoclinic'
loop_
_space_group_symop_operation_xyz
x,y,z
x,-y,1/2+z
1/2+x,1/2+y,z
1/2+x,1/2-y,1/2+z
loop_
_atom_site_type_symbol
_atom_site_label
_atom_site_fract_x
_atom_site_fract_y
_atom_site_fract_z
Si Si1 0.581380 0.738284 0.585820
Si Si2 0.301833 0.708834 0.586857
Si Si3 0.786509 0.530291 0.879268
Si Si4 0.013463 0.485478 0.380823
Si Si5 0.588813 0.270045 0.950835
Si Si6 0.534417 0.446143 0.411260
Si Si7 0.563159 0.802163 0.075547
Si Si8 0.009967 0.978872 0.530760
O O1 0.466827 0.878235 0.521453
O O2 0.638736 0.729291 0.549083
O O3 0.402469 0.613951 0.491288
O O4 0.800657 0.742087 0.761745
O O5 0.542166 0.618865 0.734382
O O6 0.133688 0.622893 0.447161
O O7 0.276691 0.852236 0.549529
O O8 0.172681 0.715467 0.574541
O O9 0.884291 0.515526 0.869946
O O10 0.816217 0.391929 0.925495
O O11 0.201144 0.363802 0.492348
O O12 0.805875 0.483093 0.209826
O O13 0.626177 0.411588 0.947483
O O14 0.294116 0.376655 0.241457
O O15 0.443556 0.463060 0.425147
O O16 0.490281 0.657544 0.050717
#
# Coordination Sequence:
#
# PCOD9134011 Si02
#       8
#     4   4   4   4   4   4   4   4
#     4   9  17  32  52  83 110 148 194 234 293 355
#     4  10  21  36  57  86 114 152 202 242 295 359
#     4  10  20  36  59  84 116 155 198 243 296 362
#     4   9  18  36  59  81 114 155 191 238 302 354
#     4   9  17  31  56  80 109 151 190 232 295 354
#     4  10  18  34  57  85 113 149 198 245 291 350
#     4  10  19  36  59  82 117 158 194 244 299 354
#     4   9  18  33  57  85 111 152 195 236 295 354
#
# _framework density 25.065577999999999
#
# number of rings (size 3 to 8) (size 9 to 14) (size 15 to 20)
#    0.000    2.500    2.500    0.000    0.000    0.000 
#    6.750    1.250    2.750    0.000    0.000    0.000 
#    0.000    0.000    0.000    0.000    0.000    0.000 
#
# Total GULP energy -89074.773405 kJ/mol
# GULP energy per Si atom -5567.173338 kJ/mol
# Density = 2.500853 g / cm^3
# Si number density = 25.065578 Si / 1000 Ang^3
#
#
#
# Elastic Constant Matrix: (Units=GPa)
#
#
# Indices 1 2 3 4 5 6 
#
# 1 100.0124 11.5411 11.6969 0.0014 -13.0128 -0.0014
# 2 11.5411 241.1311 9.4626 0.0037 -7.1113 -0.0002
# 3 11.6969 9.4626 51.8175 0.0096 -32.6860 -0.0002
# 4 0.0014 0.0037 0.0096 28.8409 0.0037 -7.3485
# 5 -13.0128 -7.1113 -32.6860 0.0037 28.3446 -0.0016
# 6 -0.0014 -0.0002 -0.0002 -7.3485 -0.0016 1.5150
#
#
#
# Elastic Compliance Matrix: (Units=1/GPa)
#
#
# Indices 1 2 3 4 5 6 
#
# 1 0.010758 -0.000385 0.002555 -0.000010 0.007788 -0.000030
# 2 -0.000385 0.004194 -0.000465 0.000001 0.000339 0.000006
# 3 0.002555 -0.000465 0.071435 0.000036 0.083433 0.000276
# 4 -0.000010 0.000001 0.000036 -0.146974 0.000016 -0.712913
# 5 0.007788 0.000339 0.083433 0.000016 0.135152 0.000240
# 6 -0.000030 0.000006 0.000276 -0.712913 0.000240 -2.797988
#
#
# Mechanical properties :
#
#
# Convention : Reuss Voigt Hill
#
# Bulk Modulus (GPa) = 11.13648 50.92914 31.03281
# Shear Modulus (GPa) = -1.85398 35.75745 16.95173
#
# Velocity S-wave (km/s) = -0.86096 3.78108 2.60339
# Velocity P-wave (km/s) = 1.86125 6.27889 4.63081
#
# Compressibility (1/GPa) = 0.08979498
#
# Stress axis : x y z
#
# Youngs Moduli (GPa) = 92.95606 238.44631 13.99869
#
# Poissons Ratio (x) = 0.09191 -0.03576
# Poissons Ratio (y) = 0.03583 0.00651
# Poissons Ratio (z) = -0.23746 0.11088
#
# Static dielectric constant tensor:
#      x y z
#    x 1.988760 0.000000 0.128390 
#    y 0.000000 2.148550 -0.000020 
#    z 0.128390 -0.000020 2.214670 
# 
# From -- ./inp_files/36889.got.cif
#   From: 2010.05.17/outbox.cif.g08.bks.cpg/sg9_19_cif.got.tgz:36889.got - 2010.06.03 20:04:27.
