data_PCOD9134889
_publ_section_title
;
Structure prediction by ZEFSAII (Michael W. Deem and Ramdas Pophale) SiO2 
 PCOD9134889
Probable space group: C C
;
_chemical_formula_sum "Si O2"
_cell_formula_units_Z 32
_cell_length_a 15.132587
_cell_length_b 23.370556
_cell_length_c 8.476385
_cell_angle_alpha 90.000000
_cell_angle_beta 25.743913
_cell_angle_gamma 90.000000
_cell_volume 1302.063878
_symmetry_space_group_name_H-M "C C"
_symmetry_group_IT_number 9
_symmetry_cell_setting 'monoclinic'
loop_
_space_group_symop_operation_xyz
x,y,z
x,-y,1/2+z
1/2+x,1/2+y,z
1/2+x,1/2-y,1/2+z
loop_
_atom_site_type_symbol
_atom_site_label
_atom_site_fract_x
_atom_site_fract_y
_atom_site_fract_z
Si Si1 0.704190 0.011375 0.934780
Si Si2 0.625399 0.442203 0.609276
Si Si3 0.210974 0.321363 0.512274
Si Si4 0.234589 0.062640 0.280675
Si Si5 0.872080 0.772144 0.540420
Si Si6 0.773682 0.077971 0.115305
Si Si7 0.989812 0.612804 0.130666
Si Si8 0.603469 0.668362 0.923520
O O1 0.913634 0.036379 0.525910
O O2 0.720826 0.944835 0.870347
O O3 0.712934 0.023528 0.104989
O O4 0.527179 0.050906 0.150186
O O5 0.716015 0.495792 0.364897
O O6 0.587629 0.384633 0.570223
O O7 0.752896 0.431478 0.563565
O O8 0.391335 0.295716 0.329089
O O9 0.149511 0.371080 0.735607
O O10 0.059315 0.269660 0.757067
O O11 0.185105 0.350604 0.382277
O O12 0.411195 0.097099 0.084775
O O13 0.013498 0.086116 0.695775
O O14 0.913961 0.819434 0.609317
O O15 0.675923 0.730227 0.878677
O O16 0.799153 0.647621 0.507977
#
# Coordination Sequence:
#
# PCOD9134889 Si02
#       8
#     4   4   4   4   4   4   4   4
#     4   9  20  35  53  83 118 152 189 226 291 364
#     4  10  21  38  59  84 122 164 194 240 297 358
#     4   9  18  33  55  82 111 144 193 248 288 335
#     4  10  20  34  57  89 122 157 197 233 293 370
#     4   9  19  35  59  87 110 149 209 251 291 352
#     4   9  18  34  54  80 116 155 189 233 287 352
#     4  10  20  35  57  87 117 148 192 244 292 352
#     4  10  20  38  64  88 114 155 205 255 295 343
#
# _framework density 24.576366
#
# number of rings (size 3 to 8) (size 9 to 14) (size 15 to 20)
#    0.000    2.500    0.000    1.500    0.000    9.000 
#    0.000    3.750    0.000   45.000    0.000    0.000 
#    0.000    0.000    0.000    0.000    0.000    0.000 
#
# Total GULP energy -89135.959612 kJ/mol
# GULP energy per Si atom -5570.997476 kJ/mol
# Density = 2.452043 g / cm^3
# Si number density = 24.576366 Si / 1000 Ang^3
#
#
#
# Elastic Constant Matrix: (Units=GPa)
#
#
# Indices 1 2 3 4 5 6 
#
# 1 173.5580 69.4941 20.8562 0.0011 -23.4025 -0.0023
# 2 69.4941 131.1608 25.1239 0.0005 -1.4391 -0.0006
# 3 20.8562 25.1239 31.3705 0.0018 3.9244 -0.0018
# 4 0.0011 0.0005 0.0018 29.0222 -0.0009 -7.9159
# 5 -23.4025 -1.4391 3.9244 -0.0009 25.1704 0.0021
# 6 -0.0023 -0.0006 -0.0018 -7.9159 0.0021 64.8253
#
#
#
# Elastic Compliance Matrix: (Units=1/GPa)
#
#
# Indices 1 2 3 4 5 6 
#
# 1 0.008977 -0.003907 -0.003932 0.000000 0.008736 0.000000
# 2 -0.003907 0.010776 -0.005768 0.000000 -0.002117 0.000000
# 3 -0.003932 -0.005768 0.040397 -0.000002 -0.010284 0.000001
# 4 0.000000 0.000000 -0.000002 0.035644 0.000001 0.004352
# 5 0.008736 -0.002117 -0.010284 0.000001 0.049333 -0.000001
# 6 0.000000 0.000000 0.000001 0.004352 -0.000001 0.015958
#
#
# Mechanical properties :
#
#
# Convention : Reuss Voigt Hill
#
# Bulk Modulus (GPa) = 30.36171 63.00420 46.68296
# Shear Modulus (GPa) = 25.09086 38.51124 31.80105
#
# Velocity S-wave (km/s) = 3.19867 3.96283 3.60108
# Velocity P-wave (km/s) = 5.10126 6.82865 6.02716
#
# Compressibility (1/GPa) = 0.03293622
#
# Stress axis : x y z
#
# Youngs Moduli (GPa) = 111.40060 92.79878 24.75452
#
# Poissons Ratio (x) = 0.36258 0.09732
# Poissons Ratio (y) = 0.43527 0.14278
# Poissons Ratio (z) = 0.43798 0.53524
#
# Static dielectric constant tensor:
#      x y z
#    x 2.036250 0.000000 -0.071600 
#    y 0.000000 2.025650 0.000000 
#    z -0.071600 0.000000 1.980170 
# 
# From -- ./inp_files/10152.got.cif
#   From: 2010.05.17/outbox.cif.g08.bks.cpg/sg9_6_cif.got.tgz:10152.got - 2010.06.03 20:04:27.
