data_PCOD9134197
_publ_section_title
;
Structure prediction by ZEFSAII (Michael W. Deem and Ramdas Pophale) SiO2 
 PCOD9134197
Probable space group: C C
;
_chemical_formula_sum "Si O2"
_cell_formula_units_Z 28
_cell_length_a 11.660964
_cell_length_b 7.376665
_cell_length_c 26.046944
_cell_angle_alpha 90.000000
_cell_angle_beta 150.569592
_cell_angle_gamma 90.000000
_cell_volume 1100.921727
_symmetry_space_group_name_H-M "C C"
_symmetry_group_IT_number 9
_symmetry_cell_setting 'monoclinic'
loop_
_space_group_symop_operation_xyz
x,y,z
x,-y,1/2+z
1/2+x,1/2+y,z
1/2+x,1/2-y,1/2+z
loop_
_atom_site_type_symbol
_atom_site_label
_atom_site_fract_x
_atom_site_fract_y
_atom_site_fract_z
Si Si1 0.326780 0.564109 0.241850
Si Si2 0.487161 0.321073 0.609956
Si Si3 0.403436 0.709029 0.578845
Si Si4 0.009080 0.670708 0.505260
Si Si5 0.720826 0.295766 0.401065
Si Si6 0.160461 0.171750 0.285671
Si Si7 0.432848 0.788197 0.384749
O O1 0.461169 0.372867 0.294704
O O2 0.424390 0.642698 0.226196
O O3 0.421394 0.672765 0.328431
O O4 0.053733 0.608396 0.137798
O O5 0.562884 0.531833 0.637207
O O6 0.535622 0.245190 0.572486
O O7 0.588015 0.245999 0.703031
O O8 0.204283 0.316623 0.503455
O O9 0.250356 0.705360 0.467463
O O10 0.253642 0.683873 0.571496
O O11 0.891981 0.472493 0.466697
O O12 0.832894 0.762694 0.394875
O O13 0.803858 0.192375 0.382677
O O14 0.293323 0.979457 0.326028
#
# Coordination Sequence:
#
# PCOD9134197 Si02
#       7
#     4   4   4   4   4   4   4
#     4  10  21  41  68  95 133 177 227 261 344 400
#     4  12  21  42  73  96 136 180 224 273 336 393
#     4  12  24  42  68  99 130 179 228 270 335 406
#     4  10  24  45  63  99 141 169 227 280 326 395
#     4  10  23  42  65  95 137 170 218 284 326 385
#     4  10  21  40  68  99 133 177 220 278 331 392
#     4  10  18  40  69  95 126 180 220 274 326 397
#
# _framework density 25.433233999999999
#
# number of rings (size 3 to 8) (size 9 to 14) (size 15 to 20)
#    0.000    1.714    7.143    0.857    0.000    1.143 
#    7.714    2.857    0.000    0.000    0.000    0.000 
#    0.000    0.000    0.000    0.000    0.000    0.000 
#
# Total GULP energy -78237.219781 kJ/mol
# GULP energy per Si atom -5588.372842 kJ/mol
# Density = 2.537535 g / cm^3
# Si number density = 25.433234 Si / 1000 Ang^3
#
#
#
# Elastic Constant Matrix: (Units=GPa)
#
#
# Indices 1 2 3 4 5 6 
#
# 1 222.7814 39.2520 59.1773 0.0000 -26.5223 0.0000
# 2 39.2520 52.4538 15.0474 0.0000 -12.8103 0.0000
# 3 59.1773 15.0474 118.0892 0.0001 -40.9893 0.0000
# 4 0.0000 0.0000 0.0001 32.0575 0.0000 -6.0712
# 5 -26.5223 -12.8103 -40.9893 0.0000 65.2891 0.0000
# 6 0.0000 0.0000 0.0000 -6.0712 0.0000 25.5847
#
#
#
# Elastic Compliance Matrix: (Units=1/GPa)
#
#
# Indices 1 2 3 4 5 6 
#
# 1 0.005774 -0.003602 -0.002385 0.000000 0.000141 0.000000
# 2 -0.003602 0.022486 -0.000047 0.000000 0.002919 0.000000
# 3 -0.002385 -0.000047 0.011930 0.000000 0.006511 0.000000
# 4 0.000000 0.000000 0.000000 0.032662 0.000000 0.007751
# 5 0.000141 0.002919 0.006511 0.000000 0.020035 0.000000
# 6 0.000000 0.000000 0.000000 0.007751 0.000000 0.040925
#
#
# Mechanical properties :
#
#
# Convention : Reuss Voigt Hill
#
# Bulk Modulus (GPa) = 35.56053 68.91975 52.24014
# Shear Modulus (GPa) = 32.20549 43.24279 37.72414
#
# Velocity S-wave (km/s) = 3.56234 4.12788 3.85549
# Velocity P-wave (km/s) = 5.56171 7.06232 6.35645
#
# Compressibility (1/GPa) = 0.02812107
#
# Stress axis : x y z
#
# Youngs Moduli (GPa) = 173.19766 44.47187 83.82466
#
# Poissons Ratio (x) = 0.16018 0.19996
# Poissons Ratio (y) = 0.62382 0.00394
# Poissons Ratio (z) = 0.41315 0.00209
#
# Static dielectric constant tensor:
#      x y z
#    x 1.965170 0.000000 0.006490 
#    y 0.000000 2.091240 0.000000 
#    z 0.006490 0.000000 2.062640 
# 
# From -- ./inp_files/29788.got.cif
#   From: 2010.05.17/outbox.cif.g08.bks.cpg/sg9_15_cif.got.tgz:29788.got - 2010.06.03 20:04:27.
