data_PCOD9134342
_publ_section_title
;
Structure prediction by ZEFSAII (Michael W. Deem and Ramdas Pophale) SiO2 
 PCOD9134342
Probable space group: C C
;
_chemical_formula_sum "Si O2"
_cell_formula_units_Z 32
_cell_length_a 21.217390
_cell_length_b 7.644435
_cell_length_c 13.475278
_cell_angle_alpha 90.000000
_cell_angle_beta 40.802990
_cell_angle_gamma 90.000000
_cell_volume 1428.216890
_symmetry_space_group_name_H-M "C C"
_symmetry_group_IT_number 9
_symmetry_cell_setting 'monoclinic'
loop_
_space_group_symop_operation_xyz
x,y,z
x,-y,1/2+z
1/2+x,1/2+y,z
1/2+x,1/2-y,1/2+z
loop_
_atom_site_type_symbol
_atom_site_label
_atom_site_fract_x
_atom_site_fract_y
_atom_site_fract_z
Si Si1 0.647540 0.278910 0.864930
Si Si2 0.198762 0.605708 0.301925
Si Si3 0.480965 0.156479 0.166841
Si Si4 0.670728 0.389188 0.626301
Si Si5 0.035043 0.250377 0.118723
Si Si6 0.813834 0.670175 0.512073
Si Si7 0.845728 0.541369 0.165635
Si Si8 0.820910 0.196700 0.330925
O O1 0.627395 0.381288 0.787920
O O2 0.751590 0.340844 0.775631
O O3 0.652063 0.076057 0.829089
O O4 0.570531 0.283781 0.044529
O O5 0.264913 0.681428 0.136696
O O6 0.262302 0.573104 0.326091
O O7 0.113432 0.739441 0.435853
O O8 0.398702 0.223643 0.338021
O O9 0.434154 0.134939 0.113155
O O10 0.512237 0.959106 0.163325
O O11 0.590165 0.341560 0.642767
O O12 0.729891 0.570085 0.551988
O O13 0.755510 0.244326 0.503753
O O14 0.932327 0.161146 0.219870
O O15 0.857749 0.533117 0.540494
O O16 0.824378 0.375100 0.261256
#
# Coordination Sequence:
#
# PCOD9134342 Si02
#       8
#     4   4   4   4   4   4   4   4
#     4  10  22  37  59  89 118 150 196 252 292 348
#     4   9  20  38  57  86 120 148 190 248 300 343
#     4  10  20  38  61  89 112 165 201 234 299 364
#     4  10  19  34  60  89 114 151 200 240 289 354
#     4   9  18  35  60  85 109 154 202 233 279 361
#     4  10  19  37  64  84 118 160 194 238 299 355
#     4   9  19  37  63  81 117 153 204 244 279 363
#     4   9  17  38  62  79 112 161 195 235 291 356
#
# _framework density 22.405559
#
# number of rings (size 3 to 8) (size 9 to 14) (size 15 to 20)
#    0.000    2.500    2.500    0.000    1.750    0.000 
#    6.750    6.250    2.750    0.000    0.000    0.000 
#    0.000    0.000    0.000    0.000    0.000    0.000 
#
# Total GULP energy -89338.447578 kJ/mol
# GULP energy per Si atom -5583.652974 kJ/mol
# Density = 2.235456 g / cm^3
# Si number density = 22.405559 Si / 1000 Ang^3
#
#
#
# Elastic Constant Matrix: (Units=GPa)
#
#
# Indices 1 2 3 4 5 6 
#
# 1 89.8091 18.9337 38.0117 0.0003 -14.0107 -0.0001
# 2 18.9337 27.8758 30.2794 0.0009 3.6954 -0.0006
# 3 38.0117 30.2794 153.8001 0.0006 -8.9502 -0.0003
# 4 0.0003 0.0009 0.0006 27.7682 -0.0002 -6.0933
# 5 -14.0107 3.6954 -8.9502 -0.0002 27.1948 0.0001
# 6 -0.0001 -0.0006 -0.0003 -6.0933 0.0001 17.0677
#
#
#
# Elastic Compliance Matrix: (Units=1/GPa)
#
#
# Indices 1 2 3 4 5 6 
#
# 1 0.015162 -0.010107 -0.001247 0.000000 0.008775 0.000000
# 2 -0.010107 0.054819 -0.009207 -0.000001 -0.015687 0.000001
# 3 -0.001247 -0.009207 0.008827 0.000000 0.003514 0.000000
# 4 0.000000 -0.000001 0.000000 0.039073 0.000001 0.013950
# 5 0.008775 -0.015687 0.003514 0.000001 0.044580 0.000000
# 6 0.000000 0.000001 0.000000 0.013950 0.000000 0.063570
#
#
# Mechanical properties :
#
#
# Convention : Reuss Voigt Hill
#
# Bulk Modulus (GPa) = 26.53525 49.54829 38.04177
# Shear Modulus (GPa) = 17.87516 26.69015 22.28265
#
# Velocity S-wave (km/s) = 2.82760 3.45516 3.15701
# Velocity P-wave (km/s) = 4.74650 6.17089 5.50496
#
# Compressibility (1/GPa) = 0.03768572
#
# Stress axis : x y z
#
# Youngs Moduli (GPa) = 65.95372 18.24180 113.28490
#
# Poissons Ratio (x) = 0.18437 0.14125
# Poissons Ratio (y) = 0.66661 1.04306
# Poissons Ratio (z) = 0.08223 0.16796
#
# Static dielectric constant tensor:
#      x y z
#    x 1.836650 0.000000 -0.003740 
#    y 0.000000 1.871470 0.000000 
#    z -0.003740 0.000000 1.846680 
# 
# From -- ./inp_files/26669.got.cif
#   From: 2010.05.17/outbox.cif.g08.bks.cpg/sg9_14_cif.got.tgz:26669.got - 2010.06.03 20:04:27.
