data_PCOD9134094
_publ_section_title
;
Structure prediction by ZEFSAII (Michael W. Deem and Ramdas Pophale) SiO2 
 PCOD9134094
Probable space group: C C
;
_chemical_formula_sum "Si O2"
_cell_formula_units_Z 32
_cell_length_a 7.268693
_cell_length_b 11.744495
_cell_length_c 21.501648
_cell_angle_alpha 90.000000
_cell_angle_beta 129.903960
_cell_angle_gamma 90.000000
_cell_volume 1408.076302
_symmetry_space_group_name_H-M "C C"
_symmetry_group_IT_number 9
_symmetry_cell_setting 'monoclinic'
loop_
_space_group_symop_operation_xyz
x,y,z
x,-y,1/2+z
1/2+x,1/2+y,z
1/2+x,1/2-y,1/2+z
loop_
_atom_site_type_symbol
_atom_site_label
_atom_site_fract_x
_atom_site_fract_y
_atom_site_fract_z
Si Si1 0.972670 0.589114 0.604110
Si Si2 0.762813 0.639921 0.875839
Si Si3 0.946457 0.856124 0.861423
Si Si4 0.551887 0.152206 0.176629
Si Si5 0.560643 0.450289 0.458865
Si Si6 0.180994 0.717463 0.530233
Si Si7 0.281707 0.758369 0.731726
Si Si8 0.397113 0.098146 0.376862
O O1 0.081829 0.471568 0.653679
O O2 0.707655 0.544976 0.529341
O O3 0.098081 0.636756 0.568857
O O4 0.038693 0.688566 0.667323
O O5 0.917693 0.752174 0.901391
O O6 0.723549 0.602175 0.938268
O O7 0.500788 0.667926 0.789548
O O8 0.888148 0.536281 0.867557
O O9 0.787494 0.824534 0.767254
O O10 0.207878 0.874659 0.890805
O O11 0.868747 0.974026 0.878797
O O12 0.449290 0.239114 0.103324
O O13 0.347195 0.164581 0.186062
O O14 0.523826 0.335750 0.490690
O O15 0.140386 0.648080 0.458022
O O16 0.305730 0.836308 0.797040
#
# Coordination Sequence:
#
# PCOD9134094 Si02
#       8
#     4   4   4   4   4   4   4   4
#     4  10  18  36  61  87 118 161 196 248 303 356
#     4  10  20  38  58  88 119 153 201 246 301 360
#     4  10  21  39  60  94 120 158 204 254 296 359
#     4   9  21  36  62  88 122 163 200 244 304 361
#     4  10  19  36  60  85 120 157 205 247 300 359
#     4  10  19  35  62  91 118 163 202 244 306 360
#     4  10  21  37  61  86 120 162 203 243 308 362
#     4  11  21  37  64  91 119 159 205 250 298 361
#
# _framework density 22.726040999999999
#
# number of rings (size 3 to 8) (size 9 to 14) (size 15 to 20)
#    0.000    2.000    3.750    1.500    0.000    1.000 
#    2.250    3.750    0.000    7.500    0.000    0.000 
#    0.000    0.000    0.000    0.000    0.000    0.000 
#
# Total GULP energy -89194.891420 kJ/mol
# GULP energy per Si atom -5574.680714 kJ/mol
# Density = 2.267432 g / cm^3
# Si number density = 22.726041 Si / 1000 Ang^3
#
#
#
# Elastic Constant Matrix: (Units=GPa)
#
#
# Indices 1 2 3 4 5 6 
#
# 1 41.5795 38.8161 20.2871 0.0000 -11.2382 0.0000
# 2 38.8161 155.2391 36.6944 0.0000 -12.6608 0.0000
# 3 20.2871 36.6944 74.8501 0.0000 -19.9375 0.0000
# 4 0.0000 0.0000 0.0000 15.1783 0.0000 -5.7521
# 5 -11.2382 -12.6608 -19.9375 0.0000 25.9319 0.0000
# 6 0.0000 0.0000 0.0000 -5.7521 0.0000 39.9572
#
#
#
# Elastic Compliance Matrix: (Units=1/GPa)
#
#
# Indices 1 2 3 4 5 6 
#
# 1 0.034869 -0.007148 -0.003585 0.000000 0.008865 0.000000
# 2 -0.007148 0.008773 -0.002575 0.000000 -0.000794 0.000000
# 3 -0.003585 -0.002575 0.018669 0.000000 0.011542 0.000000
# 4 0.000000 0.000000 0.000000 0.069685 0.000000 0.010032
# 5 0.008865 -0.000794 0.011542 0.000000 0.050891 0.000000
# 6 0.000000 0.000000 0.000000 0.010032 0.000000 0.026471
#
#
# Mechanical properties :
#
#
# Convention : Reuss Voigt Hill
#
# Bulk Modulus (GPa) = 28.01623 51.47377 39.74500
# Shear Modulus (GPa) = 20.17176 27.93821 24.05499
#
# Velocity S-wave (km/s) = 2.98250 3.51001 3.25695
# Velocity P-wave (km/s) = 4.92087 6.25506 5.62764
#
# Compressibility (1/GPa) = 0.03569360
#
# Stress axis : x y z
#
# Youngs Moduli (GPa) = 28.67911 113.98761 53.56599
#
# Poissons Ratio (x) = 0.81480 0.19204
# Poissons Ratio (y) = 0.20500 0.13793
# Poissons Ratio (z) = 0.10282 0.29352
#
# Static dielectric constant tensor:
#      x y z
#    x 1.884460 0.000000 0.001810 
#    y 0.000000 1.853230 0.000000 
#    z 0.001810 0.000000 1.911190 
# 
# From -- ./inp_files/29135.got.cif
#   From: 2010.05.17/outbox.cif.g08.bks.cpg/sg9_15_cif.got.tgz:29135.got - 2010.06.03 20:04:27.
