data_PCOD9134591
_publ_section_title
;
Structure prediction by ZEFSAII (Michael W. Deem and Ramdas Pophale) SiO2 
 PCOD9134591
Probable space group: C C
;
_chemical_formula_sum "Si O2"
_cell_formula_units_Z 24
_cell_length_a 14.838546
_cell_length_b 7.384620
_cell_length_c 15.261336
_cell_angle_alpha 90.000000
_cell_angle_beta 38.395523
_cell_angle_gamma 90.000000
_cell_volume 1038.637915
_symmetry_space_group_name_H-M "C C"
_symmetry_group_IT_number 9
_symmetry_cell_setting 'monoclinic'
loop_
_space_group_symop_operation_xyz
x,y,z
x,-y,1/2+z
1/2+x,1/2+y,z
1/2+x,1/2-y,1/2+z
loop_
_atom_site_type_symbol
_atom_site_label
_atom_site_fract_x
_atom_site_fract_y
_atom_site_fract_z
Si Si1 0.851900 0.101493 0.687110
Si Si2 0.367375 0.974131 0.132202
Si Si3 0.381471 0.473381 0.850968
Si Si4 0.541116 0.494587 0.893300
Si Si5 0.050796 0.561635 0.836893
Si Si6 0.071183 0.333314 0.131305
O O1 0.864526 0.311192 0.653662
O O2 0.709354 0.016652 0.752161
O O3 0.982407 0.001679 0.536829
O O4 0.837007 0.093259 0.802460
O O5 0.199640 0.920514 0.266142
O O6 0.472085 0.888770 0.125043
O O7 0.433370 0.959617 0.985006
O O8 0.434460 0.567808 0.899196
O O9 0.515315 0.359636 0.708232
O O10 0.241672 0.348404 0.979679
O O11 0.541109 0.278821 0.866973
O O12 0.042905 0.541244 0.738681
#
# Coordination Sequence:
#
# PCOD9134591 Si02
#       6
#     4   4   4   4   4   4
#     4  10  19  38  60  83 112 152 194 235 279 337
#     4  10  21  38  61  85 112 151 196 236 282 336
#     4  11  23  38  59  87 119 150 192 238 287 341
#     4   9  20  34  59  85 111 150 196 230 277 347
#     4   9  18  36  60  81 112 153 193 229 280 341
#     4  11  23  38  59  87 118 152 191 238 287 340
#
# _framework density 23.107187
#
# number of rings (size 3 to 8) (size 9 to 14) (size 15 to 20)
#    0.000    2.000    3.333    0.000    9.333    0.000 
#    0.000    3.333    0.000    0.000    0.000    0.000 
#    0.000    0.000    0.000    0.000    0.000    0.000 
#
# Total GULP energy -67020.158227 kJ/mol
# GULP energy per Si atom -5585.013186 kJ/mol
# Density = 2.305459 g / cm^3
# Si number density = 23.107187 Si / 1000 Ang^3
#
#
#
# Elastic Constant Matrix: (Units=GPa)
#
#
# Indices 1 2 3 4 5 6 
#
# 1 97.5203 12.3304 13.1685 0.0000 7.3575 0.0000
# 2 12.3304 51.7925 18.7064 0.0000 4.2255 0.0000
# 3 13.1685 18.7064 94.5476 0.0000 9.4731 0.0000
# 4 0.0000 0.0000 0.0000 12.9187 0.0000 13.0577
# 5 7.3575 4.2255 9.4731 0.0000 39.2979 0.0000
# 6 0.0000 0.0000 0.0000 13.0577 0.0000 15.8693
#
#
#
# Elastic Compliance Matrix: (Units=1/GPa)
#
#
# Indices 1 2 3 4 5 6 
#
# 1 0.010763 -0.002100 -0.000927 0.000000 -0.001566 0.000000
# 2 -0.002100 0.021266 -0.003818 0.000000 -0.000973 0.000000
# 3 -0.000927 -0.003818 0.011685 0.000000 -0.002233 0.000000
# 4 0.000000 0.000000 0.000000 0.459884 0.000000 -0.378406
# 5 -0.001566 -0.000973 -0.002233 0.000000 0.026383 0.000000
# 6 0.000000 0.000000 0.000000 -0.378406 0.000000 0.374379
#
#
# Mechanical properties :
#
#
# Convention : Reuss Voigt Hill
#
# Bulk Modulus (GPa) = 33.30504 36.91900 35.11202
# Shear Modulus (GPa) = 5.38760 26.92752 16.15756
#
# Velocity S-wave (km/s) = 1.52860 3.41740 2.64719
# Velocity P-wave (km/s) = 4.19048 5.61991 4.95699
#
# Compressibility (1/GPa) = 0.03002549
#
# Stress axis : x y z
#
# Youngs Moduli (GPa) = 92.91030 47.02347 85.58160
#
# Poissons Ratio (x) = 0.09875 0.07931
# Poissons Ratio (y) = 0.19511 0.32671
# Poissons Ratio (z) = 0.08610 0.17951
#
# Static dielectric constant tensor:
#      x y z
#    x 1.874690 0.000000 -0.001720 
#    y 0.000000 1.921440 0.000000 
#    z -0.001720 0.000000 1.868960 
# 
# From -- ./inp_files/6854.got.cif
#   From: 2010.05.17/outbox.cif.g08.bks.cpg/sg9_4_cif.got.tgz:6854.got - 2010.06.03 20:04:27.
