data_PCOD9134540
_publ_section_title
;
Structure prediction by ZEFSAII (Michael W. Deem and Ramdas Pophale) SiO2 
 PCOD9134540
Probable space group: C C
;
_chemical_formula_sum "Si O2"
_cell_formula_units_Z 32
_cell_length_a 10.856674
_cell_length_b 9.113456
_cell_length_c 20.106798
_cell_angle_alpha 90.000000
_cell_angle_beta 43.507214
_cell_angle_gamma 90.000000
_cell_volume 1369.596481
_symmetry_space_group_name_H-M "C C"
_symmetry_group_IT_number 9
_symmetry_cell_setting 'monoclinic'
loop_
_space_group_symop_operation_xyz
x,y,z
x,-y,1/2+z
1/2+x,1/2+y,z
1/2+x,1/2-y,1/2+z
loop_
_atom_site_type_symbol
_atom_site_label
_atom_site_fract_x
_atom_site_fract_y
_atom_site_fract_z
Si Si1 0.861680 0.805081 0.815150
Si Si2 0.112721 0.041296 0.932554
Si Si3 0.216767 0.118607 0.255250
Si Si4 0.219202 0.750811 0.929046
Si Si5 0.701472 0.963372 0.558388
Si Si6 0.096087 0.635554 0.240165
Si Si7 0.420116 0.839340 0.151152
Si Si8 0.692821 0.087926 0.813595
O O1 0.704968 0.698704 0.904128
O O2 0.926680 0.717714 0.724482
O O3 0.791811 0.959013 0.814116
O O4 0.023745 0.841696 0.800381
O O5 0.188199 0.968025 0.835332
O O6 0.163096 0.917784 0.966005
O O7 0.902635 0.039548 0.005225
O O8 0.297990 0.281001 0.234640
O O9 0.324527 0.996411 0.172528
O O10 0.430003 0.760575 0.825651
O O11 0.112421 0.680601 0.907654
O O12 0.193901 0.653113 0.002771
O O13 0.586289 0.921784 0.668863
O O14 0.626235 0.116322 0.558542
O O15 0.285825 0.720727 0.171813
O O16 0.091049 0.501227 0.295249
#
# Coordination Sequence:
#
# PCOD9134540 Si02
#       8
#     4   4   4   4   4   4   4   4
#     4  10  19  37  63  88 120 159 209 264 322 386
#     4  10  23  38  58  91 124 163 211 263 323 384
#     4  10  19  37  63  88 120 159 209 264 322 386
#     4  11  24  43  66  94 130 174 222 272 329 392
#     4  12  24  40  64  94 136 174 218 278 330 390
#     4  11  24  43  66  94 130 174 222 272 329 392
#     4  10  23  38  58  91 124 163 211 263 323 384
#     4  10  20  36  64  92 116 160 210 260 324 388
#
# _framework density 23.364546000000001
#
# number of rings (size 3 to 8) (size 9 to 14) (size 15 to 20)
#    0.000    1.500    0.000    7.500    0.000    6.000 
#    0.000    0.000    0.000    7.500    0.000    0.000 
#    0.000    0.000    0.000    0.000    0.000    0.000 
#
# Total GULP energy -89232.551934 kJ/mol
# GULP energy per Si atom -5577.034496 kJ/mol
# Density = 2.331137 g / cm^3
# Si number density = 23.364546 Si / 1000 Ang^3
#
#
#
# Elastic Constant Matrix: (Units=GPa)
#
#
# Indices 1 2 3 4 5 6 
#
# 1 81.5051 31.0235 26.7347 0.0000 12.2128 0.0000
# 2 31.0235 134.3057 21.0959 0.0000 11.7197 0.0000
# 3 26.7347 21.0959 58.5394 0.0000 3.3526 0.0000
# 4 0.0000 0.0000 0.0000 14.4073 0.0000 2.0528
# 5 12.2128 11.7197 3.3526 0.0000 28.2448 0.0000
# 6 0.0000 0.0000 0.0000 2.0528 0.0000 44.3778
#
#
#
# Elastic Compliance Matrix: (Units=1/GPa)
#
#
# Indices 1 2 3 4 5 6 
#
# 1 0.015932 -0.002256 -0.006164 0.000000 -0.005221 0.000000
# 2 -0.002256 0.008465 -0.001888 0.000000 -0.002313 0.000000
# 3 -0.006164 -0.001888 0.020520 0.000000 0.001013 0.000000
# 4 0.000000 0.000000 0.000000 0.069870 0.000000 -0.003232
# 5 -0.005221 -0.002313 0.001013 0.000000 0.038502 0.000000
# 6 0.000000 0.000000 0.000000 -0.003232 0.000000 0.022683
#
#
# Mechanical properties :
#
#
# Convention : Reuss Voigt Hill
#
# Bulk Modulus (GPa) = 41.15041 48.00649 44.57845
# Shear Modulus (GPa) = 24.42730 30.43904 27.43317
#
# Velocity S-wave (km/s) = 3.23691 3.61333 3.43029
# Velocity P-wave (km/s) = 5.62322 6.16438 5.90001
#
# Compressibility (1/GPa) = 0.02430110
#
# Stress axis : x y z
#
# Youngs Moduli (GPa) = 62.76582 118.13017 48.73328
#
# Poissons Ratio (x) = 0.26655 0.30039
# Poissons Ratio (y) = 0.14163 0.09199
# Poissons Ratio (z) = 0.38689 0.22299
#
# Static dielectric constant tensor:
#      x y z
#    x 1.907820 0.000000 -0.024540 
#    y 0.000000 1.944060 0.000000 
#    z -0.024540 0.000000 1.943890 
# 
# From -- ./inp_files/35305.got.cif
#   From: 2010.05.17/outbox.cif.g08.bks.cpg/sg9_18_cif.got.tgz:35305.got - 2010.06.03 20:04:27.
