data_PCOD9134310
_publ_section_title
;
Structure prediction by ZEFSAII (Michael W. Deem and Ramdas Pophale) SiO2 
 PCOD9134310
Probable space group: C C
;
_chemical_formula_sum "Si O2"
_cell_formula_units_Z 20
_cell_length_a 8.218508
_cell_length_b 17.852119
_cell_length_c 8.522120
_cell_angle_alpha 90.000000
_cell_angle_beta 34.901641
_cell_angle_gamma 90.000000
_cell_volume 715.409990
_symmetry_space_group_name_H-M "C C"
_symmetry_group_IT_number 9
_symmetry_cell_setting 'monoclinic'
loop_
_space_group_symop_operation_xyz
x,y,z
x,-y,1/2+z
1/2+x,1/2+y,z
1/2+x,1/2-y,1/2+z
loop_
_atom_site_type_symbol
_atom_site_label
_atom_site_fract_x
_atom_site_fract_y
_atom_site_fract_z
Si Si1 0.657210 0.936468 0.179610
Si Si2 0.754530 0.500763 0.233574
Si Si3 0.442562 0.354862 0.412641
Si Si4 0.916308 0.801168 0.780878
Si Si5 0.508573 0.224660 0.118818
O O1 0.392306 0.938234 0.508651
O O2 0.498198 0.980040 0.164232
O O3 0.937388 0.974192 0.036550
O O4 0.794727 0.862739 0.997932
O O5 0.661720 0.422253 0.222980
O O6 0.353408 0.342308 0.661822
O O7 0.143404 0.353947 0.553978
O O8 0.561572 0.281437 0.225766
O O9 0.226395 0.771054 0.478691
O O10 0.181169 0.233063 0.348368
#
# Coordination Sequence:
#
# PCOD9134310 Si02
#       5
#     4   4   4   4   4
#     4  12  28  45  71 109 140 200 232 298 367 430
#     4  12  26  46  68 105 149 190 244 283 367 441
#     4  10  19  33  62  96 143 165 219 303 368 382
#     4  12  21  38  67 108 137 176 240 321 348 406
#     4   8  16  26  48  92 119 163 197 287 354 373
#
# _framework density 27.955995999999999
#
# number of rings (size 3 to 8) (size 9 to 14) (size 15 to 20)
#    1.200    0.000    2.000    6.000    5.600    0.000 
#    0.000    0.000    0.000    0.000   52.000    0.000 
#    0.000    0.000    0.000    0.000    0.000    0.000 
#
# Total GULP energy -55735.848354 kJ/mol
# GULP energy per Si atom -5573.584835 kJ/mol
# Density = 2.789237 g / cm^3
# Si number density = 27.955996 Si / 1000 Ang^3
#
#
#
# Elastic Constant Matrix: (Units=GPa)
#
#
# Indices 1 2 3 4 5 6 
#
# 1 84.1393 51.9817 51.7675 -0.0002 -18.2542 0.0001
# 2 51.9817 106.6413 30.1208 0.0001 -6.8982 -0.0001
# 3 51.7675 30.1208 206.6862 -0.0001 -35.5410 0.0002
# 4 -0.0002 0.0001 -0.0001 63.4833 0.0002 -4.3688
# 5 -18.2542 -6.8982 -35.5410 0.0002 51.3164 -0.0003
# 6 0.0001 -0.0001 0.0002 -4.3688 -0.0003 44.2937
#
#
#
# Elastic Compliance Matrix: (Units=1/GPa)
#
#
# Indices 1 2 3 4 5 6 
#
# 1 0.019912 -0.008590 -0.003083 0.000000 0.003793 0.000000
# 2 -0.008590 0.013491 -0.000032 0.000000 -0.001264 0.000000
# 3 -0.003083 -0.000032 0.006159 0.000000 0.003165 0.000000
# 4 0.000000 0.000000 0.000000 0.015860 0.000000 0.001564
# 5 0.003793 -0.001264 0.003165 0.000000 0.022858 0.000000
# 6 0.000000 0.000000 0.000000 0.001564 0.000000 0.022731
#
#
# Mechanical properties :
#
#
# Convention : Reuss Voigt Hill
#
# Bulk Modulus (GPa) = 61.90926 73.91188 67.91057
# Shear Modulus (GPa) = 38.51923 49.39178 43.95551
#
# Velocity S-wave (km/s) = 3.71597 4.20786 3.96954
# Velocity P-wave (km/s) = 6.37217 7.07843 6.73456
#
# Compressibility (1/GPa) = 0.01615267
#
# Stress axis : x y z
#
# Youngs Moduli (GPa) = 50.22203 74.12083 162.35445
#
# Poissons Ratio (x) = 0.63667 0.50056
# Poissons Ratio (y) = 0.43139 0.00522
# Poissons Ratio (z) = 0.15484 0.00238
#
# Static dielectric constant tensor:
#      x y z
#    x 2.272520 0.000000 -0.072010 
#    y 0.000000 2.221590 0.000000 
#    z -0.072010 0.000000 2.284580 
# 
# From -- ./inp_files/5685.got.cif
#   From: 2010.05.17/outbox.cif.g08.bks.cpg/sg9_3_cif.got.tgz:5685.got - 2010.06.03 20:04:27.
