data_PCOD9134350
_publ_section_title
;
Structure prediction by ZEFSAII (Michael W. Deem and Ramdas Pophale) SiO2 
 PCOD9134350
Probable space group: C C
;
_chemical_formula_sum "Si O2"
_cell_formula_units_Z 28
_cell_length_a 7.180019
_cell_length_b 17.799671
_cell_length_c 11.394441
_cell_angle_alpha 90.000000
_cell_angle_beta 129.477767
_cell_angle_gamma 90.000000
_cell_volume 1124.023815
_symmetry_space_group_name_H-M "C C"
_symmetry_group_IT_number 9
_symmetry_cell_setting 'monoclinic'
loop_
_space_group_symop_operation_xyz
x,y,z
x,-y,1/2+z
1/2+x,1/2+y,z
1/2+x,1/2-y,1/2+z
loop_
_atom_site_type_symbol
_atom_site_label
_atom_site_fract_x
_atom_site_fract_y
_atom_site_fract_z
Si Si1 0.534260 0.253905 0.927800
Si Si2 0.649469 0.152200 0.171335
Si Si3 0.948011 0.293171 0.920621
Si Si4 0.373633 0.352091 0.235247
Si Si5 0.821301 0.547109 0.906429
Si Si6 0.599911 0.408175 0.707794
Si Si7 0.187644 0.594047 0.877175
O O1 0.303804 0.309425 0.835229
O O2 0.771939 0.292644 0.966352
O O3 0.559434 0.174946 0.861745
O O4 0.541407 0.223697 0.061677
O O5 0.874227 0.132792 0.176505
O O6 0.466267 0.082500 0.076378
O O7 0.941554 0.212540 0.856449
O O8 0.818346 0.350531 0.779351
O O9 0.202798 0.319640 0.068422
O O10 0.614926 0.392488 0.292687
O O11 0.209542 0.409152 0.246808
O O12 0.682492 0.469019 0.836765
O O13 0.016501 0.538894 0.880047
O O14 0.462216 0.426025 0.531174
#
# Coordination Sequence:
#
# PCOD9134350 Si02
#       7
#     4   4   4   4   4   4   4
#     4   8  14  31  55  82 105 148 195 242 290 348
#     4   9  18  32  59  81 114 154 196 242 303 353
#     4  10  19  34  62  90 122 158 205 258 305 367
#     4  11  22  38  64  93 119 162 214 255 313 371
#     4  10  22  37  60  90 129 158 199 258 311 375
#     4   9  19  38  61  84 126 168 197 250 317 369
#     4   9  20  40  61  84 121 164 206 255 305 369
#
# _framework density 24.910505000000001
#
# number of rings (size 3 to 8) (size 9 to 14) (size 15 to 20)
#    0.000    2.857    0.000    4.286    4.000    2.286 
#    2.571    0.000    0.000    6.857    0.000    0.000 
#    0.000    0.000    0.000    0.000    0.000    0.000 
#
# Total GULP energy -77942.964463 kJ/mol
# GULP energy per Si atom -5567.354604 kJ/mol
# Density = 2.485381 g / cm^3
# Si number density = 24.910505 Si / 1000 Ang^3
#
#
#
# Elastic Constant Matrix: (Units=GPa)
#
#
# Indices 1 2 3 4 5 6 
#
# 1 71.8733 1.1965 18.1283 0.0000 16.8203 0.0000
# 2 1.1965 70.2016 31.4188 0.0000 13.5630 0.0000
# 3 18.1283 31.4188 71.6195 0.0000 12.3722 0.0000
# 4 0.0000 0.0000 0.0000 13.2761 0.0000 -24.3360
# 5 16.8203 13.5630 12.3722 0.0000 32.1286 0.0000
# 6 0.0000 0.0000 0.0000 -24.3360 0.0000 -19.1588
#
#
#
# Elastic Compliance Matrix: (Units=1/GPa)
#
#
# Indices 1 2 3 4 5 6 
#
# 1 0.016945 0.003272 -0.004235 0.000000 -0.008622 0.000000
# 2 0.003272 0.019078 -0.008046 0.000000 -0.006669 0.000000
# 3 -0.004235 -0.008046 0.018848 0.000000 -0.001644 0.000000
# 4 0.000000 0.000000 0.000000 0.022630 0.000000 -0.028746
# 5 -0.008622 -0.006669 -0.001644 0.000000 0.039087 0.000000
# 6 0.000000 0.000000 0.000000 -0.028746 0.000000 -0.015682
#
#
# Mechanical properties :
#
#
# Convention : Reuss Voigt Hill
#
# Bulk Modulus (GPa) = 27.13395 35.02018 31.07707
# Shear Modulus (GPa) = 38.10713 16.11256 27.10985
#
# Velocity S-wave (km/s) = 3.91546 2.54602 3.30250
# Velocity P-wave (km/s) = 5.59976 4.76780 5.20044
#
# Compressibility (1/GPa) = 0.03685420
#
# Stress axis : x y z
#
# Youngs Moduli (GPa) = 59.01507 52.41582 53.05496
#
# Poissons Ratio (x) = -0.17153 0.22470
# Poissons Ratio (y) = -0.19312 0.42687
# Poissons Ratio (z) = 0.24994 0.42172
#
# Static dielectric constant tensor:
#      x y z
#    x 2.027460 0.000000 -0.063930 
#    y 0.000000 2.064350 0.000000 
#    z -0.063930 0.000000 2.101450 
# 
# From -- ./inp_files/23677.got.cif
#   From: 2010.05.17/outbox.cif.g08.bks.cpg/sg9_12_cif.got.tgz:23677.got - 2010.06.03 20:04:27.
