data_PCOD9134567
_publ_section_title
;
Structure prediction by ZEFSAII (Michael W. Deem and Ramdas Pophale) SiO2 
 PCOD9134567
Probable space group: C C
;
_chemical_formula_sum "Si O2"
_cell_formula_units_Z 32
_cell_length_a 7.360320
_cell_length_b 12.466210
_cell_length_c 15.315653
_cell_angle_alpha 90.000000
_cell_angle_beta 121.782311
_cell_angle_gamma 90.000000
_cell_volume 1194.576187
_symmetry_space_group_name_H-M "C C"
_symmetry_group_IT_number 9
_symmetry_cell_setting 'monoclinic'
loop_
_space_group_symop_operation_xyz
x,y,z
x,-y,1/2+z
1/2+x,1/2+y,z
1/2+x,1/2-y,1/2+z
loop_
_atom_site_type_symbol
_atom_site_label
_atom_site_fract_x
_atom_site_fract_y
_atom_site_fract_z
Si Si1 0.035600 0.181236 0.216040
Si Si2 0.041279 0.334623 0.856748
Si Si3 0.683962 0.753546 0.084098
Si Si4 0.922457 0.701510 0.917089
Si Si5 0.744299 0.552498 0.010217
Si Si6 0.402828 0.464421 0.153266
Si Si7 0.223568 0.853288 0.111610
Si Si8 0.745904 0.052826 0.932217
O O1 0.289273 0.183299 0.288354
O O2 0.011719 0.202509 0.104847
O O3 0.882542 0.276659 0.202745
O O4 0.951628 0.065877 0.225722
O O5 0.204329 0.264136 0.839750
O O6 0.107116 0.457029 0.855682
O O7 0.099511 0.296793 0.970475
O O8 0.822256 0.648229 0.094672
O O9 0.794366 0.855573 0.157363
O O10 0.109936 0.661265 0.901302
O O11 0.832119 0.593157 0.940687
O O12 0.043636 0.782808 0.015767
O O13 0.814769 0.436890 0.062869
O O14 0.483463 0.555168 0.949837
O O15 0.615922 0.427703 0.157381
O O16 0.270115 0.513568 0.038936
#
# Coordination Sequence:
#
# PCOD9134567 Si02
#       8
#     4   4   4   4   4   4   4   4
#     4  12  24  40  68  96 130 178 221 278 342 383
#     4  10  24  42  61 100 139 158 235 288 308 418
#     4  10  20  42  66  87 132 174 212 266 346 383
#     4  11  20  39  67  90 132 174 214 274 338 393
#     4  10  19  37  66  99 122 171 230 262 320 413
#     4  10  20  39  62  93 126 168 218 274 323 398
#     4  11  20  37  64  98 121 172 223 264 331 404
#     4  10  19  40  64  93 126 173 213 272 336 390
#
# _framework density 26.787742999999999
#
# number of rings (size 3 to 8) (size 9 to 14) (size 15 to 20)
#    0.000    1.500    8.750    0.000    3.500    1.000 
#    4.500    0.000    5.500    0.000    0.000    0.000 
#    0.000    0.000    0.000    0.000    0.000    0.000 
#
# Total GULP energy -89433.498532 kJ/mol
# GULP energy per Si atom -5589.593658 kJ/mol
# Density = 2.672677 g / cm^3
# Si number density = 26.787743 Si / 1000 Ang^3
#
#
#
# Elastic Constant Matrix: (Units=GPa)
#
#
# Indices 1 2 3 4 5 6 
#
# 1 74.6906 31.0025 28.4219 0.0000 27.3544 0.0000
# 2 31.0025 178.9792 51.7247 0.0000 38.0720 0.0000
# 3 28.4219 51.7247 81.6064 0.0000 39.6065 0.0000
# 4 0.0000 0.0000 0.0000 15.5085 0.0000 16.7342
# 5 27.3544 38.0720 39.6065 0.0000 50.2248 0.0000
# 6 0.0000 0.0000 0.0000 16.7342 0.0000 56.9123
#
#
#
# Elastic Compliance Matrix: (Units=1/GPa)
#
#
# Indices 1 2 3 4 5 6 
#
# 1 0.017100 -0.000889 -0.001943 0.000000 -0.007108 0.000000
# 2 -0.000889 0.007150 -0.002959 0.000000 -0.002602 0.000000
# 3 -0.001943 -0.002959 0.021391 0.000000 -0.013567 0.000000
# 4 0.000000 0.000000 0.000000 0.094446 0.000000 -0.027770
# 5 -0.007108 -0.002602 -0.013567 0.000000 0.036453 0.000000
# 6 0.000000 0.000000 0.000000 -0.027770 0.000000 0.025736
#
#
# Mechanical properties :
#
#
# Convention : Reuss Voigt Hill
#
# Bulk Modulus (GPa) = 29.36076 61.95271 45.65674
# Shear Modulus (GPa) = 22.20145 39.47094 30.83620
#
# Velocity S-wave (km/s) = 2.88200 3.84275 3.39651
# Velocity P-wave (km/s) = 4.69669 6.54724 5.69760
#
# Compressibility (1/GPa) = 0.03405906
#
# Stress axis : x y z
#
# Youngs Moduli (GPa) = 58.48047 139.86076 46.74873
#
# Poissons Ratio (x) = 0.12429 0.09082
# Poissons Ratio (y) = 0.05197 0.13835
# Poissons Ratio (z) = 0.11361 0.41391
#
# Static dielectric constant tensor:
#      x y z
#    x 2.146560 0.000000 -0.051990 
#    y 0.000000 2.146430 0.000000 
#    z -0.051990 0.000000 2.213440 
# 
# From -- ./inp_files/22746.got.cif
#   From: 2010.05.17/outbox.cif.g08.bks.cpg/sg9_12_cif.got.tgz:22746.got - 2010.06.03 20:04:27.
