data_PCOD9134615
_publ_section_title
;
Structure prediction by ZEFSAII (Michael W. Deem and Ramdas Pophale) SiO2 
 PCOD9134615
Probable space group: C C
;
_chemical_formula_sum "Si O2"
_cell_formula_units_Z 32
_cell_length_a 10.838332
_cell_length_b 13.135434
_cell_length_c 23.818699
_cell_angle_alpha 90.000000
_cell_angle_beta 24.023560
_cell_angle_gamma 90.000000
_cell_volume 1380.508523
_symmetry_space_group_name_H-M "C C"
_symmetry_group_IT_number 9
_symmetry_cell_setting 'monoclinic'
loop_
_space_group_symop_operation_xyz
x,y,z
x,-y,1/2+z
1/2+x,1/2+y,z
1/2+x,1/2-y,1/2+z
loop_
_atom_site_type_symbol
_atom_site_label
_atom_site_fract_x
_atom_site_fract_y
_atom_site_fract_z
Si Si1 0.308730 0.620458 0.989260
Si Si2 0.730397 0.297360 0.411567
Si Si3 0.890832 0.670295 0.424888
Si Si4 0.772678 0.437673 0.777218
Si Si5 0.545118 0.348770 0.700080
Si Si6 0.547908 0.986877 0.773687
Si Si7 0.984594 0.060179 0.679878
Si Si8 0.462853 0.777536 0.431059
O O1 0.450950 0.677047 0.986062
O O2 0.276877 0.716449 0.961331
O O3 0.540021 0.531943 0.874955
O O4 0.976268 0.576207 0.137801
O O5 0.944273 0.206337 0.299304
O O6 0.918351 0.400511 0.328781
O O7 0.704913 0.282745 0.488992
O O8 0.844097 0.592017 0.393676
O O9 0.752031 0.622941 0.539796
O O10 0.247316 0.677727 0.286909
O O11 0.032302 0.457144 0.716156
O O12 0.608357 0.333587 0.863243
O O13 0.569705 0.471838 0.688507
O O14 0.817162 0.300070 0.551728
O O15 0.856506 0.997787 0.679312
O O16 0.723074 0.136635 0.810609
#
# Coordination Sequence:
#
# PCOD9134615 Si02
#       8
#     4   4   4   4   4   4   4   4
#     4  10  23  41  62  91 128 167 211 272 325 386
#     4   9  21  40  63  92 129 161 215 262 316 381
#     4  10  20  38  61  93 124 165 215 274 318 379
#     4  11  24  39  63  93 128 165 211 268 331 386
#     4  10  21  36  63  92 131 169 201 265 328 377
#     4   9  21  34  64  92 118 157 215 263 311 372
#     4  10  19  38  64  93 125 159 219 270 318 374
#     4  11  23  40  64  94 127 173 213 262 325 387
#
# _framework density 23.179863999999998
#
# number of rings (size 3 to 8) (size 9 to 14) (size 15 to 20)
#    0.000    2.000    1.250    2.250   12.250    1.000 
#    0.000    1.250    5.500    0.000    0.000    0.000 
#    0.000    0.000    0.000    0.000    0.000    0.000 
#
# Total GULP energy -89249.467289 kJ/mol
# GULP energy per Si atom -5578.091706 kJ/mol
# Density = 2.312711 g / cm^3
# Si number density = 23.179864 Si / 1000 Ang^3
#
#
#
# Elastic Constant Matrix: (Units=GPa)
#
#
# Indices 1 2 3 4 5 6 
#
# 1 52.5238 13.9135 1.1119 0.0151 -9.4150 0.0134
# 2 13.9135 184.2188 63.4180 0.0144 3.8389 -0.0350
# 3 1.1119 63.4180 110.1842 -0.1242 1.6772 -0.4091
# 4 0.0151 0.0144 -0.1242 42.0265 0.0003 -5.8178
# 5 -9.4150 3.8389 1.6772 0.0003 12.1994 -0.0083
# 6 0.0134 -0.0350 -0.4091 -5.8178 -0.0083 1.2927
#
#
#
# Elastic Compliance Matrix: (Units=1/GPa)
#
#
# Indices 1 2 3 4 5 6 
#
# 1 0.022951 -0.002420 0.000882 0.000021 0.018353 0.000187
# 2 -0.002420 0.007060 -0.003997 -0.000429 -0.003542 -0.003001
# 3 0.000882 -0.003997 0.011399 0.001375 0.000378 0.009680
# 4 0.000021 -0.000429 0.001375 0.063283 0.000154 0.285224
# 5 0.018353 -0.003542 0.000378 0.000154 0.097199 0.001148
# 6 0.000187 -0.003001 0.009680 0.285224 0.001148 2.060188
#
#
# Mechanical properties :
#
#
# Convention : Reuss Voigt Hill
#
# Bulk Modulus (GPa) = 32.95762 55.97930 44.46846
# Shear Modulus (GPa) = 2.18985 29.00263 15.59624
#
# Velocity S-wave (km/s) = 0.97302 3.54107 2.59672
# Velocity P-wave (km/s) = 3.93846 6.39697 5.31191
#
# Compressibility (1/GPa) = 0.03034199
#
# Stress axis : x y z
#
# Youngs Moduli (GPa) = 43.57112 141.63696 87.72664
#
# Poissons Ratio (x) = 0.34270 -0.07741
# Poissons Ratio (y) = 0.10542 0.35064
# Poissons Ratio (z) = -0.03845 0.56612
#
# Static dielectric constant tensor:
#      x y z
#    x 2.006610 0.000000 0.020020 
#    y 0.000000 1.889580 -0.000040 
#    z 0.020020 -0.000040 1.860130 
# 
# From -- ./inp_files/30653.got.cif
#   From: 2010.05.17/outbox.cif.g08.bks.cpg/sg9_16_cif.got.tgz:30653.got - 2010.06.03 20:04:27.
