data_PCOD9134891
_publ_section_title
;
Structure prediction by ZEFSAII (Michael W. Deem and Ramdas Pophale) SiO2 
 PCOD9134891
Probable space group: C C
;
_chemical_formula_sum "Si O2"
_cell_formula_units_Z 32
_cell_length_a 19.619535
_cell_length_b 12.014507
_cell_length_c 7.881971
_cell_angle_alpha 90.000000
_cell_angle_beta 134.576872
_cell_angle_gamma 90.000000
_cell_volume 1323.421496
_symmetry_space_group_name_H-M "C C"
_symmetry_group_IT_number 9
_symmetry_cell_setting 'monoclinic'
loop_
_space_group_symop_operation_xyz
x,y,z
x,-y,1/2+z
1/2+x,1/2+y,z
1/2+x,1/2-y,1/2+z
loop_
_atom_site_type_symbol
_atom_site_label
_atom_site_fract_x
_atom_site_fract_y
_atom_site_fract_z
Si Si1 0.024120 0.217004 0.549840
Si Si2 0.379988 0.679319 0.998040
Si Si3 0.721884 0.021801 0.607589
Si Si4 0.829264 0.630772 0.163965
Si Si5 0.220059 0.318557 0.780604
Si Si6 0.031006 0.627515 0.389129
Si Si7 0.638094 0.530195 0.939181
Si Si8 0.070068 0.159195 0.149580
O O1 0.111082 0.279208 0.606939
O O2 0.006240 0.293843 0.684414
O O3 0.064980 0.100412 0.692884
O O4 0.936722 0.198353 0.270638
O O5 0.457700 0.641551 0.990342
O O6 0.297010 0.589368 0.854722
O O7 0.341627 0.794859 0.854875
O O8 0.730512 0.089187 0.448119
O O9 0.612754 0.041944 0.479448
O O10 0.742021 0.890669 0.653235
O O11 0.931171 0.582137 0.286763
O O12 0.788719 0.716814 0.951232
O O13 0.744812 0.547411 0.059167
O O14 0.075689 0.712383 0.607008
O O15 0.616795 0.399941 0.893283
O O16 0.617995 0.589628 0.081872
#
# Coordination Sequence:
#
# PCOD9134891 Si02
#       8
#     4   4   4   4   4   4   4   4
#     4   9  19  36  58  82 114 146 188 235 281 337
#     4  10  20  35  58  86 113 147 186 231 283 338
#     4  10  21  37  56  83 115 146 185 230 278 336
#     4   9  20  39  58  79 114 151 186 230 283 335
#     4   9  20  37  56  80 111 147 185 229 276 331
#     4   9  20  40  59  80 114 153 186 231 283 335
#     4  10  20  38  57  84 116 147 188 241 285 336
#     4  10  20  34  58  82 111 147 186 231 285 332
#
# _framework density 24.179749000000001
#
# number of rings (size 3 to 8) (size 9 to 14) (size 15 to 20)
#    0.000    2.500    0.000    3.000    0.000   10.000 
#    0.000   12.500    0.000    0.000    0.000    0.000 
#    0.000    0.000    0.000    0.000    0.000    0.000 
#
# Total GULP energy -89435.016085 kJ/mol
# GULP energy per Si atom -5589.688505 kJ/mol
# Density = 2.412471 g / cm^3
# Si number density = 24.179749 Si / 1000 Ang^3
#
#
#
# Elastic Constant Matrix: (Units=GPa)
#
#
# Indices 1 2 3 4 5 6 
#
# 1 44.8074 15.9305 26.4929 0.0000 6.9094 0.0000
# 2 15.9305 29.2279 24.5660 0.0000 0.1200 0.0000
# 3 26.4929 24.5660 112.8253 0.0000 6.4691 0.0000
# 4 0.0000 0.0000 0.0000 21.0905 0.0000 -5.8141
# 5 6.9094 0.1200 6.4691 0.0000 31.3990 0.0000
# 6 0.0000 0.0000 0.0000 -5.8141 0.0000 24.2896
#
#
#
# Elastic Compliance Matrix: (Units=1/GPa)
#
#
# Indices 1 2 3 4 5 6 
#
# 1 0.030191 -0.013161 -0.003892 0.000000 -0.005791 0.000000
# 2 -0.013161 0.047709 -0.007542 0.000000 0.004268 0.000000
# 3 -0.003892 -0.007542 0.011504 0.000000 -0.001485 0.000000
# 4 0.000000 0.000000 0.000000 0.050765 0.000000 0.012151
# 5 -0.005791 0.004268 -0.001485 0.000000 0.033412 0.000000
# 6 0.000000 0.000000 0.000000 0.012151 0.000000 0.044079
#
#
# Mechanical properties :
#
#
# Convention : Reuss Voigt Hill
#
# Bulk Modulus (GPa) = 24.86639 35.64883 30.25761
# Shear Modulus (GPa) = 17.84101 23.34722 20.59411
#
# Velocity S-wave (km/s) = 2.71929 3.11073 2.92157
# Velocity P-wave (km/s) = 4.49062 5.26094 4.89097
#
# Compressibility (1/GPa) = 0.04021493
#
# Stress axis : x y z
#
# Youngs Moduli (GPa) = 33.12274 20.96056 86.92311
#
# Poissons Ratio (x) = 0.27585 0.33827
# Poissons Ratio (y) = 0.43591 0.65560
# Poissons Ratio (z) = 0.12890 0.15809
#
# Static dielectric constant tensor:
#      x y z
#    x 1.959790 0.000000 -0.103470 
#    y 0.000000 1.888570 0.000000 
#    z -0.103470 0.000000 1.993180 
# 
# From -- ./inp_files/11747.got.cif
#   From: 2010.05.17/outbox.cif.g08.bks.cpg/sg9_6_cif.got.tgz:11747.got - 2010.06.03 20:04:27.
