data_PCOD9134681
_publ_section_title
;
Structure prediction by ZEFSAII (Michael W. Deem and Ramdas Pophale) SiO2 
 PCOD9134681
Probable space group: C C
;
_chemical_formula_sum "Si O2"
_cell_formula_units_Z 32
_cell_length_a 8.772864
_cell_length_b 11.231192
_cell_length_c 27.612263
_cell_angle_alpha 90.000000
_cell_angle_beta 30.206994
_cell_angle_gamma 90.000000
_cell_volume 1368.817441
_symmetry_space_group_name_H-M "C C"
_symmetry_group_IT_number 9
_symmetry_cell_setting 'monoclinic'
loop_
_space_group_symop_operation_xyz
x,y,z
x,-y,1/2+z
1/2+x,1/2+y,z
1/2+x,1/2-y,1/2+z
loop_
_atom_site_type_symbol
_atom_site_label
_atom_site_fract_x
_atom_site_fract_y
_atom_site_fract_z
Si Si1 0.885940 0.267142 0.814470
Si Si2 0.244022 0.972003 0.331411
Si Si3 0.203504 0.230446 0.010599
Si Si4 0.074626 0.192824 0.665792
Si Si5 0.308180 0.279050 0.780651
Si Si6 0.173753 0.499863 0.542924
Si Si7 0.174044 0.934983 0.606422
Si Si8 0.156844 0.090193 0.257141
O O1 0.930940 0.408336 0.791722
O O2 0.082146 0.191100 0.722676
O O3 0.987142 0.257263 0.842421
O O4 0.543235 0.227973 0.897316
O O5 0.089122 0.015161 0.323409
O O6 0.402048 0.849246 0.274978
O O7 0.011379 0.951838 0.439771
O O8 0.169695 0.115667 0.053789
O O9 0.901153 0.250202 0.061569
O O10 0.218234 0.358395 0.033746
O O11 0.807602 0.283684 0.728966
O O12 0.025930 0.064161 0.656240
O O13 0.520618 0.330940 0.680215
O O14 0.358720 0.378537 0.807991
O O15 0.998683 0.459722 0.541976
O O16 0.937212 0.464115 0.649363
#
# Coordination Sequence:
#
# PCOD9134681 Si02
#       8
#     4   4   4   4   4   4   4   4
#     4  10  22  40  65  92 126 170 213 263 326 379
#     4  10  22  42  64  90 130 164 215 264 320 381
#     4  10  19  39  66  86 121 172 209 259 321 378
#     4  10  22  40  62  93 132 165 212 268 319 385
#     4  11  22  37  65  91 125 167 212 262 318 383
#     4   9  20  40  61  88 124 167 209 266 316 379
#     4  10  20  36  63  89 123 163 211 256 319 373
#     4  10  23  40  64  95 127 172 213 264 327 376
#
# _framework density 23.377842000000001
#
# number of rings (size 3 to 8) (size 9 to 14) (size 15 to 20)
#    0.000    2.000    1.250    1.500    5.250    0.000 
#    9.000    0.000    0.000    0.000    0.000    0.000 
#    0.000    0.000    0.000    0.000    0.000    0.000 
#
# Total GULP energy -89168.782215 kJ/mol
# GULP energy per Si atom -5573.048888 kJ/mol
# Density = 2.332463 g / cm^3
# Si number density = 23.377842 Si / 1000 Ang^3
#
#
#
# Elastic Constant Matrix: (Units=GPa)
#
#
# Indices 1 2 3 4 5 6 
#
# 1 54.6237 17.6649 12.1730 -0.0009 -1.4237 -0.0013
# 2 17.6649 129.6396 41.3683 -0.0001 13.6223 -0.0014
# 3 12.1730 41.3683 102.2444 0.0001 0.0972 -0.0019
# 4 -0.0009 -0.0001 0.0001 23.6019 -0.0012 4.5206
# 5 -1.4237 13.6223 0.0972 -0.0012 23.3415 0.0009
# 6 -0.0013 -0.0014 -0.0019 4.5206 0.0009 33.4661
#
#
#
# Elastic Compliance Matrix: (Units=1/GPa)
#
#
# Indices 1 2 3 4 5 6 
#
# 1 0.019481 -0.002519 -0.001303 0.000001 0.002664 0.000000
# 2 -0.002519 0.009850 -0.003680 0.000000 -0.005887 0.000000
# 3 -0.001303 -0.003680 0.011423 0.000000 0.002020 0.000000
# 4 0.000001 0.000000 0.000000 0.043495 0.000003 -0.005875
# 5 0.002664 -0.005887 0.002020 0.000003 0.046432 -0.000002
# 6 0.000000 0.000000 0.000000 -0.005875 -0.000002 0.030675
#
#
# Mechanical properties :
#
#
# Convention : Reuss Voigt Hill
#
# Bulk Modulus (GPa) = 38.83353 47.65780 43.24567
# Shear Modulus (GPa) = 27.03569 30.43535 28.73552
#
# Velocity S-wave (km/s) = 3.40438 3.61208 3.50977
# Velocity P-wave (km/s) = 5.66572 6.15031 5.91298
#
# Compressibility (1/GPa) = 0.02575094
#
# Stress axis : x y z
#
# Youngs Moduli (GPa) = 51.33108 101.52633 87.54642
#
# Poissons Ratio (x) = 0.25571 0.11406
# Poissons Ratio (y) = 0.12929 0.32215
# Poissons Ratio (z) = 0.06688 0.37359
#
# Static dielectric constant tensor:
#      x y z
#    x 1.989890 0.000000 -0.034390 
#    y 0.000000 1.866540 0.000000 
#    z -0.034390 0.000000 1.914380 
# 
# From -- ./inp_files/37183.got.cif
#   From: 2010.05.17/outbox.cif.g08.bks.cpg/sg9_19_cif.got.tgz:37183.got - 2010.06.03 20:04:27.
