data_PCOD9134381
_publ_section_title
;
Structure prediction by ZEFSAII (Michael W. Deem and Ramdas Pophale) SiO2 
 PCOD9134381
Probable space group: C C
;
_chemical_formula_sum "Si O2"
_cell_formula_units_Z 32
_cell_length_a 14.257128
_cell_length_b 13.427561
_cell_length_c 9.613300
_cell_angle_alpha 90.000000
_cell_angle_beta 40.878379
_cell_angle_gamma 90.000000
_cell_volume 1204.430727
_symmetry_space_group_name_H-M "C C"
_symmetry_group_IT_number 9
_symmetry_cell_setting 'monoclinic'
loop_
_space_group_symop_operation_xyz
x,y,z
x,-y,1/2+z
1/2+x,1/2+y,z
1/2+x,1/2-y,1/2+z
loop_
_atom_site_type_symbol
_atom_site_label
_atom_site_fract_x
_atom_site_fract_y
_atom_site_fract_z
Si Si1 0.779490 0.026411 0.567740
Si Si2 0.691745 0.379690 0.190605
Si Si3 0.185122 0.032273 0.410805
Si Si4 0.230168 0.693321 0.394767
Si Si5 0.935075 0.321645 0.324221
Si Si6 0.409992 0.686901 0.914843
Si Si7 0.455689 0.017471 0.446282
Si Si8 0.446975 0.680520 0.570433
O O1 0.765710 0.093476 0.443197
O O2 0.623784 0.982805 0.787191
O O3 0.842502 0.099715 0.614775
O O4 0.880775 0.932907 0.427195
O O5 0.632896 0.430106 0.397528
O O6 0.576958 0.299355 0.268413
O O7 0.676666 0.460977 0.084131
O O8 0.866417 0.382103 0.011598
O O9 0.093293 0.122473 0.447344
O O10 0.350544 0.033251 0.177108
O O11 0.289546 0.781200 0.425868
O O12 0.305855 0.703481 0.162467
O O13 0.060991 0.703569 0.576548
O O14 0.969624 0.265514 0.429926
O O15 0.943546 0.438176 0.336142
O O16 0.384370 0.723807 0.785615
#
# Coordination Sequence:
#
# PCOD9134381 Si02
#       8
#     4   4   4   4   4   4   4   4
#     4  10  19  35  59  87 119 152 188 237 300 345
#     4   9  20  34  57  84 112 144 187 239 289 342
#     4   9  18  34  55  83 110 144 191 233 287 334
#     4  10  23  38  63  83 116 157 193 247 282 349
#     4  10  21  42  58  81 113 163 205 221 287 354
#     4  11  21  37  58  93 117 143 197 247 298 333
#     4   9  20  35  58  83 115 151 191 233 283 345
#     4  10  20  35  62  82 114 162 194 241 276 358
#
# _framework density 26.568567999999999
#
# number of rings (size 3 to 8) (size 9 to 14) (size 15 to 20)
#    0.750    1.500    1.250    1.500    1.750    3.000 
#    0.000    6.250    0.000    0.000    0.000    0.000 
#    0.000    0.000    0.000    0.000    0.000    0.000 
#
# Total GULP energy -89441.131708 kJ/mol
# GULP energy per Si atom -5590.070732 kJ/mol
# Density = 2.650810 g / cm^3
# Si number density = 26.568568 Si / 1000 Ang^3
#
#
#
# Elastic Constant Matrix: (Units=GPa)
#
#
# Indices 1 2 3 4 5 6 
#
# 1 131.5246 37.5797 66.2152 0.0000 -2.2896 0.0000
# 2 37.5797 53.4944 19.7634 0.0000 10.3662 0.0000
# 3 66.2152 19.7634 160.3298 0.0000 2.7916 0.0000
# 4 0.0000 0.0000 0.0000 25.7329 0.0000 7.3251
# 5 -2.2896 10.3662 2.7916 0.0000 57.6972 0.0000
# 6 0.0000 0.0000 0.0000 7.3251 0.0000 42.5825
#
#
#
# Elastic Compliance Matrix: (Units=1/GPa)
#
#
# Indices 1 2 3 4 5 6 
#
# 1 0.011668 -0.007102 -0.003977 0.000000 0.001931 0.000000
# 2 -0.007102 0.024600 -0.000018 0.000000 -0.004701 0.000000
# 3 -0.003977 -0.000018 0.007891 0.000000 -0.000536 0.000000
# 4 0.000000 0.000000 0.000000 0.040862 0.000000 -0.007029
# 5 0.001931 -0.004701 -0.000536 0.000000 0.018279 0.000000
# 6 0.000000 0.000000 0.000000 -0.007029 0.000000 0.024693
#
#
# Mechanical properties :
#
#
# Convention : Reuss Voigt Hill
#
# Bulk Modulus (GPa) = 45.52403 65.82951 55.67677
# Shear Modulus (GPa) = 31.74446 39.98856 35.86651
#
# Velocity S-wave (km/s) = 3.46036 3.88378 3.67817
# Velocity P-wave (km/s) = 5.75649 6.70393 6.24819
#
# Compressibility (1/GPa) = 0.02196642
#
# Stress axis : x y z
#
# Youngs Moduli (GPa) = 85.70335 40.65054 126.72414
#
# Poissons Ratio (x) = 0.28869 0.50399
# Poissons Ratio (y) = 0.60865 0.00222
# Poissons Ratio (z) = 0.34085 0.00071
#
# Static dielectric constant tensor:
#      x y z
#    x 2.052400 0.000000 -0.013720 
#    y 0.000000 2.202800 0.000000 
#    z -0.013720 0.000000 2.052120 
# 
# From -- ./inp_files/10017.got.cif
#   From: 2010.05.17/outbox.cif.g08.bks.cpg/sg9_6_cif.got.tgz:10017.got - 2010.06.03 20:04:27.
