data_PCOD9134454
_publ_section_title
;
Structure prediction by ZEFSAII (Michael W. Deem and Ramdas Pophale) SiO2 
 PCOD9134454
Probable space group: C C
;
_chemical_formula_sum "Si O2"
_cell_formula_units_Z 28
_cell_length_a 8.700754
_cell_length_b 18.749120
_cell_length_c 9.990870
_cell_angle_alpha 90.000000
_cell_angle_beta 122.875855
_cell_angle_gamma 90.000000
_cell_volume 1368.806741
_symmetry_space_group_name_H-M "C C"
_symmetry_group_IT_number 9
_symmetry_cell_setting 'monoclinic'
loop_
_space_group_symop_operation_xyz
x,y,z
x,-y,1/2+z
1/2+x,1/2+y,z
1/2+x,1/2-y,1/2+z
loop_
_atom_site_type_symbol
_atom_site_label
_atom_site_fract_x
_atom_site_fract_y
_atom_site_fract_z
Si Si1 0.104330 0.911351 0.413130
Si Si2 0.830336 0.838733 0.685569
Si Si3 0.178593 0.241229 0.389287
Si Si4 0.935820 0.622147 0.435814
Si Si5 0.097603 0.035259 0.212716
Si Si6 0.445348 0.177478 0.138490
Si Si7 0.792693 0.812598 0.183596
O O1 0.093162 0.954526 0.549256
O O2 0.299992 0.872851 0.495669
O O3 0.958324 0.847755 0.342072
O O4 0.060729 0.959788 0.263848
O O5 0.751353 0.805151 0.512016
O O6 0.648487 0.841359 0.687647
O O7 0.975001 0.784947 0.822206
O O8 0.951414 0.908098 0.705206
O O9 0.317598 0.175406 0.472192
O O10 0.183932 0.262685 0.236180
O O11 0.147344 0.625977 0.576180
O O12 0.805146 0.553969 0.360246
O O13 0.936168 0.655647 0.288845
O O14 0.375784 0.260173 0.108867
#
# Coordination Sequence:
#
# PCOD9134454 Si02
#       7
#     4   4   4   4   4   4   4
#     4  11  24  46  66  93 132 180 219 270 323 399
#     4  11  22  38  63  98 130 162 212 273 324 389
#     4  10  19  36  61  90 126 162 206 259 323 382
#     4   9  20  39  60  87 124 168 207 263 318 384
#     4  10  24  46  65  90 134 179 222 259 328 401
#     4  10  23  38  64  97 130 160 216 273 330 382
#     4  11  20  39  67  93 122 173 210 271 330 383
#
# _framework density 20.455774000000002
#
# number of rings (size 3 to 8) (size 9 to 14) (size 15 to 20)
#    0.000    1.714    2.857    2.571    4.000    2.286 
#    5.143    2.857    0.000    0.000    0.000    0.000 
#    0.000    0.000    0.000    0.000    0.000    0.000 
#
# Total GULP energy -77999.548861 kJ/mol
# GULP energy per Si atom -5571.396347 kJ/mol
# Density = 2.040922 g / cm^3
# Si number density = 20.455774 Si / 1000 Ang^3
#
#
#
# Elastic Constant Matrix: (Units=GPa)
#
#
# Indices 1 2 3 4 5 6 
#
# 1 104.3905 28.9654 23.9043 0.0000 28.0078 0.0000
# 2 28.9654 40.7009 15.7852 0.0000 1.4330 0.0000
# 3 23.9043 15.7852 60.1410 0.0000 27.0689 0.0000
# 4 0.0000 0.0000 0.0000 31.2053 0.0000 -1.5167
# 5 28.0078 1.4330 27.0689 0.0000 39.6843 0.0000
# 6 0.0000 0.0000 0.0000 -1.5167 0.0000 16.8354
#
#
#
# Elastic Compliance Matrix: (Units=1/GPa)
#
#
# Indices 1 2 3 4 5 6 
#
# 1 0.015480 -0.011482 0.002297 0.000000 -0.012077 0.000000
# 2 -0.011482 0.036775 -0.011744 0.000000 0.014786 0.000000
# 3 0.002297 -0.011744 0.027902 0.000000 -0.020229 0.000000
# 4 0.000000 0.000000 0.000000 0.032187 0.000000 0.002900
# 5 -0.012077 0.014786 -0.020229 0.000000 0.046987 0.000000
# 6 0.000000 0.000000 0.000000 0.002900 0.000000 0.059660
#
#
# Mechanical properties :
#
#
# Convention : Reuss Voigt Hill
#
# Bulk Modulus (GPa) = 26.11048 38.06025 32.08537
# Shear Modulus (GPa) = 18.27398 26.65014 22.46206
#
# Velocity S-wave (km/s) = 2.99212 3.61337 3.31732
# Velocity P-wave (km/s) = 4.97284 6.00459 5.51291
#
# Compressibility (1/GPa) = 0.03829880
#
# Stress axis : x y z
#
# Youngs Moduli (GPa) = 64.60123 27.19273 35.83980
#
# Poissons Ratio (x) = 0.31222 -0.08231
# Poissons Ratio (y) = 0.74174 0.42088
# Poissons Ratio (z) = -0.14836 0.31934
#
# Static dielectric constant tensor:
#      x y z
#    x 1.753340 0.000000 0.010570 
#    y 0.000000 1.757770 0.000000 
#    z 0.010570 0.000000 1.733180 
# 
# From -- ./inp_files/15353.got.cif
#   From: 2010.05.17/outbox.cif.g08.bks.cpg/sg9_8_cif.got.tgz:15353.got - 2010.06.03 20:04:27.
