data_PCOD9134698
_publ_section_title
;
Structure prediction by ZEFSAII (Michael W. Deem and Ramdas Pophale) SiO2 
 PCOD9134698
Probable space group: C C
;
_chemical_formula_sum "Si O2"
_cell_formula_units_Z 32
_cell_length_a 25.154407
_cell_length_b 10.564713
_cell_length_c 14.549879
_cell_angle_alpha 90.000000
_cell_angle_beta 160.560540
_cell_angle_gamma 90.000000
_cell_volume 1286.851382
_symmetry_space_group_name_H-M "C C"
_symmetry_group_IT_number 9
_symmetry_cell_setting 'monoclinic'
loop_
_space_group_symop_operation_xyz
x,y,z
x,-y,1/2+z
1/2+x,1/2+y,z
1/2+x,1/2-y,1/2+z
loop_
_atom_site_type_symbol
_atom_site_label
_atom_site_fract_x
_atom_site_fract_y
_atom_site_fract_z
Si Si1 0.680990 0.678877 0.097540
Si Si2 0.601852 0.439052 0.801864
Si Si3 0.380888 0.035148 0.875352
Si Si4 0.340662 0.617724 0.746437
Si Si5 0.146678 0.560874 0.073086
Si Si6 0.403160 0.744317 0.115622
Si Si7 0.708340 0.955752 0.376462
Si Si8 0.441284 0.286750 0.077045
O O1 0.731813 0.532294 0.183153
O O2 0.777729 0.743746 0.169655
O O3 0.751576 0.734129 0.303869
O O4 0.504543 0.724665 0.784209
O O5 0.523178 0.395691 0.577555
O O6 0.518862 0.346196 0.742462
O O7 0.534194 0.583452 0.700799
O O8 0.790524 0.437848 0.131336
O O9 0.530750 0.939639 0.126908
O O10 0.456378 0.161843 0.040915
O O11 0.232229 0.527337 0.636908
O O12 0.300422 0.566296 0.580983
O O13 0.164534 0.494850 0.200804
O O14 0.256759 0.683648 0.267102
O O15 0.984156 0.623325 0.773453
O O16 0.328722 0.661913 0.076557
#
# Coordination Sequence:
#
# PCOD9134698 Si02
#       8
#     4   4   4   4   4   4   4   4
#     4  10  21  41  66  94 133 179 219 278 346 411
#     4   9  20  41  69  93 127 184 223 276 347 414
#     4  11  22  39  70  99 134 183 229 277 351 419
#     4  10  21  44  69  92 138 176 223 292 349 402
#     4  11  23  43  70  96 134 184 228 283 351 414
#     4  11  22  42  66  99 134 175 233 281 342 414
#     4  12  24  43  66 105 134 175 234 293 342 414
#     4  10  19  39  68  94 130 180 227 268 344 414
#
# _framework density 24.866897000000002
#
# number of rings (size 3 to 8) (size 9 to 14) (size 15 to 20)
#    0.000    1.500    6.250    0.750    0.000    2.000 
#    6.750    0.000    2.750    0.000    0.000    0.000 
#    0.000    0.000    0.000    0.000    0.000    0.000 
#
# Total GULP energy -89259.438098 kJ/mol
# GULP energy per Si atom -5578.714881 kJ/mol
# Density = 2.481030 g / cm^3
# Si number density = 24.866897 Si / 1000 Ang^3
#
#
#
# Elastic Constant Matrix: (Units=GPa)
#
#
# Indices 1 2 3 4 5 6 
#
# 1 45.1925 23.0525 31.9797 0.0000 -11.2757 0.0000
# 2 23.0525 102.9530 25.1673 0.0000 -11.5133 0.0000
# 3 31.9797 25.1673 138.5970 0.0000 -29.6376 0.0000
# 4 0.0000 0.0000 0.0000 56.8336 0.0000 1.2667
# 5 -11.2757 -11.5133 -29.6376 0.0000 24.2146 0.0000
# 6 0.0000 0.0000 0.0000 1.2667 0.0000 27.5931
#
#
#
# Elastic Compliance Matrix: (Units=1/GPa)
#
#
# Indices 1 2 3 4 5 6 
#
# 1 0.029287 -0.004783 -0.004686 0.000000 0.005629 0.000000
# 2 -0.004783 0.011167 -0.000359 0.000000 0.002643 0.000000
# 3 -0.004686 -0.000359 0.010644 0.000000 0.010676 0.000000
# 4 0.000000 0.000000 0.000000 0.017613 0.000000 -0.000809
# 5 0.005629 0.002643 0.010676 0.000000 0.058242 0.000000
# 6 0.000000 0.000000 0.000000 -0.000809 0.000000 0.036278
#
#
# Mechanical properties :
#
#
# Convention : Reuss Voigt Hill
#
# Bulk Modulus (GPa) = 31.80239 49.68240 40.74240
# Shear Modulus (GPa) = 25.85731 35.49780 30.67755
#
# Velocity S-wave (km/s) = 3.22814 3.78234 3.51617
# Velocity P-wave (km/s) = 5.16830 6.25280 5.73624
#
# Compressibility (1/GPa) = 0.03144417
#
# Stress axis : x y z
#
# Youngs Moduli (GPa) = 34.14433 89.54568 93.94615
#
# Poissons Ratio (x) = 0.42829 0.44019
# Poissons Ratio (y) = 0.16331 0.03373
# Poissons Ratio (z) = 0.15999 0.03215
#
# Static dielectric constant tensor:
#      x y z
#    x 2.080010 0.000000 0.002450 
#    y 0.000000 2.027770 0.000000 
#    z 0.002450 0.000000 2.025370 
# 
# From -- ./inp_files/28111.got.cif
#   From: 2010.05.17/outbox.cif.g08.bks.cpg/sg9_15_cif.got.tgz:28111.got - 2010.06.03 20:04:27.
