data_PCOD9134793
_publ_section_title
;
Structure prediction by ZEFSAII (Michael W. Deem and Ramdas Pophale) SiO2 
 PCOD9134793
Probable space group: C C
;
_chemical_formula_sum "Si O2"
_cell_formula_units_Z 32
_cell_length_a 11.749640
_cell_length_b 7.535668
_cell_length_c 23.276631
_cell_angle_alpha 90.000000
_cell_angle_beta 144.116290
_cell_angle_gamma 90.000000
_cell_volume 1208.006581
_symmetry_space_group_name_H-M "C C"
_symmetry_group_IT_number 9
_symmetry_cell_setting 'monoclinic'
loop_
_space_group_symop_operation_xyz
x,y,z
x,-y,1/2+z
1/2+x,1/2+y,z
1/2+x,1/2-y,1/2+z
loop_
_atom_site_type_symbol
_atom_site_label
_atom_site_fract_x
_atom_site_fract_y
_atom_site_fract_z
Si Si1 0.065640 0.924006 0.158070
Si Si2 0.971241 0.401367 0.346515
Si Si3 0.771487 0.549625 0.381646
Si Si4 0.931855 0.876889 0.413895
Si Si5 0.728811 0.784757 0.943672
Si Si6 0.190085 0.186149 0.526400
Si Si7 0.119918 0.350600 0.186803
Si Si8 0.850404 0.981154 0.676202
O O1 0.275948 0.834659 0.235990
O O2 0.954256 0.885424 0.172758
O O3 0.103033 0.136673 0.172460
O O4 0.915723 0.867135 0.049246
O O5 0.092063 0.555218 0.364102
O O6 0.116521 0.263638 0.435370
O O7 0.867697 0.491054 0.360499
O O8 0.099388 0.803120 0.440887
O O9 0.887239 0.727950 0.442946
O O10 0.775321 0.376835 0.421408
O O11 0.546186 0.603011 0.282952
O O12 0.748476 0.895883 0.295719
O O13 0.017650 0.056334 0.473706
O O14 0.397486 0.090482 0.603752
O O15 0.230886 0.345313 0.587597
O O16 0.224757 0.429673 0.174062
#
# Coordination Sequence:
#
# PCOD9134793 Si02
#       8
#     4   4   4   4   4   4   4   4
#     4  10  20  40  73 119 164 203 264 336 404 484
#     4  10  20  41  70 110 163 207 261 340 397 480
#     4  10  20  41  77 110 160 213 268 329 408 481
#     4  11  23  42  72 117 159 214 269 333 409 492
#     4  11  20  41  78 115 155 216 265 330 414 480
#     4  11  24  42  71 116 164 210 263 343 404 476
#     4  11  20  42  76 115 155 216 265 328 414 489
#     4  10  19  41  75 114 158 207 271 335 402 482
#
# _framework density 26.489923000000001
#
# number of rings (size 3 to 8) (size 9 to 14) (size 15 to 20)
#    0.000    1.500    8.750    0.000    0.000    2.000 
#    0.000    2.500    0.000    3.000    0.000    0.000 
#    0.000    0.000    0.000    0.000    0.000    0.000 
#
# Total GULP energy -89706.209844 kJ/mol
# GULP energy per Si atom -5606.638115 kJ/mol
# Density = 2.642963 g / cm^3
# Si number density = 26.489923 Si / 1000 Ang^3
#
#
#
# Elastic Constant Matrix: (Units=GPa)
#
#
# Indices 1 2 3 4 5 6 
#
# 1 147.2129 56.9268 49.5748 0.0000 14.0655 0.0000
# 2 56.9268 105.1611 58.9496 0.0000 13.7869 0.0000
# 3 49.5748 58.9496 200.9515 0.0000 38.3445 0.0000
# 4 0.0000 0.0000 0.0000 41.6207 0.0000 4.3993
# 5 14.0655 13.7869 38.3445 0.0000 30.7266 0.0000
# 6 0.0000 0.0000 0.0000 4.3993 0.0000 56.0483
#
#
#
# Elastic Compliance Matrix: (Units=1/GPa)
#
#
# Indices 1 2 3 4 5 6 
#
# 1 0.008768 -0.004193 -0.000691 0.000000 -0.001271 0.000000
# 2 -0.004193 0.013421 -0.002783 0.000000 -0.000630 0.000000
# 3 -0.000691 -0.002783 0.007435 0.000000 -0.007713 0.000000
# 4 0.000000 0.000000 0.000000 0.024228 0.000000 -0.001902
# 5 -0.001271 -0.000630 -0.007713 0.000000 0.043035 0.000000
# 6 0.000000 0.000000 0.000000 -0.001902 0.000000 0.017991
#
#
# Mechanical properties :
#
#
# Convention : Reuss Voigt Hill
#
# Bulk Modulus (GPa) = 69.96752 87.13642 78.55197
# Shear Modulus (GPa) = 37.04411 44.87075 40.95743
#
# Velocity S-wave (km/s) = 3.74361 4.12014 3.93638
# Velocity P-wave (km/s) = 6.71985 7.45652 7.09775
#
# Compressibility (1/GPa) = 0.01429235
#
# Stress axis : x y z
#
# Youngs Moduli (GPa) = 114.04856 74.50843 134.50214
#
# Poissons Ratio (x) = 0.31239 0.09291
# Poissons Ratio (y) = 0.47817 0.37426
# Poissons Ratio (z) = 0.07878 0.20732
#
# Static dielectric constant tensor:
#      x y z
#    x 2.100520 0.000000 -0.001390 
#    y 0.000000 2.118070 0.000000 
#    z -0.001390 0.000000 2.104600 
# 
# From -- ./inp_files/36505.got.cif
#   From: 2010.05.17/outbox.cif.g08.bks.cpg/sg9_19_cif.got.tgz:36505.got - 2010.06.03 20:04:27.
