data_PCOD9134899
_publ_section_title
;
Structure prediction by ZEFSAII (Michael W. Deem and Ramdas Pophale) SiO2 
 PCOD9134899
Probable space group: C C
;
_chemical_formula_sum "Si O2"
_cell_formula_units_Z 32
_cell_length_a 10.253977
_cell_length_b 17.866624
_cell_length_c 8.587268
_cell_angle_alpha 90.000000
_cell_angle_beta 64.953974
_cell_angle_gamma 90.000000
_cell_volume 1425.288278
_symmetry_space_group_name_H-M "C C"
_symmetry_group_IT_number 9
_symmetry_cell_setting 'monoclinic'
loop_
_space_group_symop_operation_xyz
x,y,z
x,-y,1/2+z
1/2+x,1/2+y,z
1/2+x,1/2-y,1/2+z
loop_
_atom_site_type_symbol
_atom_site_label
_atom_site_fract_x
_atom_site_fract_y
_atom_site_fract_z
Si Si1 0.099730 0.230179 0.425870
Si Si2 0.160856 0.722570 0.396601
Si Si3 0.651834 0.365749 0.602985
Si Si4 0.839257 0.433370 0.259822
Si Si5 0.343430 0.787141 0.048773
Si Si6 0.553891 0.492617 0.822191
Si Si7 0.619717 0.126853 0.717807
Si Si8 0.423317 0.398268 0.166768
O O1 0.163416 0.175792 0.260485
O O2 0.231219 0.239719 0.477457
O O3 0.052345 0.304982 0.356624
O O4 0.979463 0.183398 0.582199
O O5 0.121435 0.801790 0.494827
O O6 0.299148 0.733609 0.217928
O O7 0.182134 0.666226 0.529484
O O8 0.004997 0.706065 0.400543
O O9 0.785356 0.405905 0.455739
O O10 0.539161 0.431140 0.692962
O O11 0.818430 0.369231 0.138203
O O12 0.724576 0.496840 0.272411
O O13 0.009370 0.435166 0.207934
O O14 0.490694 0.570787 0.792726
O O15 0.478570 0.454459 0.005354
O O16 0.752064 0.098277 0.751553
#
# Coordination Sequence:
#
# PCOD9134899 Si02
#       8
#     4   4   4   4   4   4   4   4
#     4  10  22  36  64  91 124 158 204 264 314 380
#     4   9  21  36  59  90 126 162 201 263 323 376
#     4   9  20  36  61  85 115 165 211 244 312 375
#     4  10  20  40  59  89 120 167 204 255 306 381
#     4  10  20  34  59  91 126 160 205 260 317 374
#     4  11  21  41  66  84 121 168 222 248 298 387
#     4  10  24  39  62  92 133 155 206 265 325 364
#     4  11  24  42  64  94 121 171 211 257 309 379
#
# _framework density 22.451599000000002
#
# number of rings (size 3 to 8) (size 9 to 14) (size 15 to 20)
#    0.000    2.000    2.500    0.000   12.250    0.000 
#    2.250    0.000    0.000    0.000    0.000    0.000 
#    0.000    0.000    0.000    0.000    0.000    0.000 
#
# Total GULP energy -89113.940046 kJ/mol
# GULP energy per Si atom -5569.621253 kJ/mol
# Density = 2.240050 g / cm^3
# Si number density = 22.451599 Si / 1000 Ang^3
#
#
#
# Elastic Constant Matrix: (Units=GPa)
#
#
# Indices 1 2 3 4 5 6 
#
# 1 80.2908 16.6846 -9.8212 0.0000 10.2883 0.0000
# 2 16.6846 38.5433 14.8994 0.0000 -2.2855 0.0000
# 3 -9.8212 14.8994 36.3894 0.0000 0.8253 0.0000
# 4 0.0000 0.0000 0.0000 9.7945 0.0000 -12.8450
# 5 10.2883 -2.2855 0.8253 0.0000 24.7770 0.0000
# 6 0.0000 0.0000 0.0000 -12.8450 0.0000 10.6197
#
#
#
# Elastic Compliance Matrix: (Units=1/GPa)
#
#
# Indices 1 2 3 4 5 6 
#
# 1 0.017130 -0.011621 0.009574 0.000000 -0.008504 0.000000
# 2 -0.011621 0.038973 -0.019299 0.000000 0.009063 0.000000
# 3 0.009574 -0.019299 0.038126 0.000000 -0.007026 0.000000
# 4 0.000000 0.000000 0.000000 -0.174153 0.000000 -0.210645
# 5 -0.008504 0.009063 -0.007026 0.000000 0.044961 0.000000
# 6 0.000000 0.000000 0.000000 -0.210645 0.000000 -0.160619
#
#
# Mechanical properties :
#
#
# Convention : Reuss Voigt Hill
#
# Bulk Modulus (GPa) = 19.40320 22.08325 20.74323
# Shear Modulus (GPa) = -36.84284 17.93563 -9.45361
#
# Velocity S-wave (km/s) = -4.05531 2.82947 -2.05422
# Velocity P-wave (km/s) = 3.64230 4.53121 1.90598
#
# Compressibility (1/GPa) = 0.05153789
#
# Stress axis : x y z
#
# Youngs Moduli (GPa) = 58.37598 25.65887 26.22901
#
# Poissons Ratio (x) = 0.29817 -0.25112
# Poissons Ratio (y) = 0.67837 0.50620
# Poissons Ratio (z) = -0.55890 0.49519
#
# Static dielectric constant tensor:
#      x y z
#    x 1.904520 0.000000 -0.005170 
#    y 0.000000 1.883540 0.000000 
#    z -0.005170 0.000000 1.857300 
# 
# From -- ./inp_files/5770.got.cif
#   From: 2010.05.17/outbox.cif.g08.bks.cpg/sg9_3_cif.got.tgz:5770.got - 2010.06.03 20:04:27.
