data_PCOD9134556
_publ_section_title
;
Structure prediction by ZEFSAII (Michael W. Deem and Ramdas Pophale) SiO2 
 PCOD9134556
Probable space group: C C
;
_chemical_formula_sum "Si O2"
_cell_formula_units_Z 28
_cell_length_a 29.342841
_cell_length_b 5.032154
_cell_length_c 16.314174
_cell_angle_alpha 90.000000
_cell_angle_beta 33.521048
_cell_angle_gamma 90.000000
_cell_volume 1330.306200
_symmetry_space_group_name_H-M "C C"
_symmetry_group_IT_number 9
_symmetry_cell_setting 'monoclinic'
loop_
_space_group_symop_operation_xyz
x,y,z
x,-y,1/2+z
1/2+x,1/2+y,z
1/2+x,1/2-y,1/2+z
loop_
_atom_site_type_symbol
_atom_site_label
_atom_site_fract_x
_atom_site_fract_y
_atom_site_fract_z
Si Si1 0.379330 0.461316 0.515730
Si Si2 0.268073 0.528799 0.537596
Si Si3 0.641020 0.910907 0.608714
Si Si4 0.347224 0.962291 0.661148
Si Si5 0.860107 0.527565 0.333344
Si Si6 0.671938 0.391142 0.462802
Si Si7 0.504139 0.203953 0.722592
O O1 0.294382 0.481532 0.591366
O O2 0.388968 0.169316 0.536696
O O3 0.449663 0.573631 0.349741
O O4 0.373433 0.667961 0.598543
O O5 0.175836 0.462020 0.646785
O O6 0.294765 0.824166 0.472130
O O7 0.326362 0.322014 0.400467
O O8 0.654092 0.611720 0.559617
O O9 0.695599 0.109836 0.469163
O O10 0.551466 0.022653 0.719106
O O11 0.365465 0.019547 0.728605
O O12 0.248724 0.003251 0.797401
O O13 0.945007 0.464639 0.252940
O O14 0.582260 0.336000 0.558348
#
# Coordination Sequence:
#
# PCOD9134556 Si02
#       7
#     4   4   4   4   4   4   4
#     4  11  25  37  62  92 131 152 205 267 321 351
#     4  11  20  40  62  92 114 172 212 246 295 394
#     4  10  19  37  65  87 114 156 219 248 287 365
#     4  12  22  41  59  95 124 161 200 268 314 359
#     4  11  21  37  66  87 120 165 218 242 301 385
#     4  10  21  37  64  84 120 162 207 246 300 376
#     4   9  24  39  64  89 121 164 211 251 306 378
#
# _framework density 21.047785999999999
#
# number of rings (size 3 to 8) (size 9 to 14) (size 15 to 20)
#    0.857    0.571    2.857    3.429    6.000    0.000 
#    0.000    2.857    0.000    0.000    0.000    0.000 
#    0.000    0.000    0.000    0.000    0.000    0.000 
#
# Total GULP energy -78097.622574 kJ/mol
# GULP energy per Si atom -5578.401612 kJ/mol
# Density = 2.099988 g / cm^3
# Si number density = 21.047786 Si / 1000 Ang^3
#
#
#
# Elastic Constant Matrix: (Units=GPa)
#
#
# Indices 1 2 3 4 5 6 
#
# 1 120.0442 11.7584 17.0389 -0.0194 -14.6955 -0.0212
# 2 11.7584 69.9744 4.4606 0.0726 -6.4665 -0.0975
# 3 17.0389 4.4606 55.7061 0.0191 -18.3588 -0.0189
# 4 -0.0194 0.0726 0.0191 27.2087 -0.0005 3.6152
# 5 -14.6955 -6.4665 -18.3588 -0.0005 33.9783 0.0022
# 6 -0.0212 -0.0975 -0.0189 3.6152 0.0022 28.4952
#
#
#
# Elastic Compliance Matrix: (Units=1/GPa)
#
#
# Indices 1 2 3 4 5 6 
#
# 1 0.009028 -0.001152 -0.001770 0.000011 0.002729 0.000000
# 2 -0.001152 0.014698 -0.000081 -0.000047 0.002255 0.000055
# 3 -0.001770 -0.000081 0.022194 -0.000018 0.011211 0.000015
# 4 0.000011 -0.000047 -0.000018 0.037383 -0.000013 -0.004743
# 5 0.002729 0.002255 0.011211 -0.000013 0.037097 0.000016
# 6 0.000000 0.000055 0.000015 -0.004743 0.000016 0.035696
#
#
# Mechanical properties :
#
#
# Convention : Reuss Voigt Hill
#
# Bulk Modulus (GPa) = 25.05384 34.69339 29.87361
# Shear Modulus (GPa) = 28.50497 32.10089 30.30293
#
# Velocity S-wave (km/s) = 3.68407 3.90955 3.79848
# Velocity P-wave (km/s) = 5.47957 6.07440 5.78463
#
# Compressibility (1/GPa) = 0.03991405
#
# Stress axis : x y z
#
# Youngs Moduli (GPa) = 110.76129 68.03537 45.05744
#
# Poissons Ratio (x) = 0.07838 0.07974
# Poissons Ratio (y) = 0.12761 0.00366
# Poissons Ratio (z) = 0.19603 0.00553
#
# Static dielectric constant tensor:
#      x y z
#    x 1.778790 -0.000010 -0.038090 
#    y -0.000010 1.744060 0.000000 
#    z -0.038090 0.000000 1.750900 
# 
# From -- ./inp_files/26321.got.cif
#   From: 2010.05.17/outbox.cif.g08.bks.cpg/sg9_14_cif.got.tgz:26321.got - 2010.06.03 20:04:27.
