data_PCOD9134337
_publ_section_title
;
Structure prediction by ZEFSAII (Michael W. Deem and Ramdas Pophale) SiO2 
 PCOD9134337
Probable space group: C C
;
_chemical_formula_sum "Si O2"
_cell_formula_units_Z 32
_cell_length_a 13.645511
_cell_length_b 11.984790
_cell_length_c 9.218670
_cell_angle_alpha 90.000000
_cell_angle_beta 61.692744
_cell_angle_gamma 90.000000
_cell_volume 1327.324384
_symmetry_space_group_name_H-M "C C"
_symmetry_group_IT_number 9
_symmetry_cell_setting 'monoclinic'
loop_
_space_group_symop_operation_xyz
x,y,z
x,-y,1/2+z
1/2+x,1/2+y,z
1/2+x,1/2-y,1/2+z
loop_
_atom_site_type_symbol
_atom_site_label
_atom_site_fract_x
_atom_site_fract_y
_atom_site_fract_z
Si Si1 0.271060 0.794680 0.361540
Si Si2 0.964089 0.430394 0.115739
Si Si3 0.286527 0.566585 0.242260
Si Si4 0.584445 0.081206 0.814857
Si Si5 0.428551 0.267028 0.027323
Si Si6 0.800055 0.617393 0.300813
Si Si7 0.936621 0.995180 0.404158
Si Si8 0.672587 0.486977 0.610781
O O1 0.362405 0.844804 0.186380
O O2 0.225221 0.682143 0.323854
O O3 0.349252 0.766076 0.446172
O O4 0.184321 0.887420 0.481174
O O5 0.905804 0.536450 0.232179
O O6 0.057016 0.395408 0.166818
O O7 0.013042 0.480050 0.935369
O O8 0.207862 0.465553 0.246184
O O9 0.348812 0.527604 0.342628
O O10 0.378626 0.589627 0.054154
O O11 0.539280 0.190326 0.931971
O O12 0.457777 0.394705 0.987645
O O13 0.353553 0.235036 0.218632
O O14 0.732391 0.591818 0.492602
O O15 0.731734 0.567929 0.209957
O O16 0.052121 0.973609 0.244465
#
# Coordination Sequence:
#
# PCOD9134337 Si02
#       8
#     4   4   4   4   4   4   4   4
#     4   8  18  35  58  86 115 153 200 243 294 361
#     4   9  17  34  59  86 112 147 199 252 295 350
#     4  11  23  38  56  86 127 163 198 246 301 361
#     4  10  19  34  59  86 115 157 199 245 298 356
#     4   8  18  35  58  83 112 151 201 243 290 356
#     4   9  17  34  60  89 112 146 203 259 294 344
#     4  11  23  39  57  85 123 162 198 243 298 361
#     4  10  19  35  61  87 114 157 202 245 298 359
#
# _framework density 24.108650000000001
#
# number of rings (size 3 to 8) (size 9 to 14) (size 15 to 20)
#    0.000    2.500    0.000    3.750    0.000    6.000 
#    0.000    5.000    0.000   10.500    0.000    0.000 
#    0.000    0.000    0.000    0.000    0.000    0.000 
#
# Total GULP energy -89332.451300 kJ/mol
# GULP energy per Si atom -5583.278206 kJ/mol
# Density = 2.405378 g / cm^3
# Si number density = 24.108650 Si / 1000 Ang^3
#
#
#
# Elastic Constant Matrix: (Units=GPa)
#
#
# Indices 1 2 3 4 5 6 
#
# 1 62.6754 10.4245 33.7651 0.0000 5.7743 0.0000
# 2 10.4245 48.2199 46.4393 0.0000 -1.4671 0.0000
# 3 33.7651 46.4393 159.3917 0.0000 -14.2590 0.0000
# 4 0.0000 0.0000 0.0000 27.1245 0.0000 -3.2178
# 5 5.7743 -1.4671 -14.2590 0.0000 28.7198 0.0000
# 6 0.0000 0.0000 0.0000 -3.2178 0.0000 18.1461
#
#
#
# Elastic Compliance Matrix: (Units=1/GPa)
#
#
# Indices 1 2 3 4 5 6 
#
# 1 0.018975 0.000151 -0.004609 0.000000 -0.006095 0.000000
# 2 0.000151 0.029049 -0.008754 0.000000 -0.002893 0.000000
# 3 -0.004609 -0.008754 0.010301 0.000000 0.005594 0.000000
# 4 0.000000 0.000000 0.000000 0.037659 0.000000 0.006678
# 5 -0.006095 -0.002893 0.005594 0.000000 0.038674 0.000000
# 6 0.000000 0.000000 0.000000 0.006678 0.000000 0.056292
#
#
# Mechanical properties :
#
#
# Convention : Reuss Voigt Hill
#
# Bulk Modulus (GPa) = 31.34742 50.17164 40.75953
# Shear Modulus (GPa) = 21.92910 26.77529 24.35219
#
# Velocity S-wave (km/s) = 3.01922 3.33620 3.18166
# Velocity P-wave (km/s) = 5.01847 5.97462 5.51730
#
# Compressibility (1/GPa) = 0.03190055
#
# Stress axis : x y z
#
# Youngs Moduli (GPa) = 52.70201 34.42506 97.07628
#
# Poissons Ratio (x) = -0.00520 0.44741
# Poissons Ratio (y) = -0.00797 0.84983
# Poissons Ratio (z) = 0.24290 0.30136
#
# Static dielectric constant tensor:
#      x y z
#    x 1.947240 0.000000 -0.001720 
#    y 0.000000 1.936920 0.000000 
#    z -0.001720 0.000000 1.962730 
# 
# From -- ./inp_files/18266.got.cif
#   From: 2010.05.17/outbox.cif.g08.bks.cpg/sg9_10_cif.got.tgz:18266.got - 2010.06.03 20:04:27.
