data_PCOD9134797
_publ_section_title
;
Structure prediction by ZEFSAII (Michael W. Deem and Ramdas Pophale) SiO2 
 PCOD9134797
Probable space group: C C
;
_chemical_formula_sum "Si O2"
_cell_formula_units_Z 28
_cell_length_a 8.658673
_cell_length_b 11.723278
_cell_length_c 10.727488
_cell_angle_alpha 90.000000
_cell_angle_beta 92.241022
_cell_angle_gamma 90.000000
_cell_volume 1088.093344
_symmetry_space_group_name_H-M "C C"
_symmetry_group_IT_number 9
_symmetry_cell_setting 'monoclinic'
loop_
_space_group_symop_operation_xyz
x,y,z
x,-y,1/2+z
1/2+x,1/2+y,z
1/2+x,1/2-y,1/2+z
loop_
_atom_site_type_symbol
_atom_site_label
_atom_site_fract_x
_atom_site_fract_y
_atom_site_fract_z
Si Si1 0.388620 0.814901 0.774980
Si Si2 0.139735 0.053475 0.181251
Si Si3 0.637024 0.212204 0.965583
Si Si4 0.420622 0.416225 0.987691
Si Si5 0.071423 0.552142 0.488836
Si Si6 0.444196 0.257293 0.596797
Si Si7 0.530708 0.610841 0.850666
O O1 0.301766 0.884367 0.665659
O O2 0.252952 0.760176 0.859862
O O3 0.498471 0.896978 0.858847
O O4 0.481555 0.701491 0.744621
O O5 0.020007 0.158554 0.197963
O O6 0.164340 0.969327 0.300613
O O7 0.053310 0.978060 0.075623
O O8 0.491914 0.295033 0.961591
O O9 0.579214 0.082884 0.970205
O O10 0.762377 0.221736 0.081847
O O11 0.246503 0.410171 0.027945
O O12 0.406742 0.511742 0.876725
O O13 0.975062 0.622685 0.591074
O O14 0.531726 0.310792 0.474439
#
# Coordination Sequence:
#
# PCOD9134797 Si02
#       7
#     4   4   4   4   4   4   4
#     4  10  22  38  65  89 123 161 206 254 309 356
#     4  11  21  39  66  90 122 166 208 255 298 368
#     4  10  19  42  62  87 119 167 198 248 315 364
#     4  11  21  39  66  89 123 162 205 250 313 359
#     4  10  20  41  61  90 124 161 203 250 311 369
#     4   9  22  40  64  88 126 163 200 256 313 352
#     4   9  19  39  62  87 121 156 204 247 309 356
#
# _framework density 25.733086
#
# number of rings (size 3 to 8) (size 9 to 14) (size 15 to 20)
#    0.000    2.286    5.714    0.000    2.000    2.286 
#    5.143    2.857    3.143    0.000    0.000    0.000 
#    0.000    0.000    0.000    0.000    0.000    0.000 
#
# Total GULP energy -77959.564393 kJ/mol
# GULP energy per Si atom -5568.540314 kJ/mol
# Density = 2.567452 g / cm^3
# Si number density = 25.733086 Si / 1000 Ang^3
#
#
#
# Elastic Constant Matrix: (Units=GPa)
#
#
# Indices 1 2 3 4 5 6 
#
# 1 52.1850 80.9726 32.6712 0.0000 16.1440 0.0000
# 2 80.9726 245.7299 37.6852 0.0000 25.0700 0.0000
# 3 32.6712 37.6852 58.7290 0.0000 8.2370 0.0000
# 4 0.0000 0.0000 0.0000 18.5141 0.0000 3.8590
# 5 16.1440 25.0700 8.2370 0.0000 25.7595 0.0000
# 6 0.0000 0.0000 0.0000 3.8590 0.0000 43.5312
#
#
#
# Elastic Compliance Matrix: (Units=1/GPa)
#
#
# Indices 1 2 3 4 5 6 
#
# 1 0.062223 -0.015344 -0.022398 0.000000 -0.016901 0.000000
# 2 -0.015344 0.008647 0.002952 0.000000 0.000257 0.000000
# 3 -0.022398 0.002952 0.027250 0.000000 0.002451 0.000000
# 4 0.000000 0.000000 0.000000 0.055030 0.000000 -0.004878
# 5 -0.016901 0.000257 0.002451 0.000000 0.048378 0.000000
# 6 0.000000 0.000000 0.000000 -0.004878 0.000000 0.023404
#
#
# Mechanical properties :
#
#
# Convention : Reuss Voigt Hill
#
# Bulk Modulus (GPa) = 35.04189 73.25577 54.14883
# Shear Modulus (GPa) = 16.44590 31.24860 23.84725
#
# Velocity S-wave (km/s) = 2.53078 3.48851 3.04750
# Velocity P-wave (km/s) = 4.71028 6.68996 5.78543
#
# Compressibility (1/GPa) = 0.02853727
#
# Stress axis : x y z
#
# Youngs Moduli (GPa) = 16.07125 115.64909 36.69732
#
# Poissons Ratio (x) = 1.77456 0.82196
# Poissons Ratio (y) = 0.24660 -0.10831
# Poissons Ratio (z) = 0.35997 -0.34134
#
# Static dielectric constant tensor:
#      x y z
#    x 2.007360 0.000000 -0.011410 
#    y 0.000000 2.019930 0.000000 
#    z -0.011410 0.000000 2.322500 
# 
# From -- ./inp_files/22629.got.cif
#   From: 2010.05.17/outbox.cif.g08.bks.cpg/sg9_12_cif.got.tgz:22629.got - 2010.06.03 20:04:27.
