data_PCOD9134480
_publ_section_title
;
Structure prediction by ZEFSAII (Michael W. Deem and Ramdas Pophale) SiO2 
 PCOD9134480
Probable space group: C C
;
_chemical_formula_sum "Si O2"
_cell_formula_units_Z 28
_cell_length_a 10.495441
_cell_length_b 14.240463
_cell_length_c 7.316213
_cell_angle_alpha 90.000000
_cell_angle_beta 105.074797
_cell_angle_gamma 90.000000
_cell_volume 1055.850936
_symmetry_space_group_name_H-M "C C"
_symmetry_group_IT_number 9
_symmetry_cell_setting 'monoclinic'
loop_
_space_group_symop_operation_xyz
x,y,z
x,-y,1/2+z
1/2+x,1/2+y,z
1/2+x,1/2-y,1/2+z
loop_
_atom_site_type_symbol
_atom_site_label
_atom_site_fract_x
_atom_site_fract_y
_atom_site_fract_z
Si Si1 0.098000 0.129809 0.292810
Si Si2 0.146311 0.349542 0.263512
Si Si3 0.583537 0.973562 0.886688
Si Si4 0.417207 0.306585 0.226516
Si Si5 0.704056 0.335084 0.226250
Si Si6 0.819840 0.130476 0.293885
Si Si7 0.827747 0.403193 0.621507
O O1 0.095184 0.243023 0.255669
O O2 0.193391 0.081647 0.183154
O O3 0.947478 0.094386 0.231745
O O4 0.165958 0.120668 0.517907
O O5 0.104794 0.414853 0.415955
O O6 0.305595 0.349297 0.313937
O O7 0.092885 0.401247 0.059681
O O8 0.705364 0.941290 0.803354
O O9 0.447096 0.967302 0.726299
O O10 0.572324 0.320754 0.301163
O O11 0.381301 0.197743 0.208487
O O12 0.384064 0.344363 0.013613
O O13 0.762749 0.231291 0.208314
O O14 0.798426 0.392088 0.396650
#
# Coordination Sequence:
#
# PCOD9134480 Si02
#       7
#     4   4   4   4   4   4   4
#     4  10  23  39  66  98 123 169 229 274 333 391
#     4  10  24  40  65  94 135 179 218 271 336 411
#     4  11  23  43  64  95 138 175 224 269 342 401
#     4   8  17  37  60  92 120 166 218 273 321 384
#     4  10  19  36  66  95 128 159 223 279 334 376
#     4   9  19  35  64  93 122 165 218 274 321 390
#     4  10  21  38  65  95 130 167 220 288 321 389
#
# _framework density 26.518896000000002
#
# number of rings (size 3 to 8) (size 9 to 14) (size 15 to 20)
#    0.000    2.286    1.429    0.857    4.000    1.143 
#    0.000    0.000    6.286    0.000    0.000    0.000 
#    0.000    0.000    0.000    0.000    0.000    0.000 
#
# Total GULP energy -78427.508603 kJ/mol
# GULP energy per Si atom -5601.964900 kJ/mol
# Density = 2.645854 g / cm^3
# Si number density = 26.518896 Si / 1000 Ang^3
#
#
#
# Elastic Constant Matrix: (Units=GPa)
#
#
# Indices 1 2 3 4 5 6 
#
# 1 180.1451 32.8406 24.9984 0.0000 8.7667 0.0000
# 2 32.8406 101.1601 33.0522 0.0000 -4.2673 0.0000
# 3 24.9984 33.0522 123.7400 0.0000 5.6169 0.0000
# 4 0.0000 0.0000 0.0000 20.1666 0.0000 -4.8188
# 5 8.7667 -4.2673 5.6169 0.0000 24.3523 0.0000
# 6 0.0000 0.0000 0.0000 -4.8188 0.0000 39.7655
#
#
#
# Elastic Compliance Matrix: (Units=1/GPa)
#
#
# Indices 1 2 3 4 5 6 
#
# 1 0.006095 -0.001876 -0.000622 0.000000 -0.002379 0.000000
# 2 -0.001876 0.011572 -0.002865 0.000000 0.003364 0.000000
# 3 -0.000622 -0.002865 0.009080 0.000000 -0.002372 0.000000
# 4 0.000000 0.000000 0.000000 0.051066 0.000000 0.006188
# 5 -0.002379 0.003364 -0.002372 0.000000 0.043057 0.000000
# 6 0.000000 0.000000 0.000000 0.006188 0.000000 0.025897
#
#
# Mechanical properties :
#
#
# Convention : Reuss Voigt Hill
#
# Bulk Modulus (GPa) = 62.41546 65.20307 63.80926
# Shear Modulus (GPa) = 30.70614 37.80048 34.25331
#
# Velocity S-wave (km/s) = 3.40648 3.77956 3.59786
# Velocity P-wave (km/s) = 6.24976 6.60966 6.43223
#
# Compressibility (1/GPa) = 0.01602167
#
# Stress axis : x y z
#
# Youngs Moduli (GPa) = 164.06387 86.41408 110.13107
#
# Poissons Ratio (x) = 0.16209 0.06854
# Poissons Ratio (y) = 0.30775 0.31550
# Poissons Ratio (z) = 0.10210 0.24756
#
# Static dielectric constant tensor:
#      x y z
#    x 2.118360 0.000000 -0.000090 
#    y 0.000000 2.029160 0.000000 
#    z -0.000090 0.000000 2.090860 
# 
# From -- ./inp_files/16283.got.cif
#   From: 2010.05.17/outbox.cif.g08.bks.cpg/sg9_9_cif.got.tgz:16283.got - 2010.06.03 20:04:27.
