data_PCOD9134499
_publ_section_title
;
Structure prediction by ZEFSAII (Michael W. Deem and Ramdas Pophale) SiO2 
 PCOD9134499
Probable space group: C C
;
_chemical_formula_sum "Si O2"
_cell_formula_units_Z 32
_cell_length_a 7.641759
_cell_length_b 16.637174
_cell_length_c 13.256332
_cell_angle_alpha 90.000000
_cell_angle_beta 124.875195
_cell_angle_gamma 90.000000
_cell_volume 1382.679914
_symmetry_space_group_name_H-M "C C"
_symmetry_group_IT_number 9
_symmetry_cell_setting 'monoclinic'
loop_
_space_group_symop_operation_xyz
x,y,z
x,-y,1/2+z
1/2+x,1/2+y,z
1/2+x,1/2-y,1/2+z
loop_
_atom_site_type_symbol
_atom_site_label
_atom_site_fract_x
_atom_site_fract_y
_atom_site_fract_z
Si Si1 0.587980 0.155101 0.983640
Si Si2 0.688227 0.655142 0.112571
Si Si3 0.703734 0.547032 0.297020
Si Si4 0.128304 0.192758 0.393067
Si Si5 0.147916 0.692704 0.703124
Si Si6 0.606194 0.383576 0.357551
Si Si7 0.170025 0.383541 0.738668
Si Si8 0.572485 0.046988 0.799205
O O1 0.670158 0.246386 0.999366
O O2 0.327850 0.153745 0.887780
O O3 0.675880 0.100566 0.921561
O O4 0.637819 0.117967 0.107810
O O5 0.600333 0.600611 0.174662
O O6 0.606041 0.746427 0.096833
O O7 0.948363 0.653787 0.208423
O O8 0.638371 0.617994 0.988402
O O9 0.756557 0.612739 0.401363
O O10 0.582863 0.473301 0.307537
O O11 0.888096 0.500019 0.298100
O O12 0.138127 0.250029 0.298104
O O13 0.886629 0.163129 0.331110
O O14 0.389583 0.663076 0.765057
O O15 0.019684 0.612683 0.694855
O O16 0.193390 0.473250 0.788737
#
# Coordination Sequence:
#
# PCOD9134499 Si02
#       8
#     4   4   4   4   4   4   4   4
#     4   9  20  37  58  84 113 149 187 233 284 334
#     4   9  20  37  58  84 113 149 187 233 284 334
#     4   9  19  36  56  80 111 144 185 231 277 333
#     4  10  20  35  56  82 113 148 186 231 279 335
#     4  10  20  35  56  82 113 148 186 231 279 335
#     4  10  19  37  59  82 114 149 186 233 282 333
#     4  10  19  37  59  82 114 149 186 233 282 333
#     4   9  19  36  56  80 111 144 185 231 277 333
#
# _framework density 23.143463000000001
#
# number of rings (size 3 to 8) (size 9 to 14) (size 15 to 20)
#    0.000    2.500    0.000    1.500    0.000    4.000 
#    0.000   27.500    0.000    0.000    0.000    0.000 
#    0.000    0.000    0.000    0.000    0.000    0.000 
#
# Total GULP energy -89229.979545 kJ/mol
# GULP energy per Si atom -5576.873722 kJ/mol
# Density = 2.309079 g / cm^3
# Si number density = 23.143463 Si / 1000 Ang^3
#
#
#
# Elastic Constant Matrix: (Units=GPa)
#
#
# Indices 1 2 3 4 5 6 
#
# 1 147.6664 70.0277 21.6464 0.0000 1.8261 0.0000
# 2 70.0277 181.4322 39.3843 0.0000 -15.7863 0.0000
# 3 21.6464 39.3843 65.7740 0.0000 -17.5793 0.0000
# 4 0.0000 0.0000 0.0000 4.2129 0.0000 -24.8712
# 5 1.8261 -15.7863 -17.5793 0.0000 30.3617 0.0000
# 6 0.0000 0.0000 0.0000 -24.8712 0.0000 56.2339
#
#
#
# Elastic Compliance Matrix: (Units=1/GPa)
#
#
# Indices 1 2 3 4 5 6 
#
# 1 0.008594 -0.003214 -0.001761 0.000000 -0.003208 0.000000
# 2 -0.003214 0.007581 -0.002811 0.000000 0.002507 0.000000
# 3 -0.001761 -0.002811 0.020236 0.000000 0.010361 0.000000
# 4 0.000000 0.000000 0.000000 -0.147336 0.000000 -0.065164
# 5 -0.003208 0.002507 0.010361 0.000000 0.040431 0.000000
# 6 0.000000 0.000000 0.000000 -0.065164 0.000000 -0.011038
#
#
# Mechanical properties :
#
#
# Convention : Reuss Voigt Hill
#
# Bulk Modulus (GPa) = 47.99083 72.99882 60.49482
# Shear Modulus (GPa) = -84.72515 35.74931 -24.48792
#
# Velocity S-wave (km/s) = -6.05707 3.93451 -3.25636
# Velocity P-wave (km/s) = 5.30436 7.22847 3.47236
#
# Compressibility (1/GPa) = 0.02083732
#
# Stress axis : x y z
#
# Youngs Moduli (GPa) = 116.36117 131.91669 49.41770
#
# Poissons Ratio (x) = 0.42395 0.08704
# Poissons Ratio (y) = 0.37396 0.13893
# Poissons Ratio (z) = 0.20494 0.37087
#
# Static dielectric constant tensor:
#      x y z
#    x 1.943250 0.000000 0.053530 
#    y 0.000000 1.882070 0.000000 
#    z 0.053530 0.000000 1.920370 
# 
# From -- ./inp_files/14631.got.cif
#   From: 2010.05.17/outbox.cif.g08.bks.cpg/sg9_8_cif.got.tgz:14631.got - 2010.06.03 20:04:27.
