data_PCOD9134162
_publ_section_title
;
Structure prediction by ZEFSAII (Michael W. Deem and Ramdas Pophale) SiO2 
 PCOD9134162
Probable space group: C C
;
_chemical_formula_sum "Si O2"
_cell_formula_units_Z 32
_cell_length_a 16.324960
_cell_length_b 11.582997
_cell_length_c 25.440474
_cell_angle_alpha 90.000000
_cell_angle_beta 160.591926
_cell_angle_gamma 90.000000
_cell_volume 1598.530134
_symmetry_space_group_name_H-M "C C"
_symmetry_group_IT_number 9
_symmetry_cell_setting 'monoclinic'
loop_
_space_group_symop_operation_xyz
x,y,z
x,-y,1/2+z
1/2+x,1/2+y,z
1/2+x,1/2-y,1/2+z
loop_
_atom_site_type_symbol
_atom_site_label
_atom_site_fract_x
_atom_site_fract_y
_atom_site_fract_z
Si Si1 0.259550 0.568863 0.048280
Si Si2 0.313084 0.047752 0.091294
Si Si3 0.078903 0.620265 0.358236
Si Si4 0.658734 0.944724 0.607284
Si Si5 0.041615 0.273441 0.662884
Si Si6 0.046711 0.813265 0.907180
Si Si7 0.389015 0.656028 0.776975
Si Si8 0.628660 0.603072 0.809068
O O1 0.135304 0.552300 0.030436
O O2 0.532376 0.516278 0.224321
O O3 0.138828 0.484644 0.932752
O O4 0.212869 0.699422 0.001731
O O5 0.464028 0.075154 0.234874
O O6 0.470160 0.096149 0.136844
O O7 0.063028 0.122726 0.930992
O O8 0.219254 0.916501 0.032694
O O9 0.330378 0.697729 0.505009
O O10 0.883447 0.707755 0.267169
O O11 0.419398 0.885700 0.485747
O O12 0.901536 0.871275 0.770091
O O13 0.661894 0.069859 0.637536
O O14 0.313154 0.276745 0.802451
O O15 0.038123 0.204855 0.716363
O O16 0.512089 0.613751 0.795940
#
# Coordination Sequence:
#
# PCOD9134162 Si02
#       8
#     4   4   4   4   4   4   4   4
#     4  10  23  36  60  87 120 156 196 245 298 354
#     4  10  21  37  58  90 120 148 199 254 291 342
#     4  10  20  37  60  86 119 153 199 249 292 350
#     4  10  20  36  60  84 119 159 200 239 299 354
#     4  10  20  37  65  90 113 156 205 239 294 361
#     4  11  23  38  62  91 120 157 200 246 294 358
#     4   9  19  35  60  87 115 154 197 248 294 346
#     4  10  18  38  63  89 116 157 200 240 292 361
#
# _framework density 20.018391000000001
#
# number of rings (size 3 to 8) (size 9 to 14) (size 15 to 20)
#    0.000    2.000    2.500    1.500    3.500    0.000 
#    0.000    1.250    8.250    0.000    0.000    0.000 
#    0.000    0.000    0.000    0.000    0.000    0.000 
#
# Total GULP energy -89068.348382 kJ/mol
# GULP energy per Si atom -5566.771774 kJ/mol
# Density = 1.997283 g / cm^3
# Si number density = 20.018391 Si / 1000 Ang^3
#
#
#
# Elastic Constant Matrix: (Units=GPa)
#
#
# Indices 1 2 3 4 5 6 
#
# 1 55.3922 26.0747 29.2912 0.0044 -25.7885 0.0005
# 2 26.0747 156.1643 59.4422 0.0217 -15.9202 0.0001
# 3 29.2912 59.4422 100.5477 0.0358 -32.8716 0.0072
# 4 0.0044 0.0217 0.0358 26.3908 -0.0012 -1.1344
# 5 -25.7885 -15.9202 -32.8716 -0.0012 31.5246 -0.0013
# 6 0.0005 0.0001 0.0072 -1.1344 -0.0013 22.2267
#
#
#
# Elastic Compliance Matrix: (Units=1/GPa)
#
#
# Indices 1 2 3 4 5 6 
#
# 1 0.030201 -0.002884 0.000770 -0.000003 0.024053 0.000000
# 2 -0.002884 0.008579 -0.005441 0.000001 -0.003701 0.000002
# 3 0.000770 -0.005441 0.018579 -0.000020 0.017255 -0.000006
# 4 -0.000003 0.000001 -0.000020 0.037975 -0.000021 0.001938
# 5 0.024053 -0.003701 0.017255 -0.000021 0.067521 -0.000003
# 6 0.000000 0.000002 -0.000006 0.001938 -0.000003 0.045090
#
#
# Mechanical properties :
#
#
# Convention : Reuss Voigt Hill
#
# Bulk Modulus (GPa) = 23.66903 60.19116 41.93009
# Shear Modulus (GPa) = 21.08466 29.18150 25.13308
#
# Velocity S-wave (km/s) = 3.24892 3.82217 3.54715
# Velocity P-wave (km/s) = 5.09150 7.04357 6.14553
#
# Compressibility (1/GPa) = 0.04224930
#
# Stress axis : x y z
#
# Youngs Moduli (GPa) = 33.11116 116.56369 53.82345
#
# Poissons Ratio (x) = 0.33615 -0.04145
# Poissons Ratio (y) = 0.09549 0.29288
# Poissons Ratio (z) = -0.02550 0.63428
#
# Static dielectric constant tensor:
#      x y z
#    x 1.715160 0.000000 -0.006260 
#    y 0.000000 1.766740 -0.000020 
#    z -0.006260 -0.000020 1.763280 
# 
# From -- ./inp_files/19222.got.cif
#   From: 2010.05.17/outbox.cif.g08.bks.cpg/sg9_10_cif.got.tgz:19222.got - 2010.06.03 20:04:27.
