data_PCOD9134216
_publ_section_title
;
Structure prediction by ZEFSAII (Michael W. Deem and Ramdas Pophale) SiO2 
 PCOD9134216
Probable space group: C C
;
_chemical_formula_sum "Si O2"
_cell_formula_units_Z 24
_cell_length_a 23.404038
_cell_length_b 5.473447
_cell_length_c 7.649015
_cell_angle_alpha 90.000000
_cell_angle_beta 128.190490
_cell_angle_gamma 90.000000
_cell_volume 770.118234
_symmetry_space_group_name_H-M "C C"
_symmetry_group_IT_number 9
_symmetry_cell_setting 'monoclinic'
loop_
_space_group_symop_operation_xyz
x,y,z
x,-y,1/2+z
1/2+x,1/2+y,z
1/2+x,1/2-y,1/2+z
loop_
_atom_site_type_symbol
_atom_site_label
_atom_site_fract_x
_atom_site_fract_y
_atom_site_fract_z
Si Si1 0.496580 0.290926 0.745830
Si Si2 0.730558 0.724028 0.650504
Si Si3 0.633062 0.622096 0.772037
Si Si4 0.379584 0.614453 0.479696
Si Si5 0.038978 0.751362 0.420186
Si Si6 0.353540 0.113405 0.298424
O O1 0.529058 0.264192 0.612920
O O2 0.399443 0.297733 0.510109
O O3 0.505403 0.021542 0.835789
O O4 0.565264 0.409197 0.006742
O O5 0.689357 0.762468 0.754735
O O6 0.672075 0.637823 0.394059
O O7 0.777302 0.468476 0.735424
O O8 0.792698 0.073034 0.245937
O O9 0.604440 0.750802 0.893807
O O10 0.470982 0.591437 0.701946
O O11 0.357994 0.748277 0.624148
O O12 0.391293 0.845531 0.363551
#
# Coordination Sequence:
#
# PCOD9134216 Si02
#       6
#     4   4   4   4   4   4
#     4  10  18  42  68  96 130 167 243 268 349 387
#     4   9  19  44  66 102 134 174 236 272 350 392
#     4  10  24  44  64 100 142 192 218 278 326 422
#     4   8  16  36  70  94 128 163 220 302 330 387
#     4  11  23  44  64  98 136 187 223 272 327 415
#     4   8  16  36  68  94 126 165 214 304 326 393
#
# _framework density 31.164044000000001
#
# number of rings (size 3 to 8) (size 9 to 14) (size 15 to 20)
#    2.000    0.667    1.667    0.000    0.000    1.333 
#   18.000    6.667    0.000    0.000    0.000    7.000 
#    0.000    0.000    0.000    0.000    0.000    0.000 
#
# Total GULP energy -67023.594105 kJ/mol
# GULP energy per Si atom -5585.299509 kJ/mol
# Density = 3.109311 g / cm^3
# Si number density = 31.164044 Si / 1000 Ang^3
#
#
#
# Elastic Constant Matrix: (Units=GPa)
#
#
# Indices 1 2 3 4 5 6 
#
# 1 274.8529 80.8284 108.8472 0.0000 -3.7468 0.0000
# 2 80.8284 216.8959 103.9435 0.0000 -11.2067 0.0000
# 3 108.8472 103.9435 218.0492 0.0000 -1.2185 0.0000
# 4 0.0000 0.0000 0.0000 75.4874 0.0000 -6.8119
# 5 -3.7468 -11.2067 -1.2185 0.0000 89.1204 0.0000
# 6 0.0000 0.0000 0.0000 -6.8119 0.0000 43.6050
#
#
#
# Elastic Compliance Matrix: (Units=1/GPa)
#
#
# Indices 1 2 3 4 5 6 
#
# 1 0.004641 -0.000798 -0.001936 0.000000 0.000068 0.000000
# 2 -0.000798 0.006159 -0.002533 0.000000 0.000706 0.000000
# 3 -0.001936 -0.002533 0.006758 0.000000 -0.000308 0.000000
# 4 0.000000 0.000000 0.000000 0.013437 0.000000 0.002099
# 5 0.000068 0.000706 -0.000308 0.000000 0.011308 0.000000
# 6 0.000000 0.000000 0.000000 0.002099 0.000000 0.023261
#
#
# Mechanical properties :
#
#
# Convention : Reuss Voigt Hill
#
# Bulk Modulus (GPa) = 142.38942 144.11512 143.25227
# Shear Modulus (GPa) = 63.74414 69.38781 66.56597
#
# Velocity S-wave (km/s) = 4.52756 4.72374 4.62669
# Velocity P-wave (km/s) = 8.55109 8.72330 8.63763
#
# Compressibility (1/GPa) = 0.00702299
#
# Stress axis : x y z
#
# Youngs Moduli (GPa) = 215.49358 162.37671 147.96694
#
# Poissons Ratio (x) = 0.12961 0.28640
# Poissons Ratio (y) = 0.17201 0.37485
# Poissons Ratio (z) = 0.41711 0.41136
#
# Static dielectric constant tensor:
#      x y z
#    x 2.213520 0.000000 0.211960 
#    y 0.000000 2.539950 0.000000 
#    z 0.211960 0.000000 2.738600 
# 
# From -- ./inp_files/12036.got.cif
#   From: 2010.05.17/outbox.cif.g08.bks.cpg/sg9_7_cif.got.tgz:12036.got - 2010.06.03 20:04:27.
