data_PCOD9135698
_publ_section_title
;
Structure prediction by ZEFSAII (Michael W. Deem and Ramdas Pophale) SiO2 
 PCOD9135698
Probable space group: C C
;
_chemical_formula_sum "Si O2"
_cell_formula_units_Z 28
_cell_length_a 6.552786
_cell_length_b 19.699238
_cell_length_c 11.888425
_cell_angle_alpha 90.000000
_cell_angle_beta 121.701706
_cell_angle_gamma 90.000000
_cell_volume 1305.644368
_symmetry_space_group_name_H-M "C C"
_symmetry_group_IT_number 9
_symmetry_cell_setting 'monoclinic'
loop_
_space_group_symop_operation_xyz
x,y,z
x,-y,1/2+z
1/2+x,1/2+y,z
1/2+x,1/2-y,1/2+z
loop_
_atom_site_type_symbol
_atom_site_label
_atom_site_fract_x
_atom_site_fract_y
_atom_site_fract_z
Si Si1 0.745860 0.387993 0.088990
Si Si2 0.506952 0.625484 0.087391
Si Si3 0.466884 0.321822 0.200885
Si Si4 0.017830 0.322266 0.767484
Si Si5 0.928990 0.726310 0.491508
Si Si6 0.779261 0.926093 0.315139
Si Si7 0.418014 0.573247 0.313033
O O1 0.564956 0.372771 0.136581
O O2 0.767755 0.318914 0.024529
O O3 0.001993 0.406641 0.215903
O O4 0.644054 0.436538 0.962455
O O5 0.386976 0.696746 0.015710
O O6 0.477557 0.605500 0.209197
O O7 0.789277 0.639800 0.145480
O O8 0.372494 0.571275 0.969918
O O9 0.609224 0.250410 0.245478
O O10 0.440440 0.366995 0.304614
O O11 0.201855 0.294834 0.097312
O O12 0.231684 0.376378 0.822735
O O13 0.911312 0.296039 0.856635
O O14 0.812449 0.998557 0.266874
#
# Coordination Sequence:
#
# PCOD9135698 Si02
#       7
#     4   4   4   4   4   4   4
#     4  11  24  44  70  96 134 179 227 287 340 410
#     4  11  25  46  69 101 142 177 228 289 340 414
#     4  10  22  43  67  96 133 176 226 279 341 410
#     4  11  22  42  71 103 133 174 230 284 343 410
#     4  10  20  42  71 101 134 172 225 286 349 398
#     4  11  28  44  66  99 140 187 227 280 350 413
#     4  12  27  43  70 102 136 185 233 281 349 415
#
# _framework density 21.445347999999999
#
# number of rings (size 3 to 8) (size 9 to 14) (size 15 to 20)
#    0.000    1.143    4.286    0.857    4.000    2.286 
#    0.000    0.000    0.000    0.000    0.000    0.000 
#    0.000    0.000    0.000    0.000    0.000    0.000 
#
# Total GULP energy -78083.203219 kJ/mol
# GULP energy per Si atom -5577.371659 kJ/mol
# Density = 2.139654 g / cm^3
# Si number density = 21.445348 Si / 1000 Ang^3
#
#
#
# Elastic Constant Matrix: (Units=GPa)
#
#
# Indices 1 2 3 4 5 6 
#
# 1 49.3725 16.5971 27.4908 0.0000 -13.3722 0.0000
# 2 16.5971 94.1800 13.8384 0.0000 0.6556 0.0000
# 3 27.4908 13.8384 114.0870 0.0000 -12.2808 0.0000
# 4 0.0000 0.0000 0.0000 25.6100 0.0000 -2.5952
# 5 -13.3722 0.6556 -12.2808 0.0000 27.1047 0.0000
# 6 0.0000 0.0000 0.0000 -2.5952 0.0000 17.9285
#
#
#
# Elastic Compliance Matrix: (Units=1/GPa)
#
#
# Indices 1 2 3 4 5 6 
#
# 1 0.027487 -0.004207 -0.004881 0.000000 0.011451 0.000000
# 2 -0.004207 0.011475 -0.000664 0.000000 -0.002654 0.000000
# 3 -0.004881 -0.000664 0.010265 0.000000 0.002259 0.000000
# 4 0.000000 0.000000 0.000000 0.039628 0.000000 0.005736
# 5 0.011451 -0.002654 0.002259 0.000000 0.043631 0.000000
# 6 0.000000 0.000000 0.000000 0.005736 0.000000 0.056607
#
#
# Mechanical properties :
#
#
# Convention : Reuss Voigt Hill
#
# Bulk Modulus (GPa) = 33.64120 41.49911 37.57016
# Shear Modulus (GPa) = 22.88275 27.44288 25.16281
#
# Velocity S-wave (km/s) = 3.27008 3.58112 3.42913
# Velocity P-wave (km/s) = 5.47530 6.04089 5.76504
#
# Compressibility (1/GPa) = 0.02972546
#
# Stress axis : x y z
#
# Youngs Moduli (GPa) = 36.38050 87.14357 97.41855
#
# Poissons Ratio (x) = 0.36658 0.47545
# Poissons Ratio (y) = 0.15304 0.06468
# Poissons Ratio (z) = 0.17756 0.05786
#
# Static dielectric constant tensor:
#      x y z
#    x 1.752830 0.000000 -0.002140 
#    y 0.000000 1.795040 0.000000 
#    z -0.002140 0.000000 1.854490 
# 
# From -- ./inp_files/13229.got.cif
#   From: 2010.05.17/outbox.cif.g08.bks.cpg/sg9_7_cif.got.tgz:13229.got - 2010.06.03 20:04:27.
