data_PCOD9135744
_publ_section_title
;
Structure prediction by ZEFSAII (Michael W. Deem and Ramdas Pophale) SiO2 
 PCOD9135744
Probable space group: C C
;
_chemical_formula_sum "Si O2"
_cell_formula_units_Z 24
_cell_length_a 11.466754
_cell_length_b 9.330447
_cell_length_c 10.354827
_cell_angle_alpha 90.000000
_cell_angle_beta 56.013473
_cell_angle_gamma 90.000000
_cell_volume 918.605143
_symmetry_space_group_name_H-M "C C"
_symmetry_group_IT_number 9
_symmetry_cell_setting 'monoclinic'
loop_
_space_group_symop_operation_xyz
x,y,z
x,-y,1/2+z
1/2+x,1/2+y,z
1/2+x,1/2-y,1/2+z
loop_
_atom_site_type_symbol
_atom_site_label
_atom_site_fract_x
_atom_site_fract_y
_atom_site_fract_z
Si Si1 0.064500 0.068805 0.134870
Si Si2 0.048085 0.209944 0.773641
Si Si3 0.114189 0.673599 0.945127
Si Si4 0.318894 0.905106 0.849477
Si Si5 0.550908 0.886167 0.220811
Si Si6 0.253621 0.426053 0.743160
O O1 0.085508 0.235580 0.141373
O O2 0.919261 0.065681 0.145034
O O3 0.038582 0.960777 0.272642
O O4 0.200975 0.002039 0.986381
O O5 0.066543 0.259181 0.610135
O O6 0.177879 0.272934 0.774226
O O7 0.908694 0.302392 0.892551
O O8 0.232767 0.787517 0.821500
O O9 0.001316 0.653209 0.900567
O O10 0.190708 0.519122 0.900769
O O11 0.432347 0.018213 0.725896
O O12 0.685577 0.982190 0.170090
#
# Coordination Sequence:
#
# PCOD9135744 Si02
#       6
#     4   4   4   4   4   4
#     4  11  22  42  67  96 133 173 226 273 331 399
#     4  10  20  43  69  94 138 174 220 274 338 396
#     4   9  20  41  67  92 132 178 212 273 327 393
#     4  10  21  41  65  96 129 174 219 265 335 391
#     4   9  22  42  63  95 132 175 222 268 328 390
#     4   9  21  43  63  97 130 176 219 271 337 387
#
# _framework density 26.126567999999999
#
# number of rings (size 3 to 8) (size 9 to 14) (size 15 to 20)
#    1.000    1.333    1.667    0.000    0.000    5.333 
#   12.000   11.667    0.000    0.000    0.000    0.000 
#    0.000    0.000    0.000    0.000    0.000    0.000 
#
# Total GULP energy -66952.388373 kJ/mol
# GULP energy per Si atom -5579.365698 kJ/mol
# Density = 2.606710 g / cm^3
# Si number density = 26.126568 Si / 1000 Ang^3
#
#
#
# Elastic Constant Matrix: (Units=GPa)
#
#
# Indices 1 2 3 4 5 6 
#
# 1 88.4912 48.2742 43.1544 0.0000 -29.8838 0.0000
# 2 48.2742 162.7584 -17.7617 0.0000 -18.8474 0.0000
# 3 43.1544 -17.7617 39.7155 0.0000 -8.9269 0.0000
# 4 0.0000 0.0000 0.0000 25.2097 0.0000 -4.9705
# 5 -29.8838 -18.8474 -8.9269 0.0000 53.1109 0.0000
# 6 0.0000 0.0000 0.0000 -4.9705 0.0000 47.1389
#
#
#
# Elastic Compliance Matrix: (Units=1/GPa)
#
#
# Indices 1 2 3 4 5 6 
#
# 1 0.100811 -0.040820 -0.122947 0.000000 0.021573 0.000000
# 2 -0.040820 0.023444 0.053570 0.000000 -0.005644 0.000000
# 3 -0.122947 0.053570 0.178185 0.000000 -0.020218 0.000000
# 4 0.000000 0.000000 0.000000 0.040509 0.000000 0.004271
# 5 0.021573 -0.005644 -0.020218 0.000000 0.025565 0.000000
# 6 0.000000 0.000000 0.000000 0.004271 0.000000 0.021664
#
#
# Mechanical properties :
#
#
# Convention : Reuss Voigt Hill
#
# Bulk Modulus (GPa) = 12.18815 48.69986 30.44401
# Shear Modulus (GPa) = 7.83796 39.57847 23.70821
#
# Velocity S-wave (km/s) = 1.73393 3.89636 3.01564
# Velocity P-wave (km/s) = 2.94684 6.23880 4.87886
#
# Compressibility (1/GPa) = 0.08204688
#
# Stress axis : x y z
#
# Youngs Moduli (GPa) = 9.91953 42.65547 5.61214
#
# Poissons Ratio (x) = 1.74118 0.69000
# Poissons Ratio (y) = 0.40491 -0.30064
# Poissons Ratio (z) = 1.21958 -2.28506
#
# Static dielectric constant tensor:
#      x y z
#    x 2.047420 0.000000 0.076690 
#    y 0.000000 2.070240 0.000000 
#    z 0.076690 0.000000 2.295870 
# 
# From -- ./inp_files/24004.got.cif
#   From: 2010.05.17/outbox.cif.g08.bks.cpg/sg9_13_cif.got.tgz:24004.got - 2010.06.03 20:04:27.
