data_PCOD9135396
_publ_section_title
;
Structure prediction by ZEFSAII (Michael W. Deem and Ramdas Pophale) SiO2 
 PCOD9135396
Probable space group: C C
;
_chemical_formula_sum "Si O2"
_cell_formula_units_Z 28
_cell_length_a 8.132339
_cell_length_b 12.187121
_cell_length_c 12.121946
_cell_angle_alpha 90.000000
_cell_angle_beta 61.241693
_cell_angle_gamma 90.000000
_cell_volume 1053.218920
_symmetry_space_group_name_H-M "C C"
_symmetry_group_IT_number 9
_symmetry_cell_setting 'monoclinic'
loop_
_space_group_symop_operation_xyz
x,y,z
x,-y,1/2+z
1/2+x,1/2+y,z
1/2+x,1/2-y,1/2+z
loop_
_atom_site_type_symbol
_atom_site_label
_atom_site_fract_x
_atom_site_fract_y
_atom_site_fract_z
Si Si1 0.359440 0.750190 0.014300
Si Si2 0.082846 0.832003 0.664576
Si Si3 0.083227 0.572100 0.494324
Si Si4 0.839880 0.288221 0.409805
Si Si5 0.944792 0.744047 0.235135
Si Si6 0.819707 0.027542 0.770217
Si Si7 0.438690 0.994464 0.770635
O O1 0.463778 0.701191 0.090572
O O2 0.144519 0.729024 0.111986
O O3 0.391896 0.883210 0.001538
O O4 0.445141 0.720295 0.866546
O O5 0.023748 0.755062 0.786197
O O6 0.295196 0.814465 0.552525
O O7 0.004460 0.953441 0.712081
O O8 0.217331 0.677704 0.430265
O O9 0.216071 0.470714 0.421997
O O10 0.014657 0.552079 0.637633
O O11 0.814324 0.410496 0.367288
O O12 0.851061 0.623326 0.269819
O O13 0.862321 0.854532 0.209898
O O14 0.636358 0.973717 0.771102
#
# Coordination Sequence:
#
# PCOD9135396 Si02
#       7
#     4   4   4   4   4   4   4
#     4  11  20  44  71  96 125 184 239 279 360 405
#     4  10  20  41  69  95 123 173 236 280 337 426
#     4  10  22  45  71  93 132 185 234 293 345 423
#     4  10  20  39  70  93 124 176 231 278 349 410
#     4  12  26  42  68 102 141 183 229 297 348 428
#     4  11  25  43  64 103 141 177 232 286 353 417
#     4  12  23  44  67 100 146 184 223 301 352 417
#
# _framework density 26.585166000000001
#
# number of rings (size 3 to 8) (size 9 to 14) (size 15 to 20)
#    0.000    1.143    5.714    2.571    2.000    0.000 
#    5.143    2.857    0.000    0.000    0.000    0.000 
#    0.000    0.000    0.000    0.000    0.000    0.000 
#
# Total GULP energy -77936.719533 kJ/mol
# GULP energy per Si atom -5566.908538 kJ/mol
# Density = 2.652466 g / cm^3
# Si number density = 26.585166 Si / 1000 Ang^3
#
#
#
# Elastic Constant Matrix: (Units=GPa)
#
#
# Indices 1 2 3 4 5 6 
#
# 1 38.4009 20.7129 4.8561 0.0000 -9.2088 0.0000
# 2 20.7129 171.9049 38.7986 0.0000 -15.7738 0.0000
# 3 4.8561 38.7986 173.2916 0.0000 -27.8463 0.0000
# 4 0.0000 0.0000 0.0000 47.1266 0.0000 -12.6567
# 5 -9.2088 -15.7738 -27.8463 0.0000 13.4472 0.0000
# 6 0.0000 0.0000 0.0000 -12.6567 0.0000 42.2868
#
#
#
# Elastic Compliance Matrix: (Units=1/GPa)
#
#
# Indices 1 2 3 4 5 6 
#
# 1 0.033779 -0.002353 0.004277 0.000000 0.029228 0.000000
# 2 -0.002353 0.006697 -0.000645 0.000000 0.004909 0.000000
# 3 0.004277 -0.000645 0.009208 0.000000 0.021241 0.000000
# 4 0.000000 0.000000 0.000000 0.023074 0.000000 0.006906
# 5 0.029228 0.004909 0.021241 0.000000 0.144125 0.000000
# 6 0.000000 0.000000 0.000000 0.006906 0.000000 0.025715
#
#
# Mechanical properties :
#
#
# Convention : Reuss Voigt Hill
#
# Bulk Modulus (GPa) = 19.14170 56.92585 38.03377
# Shear Modulus (GPa) = 19.42092 41.85412 30.63752
#
# Velocity S-wave (km/s) = 2.70574 3.97210 3.39843
# Velocity P-wave (km/s) = 4.12033 6.51889 5.45312
#
# Compressibility (1/GPa) = 0.05224196
#
# Stress axis : x y z
#
# Youngs Moduli (GPa) = 29.60442 149.32862 108.59690
#
# Poissons Ratio (x) = 0.35143 -0.46447
# Poissons Ratio (y) = 0.06967 0.07000
# Poissons Ratio (z) = -0.12662 0.09625
#
# Static dielectric constant tensor:
#      x y z
#    x 2.352630 0.000000 0.183700 
#    y 0.000000 2.162870 0.000000 
#    z 0.183700 0.000000 2.369260 
# 
# From -- ./inp_files/16020.got.cif
#   From: 2010.05.17/outbox.cif.g08.bks.cpg/sg9_9_cif.got.tgz:16020.got - 2010.06.03 20:04:27.
