data_PCOD9135910
_publ_section_title
;
Structure prediction by ZEFSAII (Michael W. Deem and Ramdas Pophale) SiO2 
 PCOD9135910
Probable space group: C C
;
_chemical_formula_sum "Si O2"
_cell_formula_units_Z 32
_cell_length_a 14.590256
_cell_length_b 18.523280
_cell_length_c 5.410562
_cell_angle_alpha 90.000000
_cell_angle_beta 69.350236
_cell_angle_gamma 90.000000
_cell_volume 1368.310579
_symmetry_space_group_name_H-M "C C"
_symmetry_group_IT_number 9
_symmetry_cell_setting 'monoclinic'
loop_
_space_group_symop_operation_xyz
x,y,z
x,-y,1/2+z
1/2+x,1/2+y,z
1/2+x,1/2-y,1/2+z
loop_
_atom_site_type_symbol
_atom_site_label
_atom_site_fract_x
_atom_site_fract_y
_atom_site_fract_z
Si Si1 0.726750 0.978549 0.940790
Si Si2 0.744191 0.667353 0.573873
Si Si3 0.272341 0.037291 0.885445
Si Si4 0.901140 0.236168 0.027996
Si Si5 0.098924 0.091737 0.326834
Si Si6 0.092860 0.240787 0.064150
Si Si7 0.260034 0.671487 0.531582
Si Si8 0.898746 0.087154 0.772252
O O1 0.831615 0.018073 0.907190
O O2 0.676245 0.015810 0.756210
O O3 0.736862 0.894624 0.867389
O O4 0.834995 0.717109 0.401737
O O5 0.684575 0.617528 0.437351
O O6 0.785439 0.616260 0.754637
O O7 0.662740 0.718432 0.771529
O O8 0.154582 0.042262 0.069727
O O9 0.309121 0.011833 0.119713
O O10 0.830910 0.226284 0.328650
O O11 0.998007 0.274593 0.031242
O O12 0.928068 0.153609 0.925181
O O13 0.067056 0.166986 0.229170
O O14 0.999605 0.063535 0.545989
O O15 0.158181 0.289741 0.182386
O O16 0.321674 0.630995 0.677777
#
# Coordination Sequence:
#
# PCOD9135910 Si02
#       8
#     4   4   4   4   4   4   4   4
#     4  10  21  37  57  89 122 164 201 250 317 383
#     4  10  22  38  61  92 129 166 214 267 328 389
#     4  11  23  42  62  90 126 172 211 261 326 393
#     4  11  20  38  61  91 124 169 218 271 326 383
#     4  11  21  37  59  95 129 167 209 262 325 400
#     4  10  21  37  60  87 127 165 219 260 319 383
#     4  10  21  38  56  86 127 169 207 264 320 386
#     4  11  21  35  60  90 132 162 211 263 327 395
#
# _framework density 23.386502
#
# number of rings (size 3 to 8) (size 9 to 14) (size 15 to 20)
#    0.000    1.500    5.000    0.750    0.000    2.000 
#    0.000    0.000    0.000    3.000    0.000    0.000 
#    0.000    0.000    0.000    0.000    0.000    0.000 
#
# Total GULP energy -89121.994768 kJ/mol
# GULP energy per Si atom -5570.124673 kJ/mol
# Density = 2.333327 g / cm^3
# Si number density = 23.386502 Si / 1000 Ang^3
#
#
#
# Elastic Constant Matrix: (Units=GPa)
#
#
# Indices 1 2 3 4 5 6 
#
# 1 69.3134 12.3434 6.5684 0.0000 10.8387 0.0000
# 2 12.3434 60.7234 10.2639 0.0000 2.1499 0.0000
# 3 6.5684 10.2639 73.8251 0.0000 22.0043 0.0000
# 4 0.0000 0.0000 0.0000 33.6080 0.0000 6.6645
# 5 10.8387 2.1499 22.0043 0.0000 24.0945 0.0000
# 6 0.0000 0.0000 0.0000 6.6645 0.0000 24.9283
#
#
#
# Elastic Compliance Matrix: (Units=1/GPa)
#
#
# Indices 1 2 3 4 5 6 
#
# 1 0.016169 -0.003245 0.001503 0.000000 -0.008357 0.000000
# 2 -0.003245 0.017529 -0.002909 0.000000 0.002552 0.000000
# 3 0.001503 -0.002909 0.019154 0.000000 -0.017909 0.000000
# 4 0.000000 0.000000 0.000000 0.031421 0.000000 -0.008400
# 5 -0.008357 0.002552 -0.017909 0.000000 0.061391 0.000000
# 6 0.000000 0.000000 0.000000 -0.008400 0.000000 0.042361
#
#
# Mechanical properties :
#
#
# Convention : Reuss Voigt Hill
#
# Bulk Modulus (GPa) = 22.96138 29.13481 26.04810
# Shear Modulus (GPa) = 23.60232 28.17190 25.88711
#
# Velocity S-wave (km/s) = 3.18028 3.47453 3.33066
# Velocity P-wave (km/s) = 4.82961 5.34617 5.09444
#
# Compressibility (1/GPa) = 0.04355138
#
# Stress axis : x y z
#
# Youngs Moduli (GPa) = 61.84495 57.04796 52.20764
#
# Poissons Ratio (x) = 0.18512 -0.07849
# Poissons Ratio (y) = 0.20069 0.15188
# Poissons Ratio (z) = -0.09298 0.16596
#
# Static dielectric constant tensor:
#      x y z
#    x 1.919360 0.000000 0.057640 
#    y 0.000000 2.003880 0.000000 
#    z 0.057640 0.000000 1.976140 
# 
# From -- ./inp_files/2689.got.cif
#   From: 2010.05.17/outbox.cif.g08.bks.cpg/sg9_2_cif.got.tgz:2689.got - 2010.06.03 20:04:27.
