data_PCOD9135769
_publ_section_title
;
Structure prediction by ZEFSAII (Michael W. Deem and Ramdas Pophale) SiO2 
 PCOD9135769
Probable space group: C C
;
_chemical_formula_sum "Si O2"
_cell_formula_units_Z 32
_cell_length_a 11.360908
_cell_length_b 9.151141
_cell_length_c 29.642494
_cell_angle_alpha 90.000000
_cell_angle_beta 152.103476
_cell_angle_gamma 90.000000
_cell_volume 1441.896150
_symmetry_space_group_name_H-M "C C"
_symmetry_group_IT_number 9
_symmetry_cell_setting 'monoclinic'
loop_
_space_group_symop_operation_xyz
x,y,z
x,-y,1/2+z
1/2+x,1/2+y,z
1/2+x,1/2-y,1/2+z
loop_
_atom_site_type_symbol
_atom_site_label
_atom_site_fract_x
_atom_site_fract_y
_atom_site_fract_z
Si Si1 0.001060 0.597205 0.525360
Si Si2 0.940785 0.935547 0.730057
Si Si3 0.184408 0.364629 0.735733
Si Si4 0.857767 0.141510 0.567764
Si Si5 0.088050 0.319367 0.215941
Si Si6 0.691673 0.319143 0.424437
Si Si7 0.682835 0.731845 0.823061
Si Si8 0.596971 0.331987 0.626045
O O1 0.216975 0.513133 0.626977
O O2 0.102291 0.606902 0.508666
O O3 0.980817 0.754068 0.542634
O O4 0.771294 0.487627 0.452427
O O5 0.859314 0.909560 0.753530
O O6 0.989950 0.782784 0.722459
O O7 0.154971 0.059420 0.802753
O O8 0.026505 0.509610 0.695051
O O9 0.312914 0.307883 0.824875
O O10 0.014874 0.235991 0.657371
O O11 0.801566 0.236238 0.504575
O O12 0.009614 0.997286 0.604436
O O13 0.390928 0.308905 0.321917
O O14 0.007738 0.253399 0.140772
O O15 0.786264 0.253980 0.408534
O O16 0.398660 0.801428 0.726899
#
# Coordination Sequence:
#
# PCOD9135769 Si02
#       8
#     4   4   4   4   4   4   4   4
#     4  11  22  44  66  96 137 173 220 284 335 399
#     4  11  21  43  69  92 128 182 222 271 331 410
#     4  12  22  42  69  97 126 181 232 263 330 415
#     4  12  24  41  70 101 130 180 224 278 335 403
#     4  11  23  42  69  98 135 175 221 282 334 400
#     4  11  25  45  63 100 144 166 217 290 346 379
#     4  10  23  45  64  95 139 170 222 279 332 405
#     4  10  20  44  68  93 129 179 222 265 327 411
#
# _framework density 22.193000000000001
#
# number of rings (size 3 to 8) (size 9 to 14) (size 15 to 20)
#    0.000    1.000    8.750    0.000    3.500    0.000 
#    4.500    0.000    0.000    0.000    0.000    0.000 
#    0.000    0.000    0.000    0.000    0.000    0.000 
#
# Total GULP energy -89442.130393 kJ/mol
# GULP energy per Si atom -5590.133150 kJ/mol
# Density = 2.214249 g / cm^3
# Si number density = 22.193000 Si / 1000 Ang^3
#
#
#
# Elastic Constant Matrix: (Units=GPa)
#
#
# Indices 1 2 3 4 5 6 
#
# 1 119.9004 69.0589 25.7990 0.0000 -41.2680 0.0000
# 2 69.0589 159.5110 22.2668 0.0000 -4.8911 0.0000
# 3 25.7990 22.2668 53.0135 0.0002 -20.3181 0.0000
# 4 0.0000 0.0000 0.0002 21.6710 0.0000 -9.7530
# 5 -41.2680 -4.8911 -20.3181 0.0000 29.5195 0.0000
# 6 0.0000 0.0000 0.0000 -9.7530 0.0000 53.6341
#
#
#
# Elastic Compliance Matrix: (Units=1/GPa)
#
#
# Indices 1 2 3 4 5 6 
#
# 1 0.028502 -0.012099 0.007762 0.000000 0.043183 0.000000
# 2 -0.012099 0.011823 -0.006533 0.000000 -0.019452 0.000000
# 3 0.007762 -0.006533 0.029304 0.000000 0.029939 0.000000
# 4 0.000000 0.000000 0.000000 0.050258 0.000000 0.009139
# 5 0.043183 -0.019452 0.029939 0.000000 0.111629 0.000000
# 6 0.000000 0.000000 0.000000 0.009139 0.000000 0.020307
#
#
# Mechanical properties :
#
#
# Convention : Reuss Voigt Hill
#
# Bulk Modulus (GPa) = 20.88188 62.96380 41.92284
# Shear Modulus (GPa) = 17.26963 35.31826 26.29394
#
# Velocity S-wave (km/s) = 2.79257 3.99358 3.44581
# Velocity P-wave (km/s) = 4.45282 7.04965 5.89598
#
# Compressibility (1/GPa) = 0.04788842
#
# Stress axis : x y z
#
# Youngs Moduli (GPa) = 35.08548 84.58209 34.12484
#
# Poissons Ratio (x) = 1.02336 -0.26487
# Poissons Ratio (y) = 0.42450 0.22294
# Poissons Ratio (z) = -0.27233 0.55259
#
# Static dielectric constant tensor:
#      x y z
#    x 1.840450 0.000000 0.033460 
#    y 0.000000 1.810280 0.000000 
#    z 0.033460 0.000000 1.834440 
# 
# From -- ./inp_files/24241.got.cif
#   From: 2010.05.17/outbox.cif.g08.bks.cpg/sg9_13_cif.got.tgz:24241.got - 2010.06.03 20:04:27.
