data_PCOD9135984
_publ_section_title
;
Structure prediction by ZEFSAII (Michael W. Deem and Ramdas Pophale) SiO2 
 PCOD9135984
Probable space group: C C
;
_chemical_formula_sum "Si O2"
_cell_formula_units_Z 28
_cell_length_a 9.550471
_cell_length_b 16.975589
_cell_length_c 11.349240
_cell_angle_alpha 90.000000
_cell_angle_beta 43.515712
_cell_angle_gamma 90.000000
_cell_volume 1266.934291
_symmetry_space_group_name_H-M "C C"
_symmetry_group_IT_number 9
_symmetry_cell_setting 'monoclinic'
loop_
_space_group_symop_operation_xyz
x,y,z
x,-y,1/2+z
1/2+x,1/2+y,z
1/2+x,1/2-y,1/2+z
loop_
_atom_site_type_symbol
_atom_site_label
_atom_site_fract_x
_atom_site_fract_y
_atom_site_fract_z
Si Si1 0.992900 0.159305 0.725050
Si Si2 0.367064 0.542000 0.623616
Si Si3 0.291359 0.606628 0.304688
Si Si4 0.550068 0.208911 0.016970
Si Si5 0.611697 0.687561 0.252096
Si Si6 0.080596 0.109760 0.927127
Si Si7 0.043069 0.645499 0.671391
O O1 0.021617 0.094827 0.606203
O O2 0.749093 0.158246 0.886795
O O3 0.044872 0.244697 0.642323
O O4 0.084988 0.144548 0.794693
O O5 0.257338 0.482100 0.782450
O O6 0.506795 0.481054 0.464872
O O7 0.198924 0.590871 0.652876
O O8 0.472817 0.619014 0.287874
O O9 0.102909 0.638076 0.496070
O O10 0.399749 0.644623 0.121903
O O11 0.554140 0.276303 0.913675
O O12 0.344157 0.162967 0.119599
O O13 0.582220 0.764768 0.187870
O O14 0.308100 0.122362 0.837934
#
# Coordination Sequence:
#
# PCOD9135984 Si02
#       7
#     4   4   4   4   4   4   4
#     4  11  22  46  63 104 142 180 237 292 359 422
#     4  10  23  44  69  98 140 181 242 286 350 437
#     4  10  24  40  68 105 134 180 238 294 351 423
#     4  10  21  37  74  94 139 185 235 293 346 423
#     4  11  19  41  69 104 128 189 244 288 345 429
#     4  10  27  42  67 100 144 181 225 298 356 423
#     4  12  22  46  72  95 143 190 237 291 353 431
#
# _framework density 22.100594000000001
#
# number of rings (size 3 to 8) (size 9 to 14) (size 15 to 20)
#    0.857    0.571    4.286    1.714    0.000    2.286 
#    5.143    5.714    0.000    0.000    0.000    0.000 
#    0.000    0.000    0.000    0.000    0.000    0.000 
#
# Total GULP energy -78025.776899 kJ/mol
# GULP energy per Si atom -5573.269779 kJ/mol
# Density = 2.205029 g / cm^3
# Si number density = 22.100594 Si / 1000 Ang^3
#
#
#
# Elastic Constant Matrix: (Units=GPa)
#
#
# Indices 1 2 3 4 5 6 
#
# 1 79.5198 30.2485 16.7314 0.0001 16.2898 -0.0002
# 2 30.2485 65.0248 22.0478 0.0000 8.0861 -0.0001
# 3 16.7314 22.0478 84.3690 0.0000 0.6538 -0.0005
# 4 0.0001 0.0000 0.0000 12.7877 -0.0001 9.7527
# 5 16.2898 8.0861 0.6538 -0.0001 24.0579 0.0002
# 6 -0.0002 -0.0001 -0.0005 9.7527 0.0002 29.1535
#
#
#
# Elastic Compliance Matrix: (Units=1/GPa)
#
#
# Indices 1 2 3 4 5 6 
#
# 1 0.017276 -0.006268 -0.001714 0.000000 -0.009544 0.000000
# 2 -0.006268 0.019924 -0.003945 0.000000 -0.002345 0.000000
# 3 -0.001714 -0.003945 0.013207 0.000000 0.002128 0.000000
# 4 0.000000 0.000000 0.000000 0.104986 0.000001 -0.035121
# 5 -0.009544 -0.002345 0.002128 0.000001 0.048759 -0.000001
# 6 0.000000 0.000000 0.000000 -0.035121 -0.000001 0.046050
#
#
# Mechanical properties :
#
#
# Convention : Reuss Voigt Hill
#
# Bulk Modulus (GPa) = 37.66272 40.77433 39.21853
# Shear Modulus (GPa) = 17.67357 23.85887 20.76622
#
# Velocity S-wave (km/s) = 2.83094 3.28923 3.06865
# Velocity P-wave (km/s) = 5.26917 5.73715 5.50813
#
# Compressibility (1/GPa) = 0.02655145
#
# Stress axis : x y z
#
# Youngs Moduli (GPa) = 57.88501 50.19059 75.71661
#
# Poissons Ratio (x) = 0.31461 0.12977
# Poissons Ratio (y) = 0.36284 0.29873
# Poissons Ratio (z) = 0.09921 0.19802
#
# Static dielectric constant tensor:
#      x y z
#    x 1.797150 0.000000 0.052450 
#    y 0.000000 1.806690 0.000000 
#    z 0.052450 0.000000 1.907960 
# 
# From -- ./inp_files/15393.got.cif
#   From: 2010.05.17/outbox.cif.g08.bks.cpg/sg9_8_cif.got.tgz:15393.got - 2010.06.03 20:04:27.
