data_PCOD9135229
_publ_section_title
;
Structure prediction by ZEFSAII (Michael W. Deem and Ramdas Pophale) SiO2 
 PCOD9135229
Probable space group: C C
;
_chemical_formula_sum "Si O2"
_cell_formula_units_Z 32
_cell_length_a 7.249262
_cell_length_b 25.597020
_cell_length_c 9.853765
_cell_angle_alpha 90.000000
_cell_angle_beta 129.631078
_cell_angle_gamma 90.000000
_cell_volume 1408.220059
_symmetry_space_group_name_H-M "C C"
_symmetry_group_IT_number 9
_symmetry_cell_setting 'monoclinic'
loop_
_space_group_symop_operation_xyz
x,y,z
x,-y,1/2+z
1/2+x,1/2+y,z
1/2+x,1/2-y,1/2+z
loop_
_atom_site_type_symbol
_atom_site_label
_atom_site_fract_x
_atom_site_fract_y
_atom_site_fract_z
Si Si1 0.174020 0.459415 0.238630
Si Si2 0.353030 0.313883 0.390561
Si Si3 0.067448 0.043088 0.161833
Si Si4 0.851742 0.632384 0.181563
Si Si5 0.747079 0.076000 0.246245
Si Si6 0.386569 0.870274 0.214441
Si Si7 0.498044 0.426231 0.156722
Si Si8 0.961580 0.304465 0.002646
O O1 0.370199 0.461316 0.450317
O O2 0.129792 0.518377 0.170726
O O3 0.295687 0.425890 0.176293
O O4 0.946675 0.427837 0.183701
O O5 0.143717 0.345195 0.372820
O O6 0.601564 0.344223 0.512825
O O7 0.388117 0.255733 0.462380
O O8 0.232691 0.308185 0.186014
O O9 0.292825 0.074748 0.213587
O O10 0.946938 0.076704 0.224509
O O11 0.114027 0.983978 0.231255
O O12 0.052757 0.621621 0.163749
O O13 0.934665 0.668386 0.345156
O O14 0.872829 0.076302 0.451697
O O15 0.194972 0.880889 0.240559
O O16 0.312496 0.834611 0.050951
#
# Coordination Sequence:
#
# PCOD9135229 Si02
#       8
#     4   4   4   4   4   4   4   4
#     4  10  20  39  59  96 133 177 225 266 339 402
#     4  10  22  39  67 102 128 183 228 282 356 402
#     4  10  21  38  59  98 132 177 222 272 334 406
#     4  12  20  40  67  93 136 174 223 282 340 404
#     4  10  23  35  62  98 134 176 224 273 332 410
#     4  10  20  38  63  94 128 174 222 273 336 402
#     4  10  21  38  62  94 138 176 224 273 331 409
#     4  10  21  39  69  99 133 177 228 287 350 403
#
# _framework density 22.723721999999999
#
# number of rings (size 3 to 8) (size 9 to 14) (size 15 to 20)
#    0.750    1.000    2.500    2.250    0.000    1.000 
#    0.000    7.500    0.000   16.500    0.000    0.000 
#    0.000    0.000    0.000    0.000    0.000    0.000 
#
# Total GULP energy -89420.315708 kJ/mol
# GULP energy per Si atom -5588.769732 kJ/mol
# Density = 2.267200 g / cm^3
# Si number density = 22.723722 Si / 1000 Ang^3
#
#
#
# Elastic Constant Matrix: (Units=GPa)
#
#
# Indices 1 2 3 4 5 6 
#
# 1 113.5546 21.8644 35.9069 0.0000 -7.3837 0.0000
# 2 21.8644 79.0763 1.4726 0.0000 16.7256 0.0000
# 3 35.9069 1.4726 107.4876 0.0000 9.5417 0.0000
# 4 0.0000 0.0000 0.0000 16.2800 0.0000 -0.1810
# 5 -7.3837 16.7256 9.5417 0.0000 33.8357 0.0000
# 6 0.0000 0.0000 0.0000 -0.1810 0.0000 8.5272
#
#
#
# Elastic Compliance Matrix: (Units=1/GPa)
#
#
# Indices 1 2 3 4 5 6 
#
# 1 0.011351 -0.004285 -0.004247 0.000000 0.005793 0.000000
# 2 -0.004285 0.015760 0.002041 0.000000 -0.009301 0.000000
# 3 -0.004247 0.002041 0.011145 0.000000 -0.005079 0.000000
# 4 0.000000 0.000000 0.000000 0.061440 0.000000 0.001304
# 5 0.005793 -0.009301 -0.005079 0.000000 0.036849 0.000000
# 6 0.000000 0.000000 0.000000 0.001304 0.000000 0.117300
#
#
# Mechanical properties :
#
#
# Convention : Reuss Voigt Hill
#
# Bulk Modulus (GPa) = 39.56617 46.51182 43.03900
# Shear Modulus (GPa) = 18.16521 27.78687 22.97604
#
# Velocity S-wave (km/s) = 2.83042 3.50067 3.18324
# Velocity P-wave (km/s) = 5.30390 6.07062 5.70017
#
# Compressibility (1/GPa) = 0.02527412
#
# Stress axis : x y z
#
# Youngs Moduli (GPa) = 88.09738 63.45180 89.72507
#
# Poissons Ratio (x) = 0.27187 0.38110
# Poissons Ratio (y) = 0.37747 -0.18314
# Poissons Ratio (z) = 0.37419 -0.12951
#
# Static dielectric constant tensor:
#      x y z
#    x 1.832690 0.000000 0.034110 
#    y 0.000000 1.844000 0.000000 
#    z 0.034110 0.000000 1.890640 
# 
# From -- ./inp_files/6487.got.cif
#   From: 2010.05.17/outbox.cif.g08.bks.cpg/sg9_4_cif.got.tgz:6487.got - 2010.06.03 20:04:27.
