data_PCOD9135933
_publ_section_title
;
Structure prediction by ZEFSAII (Michael W. Deem and Ramdas Pophale) SiO2 
 PCOD9135933
Probable space group: C C
;
_chemical_formula_sum "Si O2"
_cell_formula_units_Z 32
_cell_length_a 16.707074
_cell_length_b 13.575975
_cell_length_c 11.746053
_cell_angle_alpha 90.000000
_cell_angle_beta 35.632170
_cell_angle_gamma 90.000000
_cell_volume 1552.095768
_symmetry_space_group_name_H-M "C C"
_symmetry_group_IT_number 9
_symmetry_cell_setting 'monoclinic'
loop_
_space_group_symop_operation_xyz
x,y,z
x,-y,1/2+z
1/2+x,1/2+y,z
1/2+x,1/2-y,1/2+z
loop_
_atom_site_type_symbol
_atom_site_label
_atom_site_fract_x
_atom_site_fract_y
_atom_site_fract_z
Si Si1 0.264770 0.883382 0.753670
Si Si2 0.001030 0.488602 0.357223
Si Si3 0.841843 0.177389 0.554523
Si Si4 0.754250 0.020524 0.220484
Si Si5 0.054368 0.047650 0.927923
Si Si6 0.669580 0.154742 0.528400
Si Si7 0.100249 0.127796 0.116828
Si Si8 0.261261 0.930158 0.006266
O O1 0.395034 0.954853 0.577937
O O2 0.297538 0.783657 0.649351
O O3 0.252799 0.867613 0.902004
O O4 0.131242 0.943917 0.866773
O O5 0.140772 0.529007 0.252027
O O6 0.914790 0.560545 0.376421
O O7 0.034422 0.392539 0.242244
O O8 0.773890 0.153317 0.512220
O O9 0.000030 0.159468 0.336514
O O10 0.776512 0.096441 0.714932
O O11 0.704995 0.084063 0.383538
O O12 0.914004 0.048730 0.017878
O O13 0.165054 0.103431 0.721451
O O14 0.028589 0.089025 0.084080
O O15 0.664524 0.269038 0.502690
O O16 0.202777 0.040248 0.038544
#
# Coordination Sequence:
#
# PCOD9135933 Si02
#       8
#     4   4   4   4   4   4   4   4
#     4  10  21  38  64  94 126 170 220 260 312 384
#     4  10  21  37  60  89 127 170 211 256 321 378
#     4  11  22  39  65  97 123 167 214 265 313 379
#     4  11  23  37  61  95 133 163 207 265 330 369
#     4  10  21  39  63  95 126 169 213 264 324 379
#     4  11  22  38  62  93 128 161 212 266 313 379
#     4  11  21  38  69  91 123 167 219 267 312 377
#     4  10  21  40  62  92 130 167 212 265 315 381
#
# _framework density 20.617284999999999
#
# number of rings (size 3 to 8) (size 9 to 14) (size 15 to 20)
#    0.000    1.500    3.750    2.250    0.000    0.000 
#    0.000    2.500    0.000    4.500    0.000    0.000 
#    0.000    0.000    0.000    0.000    0.000    0.000 
#
# Total GULP energy -89120.718515 kJ/mol
# GULP energy per Si atom -5570.044907 kJ/mol
# Density = 2.057036 g / cm^3
# Si number density = 20.617285 Si / 1000 Ang^3
#
#
#
# Elastic Constant Matrix: (Units=GPa)
#
#
# Indices 1 2 3 4 5 6 
#
# 1 100.0207 16.7367 37.6779 0.0000 -7.1530 0.0000
# 2 16.7367 69.3824 36.6512 0.0000 12.1126 0.0000
# 3 37.6779 36.6512 86.0574 0.0000 0.8243 0.0000
# 4 0.0000 0.0000 0.0000 28.3142 0.0000 9.9275
# 5 -7.1530 12.1126 0.8243 0.0000 39.2230 0.0000
# 6 0.0000 0.0000 0.0000 9.9275 0.0000 18.2060
#
#
#
# Elastic Compliance Matrix: (Units=1/GPa)
#
#
# Indices 1 2 3 4 5 6 
#
# 1 0.012208 -0.000715 -0.005065 0.000000 0.002554 0.000000
# 2 -0.000715 0.019944 -0.008122 0.000000 -0.006119 0.000000
# 3 -0.005065 -0.008122 0.017285 0.000000 0.001221 0.000000
# 4 0.000000 0.000000 0.000000 0.043667 0.000000 -0.023811
# 5 0.002554 -0.006119 0.001221 0.000000 0.027825 0.000000
# 6 0.000000 0.000000 0.000000 -0.023811 0.000000 0.067911
#
#
# Mechanical properties :
#
#
# Convention : Reuss Voigt Hill
#
# Bulk Modulus (GPa) = 46.22620 48.62136 47.42378
# Shear Modulus (GPa) = 22.33581 28.10830 25.22205
#
# Velocity S-wave (km/s) = 3.29500 3.69634 3.50143
# Velocity P-wave (km/s) = 6.07831 6.46926 6.27683
#
# Compressibility (1/GPa) = 0.02163275
#
# Stress axis : x y z
#
# Youngs Moduli (GPa) = 81.91231 50.13984 57.85290
#
# Poissons Ratio (x) = 0.03586 0.29302
# Poissons Ratio (y) = 0.05858 0.46990
# Poissons Ratio (z) = 0.41488 0.40725
#
# Static dielectric constant tensor:
#      x y z
#    x 1.779020 0.000000 -0.022380 
#    y 0.000000 1.756940 0.000000 
#    z -0.022380 0.000000 1.778480 
# 
# From -- ./inp_files/19390.got.cif
#   From: 2010.05.17/outbox.cif.g08.bks.cpg/sg9_10_cif.got.tgz:19390.got - 2010.06.03 20:04:27.
