data_PCOD9135416
_publ_section_title
;
Structure prediction by ZEFSAII (Michael W. Deem and Ramdas Pophale) SiO2 
 PCOD9135416
Probable space group: C C
;
_chemical_formula_sum "Si O2"
_cell_formula_units_Z 28
_cell_length_a 8.765837
_cell_length_b 11.545562
_cell_length_c 17.527248
_cell_angle_alpha 90.000000
_cell_angle_beta 135.893147
_cell_angle_gamma 90.000000
_cell_volume 1234.612356
_symmetry_space_group_name_H-M "C C"
_symmetry_group_IT_number 9
_symmetry_cell_setting 'monoclinic'
loop_
_space_group_symop_operation_xyz
x,y,z
x,-y,1/2+z
1/2+x,1/2+y,z
1/2+x,1/2-y,1/2+z
loop_
_atom_site_type_symbol
_atom_site_label
_atom_site_fract_x
_atom_site_fract_y
_atom_site_fract_z
Si Si1 0.014840 0.978422 0.073300
Si Si2 0.292315 0.846766 0.830142
Si Si3 0.152332 0.603457 0.331536
Si Si4 0.248516 0.609071 0.764328
Si Si5 0.610917 0.684978 0.003084
Si Si6 0.352296 0.544107 0.170627
Si Si7 0.611216 0.247995 0.171575
O O1 0.160286 0.879442 0.165361
O O2 0.122574 0.091113 0.074189
O O3 0.851777 0.024782 0.080484
O O4 0.876908 0.916127 0.957715
O O5 0.463440 0.884512 0.826708
O O6 0.159770 0.737174 0.746256
O O7 0.108599 0.938054 0.784575
O O8 0.435450 0.789721 0.949399
O O9 0.128465 0.489660 0.269908
O O10 0.165909 0.710800 0.277989
O O11 0.263269 0.566730 0.683851
O O12 0.493546 0.621980 0.888764
O O13 0.849241 0.731854 0.071515
O O14 0.224392 0.654635 0.157154
#
# Coordination Sequence:
#
# PCOD9135416 Si02
#       7
#     4   4   4   4   4   4   4
#     4  11  22  43  61  97 126 165 214 264 309 386
#     4  10  20  40  61  87 124 165 202 259 313 369
#     4  10  20  40  66  87 127 167 206 257 322 362
#     4   8  20  40  60  90 124 160 206 261 307 374
#     4   9  21  42  62  87 130 162 208 258 322 362
#     4  11  24  37  63  97 121 163 218 247 320 377
#     4  11  23  42  63  93 128 168 210 266 313 382
#
# _framework density 22.679182999999998
#
# number of rings (size 3 to 8) (size 9 to 14) (size 15 to 20)
#    0.857    1.143    1.429    1.714    0.000    4.571 
#    7.714    0.000    0.000    0.000    0.000    0.000 
#    0.000    0.000    0.000    0.000    0.000    0.000 
#
# Total GULP energy -78141.025666 kJ/mol
# GULP energy per Si atom -5581.501833 kJ/mol
# Density = 2.262756 g / cm^3
# Si number density = 22.679183 Si / 1000 Ang^3
#
#
#
# Elastic Constant Matrix: (Units=GPa)
#
#
# Indices 1 2 3 4 5 6 
#
# 1 48.0085 23.8172 14.0243 0.0000 -6.3339 0.0000
# 2 23.8172 65.1089 23.6993 0.0000 -7.8326 0.0000
# 3 14.0243 23.6993 65.7618 0.0000 3.1462 0.0000
# 4 0.0000 0.0000 0.0000 42.6769 0.0000 -4.4028
# 5 -6.3339 -7.8326 3.1462 0.0000 22.1552 0.0000
# 6 0.0000 0.0000 0.0000 -4.4028 0.0000 40.7552
#
#
#
# Elastic Compliance Matrix: (Units=1/GPa)
#
#
# Indices 1 2 3 4 5 6 
#
# 1 0.026312 -0.007911 -0.003007 0.000000 0.005153 0.000000
# 2 -0.007911 0.021277 -0.006275 0.000000 0.006152 0.000000
# 3 -0.003007 -0.006275 0.018381 0.000000 -0.005688 0.000000
# 4 0.000000 0.000000 0.000000 0.023696 0.000000 0.002560
# 5 0.005153 0.006152 -0.005688 0.000000 0.049592 0.000000
# 6 0.000000 0.000000 0.000000 0.002560 0.000000 0.024813
#
#
# Mechanical properties :
#
#
# Convention : Reuss Voigt Hill
#
# Bulk Modulus (GPa) = 31.66077 33.55118 32.60597
# Shear Modulus (GPa) = 23.92512 28.94002 26.43257
#
# Velocity S-wave (km/s) = 3.25150 3.57607 3.41764
# Velocity P-wave (km/s) = 5.29971 5.64597 5.47558
#
# Compressibility (1/GPa) = 0.03158483
#
# Stress axis : x y z
#
# Youngs Moduli (GPa) = 38.00480 46.99955 54.40347
#
# Poissons Ratio (x) = 0.37181 0.16359
# Poissons Ratio (y) = 0.30065 0.34138
# Poissons Ratio (z) = 0.11428 0.29492
#
# Static dielectric constant tensor:
#      x y z
#    x 1.800690 0.000000 -0.011610 
#    y 0.000000 1.866290 0.000000 
#    z -0.011610 0.000000 1.857350 
# 
# From -- ./inp_files/29228.got.cif
#   From: 2010.05.17/outbox.cif.g08.bks.cpg/sg9_15_cif.got.tgz:29228.got - 2010.06.03 20:04:27.
