data_PCOD9135819
_publ_section_title
;
Structure prediction by ZEFSAII (Michael W. Deem and Ramdas Pophale) SiO2 
 PCOD9135819
Probable space group: C C
;
_chemical_formula_sum "Si O2"
_cell_formula_units_Z 32
_cell_length_a 8.104057
_cell_length_b 11.642318
_cell_length_c 14.898828
_cell_angle_alpha 90.000000
_cell_angle_beta 104.510612
_cell_angle_gamma 90.000000
_cell_volume 1360.864333
_symmetry_space_group_name_H-M "C C"
_symmetry_group_IT_number 9
_symmetry_cell_setting 'monoclinic'
loop_
_space_group_symop_operation_xyz
x,y,z
x,-y,1/2+z
1/2+x,1/2+y,z
1/2+x,1/2-y,1/2+z
loop_
_atom_site_type_symbol
_atom_site_label
_atom_site_fract_x
_atom_site_fract_y
_atom_site_fract_z
Si Si1 0.659470 0.291310 0.189980
Si Si2 0.793026 0.260266 0.675059
Si Si3 0.295688 0.451547 0.719197
Si Si4 0.136496 0.865685 0.821382
Si Si5 0.413916 0.019295 0.659601
Si Si6 0.499359 0.736242 0.475358
Si Si7 0.411686 0.011692 0.950762
Si Si8 0.262237 0.430108 0.031925
O O1 0.476391 0.303859 0.214666
O O2 0.752063 0.179676 0.239023
O O3 0.789565 0.395969 0.196452
O O4 0.606584 0.252597 0.081429
O O5 0.668405 0.283846 0.740417
O O6 0.849412 0.388931 0.659273
O O7 0.715462 0.185612 0.583292
O O8 0.481805 0.455485 0.787573
O O9 0.322160 0.480321 0.616579
O O10 0.116198 0.518423 0.712906
O O11 0.106431 0.784196 0.901907
O O12 0.299726 0.942369 0.866339
O O13 0.392281 0.038462 0.549396
O O14 0.387276 0.851191 0.449077
O O15 0.398367 0.618650 0.481662
O O16 0.609082 0.987499 0.958794
#
# Coordination Sequence:
#
# PCOD9135819 Si02
#       8
#     4   4   4   4   4   4   4   4
#     4  10  20  45  80  93 135 191 250 289 344 445
#     4  10  24  43  67 112 134 184 240 300 362 425
#     4  10  24  43  67 112 134 184 240 300 362 425
#     4  12  28  42  66 107 156 174 232 309 378 412
#     4  10  20  45  80  93 135 191 250 289 344 445
#     4  11  23  48  69 101 135 189 238 295 355 431
#     4  11  23  48  69 101 135 189 238 295 355 431
#     4  10  22  48  74  91 138 184 250 277 342 446
#
# _framework density 23.514465000000001
#
# number of rings (size 3 to 8) (size 9 to 14) (size 15 to 20)
#    0.000    1.500    6.250    0.000    7.000    3.000 
#    9.000    0.000    0.000    0.000    0.000    0.000 
#    0.000    0.000    0.000    0.000    0.000    0.000 
#
# Total GULP energy -89295.043473 kJ/mol
# GULP energy per Si atom -5580.940217 kJ/mol
# Density = 2.346095 g / cm^3
# Si number density = 23.514465 Si / 1000 Ang^3
#
#
#
# Elastic Constant Matrix: (Units=GPa)
#
#
# Indices 1 2 3 4 5 6 
#
# 1 40.0387 17.5816 8.0368 0.0000 -8.0555 0.0000
# 2 17.5816 95.6960 -2.6581 0.0000 4.3597 0.0000
# 3 8.0368 -2.6581 54.6353 0.0000 -0.9953 0.0000
# 4 0.0000 0.0000 0.0000 21.5734 0.0000 0.2746
# 5 -8.0555 4.3597 -0.9953 0.0000 42.8361 0.0000
# 6 0.0000 0.0000 0.0000 0.2746 0.0000 39.4506
#
#
#
# Elastic Compliance Matrix: (Units=1/GPa)
#
#
# Indices 1 2 3 4 5 6 
#
# 1 0.029680 -0.005856 -0.004540 0.000000 0.006072 0.000000
# 2 -0.005856 0.011667 0.001388 0.000000 -0.002256 0.000000
# 3 -0.004540 0.001388 0.019029 0.000000 -0.000553 0.000000
# 4 0.000000 0.000000 0.000000 0.046358 0.000000 -0.000323
# 5 0.006072 -0.002256 -0.000553 0.000000 0.024703 0.000000
# 6 0.000000 0.000000 0.000000 -0.000323 0.000000 0.025350
#
#
# Mechanical properties :
#
#
# Convention : Reuss Voigt Hill
#
# Bulk Modulus (GPa) = 23.60744 26.25452 24.93098
# Shear Modulus (GPa) = 26.46585 31.93267 29.19926
#
# Velocity S-wave (km/s) = 3.35851 3.68910 3.52768
# Velocity P-wave (km/s) = 5.01007 5.41622 5.21710
#
# Compressibility (1/GPa) = 0.04235953
#
# Stress axis : x y z
#
# Youngs Moduli (GPa) = 33.69262 85.71239 52.55274
#
# Poissons Ratio (x) = 0.50190 0.23860
# Poissons Ratio (y) = 0.19729 -0.07294
# Poissons Ratio (z) = 0.15297 -0.11896
#
# Static dielectric constant tensor:
#      x y z
#    x 1.964310 0.000000 -0.016560 
#    y 0.000000 1.903030 0.000000 
#    z -0.016560 0.000000 1.906510 
# 
# From -- ./inp_files/22813.got.cif
#   From: 2010.05.17/outbox.cif.g08.bks.cpg/sg9_12_cif.got.tgz:22813.got - 2010.06.03 20:04:27.
