data_PCOD9135748
_publ_section_title
;
Structure prediction by ZEFSAII (Michael W. Deem and Ramdas Pophale) SiO2 
 PCOD9135748
Probable space group: C C
;
_chemical_formula_sum "Si O2"
_cell_formula_units_Z 28
_cell_length_a 10.666400
_cell_length_b 9.619090
_cell_length_c 13.212068
_cell_angle_alpha 90.000000
_cell_angle_beta 113.703031
_cell_angle_gamma 90.000000
_cell_volume 1241.217932
_symmetry_space_group_name_H-M "C C"
_symmetry_group_IT_number 9
_symmetry_cell_setting 'monoclinic'
loop_
_space_group_symop_operation_xyz
x,y,z
x,-y,1/2+z
1/2+x,1/2+y,z
1/2+x,1/2-y,1/2+z
loop_
_atom_site_type_symbol
_atom_site_label
_atom_site_fract_x
_atom_site_fract_y
_atom_site_fract_z
Si Si1 0.304000 0.326332 0.261840
Si Si2 0.250070 0.374939 0.660608
Si Si3 0.559121 0.287075 0.472317
Si Si4 0.330243 0.092830 0.099934
Si Si5 0.015314 0.539141 0.972797
Si Si6 0.252210 0.896778 0.252958
Si Si7 0.062590 0.853219 0.712001
O O1 0.247839 0.466870 0.196513
O O2 0.433492 0.353422 0.373186
O O3 0.349345 0.216212 0.189001
O O4 0.179975 0.254617 0.282981
O O5 0.200386 0.259376 0.723336
O O6 0.410568 0.341180 0.702087
O O7 0.156049 0.374245 0.529451
O O8 0.705934 0.349213 0.490598
O O9 0.549990 0.325129 0.587724
O O10 0.547723 0.120913 0.457087
O O11 0.452153 0.052946 0.065553
O O12 0.285012 0.960239 0.151609
O O13 0.894119 0.589440 0.860121
O O14 0.131993 0.997411 0.253072
#
# Coordination Sequence:
#
# PCOD9135748 Si02
#       7
#     4   4   4   4   4   4   4
#     4  10  22  43  67  95 131 175 225 268 334 389
#     4  12  26  41  66 104 131 171 232 267 325 412
#     4  10  20  43  71  95 125 186 220 263 341 389
#     4  10  23  42  70  96 133 173 218 276 323 394
#     4  12  23  43  69  99 134 178 221 271 339 392
#     4  10  25  45  66 100 137 171 220 280 335 379
#     4  10  23  45  65  95 137 170 220 281 315 397
#
# _framework density 22.558489000000002
#
# number of rings (size 3 to 8) (size 9 to 14) (size 15 to 20)
#    0.000    1.714    5.714    0.857    4.000    3.429 
#    0.000    0.000    0.000    0.000    0.000    0.000 
#    0.000    0.000    0.000    0.000    0.000    0.000 
#
# Total GULP energy -78209.680576 kJ/mol
# GULP energy per Si atom -5586.405755 kJ/mol
# Density = 2.250714 g / cm^3
# Si number density = 22.558489 Si / 1000 Ang^3
#
#
#
# Elastic Constant Matrix: (Units=GPa)
#
#
# Indices 1 2 3 4 5 6 
#
# 1 86.4162 6.8739 11.8065 0.0000 20.7544 0.0000
# 2 6.8739 81.8820 12.7545 0.0000 2.1834 0.0000
# 3 11.8065 12.7545 103.0340 0.0000 43.8370 0.0000
# 4 0.0000 0.0000 0.0000 32.5899 0.0000 11.0019
# 5 20.7544 2.1834 43.8370 0.0000 38.2753 0.0000
# 6 0.0000 0.0000 0.0000 11.0019 0.0000 15.3011
#
#
#
# Elastic Compliance Matrix: (Units=1/GPa)
#
#
# Indices 1 2 3 4 5 6 
#
# 1 0.013957 -0.001402 0.003433 0.000000 -0.011420 0.000000
# 2 -0.001402 0.012677 -0.002778 0.000000 0.003219 0.000000
# 3 0.003433 -0.002778 0.020246 0.000000 -0.024891 0.000000
# 4 0.000000 0.000000 0.000000 0.040520 0.000000 -0.029135
# 5 -0.011420 0.003219 -0.024891 0.000000 0.060644 0.000000
# 6 0.000000 0.000000 0.000000 -0.029135 0.000000 0.086304
#
#
# Mechanical properties :
#
#
# Convention : Reuss Voigt Hill
#
# Bulk Modulus (GPa) = 22.03291 37.13355 29.58323
# Shear Modulus (GPa) = 19.92259 33.22639 26.57449
#
# Velocity S-wave (km/s) = 2.97501 3.84200 3.43596
# Velocity P-wave (km/s) = 4.64641 6.01482 5.37435
#
# Compressibility (1/GPa) = 0.04538665
#
# Stress axis : x y z
#
# Youngs Moduli (GPa) = 71.64805 78.88116 49.39145
#
# Poissons Ratio (x) = 0.11058 -0.16956
# Poissons Ratio (y) = 0.10044 0.13722
# Poissons Ratio (z) = -0.24597 0.21914
#
# Static dielectric constant tensor:
#      x y z
#    x 1.862650 0.000000 0.010240 
#    y 0.000000 1.817520 0.000000 
#    z 0.010240 0.000000 1.837900 
# 
# From -- ./inp_files/24026.got.cif
#   From: 2010.05.17/outbox.cif.g08.bks.cpg/sg9_13_cif.got.tgz:24026.got - 2010.06.03 20:04:27.
