data_PCOD9135932
_publ_section_title
;
Structure prediction by ZEFSAII (Michael W. Deem and Ramdas Pophale) SiO2 
 PCOD9135932
Probable space group: C C
;
_chemical_formula_sum "Si O2"
_cell_formula_units_Z 24
_cell_length_a 5.171662
_cell_length_b 27.260570
_cell_length_c 8.224475
_cell_angle_alpha 90.000000
_cell_angle_beta 64.711120
_cell_angle_gamma 90.000000
_cell_volume 1048.385897
_symmetry_space_group_name_H-M "C C"
_symmetry_group_IT_number 9
_symmetry_cell_setting 'monoclinic'
loop_
_space_group_symop_operation_xyz
x,y,z
x,-y,1/2+z
1/2+x,1/2+y,z
1/2+x,1/2-y,1/2+z
loop_
_atom_site_type_symbol
_atom_site_label
_atom_site_fract_x
_atom_site_fract_y
_atom_site_fract_z
Si Si1 0.786690 0.951852 0.221960
Si Si2 0.125219 0.682246 0.094211
Si Si3 0.293049 0.651144 0.566169
Si Si4 0.825700 0.291808 0.014359
Si Si5 0.152846 0.972628 0.440607
Si Si6 0.591280 0.624662 0.139686
O O1 0.703438 0.898101 0.180875
O O2 0.486890 0.980727 0.314071
O O3 0.969826 0.952340 0.338117
O O4 0.995010 0.978458 0.039246
O O5 0.256001 0.734697 0.015354
O O6 0.376206 0.644452 0.061737
O O7 0.973403 0.692119 0.307775
O O8 0.878303 0.657313 0.054888
O O9 0.532177 0.678594 0.606563
O O10 0.440751 0.634379 0.355100
O O11 0.043285 0.689984 0.593985
O O12 0.146915 0.932111 0.586545
#
# Coordination Sequence:
#
# PCOD9135932 Si02
#       6
#     4   4   4   4   4   4
#     4  12  26  44  68  98 130 172 218 270 328 391
#     4  10  21  37  60  89 123 164 208 261 318 374
#     4  10  22  41  62  89 126 166 211 263 319 377
#     4  10  21  37  60  89 123 164 208 261 318 374
#     4  12  26  44  68  98 130 172 218 270 328 391
#     4  10  22  41  62  89 126 166 211 263 319 377
#
# _framework density 22.892333000000001
#
# number of rings (size 3 to 8) (size 9 to 14) (size 15 to 20)
#    0.000    1.333    0.000    5.000    0.000    8.000 
#    0.000    0.000    0.000    0.000    0.000    0.000 
#    0.000    0.000    0.000    0.000    0.000    0.000 
#
# Total GULP energy -67165.180302 kJ/mol
# GULP energy per Si atom -5597.098359 kJ/mol
# Density = 2.284023 g / cm^3
# Si number density = 22.892333 Si / 1000 Ang^3
#
#
#
# Elastic Constant Matrix: (Units=GPa)
#
#
# Indices 1 2 3 4 5 6 
#
# 1 148.3168 -2.5772 33.9504 0.0000 -16.7478 0.0000
# 2 -2.5772 51.5866 17.7568 0.0000 -8.6379 0.0000
# 3 33.9504 17.7568 53.2164 0.0000 1.6091 0.0000
# 4 0.0000 0.0000 0.0000 10.3803 0.0000 -3.2992
# 5 -16.7478 -8.6379 1.6091 0.0000 21.1293 0.0000
# 6 0.0000 0.0000 0.0000 -3.2992 0.0000 41.8045
#
#
#
# Elastic Compliance Matrix: (Units=1/GPa)
#
#
# Indices 1 2 3 4 5 6 
#
# 1 0.009957 0.005171 -0.008400 0.000000 0.010646 0.000000
# 2 0.005171 0.026685 -0.012686 0.000000 0.015974 0.000000
# 3 -0.008400 -0.012686 0.028807 0.000000 -0.014038 0.000000
# 4 0.000000 0.000000 0.000000 0.098814 0.000000 0.007798
# 5 0.010646 0.015974 -0.014038 0.000000 0.063365 0.000000
# 6 0.000000 0.000000 0.000000 0.007798 0.000000 0.024536
#
#
# Mechanical properties :
#
#
# Convention : Reuss Voigt Hill
#
# Bulk Modulus (GPa) = 29.74396 39.04220 34.39308
# Shear Modulus (GPa) = 16.93762 28.26217 22.59990
#
# Velocity S-wave (km/s) = 2.72303 3.51746 3.14542
# Velocity P-wave (km/s) = 4.78620 5.79555 5.31489
#
# Compressibility (1/GPa) = 0.03362027
#
# Stress axis : x y z
#
# Youngs Moduli (GPa) = 100.43117 37.47466 34.71334
#
# Poissons Ratio (x) = -0.19380 0.29158
# Poissons Ratio (y) = -0.51937 0.44038
# Poissons Ratio (z) = 0.84359 0.47541
#
# Static dielectric constant tensor:
#      x y z
#    x 1.818590 0.000000 -0.019140 
#    y 0.000000 1.843030 0.000000 
#    z -0.019140 0.000000 1.890000 
# 
# From -- ./inp_files/3845.got.cif
#   From: 2010.05.17/outbox.cif.g08.bks.cpg/sg9_2_cif.got.tgz:3845.got - 2010.06.03 20:04:27.
