data_PCOD9135256
_publ_section_title
;
Structure prediction by ZEFSAII (Michael W. Deem and Ramdas Pophale) SiO2 
 PCOD9135256
Probable space group: C C
;
_chemical_formula_sum "Si O2"
_cell_formula_units_Z 32
_cell_length_a 23.328282
_cell_length_b 6.499445
_cell_length_c 9.049229
_cell_angle_alpha 90.000000
_cell_angle_beta 106.100122
_cell_angle_gamma 90.000000
_cell_volume 1318.238262
_symmetry_space_group_name_H-M "C C"
_symmetry_group_IT_number 9
_symmetry_cell_setting 'monoclinic'
loop_
_space_group_symop_operation_xyz
x,y,z
x,-y,1/2+z
1/2+x,1/2+y,z
1/2+x,1/2-y,1/2+z
loop_
_atom_site_type_symbol
_atom_site_label
_atom_site_fract_x
_atom_site_fract_y
_atom_site_fract_z
Si Si1 0.875000 0.646044 0.539670
Si Si2 0.681697 0.769012 0.483079
Si Si3 0.285365 0.214626 0.948453
Si Si4 0.451922 0.869744 0.816013
Si Si5 0.671892 0.493438 0.241313
Si Si6 0.070553 0.501033 0.037062
Si Si7 0.802644 0.967233 0.676724
Si Si8 0.564026 0.717335 0.803342
O O1 0.820563 0.498162 0.451265
O O2 0.916474 0.501443 0.671743
O O3 0.911278 0.710235 0.419980
O O4 0.850409 0.831107 0.621083
O O5 0.686048 0.717314 0.314267
O O6 0.684196 0.559511 0.581607
O O7 0.619854 0.862815 0.491468
O O8 0.737327 0.901079 0.571705
O O9 0.217177 0.166993 0.855960
O O10 0.306151 0.390466 0.847144
O O11 0.302872 0.297904 0.122939
O O12 0.492948 0.692379 0.769795
O O13 0.502879 0.015772 0.928184
O O14 0.605423 0.445040 0.253040
O O15 0.085025 0.272536 0.985147
O O16 0.071015 0.578641 0.204477
#
# Coordination Sequence:
#
# PCOD9135256 Si02
#       8
#     4   4   4   4   4   4   4   4
#     4  12  22  42  66  90 132 169 217 254 315 384
#     4  10  21  38  59  90 127 160 206 261 318 376
#     4  11  25  41  64  97 128 167 213 264 320 380
#     4  10  20  38  66  82 122 174 207 257 309 375
#     4  10  21  38  59  90 126 161 206 260 320 374
#     4   9  18  35  58  85 113 155 204 249 304 362
#     4  11  25  41  64  97 127 169 212 263 322 375
#     4   9  18  35  58  85 113 155 205 248 304 360
#
# _framework density 24.274826000000001
#
# number of rings (size 3 to 8) (size 9 to 14) (size 15 to 20)
#    0.750    1.000    3.750    0.750    1.750    2.000 
#    0.000    2.500    0.000    0.000    0.000    0.000 
#    0.000    0.000    0.000    0.000    0.000    0.000 
#
# Total GULP energy -89285.905089 kJ/mol
# GULP energy per Si atom -5580.369068 kJ/mol
# Density = 2.421958 g / cm^3
# Si number density = 24.274826 Si / 1000 Ang^3
#
#
#
# Elastic Constant Matrix: (Units=GPa)
#
#
# Indices 1 2 3 4 5 6 
#
# 1 98.7199 13.9362 27.3169 0.0000 -11.0319 0.0000
# 2 13.9362 19.7265 3.4883 0.0000 -5.1596 0.0000
# 3 27.3169 3.4883 84.5146 0.0000 -6.7123 0.0000
# 4 0.0000 0.0000 0.0000 36.4019 0.0000 -7.9098
# 5 -11.0319 -5.1596 -6.7123 0.0000 37.4822 0.0000
# 6 0.0000 0.0000 0.0000 -7.9098 0.0000 29.4333
#
#
#
# Elastic Compliance Matrix: (Units=1/GPa)
#
#
# Indices 1 2 3 4 5 6 
#
# 1 0.012405 -0.007623 -0.003539 0.000000 0.001968 0.000000
# 2 -0.007623 0.057491 0.000549 0.000000 0.005769 0.000000
# 3 -0.003539 0.000549 0.013062 0.000000 0.001373 0.000000
# 4 0.000000 0.000000 0.000000 0.029175 0.000000 0.007840
# 5 0.001968 0.005769 0.001373 0.000000 0.028299 0.000000
# 6 0.000000 0.000000 0.000000 0.007840 0.000000 0.036082
#
#
# Mechanical properties :
#
#
# Convention : Reuss Voigt Hill
#
# Bulk Modulus (GPa) = 16.19884 32.49375 24.34630
# Shear Modulus (GPa) = 22.90256 31.21145 27.05700
#
# Velocity S-wave (km/s) = 3.07493 3.58963 3.34220
# Velocity P-wave (km/s) = 4.39255 5.53131 4.99449
#
# Compressibility (1/GPa) = 0.06173280
#
# Stress axis : x y z
#
# Youngs Moduli (GPa) = 80.61318 17.39413 76.55550
#
# Poissons Ratio (x) = 0.13260 0.27090
# Poissons Ratio (y) = 0.61453 -0.04205
# Poissons Ratio (z) = 0.28526 -0.00955
#
# Static dielectric constant tensor:
#      x y z
#    x 1.941280 0.000000 0.024880 
#    y 0.000000 1.953090 0.000000 
#    z 0.024880 0.000000 1.929620 
# 
# From -- ./inp_files/12026.got.cif
#   From: 2010.05.17/outbox.cif.g08.bks.cpg/sg9_7_cif.got.tgz:12026.got - 2010.06.03 20:04:27.
