data_PCOD9135501
_publ_section_title
;
Structure prediction by ZEFSAII (Michael W. Deem and Ramdas Pophale) SiO2 
 PCOD9135501
Probable space group: C C
;
_chemical_formula_sum "Si O2"
_cell_formula_units_Z 24
_cell_length_a 8.983772
_cell_length_b 10.490635
_cell_length_c 19.661577
_cell_angle_alpha 90.000000
_cell_angle_beta 151.439149
_cell_angle_gamma 90.000000
_cell_volume 885.911169
_symmetry_space_group_name_H-M "C C"
_symmetry_group_IT_number 9
_symmetry_cell_setting 'monoclinic'
loop_
_space_group_symop_operation_xyz
x,y,z
x,-y,1/2+z
1/2+x,1/2+y,z
1/2+x,1/2-y,1/2+z
loop_
_atom_site_type_symbol
_atom_site_label
_atom_site_fract_x
_atom_site_fract_y
_atom_site_fract_z
Si Si1 0.933110 0.951127 0.161270
Si Si2 0.385575 0.564819 0.801006
Si Si3 0.297863 0.850981 0.193848
Si Si4 0.903804 0.260655 0.922639
Si Si5 0.608094 0.703379 0.148271
Si Si6 0.744228 0.903281 0.864462
O O1 0.983864 0.958877 0.262549
O O2 0.157780 0.850262 0.213366
O O3 0.594503 0.892192 0.004797
O O4 0.000507 0.083505 0.149219
O O5 0.537176 0.664861 0.917444
O O6 0.074114 0.651942 0.662280
O O7 0.357212 0.434764 0.832944
O O8 0.529209 0.736491 0.268559
O O9 0.531648 0.970707 0.287895
O O10 0.519805 0.622635 0.528641
O O11 0.952204 0.194718 0.013813
O O12 0.975287 0.697026 0.275374
#
# Coordination Sequence:
#
# PCOD9135501 Si02
#       6
#     4   4   4   4   4   4
#     4  10  21  41  70 103 140 186 245 299 354 436
#     4  10  21  40  68 104 137 179 243 295 352 435
#     4  10  20  40  70 101 145 193 234 299 373 432
#     4  10  22  44  71 104 144 192 243 299 372 439
#     4  10  22  45  72  97 145 196 235 303 372 427
#     4  10  20  40  69 101 141 192 238 289 365 437
#
# _framework density 27.090752999999999
#
# number of rings (size 3 to 8) (size 9 to 14) (size 15 to 20)
#    0.000    2.000    0.000    5.000    0.000    1.333 
#    0.000   58.333    0.000   16.000    0.000    0.000 
#    0.000    0.000    0.000    0.000    0.000    0.000 
#
# Total GULP energy -66885.276222 kJ/mol
# GULP energy per Si atom -5573.773018 kJ/mol
# Density = 2.702909 g / cm^3
# Si number density = 27.090753 Si / 1000 Ang^3
#
#
#
# Elastic Constant Matrix: (Units=GPa)
#
#
# Indices 1 2 3 4 5 6 
#
# 1 214.8128 73.8426 87.1810 0.0023 -39.0165 0.0007
# 2 73.8426 139.7137 43.8628 0.0011 -10.4117 0.0003
# 3 87.1810 43.8628 167.4364 0.0102 -8.6835 0.0037
# 4 0.0023 0.0011 0.0102 28.4248 0.0027 -9.4525
# 5 -39.0165 -10.4117 -8.6835 0.0027 64.2129 0.0006
# 6 0.0007 0.0003 0.0037 -9.4525 0.0006 48.5460
#
#
#
# Elastic Compliance Matrix: (Units=1/GPa)
#
#
# Indices 1 2 3 4 5 6 
#
# 1 0.007480 -0.002741 -0.002985 0.000000 0.003697 0.000000
# 2 -0.002741 0.008867 -0.000914 0.000000 -0.000351 0.000000
# 3 -0.002985 -0.000914 0.007719 -0.000003 -0.000918 -0.000001
# 4 0.000000 0.000000 -0.000003 0.037616 -0.000002 0.007324
# 5 0.003697 -0.000351 -0.000918 -0.000002 0.017638 -0.000001
# 6 0.000000 0.000000 -0.000001 0.007324 -0.000001 0.022025
#
#
# Mechanical properties :
#
#
# Convention : Reuss Voigt Hill
#
# Bulk Modulus (GPa) = 92.71375 103.52618 98.11997
# Shear Modulus (GPa) = 42.29367 49.37516 45.83442
#
# Velocity S-wave (km/s) = 3.95547 4.27380 4.11771
# Velocity P-wave (km/s) = 7.42689 7.91526 7.67496
#
# Compressibility (1/GPa) = 0.01078589
#
# Stress axis : x y z
#
# Youngs Moduli (GPa) = 133.68207 112.77917 129.55839
#
# Poissons Ratio (x) = 0.30912 0.38675
# Poissons Ratio (y) = 0.36641 0.11840
# Poissons Ratio (z) = 0.39906 0.10307
#
# Static dielectric constant tensor:
#      x y z
#    x 2.358690 0.000000 0.003630 
#    y 0.000000 2.248490 0.000000 
#    z 0.003630 0.000000 2.154480 
# 
# From -- ./inp_files/32609.got.cif
#   From: 2010.05.17/outbox.cif.g08.bks.cpg/sg9_17_cif.got.tgz:32609.got - 2010.06.03 20:04:27.
