data_PCOD9135371
_publ_section_title
;
Structure prediction by ZEFSAII (Michael W. Deem and Ramdas Pophale) SiO2 
 PCOD9135371
Probable space group: C C
;
_chemical_formula_sum "Si O2"
_cell_formula_units_Z 28
_cell_length_a 10.815190
_cell_length_b 15.455949
_cell_length_c 8.251434
_cell_angle_alpha 90.000000
_cell_angle_beta 95.732837
_cell_angle_gamma 90.000000
_cell_volume 1372.403065
_symmetry_space_group_name_H-M "C C"
_symmetry_group_IT_number 9
_symmetry_cell_setting 'monoclinic'
loop_
_space_group_symop_operation_xyz
x,y,z
x,-y,1/2+z
1/2+x,1/2+y,z
1/2+x,1/2-y,1/2+z
loop_
_atom_site_type_symbol
_atom_site_label
_atom_site_fract_x
_atom_site_fract_y
_atom_site_fract_z
Si Si1 0.498410 0.245142 0.234540
Si Si2 0.738765 0.730020 0.213588
Si Si3 0.096057 0.631237 0.515075
Si Si4 0.990883 0.883231 0.669954
Si Si5 0.232187 0.317004 0.564438
Si Si6 0.438459 0.560752 0.798572
Si Si7 0.655632 0.965360 0.321275
O O1 0.370997 0.197234 0.165370
O O2 0.515117 0.205255 0.417515
O O3 0.623689 0.225359 0.155031
O O4 0.474507 0.348564 0.219074
O O5 0.708991 0.811249 0.094949
O O6 0.616555 0.671369 0.198353
O O7 0.756439 0.763894 0.400698
O O8 0.120935 0.559530 0.381522
O O9 0.063873 0.578473 0.676724
O O10 0.860063 0.832149 0.681394
O O11 0.965940 0.916173 0.486244
O O12 0.007037 0.971821 0.769799
O O13 0.174314 0.405472 0.482556
O O14 0.293335 0.535695 0.760387
#
# Coordination Sequence:
#
# PCOD9135371 Si02
#       7
#     4   4   4   4   4   4   4
#     4  12  23  40  67  97 132 170 218 269 330 377
#     4  11  23  43  62  97 140 160 214 280 323 384
#     4  11  20  39  65  93 129 166 216 269 314 380
#     4  11  23  44  64  95 130 170 216 269 320 384
#     4  10  23  39  66  98 124 178 221 264 317 387
#     4  11  22  38  67  95 125 170 220 265 314 387
#     4  10  20  39  67  97 126 170 225 268 308 383
#
# _framework density 20.402169000000001
#
# number of rings (size 3 to 8) (size 9 to 14) (size 15 to 20)
#    0.000    1.143    5.714    3.429    2.000    1.143 
#    0.000    2.857    6.286    0.000    0.000    0.000 
#    0.000    0.000    0.000    0.000    0.000    0.000 
#
# Total GULP energy -77950.286268 kJ/mol
# GULP energy per Si atom -5567.877591 kJ/mol
# Density = 2.035573 g / cm^3
# Si number density = 20.402169 Si / 1000 Ang^3
#
#
#
# Elastic Constant Matrix: (Units=GPa)
#
#
# Indices 1 2 3 4 5 6 
#
# 1 115.4711 42.8746 27.1829 0.0000 8.1932 0.0000
# 2 42.8746 84.2845 21.3889 0.0000 3.1536 0.0000
# 3 27.1829 21.3889 51.3084 0.0000 9.8859 0.0000
# 4 0.0000 0.0000 0.0000 28.9090 0.0000 -6.7453
# 5 8.1932 3.1536 9.8859 0.0000 18.8833 0.0000
# 6 0.0000 0.0000 0.0000 -6.7453 0.0000 27.8651
#
#
#
# Elastic Compliance Matrix: (Units=1/GPa)
#
#
# Indices 1 2 3 4 5 6 
#
# 1 0.011468 -0.004829 -0.003625 0.000000 -0.002271 0.000000
# 2 -0.004829 0.015311 -0.004155 0.000000 0.001713 0.000000
# 3 -0.003625 -0.004155 0.025253 0.000000 -0.010954 0.000000
# 4 0.000000 0.000000 0.000000 0.036662 0.000000 0.008875
# 5 -0.002271 0.001713 -0.010954 0.000000 0.059391 0.000000
# 6 0.000000 0.000000 0.000000 0.008875 0.000000 0.038036
#
#
# Mechanical properties :
#
#
# Convention : Reuss Voigt Hill
#
# Bulk Modulus (GPa) = 37.29208 48.21745 42.75477
# Shear Modulus (GPa) = 22.69895 25.77266 24.23580
#
# Velocity S-wave (km/s) = 3.33915 3.55805 3.45034
# Velocity P-wave (km/s) = 5.76062 6.36902 6.07244
#
# Compressibility (1/GPa) = 0.02681534
#
# Stress axis : x y z
#
# Youngs Moduli (GPa) = 87.20282 65.31240 39.59932
#
# Poissons Ratio (x) = 0.31536 0.14354
# Poissons Ratio (y) = 0.42106 0.16452
# Poissons Ratio (z) = 0.31610 0.27135
#
# Static dielectric constant tensor:
#      x y z
#    x 1.766350 0.000000 -0.005940 
#    y 0.000000 1.819700 0.000000 
#    z -0.005940 0.000000 1.793550 
# 
# From -- ./inp_files/7206.got.cif
#   From: 2010.05.17/outbox.cif.g08.bks.cpg/sg9_4_cif.got.tgz:7206.got - 2010.06.03 20:04:27.
