data_PCOD9135373
_publ_section_title
;
Structure prediction by ZEFSAII (Michael W. Deem and Ramdas Pophale) SiO2 
 PCOD9135373
Probable space group: C C
;
_chemical_formula_sum "Si O2"
_cell_formula_units_Z 32
_cell_length_a 13.251439
_cell_length_b 11.733679
_cell_length_c 16.937934
_cell_angle_alpha 90.000000
_cell_angle_beta 150.013959
_cell_angle_gamma 90.000000
_cell_volume 1316.268142
_symmetry_space_group_name_H-M "C C"
_symmetry_group_IT_number 9
_symmetry_cell_setting 'monoclinic'
loop_
_space_group_symop_operation_xyz
x,y,z
x,-y,1/2+z
1/2+x,1/2+y,z
1/2+x,1/2-y,1/2+z
loop_
_atom_site_type_symbol
_atom_site_label
_atom_site_fract_x
_atom_site_fract_y
_atom_site_fract_z
Si Si1 0.072680 0.281223 0.970930
Si Si2 0.733761 0.829394 0.770383
Si Si3 0.291654 0.777508 0.462847
Si Si4 0.717448 0.003134 0.139000
Si Si5 0.585374 0.659477 0.353125
Si Si6 0.693723 0.418565 0.657915
Si Si7 0.747957 0.505016 0.846144
Si Si8 0.808447 0.343519 0.170659
O O1 0.164975 0.273033 0.946732
O O2 0.855462 0.336508 0.810825
O O3 0.210007 0.372236 0.111807
O O4 0.076125 0.161322 0.018103
O O5 0.501113 0.823458 0.638392
O O6 0.847678 0.801627 0.927033
O O7 0.772365 0.955285 0.763905
O O8 0.766132 0.737238 0.720353
O O9 0.179199 0.884315 0.346940
O O10 0.883730 0.078631 0.205215
O O11 0.477302 0.036872 0.971656
O O12 0.749294 0.599439 0.408569
O O13 0.659957 0.665393 0.494532
O O14 0.518024 0.786452 0.284593
O O15 0.602580 0.477397 0.674321
O O16 0.803048 0.523964 0.688550
#
# Coordination Sequence:
#
# PCOD9135373 Si02
#       8
#     4   4   4   4   4   4   4   4
#     4  11  25  41  68  98 146 189 240 305 380 433
#     4  10  20  39  67  97 132 174 241 297 355 418
#     4  11  21  38  67 101 126 179 246 298 343 442
#     4   9  23  42  68 100 147 191 233 316 366 430
#     4  11  25  42  78 107 144 191 252 307 377 444
#     4  11  25  45  67  98 147 195 239 308 380 442
#     4  10  23  45  70 101 147 187 250 304 366 450
#     4  11  24  44  71 104 141 196 243 307 381 439
#
# _framework density 24.311156
#
# number of rings (size 3 to 8) (size 9 to 14) (size 15 to 20)
#    0.000    1.500    1.250    3.000   12.250    3.000 
#    0.000    0.000    5.500    0.000    0.000    0.000 
#    0.000    0.000    0.000    0.000    0.000    0.000 
#
# Total GULP energy -89260.428026 kJ/mol
# GULP energy per Si atom -5578.776752 kJ/mol
# Density = 2.425582 g / cm^3
# Si number density = 24.311156 Si / 1000 Ang^3
#
#
#
# Elastic Constant Matrix: (Units=GPa)
#
#
# Indices 1 2 3 4 5 6 
#
# 1 70.6977 25.3243 29.6351 0.0013 -19.0436 0.0004
# 2 25.3243 151.5430 47.9939 0.0045 -29.1824 0.0022
# 3 29.6351 47.9939 90.7855 0.0051 -20.8154 0.0033
# 4 0.0013 0.0045 0.0051 48.1853 0.0034 -10.1424
# 5 -19.0436 -29.1824 -20.8154 0.0034 33.4706 0.0017
# 6 0.0004 0.0022 0.0033 -10.1424 0.0017 43.4657
#
#
#
# Elastic Compliance Matrix: (Units=1/GPa)
#
#
# Indices 1 2 3 4 5 6 
#
# 1 0.017933 -0.000297 -0.003985 -0.000001 0.007466 0.000000
# 2 -0.000297 0.008727 -0.003278 -0.000001 0.005401 -0.000001
# 3 -0.003985 -0.003278 0.015015 -0.000002 0.004212 -0.000002
# 4 -0.000001 -0.000001 -0.000002 0.021825 -0.000005 0.005093
# 5 0.007466 0.005401 0.004212 -0.000005 0.041453 -0.000003
# 6 0.000000 -0.000001 -0.000002 0.005093 -0.000003 0.024195
#
#
# Mechanical properties :
#
#
# Convention : Reuss Voigt Hill
#
# Bulk Modulus (GPa) = 37.65946 57.65920 47.65933
# Shear Modulus (GPa) = 32.65443 39.02917 35.84180
#
# Velocity S-wave (km/s) = 3.66893 4.01109 3.84382
# Velocity P-wave (km/s) = 5.78552 6.72462 6.27267
#
# Compressibility (1/GPa) = 0.02655375
#
# Stress axis : x y z
#
# Youngs Moduli (GPa) = 55.76441 114.59152 66.60216
#
# Poissons Ratio (x) = 0.03403 0.26541
# Poissons Ratio (y) = 0.01656 0.21833
# Poissons Ratio (z) = 0.22222 0.37564
#
# Static dielectric constant tensor:
#      x y z
#    x 1.997520 0.000000 0.015380 
#    y 0.000000 1.992120 0.000000 
#    z 0.015380 0.000000 1.995490 
# 
# From -- ./inp_files/30706.got.cif
#   From: 2010.05.17/outbox.cif.g08.bks.cpg/sg9_16_cif.got.tgz:30706.got - 2010.06.03 20:04:27.
