data_PCOD9135439
_publ_section_title
;
Structure prediction by ZEFSAII (Michael W. Deem and Ramdas Pophale) SiO2 
 PCOD9135439
Probable space group: C C
;
_chemical_formula_sum "Si O2"
_cell_formula_units_Z 28
_cell_length_a 5.314640
_cell_length_b 24.307983
_cell_length_c 11.202233
_cell_angle_alpha 90.000000
_cell_angle_beta 125.836839
_cell_angle_gamma 90.000000
_cell_volume 1173.223838
_symmetry_space_group_name_H-M "C C"
_symmetry_group_IT_number 9
_symmetry_cell_setting 'monoclinic'
loop_
_space_group_symop_operation_xyz
x,y,z
x,-y,1/2+z
1/2+x,1/2+y,z
1/2+x,1/2-y,1/2+z
loop_
_atom_site_type_symbol
_atom_site_label
_atom_site_fract_x
_atom_site_fract_y
_atom_site_fract_z
Si Si1 0.951140 0.611760 0.422270
Si Si2 0.050475 0.827871 0.626434
Si Si3 0.727184 0.903814 0.352428
Si Si4 0.667913 0.765216 0.719791
Si Si5 0.702512 0.009026 0.029279
Si Si6 0.563978 0.674683 0.517500
Si Si7 0.650566 0.560130 0.792753
O O1 0.726729 0.623836 0.247593
O O2 0.797361 0.644702 0.490572
O O3 0.021843 0.548021 0.461683
O O4 0.280162 0.636215 0.474521
O O5 0.319027 0.785326 0.657550
O O6 0.855065 0.854462 0.466029
O O7 0.814741 0.802441 0.656042
O O8 0.359208 0.913147 0.247410
O O9 0.888359 0.901285 0.270994
O O10 0.829821 0.962265 0.444011
O O11 0.688716 0.704695 0.670083
O O12 0.891711 0.776441 0.893939
O O13 0.972508 0.993681 0.195413
O O14 0.416327 0.051351 0.968598
#
# Coordination Sequence:
#
# PCOD9135439 Si02
#       7
#     4   4   4   4   4   4   4
#     4  10  22  37  65  87 123 159 207 242 313 370
#     4  10  20  40  64  88 116 168 201 247 304 382
#     4  10  23  39  60  92 122 160 210 247 298 367
#     4  10  21  40  65  86 123 152 209 254 318 362
#     4  10  24  41  61  91 129 167 205 255 303 362
#     4  10  22  41  60  94 114 162 201 258 314 375
#     4  10  24  36  63  84 131 158 213 247 304 356
#
# _framework density 23.865863999999998
#
# number of rings (size 3 to 8) (size 9 to 14) (size 15 to 20)
#    0.857    1.143    0.000    2.571    4.000    0.000 
#    7.714    0.000    0.000    0.000    0.000    0.000 
#    0.000    0.000    0.000    0.000    0.000    0.000 
#
# Total GULP energy -78121.519918 kJ/mol
# GULP energy per Si atom -5580.108566 kJ/mol
# Density = 2.381154 g / cm^3
# Si number density = 23.865864 Si / 1000 Ang^3
#
#
#
# Elastic Constant Matrix: (Units=GPa)
#
#
# Indices 1 2 3 4 5 6 
#
# 1 132.5131 -14.9284 27.7917 0.0000 4.9639 0.0000
# 2 -14.9284 41.0872 4.5259 0.0000 4.3700 0.0000
# 3 27.7917 4.5259 81.9388 0.0000 17.0009 0.0000
# 4 0.0000 0.0000 0.0000 47.5487 0.0000 -7.4146
# 5 4.9639 4.3700 17.0009 0.0000 33.8699 0.0000
# 6 0.0000 0.0000 0.0000 -7.4146 0.0000 18.8203
#
#
#
# Elastic Compliance Matrix: (Units=1/GPa)
#
#
# Indices 1 2 3 4 5 6 
#
# 1 0.008588 0.003476 -0.003071 0.000000 -0.000166 0.000000
# 2 0.003476 0.026129 -0.002028 0.000000 -0.002863 0.000000
# 3 -0.003071 -0.002028 0.014746 0.000000 -0.006690 0.000000
# 4 0.000000 0.000000 0.000000 0.022408 0.000000 0.008828
# 5 -0.000166 -0.002863 -0.006690 0.000000 0.033276 0.000000
# 6 0.000000 0.000000 0.000000 0.008828 0.000000 0.056612
#
#
# Mechanical properties :
#
#
# Convention : Reuss Voigt Hill
#
# Bulk Modulus (GPa) = 21.63648 32.25749 26.94699
# Shear Modulus (GPa) = 27.71454 35.92445 31.81949
#
# Velocity S-wave (km/s) = 3.41143 3.88398 3.65535
# Velocity P-wave (km/s) = 4.96011 5.80166 5.39731
#
# Compressibility (1/GPa) = 0.04621824
#
# Stress axis : x y z
#
# Youngs Moduli (GPa) = 116.43835 38.27097 67.81615
#
# Poissons Ratio (x) = -0.13304 0.20823
# Poissons Ratio (y) = -0.40477 0.13756
# Poissons Ratio (z) = 0.35752 0.07763
#
# Static dielectric constant tensor:
#      x y z
#    x 1.897110 0.000000 0.017320 
#    y 0.000000 1.958700 0.000000 
#    z 0.017320 0.000000 1.986620 
# 
# From -- ./inp_files/13596.got.cif
#   From: 2010.05.17/outbox.cif.g08.bks.cpg/sg9_7_cif.got.tgz:13596.got - 2010.06.03 20:04:27.
