data_PCOD9135228
_publ_section_title
;
Structure prediction by ZEFSAII (Michael W. Deem and Ramdas Pophale) SiO2 
 PCOD9135228
Probable space group: C C
;
_chemical_formula_sum "Si O2"
_cell_formula_units_Z 32
_cell_length_a 24.342589
_cell_length_b 11.932825
_cell_length_c 11.412659
_cell_angle_alpha 90.000000
_cell_angle_beta 156.893738
_cell_angle_gamma 90.000000
_cell_volume 1300.970769
_symmetry_space_group_name_H-M "C C"
_symmetry_group_IT_number 9
_symmetry_cell_setting 'monoclinic'
loop_
_space_group_symop_operation_xyz
x,y,z
x,-y,1/2+z
1/2+x,1/2+y,z
1/2+x,1/2-y,1/2+z
loop_
_atom_site_type_symbol
_atom_site_label
_atom_site_fract_x
_atom_site_fract_y
_atom_site_fract_z
Si Si1 0.236870 0.156969 0.506740
Si Si2 0.763765 0.893914 0.265056
Si Si3 0.673305 0.140408 0.017623
Si Si4 0.290212 0.711282 0.588131
Si Si5 0.688045 0.419989 0.525017
Si Si6 0.936043 0.600923 0.701793
Si Si7 0.536163 0.715718 0.895244
Si Si8 0.149603 0.523191 0.746356
O O1 0.258537 0.253424 0.644397
O O2 0.376557 0.143174 0.706301
O O3 0.125881 0.188218 0.188185
O O4 0.189954 0.041931 0.473550
O O5 0.853665 0.833263 0.339741
O O6 0.625761 0.811578 0.001521
O O7 0.779064 0.912724 0.436025
O O8 0.747559 0.024604 0.198581
O O9 0.557210 0.175278 0.882655
O O10 0.596058 0.094989 0.749247
O O11 0.217142 0.827173 0.481732
O O12 0.196779 0.601172 0.375546
O O13 0.385824 0.730507 0.660867
O O14 0.552303 0.386737 0.335459
O O15 0.814642 0.415207 0.869075
O O16 0.021082 0.490276 0.904856
#
# Coordination Sequence:
#
# PCOD9135228 Si02
#       8
#     4   4   4   4   4   4   4   4
#     4  11  22  40  64  94 130 166 209 257 323 377
#     4   9  20  39  62  90 121 164 218 252 309 369
#     4  10  20  38  63  94 121 163 211 261 304 375
#     4  10  22  40  67  90 128 168 207 264 315 376
#     4  10  23  41  63  98 128 169 209 258 322 376
#     4  10  22  40  65  90 124 170 212 263 301 375
#     4  10  21  41  65  90 128 173 202 261 324 374
#     4  10  20  41  65  96 124 163 220 258 308 370
#
# _framework density 24.597017999999998
#
# number of rings (size 3 to 8) (size 9 to 14) (size 15 to 20)
#    0.000    2.000    1.250    1.500    3.500    1.000 
#   13.500    7.500    0.000    0.000    0.000    0.000 
#    0.000    0.000    0.000    0.000    0.000    0.000 
#
# Total GULP energy -89148.113104 kJ/mol
# GULP energy per Si atom -5571.757069 kJ/mol
# Density = 2.454103 g / cm^3
# Si number density = 24.597018 Si / 1000 Ang^3
#
#
#
# Elastic Constant Matrix: (Units=GPa)
#
#
# Indices 1 2 3 4 5 6 
#
# 1 182.7589 66.3257 17.3728 0.0000 21.5906 0.0000
# 2 66.3257 155.4882 8.4678 0.0000 7.3538 0.0000
# 3 17.3728 8.4678 34.9001 0.0000 5.7161 0.0000
# 4 0.0000 0.0000 0.0000 18.6100 0.0000 -2.8153
# 5 21.5906 7.3538 5.7161 0.0000 26.0304 0.0000
# 6 0.0000 0.0000 0.0000 -2.8153 0.0000 48.4687
#
#
#
# Elastic Compliance Matrix: (Units=1/GPa)
#
#
# Indices 1 2 3 4 5 6 
#
# 1 0.007234 -0.002743 -0.002157 0.000000 -0.004751 0.000000
# 2 -0.002743 0.007619 -0.000522 0.000000 0.000238 0.000000
# 3 -0.002157 -0.000522 0.030638 0.000000 -0.004791 0.000000
# 4 0.000000 0.000000 0.000000 0.054211 0.000000 0.003149
# 5 -0.004751 0.000238 -0.004791 0.000000 0.043342 0.000000
# 6 0.000000 0.000000 0.000000 0.003149 0.000000 0.020815
#
#
# Mechanical properties :
#
#
# Convention : Reuss Voigt Hill
#
# Bulk Modulus (GPa) = 28.86316 61.94218 45.40267
# Shear Modulus (GPa) = 26.84529 37.35386 32.09958
#
# Velocity S-wave (km/s) = 3.30722 3.90119 3.61642
# Velocity P-wave (km/s) = 5.13260 6.74758 5.99472
#
# Compressibility (1/GPa) = 0.03464624
#
# Stress axis : x y z
#
# Youngs Moduli (GPa) = 138.24278 131.25451 32.63884
#
# Poissons Ratio (x) = 0.36009 0.07040
# Poissons Ratio (y) = 0.37926 0.01703
# Poissons Ratio (z) = 0.29819 0.06849
#
# Static dielectric constant tensor:
#      x y z
#    x 2.076270 0.000000 0.003900 
#    y 0.000000 1.971200 0.000000 
#    z 0.003900 0.000000 2.060770 
# 
# From -- ./inp_files/20971.got.cif
#   From: 2010.05.17/outbox.cif.g08.bks.cpg/sg9_11_cif.got.tgz:20971.got - 2010.06.03 20:04:27.
