data_PCOD9135803
_publ_section_title
;
Structure prediction by ZEFSAII (Michael W. Deem and Ramdas Pophale) SiO2 
 PCOD9135803
Probable space group: C C
;
_chemical_formula_sum "Si O2"
_cell_formula_units_Z 32
_cell_length_a 7.481886
_cell_length_b 12.221633
_cell_length_c 14.568591
_cell_angle_alpha 90.000000
_cell_angle_beta 119.155669
_cell_angle_gamma 90.000000
_cell_volume 1163.378356
_symmetry_space_group_name_H-M "C C"
_symmetry_group_IT_number 9
_symmetry_cell_setting 'monoclinic'
loop_
_space_group_symop_operation_xyz
x,y,z
x,-y,1/2+z
1/2+x,1/2+y,z
1/2+x,1/2-y,1/2+z
loop_
_atom_site_type_symbol
_atom_site_label
_atom_site_fract_x
_atom_site_fract_y
_atom_site_fract_z
Si Si1 0.181060 0.208239 0.938420
Si Si2 0.457005 0.602808 0.716986
Si Si3 0.884070 0.114233 0.358103
Si Si4 0.055845 0.483888 0.347803
Si Si5 0.562489 0.179241 0.134547
Si Si6 0.173993 0.883422 0.759527
Si Si7 0.025434 0.590281 0.520846
Si Si8 0.416354 0.813529 0.159471
O O1 0.328200 0.281427 0.907419
O O2 0.038824 0.132029 0.839383
O O3 0.342761 0.144485 0.042706
O O4 0.057331 0.296388 0.970413
O O5 0.516930 0.708859 0.676348
O O6 0.568060 0.496250 0.705418
O O7 0.224780 0.580923 0.634182
O O8 0.796528 0.012610 0.396435
O O9 0.704857 0.107791 0.235617
O O10 0.087281 0.123383 0.344875
O O11 0.905675 0.588190 0.290348
O O12 0.972628 0.383365 0.265806
O O13 0.016058 0.489428 0.447888
O O14 0.732406 0.226317 0.108268
O O15 0.106835 0.770550 0.698505
O O16 0.867183 0.607002 0.563188
#
# Coordination Sequence:
#
# PCOD9135803 Si02
#       8
#     4   4   4   4   4   4   4   4
#     4   9  20  39  72  96 140 192 246 309 381 456
#     4  10  20  45  66  98 145 190 241 313 380 458
#     4   9  21  41  63  96 139 188 241 310 367 453
#     4  11  24  48  71 104 151 200 250 318 384 463
#     4   9  19  40  66  97 135 184 238 306 387 441
#     4  11  24  43  71 103 147 196 248 318 387 444
#     4  10  24  43  74 109 141 203 253 305 396 455
#     4  11  24  45  71 109 152 191 265 327 368 478
#
# _framework density 27.506097
#
# number of rings (size 3 to 8) (size 9 to 14) (size 15 to 20)
#    0.000    2.000    1.250    0.750    8.750    0.000 
#    9.000    2.500    0.000    0.000    0.000    0.000 
#    0.000    0.000    0.000    0.000    0.000    0.000 
#
# Total GULP energy -89210.588885 kJ/mol
# GULP energy per Si atom -5575.661805 kJ/mol
# Density = 2.744349 g / cm^3
# Si number density = 27.506097 Si / 1000 Ang^3
#
#
#
# Elastic Constant Matrix: (Units=GPa)
#
#
# Indices 1 2 3 4 5 6 
#
# 1 61.3249 -0.3259 -18.3333 0.0000 -27.2113 0.0000
# 2 -0.3259 106.7164 41.0249 0.0000 -24.2155 0.0000
# 3 -18.3333 41.0249 126.0289 0.0000 14.3734 0.0000
# 4 0.0000 0.0000 0.0000 28.5537 0.0000 -23.7219
# 5 -27.2113 -24.2155 14.3734 0.0000 39.9091 0.0000
# 6 0.0000 0.0000 0.0000 -23.7219 0.0000 47.5461
#
#
#
# Elastic Compliance Matrix: (Units=1/GPa)
#
#
# Indices 1 2 3 4 5 6 
#
# 1 0.025197 0.004693 -0.000152 0.000000 0.020082 0.000000
# 2 0.004693 0.014851 -0.005782 0.000000 0.014293 0.000000
# 3 -0.000152 -0.005782 0.010644 0.000000 -0.007445 0.000000
# 4 0.000000 0.000000 0.000000 0.059815 0.000000 0.029843
# 5 0.020082 0.014293 -0.007445 0.000000 0.050104 0.000000
# 6 0.000000 0.000000 0.000000 0.029843 0.000000 0.035922
#
#
# Mechanical properties :
#
#
# Convention : Reuss Voigt Hill
#
# Bulk Modulus (GPa) = 20.74338 37.64460 29.19399
# Shear Modulus (GPa) = 23.24673 41.31542 32.28107
#
# Velocity S-wave (km/s) = 2.91030 3.87983 3.42950
# Velocity P-wave (km/s) = 4.34176 5.81261 5.13017
#
# Compressibility (1/GPa) = 0.04820815
#
# Stress axis : x y z
#
# Youngs Moduli (GPa) = 39.68742 67.33619 93.95225
#
# Poissons Ratio (x) = -0.31598 0.01432
# Poissons Ratio (y) = -0.18623 0.54320
# Poissons Ratio (z) = 0.00605 0.38932
#
# Static dielectric constant tensor:
#      x y z
#    x 2.418760 0.000000 -0.054660 
#    y 0.000000 2.191880 0.000000 
#    z -0.054660 0.000000 2.350100 
# 
# From -- ./inp_files/23292.got.cif
#   From: 2010.05.17/outbox.cif.g08.bks.cpg/sg9_12_cif.got.tgz:23292.got - 2010.06.03 20:04:27.
