data_PCOD9135003
_publ_section_title
;
Structure prediction by ZEFSAII (Michael W. Deem and Ramdas Pophale) SiO2 
 PCOD9135003
Probable space group: C C
;
_chemical_formula_sum "Si O2"
_cell_formula_units_Z 32
_cell_length_a 14.319109
_cell_length_b 8.318631
_cell_length_c 24.887945
_cell_angle_alpha 90.000000
_cell_angle_beta 31.571562
_cell_angle_gamma 90.000000
_cell_volume 1552.122242
_symmetry_space_group_name_H-M "C C"
_symmetry_group_IT_number 9
_symmetry_cell_setting 'monoclinic'
loop_
_space_group_symop_operation_xyz
x,y,z
x,-y,1/2+z
1/2+x,1/2+y,z
1/2+x,1/2-y,1/2+z
loop_
_atom_site_type_symbol
_atom_site_label
_atom_site_fract_x
_atom_site_fract_y
_atom_site_fract_z
Si Si1 0.383200 0.839821 0.792320
Si Si2 0.853762 0.159776 0.658397
Si Si3 0.175483 0.563878 0.858576
Si Si4 0.254391 0.942862 0.968766
Si Si5 0.352502 0.257008 0.977456
Si Si6 0.040239 0.756662 0.397579
Si Si7 0.263406 0.472605 0.594786
Si Si8 0.186162 0.949480 0.779731
O O1 0.311843 0.656834 0.830200
O O2 0.321859 0.934526 0.874781
O O3 0.283700 0.909189 0.788604
O O4 0.593083 0.858218 0.681757
O O5 0.748444 0.091382 0.761948
O O6 0.801687 0.056032 0.632614
O O7 0.799357 0.348050 0.681340
O O8 0.062176 0.138376 0.566498
O O9 0.150329 0.374888 0.876963
O O10 0.985970 0.658556 0.952299
O O11 0.394498 0.843931 0.935856
O O12 0.253124 0.124184 0.991403
O O13 0.230575 0.380616 0.069501
O O14 0.491157 0.365613 0.875490
O O15 0.934849 0.877851 0.488282
O O16 0.154431 0.860994 0.298982
#
# Coordination Sequence:
#
# PCOD9135003 Si02
#       8
#     4   4   4   4   4   4   4   4
#     4  10  20  37  60  83 116 157 195 236 297 355
#     4  10  20  37  60  82 116 157 196 241 298 351
#     4   9  19  38  57  84 117 152 192 247 294 347
#     4  11  20  37  59  85 116 156 196 246 298 350
#     4   8  18  34  55  80 111 146 190 238 290 342
#     4  10  20  36  59  85 118 152 196 247 300 354
#     4  11  20  37  61  87 116 159 199 243 298 356
#     4   9  19  38  57  82 112 147 190 246 295 351
#
# _framework density 20.616933
#
# number of rings (size 3 to 8) (size 9 to 14) (size 15 to 20)
#    0.000    2.500    0.000    6.000    0.000    1.000 
#    0.000   16.250    0.000    3.000    0.000    0.000 
#    0.000    0.000    0.000    0.000    0.000    0.000 
#
# Total GULP energy -89264.943122 kJ/mol
# GULP energy per Si atom -5579.058945 kJ/mol
# Density = 2.057001 g / cm^3
# Si number density = 20.616933 Si / 1000 Ang^3
#
#
#
# Elastic Constant Matrix: (Units=GPa)
#
#
# Indices 1 2 3 4 5 6 
#
# 1 54.2605 21.0506 13.1254 0.0000 1.9762 0.0000
# 2 21.0506 133.1677 27.6316 0.0000 -10.5753 0.0000
# 3 13.1254 27.6316 67.1017 0.0000 -9.4529 0.0000
# 4 0.0000 0.0000 0.0000 26.7491 0.0000 -7.3652
# 5 1.9762 -10.5753 -9.4529 0.0000 30.3167 0.0000
# 6 0.0000 0.0000 0.0000 -7.3652 0.0000 14.1573
#
#
#
# Elastic Compliance Matrix: (Units=1/GPa)
#
#
# Indices 1 2 3 4 5 6 
#
# 1 0.020443 -0.002810 -0.003313 0.000000 -0.003346 0.000000
# 2 -0.002810 0.008702 -0.002699 0.000000 0.002377 0.000000
# 3 -0.003313 -0.002699 0.017321 0.000000 0.004675 0.000000
# 4 0.000000 0.000000 0.000000 0.043635 0.000000 0.022701
# 5 -0.003346 0.002377 0.004675 0.000000 0.035490 0.000000
# 6 0.000000 0.000000 0.000000 0.022701 0.000000 0.082445
#
#
# Mechanical properties :
#
#
# Convention : Reuss Voigt Hill
#
# Bulk Modulus (GPa) = 34.69520 42.01612 38.35566
# Shear Modulus (GPa) = 21.25061 27.09276 24.17169
#
# Velocity S-wave (km/s) = 3.21399 3.62899 3.42778
# Velocity P-wave (km/s) = 5.53516 6.16304 5.85752
#
# Compressibility (1/GPa) = 0.02882243
#
# Stress axis : x y z
#
# Youngs Moduli (GPa) = 48.91660 114.91212 57.73402
#
# Poissons Ratio (x) = 0.32288 0.19127
# Poissons Ratio (y) = 0.13745 0.15582
# Poissons Ratio (z) = 0.16206 0.31015
#
# Static dielectric constant tensor:
#      x y z
#    x 1.729090 0.000000 0.007030 
#    y 0.000000 1.793600 0.000000 
#    z 0.007030 0.000000 1.755010 
# 
# From -- ./inp_files/27698.got.cif
#   From: 2010.05.17/outbox.cif.g08.bks.cpg/sg9_14_cif.got.tgz:27698.got - 2010.06.03 20:04:27.
