data_PCOD9135387
_publ_section_title
;
Structure prediction by ZEFSAII (Michael W. Deem and Ramdas Pophale) SiO2 
 PCOD9135387
Probable space group: C C
;
_chemical_formula_sum "Si O2"
_cell_formula_units_Z 32
_cell_length_a 9.270648
_cell_length_b 22.675015
_cell_length_c 12.609478
_cell_angle_alpha 90.000000
_cell_angle_beta 34.786392
_cell_angle_gamma 90.000000
_cell_volume 1512.253275
_symmetry_space_group_name_H-M "C C"
_symmetry_group_IT_number 9
_symmetry_cell_setting 'monoclinic'
loop_
_space_group_symop_operation_xyz
x,y,z
x,-y,1/2+z
1/2+x,1/2+y,z
1/2+x,1/2-y,1/2+z
loop_
_atom_site_type_symbol
_atom_site_label
_atom_site_fract_x
_atom_site_fract_y
_atom_site_fract_z
Si Si1 0.420840 0.955402 0.980140
Si Si2 0.713955 0.311733 0.784451
Si Si3 0.815721 0.102036 0.581934
Si Si4 0.292275 0.906020 0.280403
Si Si5 0.203226 0.679781 0.849402
Si Si6 0.991780 0.800958 0.389288
Si Si7 0.004842 0.671081 0.321948
Si Si8 0.983569 0.006978 0.094489
O O1 0.467533 0.890189 0.903067
O O2 0.696337 0.986715 0.810733
O O3 0.321924 0.945362 0.157931
O O4 0.200784 0.987708 0.046142
O O5 0.681546 0.241487 0.799084
O O6 0.942237 0.329681 0.570006
O O7 0.790620 0.322720 0.860954
O O8 0.469500 0.351548 0.917516
O O9 0.551271 0.089724 0.687252
O O10 0.763526 0.129957 0.728998
O O11 0.971562 0.043088 0.510831
O O12 0.228009 0.839557 0.283031
O O13 0.073521 0.932606 0.486260
O O14 0.417267 0.686505 0.811231
O O15 0.760841 0.824279 0.599507
O O16 0.004107 0.730425 0.392777
#
# Coordination Sequence:
#
# PCOD9135387 Si02
#       8
#     4   4   4   4   4   4   4   4
#     4  12  26  48  74 101 140 192 237 292 349 414
#     4  10  20  39  69 103 135 179 233 278 343 419
#     4  12  25  44  66 103 138 179 232 290 351 417
#     4  12  28  46  70 103 140 181 235 293 363 411
#     4  10  21  40  71  98 136 183 227 285 344 419
#     4  10  21  41  69 105 137 177 232 285 350 423
#     4  10  20  40  72 101 135 181 233 284 342 423
#     4  12  27  48  71 102 141 186 241 293 342 428
#
# _framework density 21.160475999999999
#
# number of rings (size 3 to 8) (size 9 to 14) (size 15 to 20)
#    0.000    1.000    5.000    1.500    3.500    2.000 
#    4.500    0.000    0.000    0.000    0.000    0.000 
#    0.000    0.000    0.000    0.000    0.000    0.000 
#
# Total GULP energy -89468.713246 kJ/mol
# GULP energy per Si atom -5591.794578 kJ/mol
# Density = 2.111231 g / cm^3
# Si number density = 21.160476 Si / 1000 Ang^3
#
#
#
# Elastic Constant Matrix: (Units=GPa)
#
#
# Indices 1 2 3 4 5 6 
#
# 1 79.6548 30.7520 30.9335 0.0000 -18.0365 0.0000
# 2 30.7520 89.8782 13.4773 0.0000 -3.6526 0.0000
# 3 30.9335 13.4773 69.0270 0.0000 -11.4116 0.0000
# 4 0.0000 0.0000 0.0000 36.4206 0.0000 -9.3579
# 5 -18.0365 -3.6526 -11.4116 0.0000 27.1840 0.0000
# 6 0.0000 0.0000 0.0000 -9.3579 0.0000 22.9440
#
#
#
# Elastic Compliance Matrix: (Units=1/GPa)
#
#
# Indices 1 2 3 4 5 6 
#
# 1 0.019014 -0.005232 -0.005942 0.000000 0.009418 0.000000
# 2 -0.005232 0.012912 -0.000498 0.000000 -0.001946 0.000000
# 3 -0.005942 -0.000498 0.017821 0.000000 0.003471 0.000000
# 4 0.000000 0.000000 0.000000 0.030671 0.000000 0.012510
# 5 0.009418 -0.001946 0.003471 0.000000 0.044231 0.000000
# 6 0.000000 0.000000 0.000000 0.012510 0.000000 0.048687
#
#
# Mechanical properties :
#
#
# Convention : Reuss Voigt Hill
#
# Bulk Modulus (GPa) = 37.87491 43.20952 40.54222
# Shear Modulus (GPa) = 24.33295 28.20285 26.26790
#
# Velocity S-wave (km/s) = 3.39473 3.65472 3.52712
# Velocity P-wave (km/s) = 5.77091 6.18657 5.98235
#
# Compressibility (1/GPa) = 0.02640270
#
# Stress axis : x y z
#
# Youngs Moduli (GPa) = 52.59156 77.44784 56.11275
#
# Poissons Ratio (x) = 0.40521 0.33345
# Poissons Ratio (y) = 0.27516 0.02794
# Poissons Ratio (z) = 0.31252 0.03857
#
# Static dielectric constant tensor:
#      x y z
#    x 1.736390 0.000000 -0.019840 
#    y 0.000000 1.764010 0.000000 
#    z -0.019840 0.000000 1.771770 
# 
# From -- ./inp_files/15613.got.cif
#   From: 2010.05.17/outbox.cif.g08.bks.cpg/sg9_8_cif.got.tgz:15613.got - 2010.06.03 20:04:27.
