data_PCOD9135171
_publ_section_title
;
Structure prediction by ZEFSAII (Michael W. Deem and Ramdas Pophale) SiO2 
 PCOD9135171
Probable space group: C C
;
_chemical_formula_sum "Si O2"
_cell_formula_units_Z 32
_cell_length_a 15.372200
_cell_length_b 5.414689
_cell_length_c 15.404793
_cell_angle_alpha 90.000000
_cell_angle_beta 77.090764
_cell_angle_gamma 90.000000
_cell_volume 1249.820380
_symmetry_space_group_name_H-M "C C"
_symmetry_group_IT_number 9
_symmetry_cell_setting 'monoclinic'
loop_
_space_group_symop_operation_xyz
x,y,z
x,-y,1/2+z
1/2+x,1/2+y,z
1/2+x,1/2-y,1/2+z
loop_
_atom_site_type_symbol
_atom_site_label
_atom_site_fract_x
_atom_site_fract_y
_atom_site_fract_z
Si Si1 0.996300 0.444026 0.941700
Si Si2 0.553927 0.694767 0.575688
Si Si3 0.382938 0.570161 0.066994
Si Si4 0.825035 0.937773 0.904374
Si Si5 0.384143 0.047227 0.308149
Si Si6 0.221094 0.111657 0.264479
Si Si7 0.180143 0.608716 0.181804
Si Si8 0.158521 0.866785 0.447089
O O1 0.974430 0.484404 0.845262
O O2 0.066706 0.222492 0.927932
O O3 0.039713 0.660205 0.988785
O O4 0.916664 0.332080 0.020023
O O5 0.461602 0.542302 0.610361
O O6 0.593796 0.881778 0.637718
O O7 0.633956 0.500139 0.541737
O O8 0.280714 0.592815 0.119484
O O9 0.375967 0.395568 0.983061
O O10 0.851796 0.734634 0.828392
O O11 0.722898 0.866546 0.944669
O O12 0.851000 0.204731 0.865661
O O13 0.330181 0.104433 0.230554
O O14 0.180844 0.369518 0.243393
O O15 0.179513 0.874289 0.227946
O O16 0.201794 0.055806 0.369964
#
# Coordination Sequence:
#
# PCOD9135171 Si02
#       8
#     4   4   4   4   4   4   4   4
#     4  10  22  41  71 111 130 177 245 314 350 409
#     4  11  25  44  76 109 140 191 251 313 359 427
#     4  10  24  43  69 106 142 181 244 298 367 425
#     4  10  20  37  72  97 127 172 225 303 337 407
#     4  10  21  42  68  94 135 175 235 285 351 414
#     4  11  27  48  67 103 142 198 233 287 376 449
#     4  12  29  47  72 100 154 198 234 292 382 451
#     4  10  24  42  73 102 138 182 249 300 354 424
#
# _framework density 25.603681999999999
#
# number of rings (size 3 to 8) (size 9 to 14) (size 15 to 20)
#    0.000    1.500    1.250    2.250   19.250    0.000 
#    2.250    0.000    0.000    0.000    0.000    0.000 
#    0.000    0.000    0.000    0.000    0.000    0.000 
#
# Total GULP energy -89162.439334 kJ/mol
# GULP energy per Si atom -5572.652458 kJ/mol
# Density = 2.554541 g / cm^3
# Si number density = 25.603682 Si / 1000 Ang^3
#
#
#
# Elastic Constant Matrix: (Units=GPa)
#
#
# Indices 1 2 3 4 5 6 
#
# 1 55.5809 28.2673 22.7222 0.0000 27.3758 0.0000
# 2 28.2673 103.5115 24.0992 0.0000 10.4602 0.0000
# 3 22.7222 24.0992 38.1578 0.0000 16.6011 0.0000
# 4 0.0000 0.0000 0.0000 39.6809 0.0000 11.6230
# 5 27.3758 10.4602 16.6011 0.0000 48.0696 0.0000
# 6 0.0000 0.0000 0.0000 11.6230 0.0000 43.6902
#
#
#
# Elastic Compliance Matrix: (Units=1/GPa)
#
#
# Indices 1 2 3 4 5 6 
#
# 1 0.030898 -0.004874 -0.009564 0.000000 -0.013233 0.000000
# 2 -0.004874 0.012095 -0.005648 0.000000 0.002094 0.000000
# 3 -0.009564 -0.005648 0.038323 0.000000 -0.006559 0.000000
# 4 0.000000 0.000000 0.000000 0.027331 0.000000 -0.007271
# 5 -0.013233 0.002094 -0.006559 0.000000 0.030149 0.000000
# 6 0.000000 0.000000 0.000000 -0.007271 0.000000 0.024823
#
#
# Mechanical properties :
#
#
# Convention : Reuss Voigt Hill
#
# Bulk Modulus (GPa) = 24.30414 38.60305 31.45360
# Shear Modulus (GPa) = 22.98808 34.43223 28.71016
#
# Velocity S-wave (km/s) = 2.99965 3.67115 3.35226
# Velocity P-wave (km/s) = 4.63792 5.75149 5.22446
#
# Compressibility (1/GPa) = 0.04114525
#
# Stress axis : x y z
#
# Youngs Moduli (GPa) = 32.36428 82.67889 26.09432
#
# Poissons Ratio (x) = 0.40297 0.24956
# Poissons Ratio (y) = 0.15774 0.14737
# Poissons Ratio (z) = 0.30952 0.46693
#
# Static dielectric constant tensor:
#      x y z
#    x 2.188250 0.000000 -0.061770 
#    y 0.000000 1.971180 0.000000 
#    z -0.061770 0.000000 2.125290 
# 
# From -- ./inp_files/30392.got.cif
#   From: 2010.05.17/outbox.cif.g08.bks.cpg/sg9_16_cif.got.tgz:30392.got - 2010.06.03 20:04:27.
