data_PCOD9135887
_publ_section_title
;
Structure prediction by ZEFSAII (Michael W. Deem and Ramdas Pophale) SiO2 
 PCOD9135887
Probable space group: C C
;
_chemical_formula_sum "Si O2"
_cell_formula_units_Z 32
_cell_length_a 8.772614
_cell_length_b 14.488482
_cell_length_c 21.378647
_cell_angle_alpha 90.000000
_cell_angle_beta 150.510613
_cell_angle_gamma 90.000000
_cell_volume 1337.607604
_symmetry_space_group_name_H-M "C C"
_symmetry_group_IT_number 9
_symmetry_cell_setting 'monoclinic'
loop_
_space_group_symop_operation_xyz
x,y,z
x,-y,1/2+z
1/2+x,1/2+y,z
1/2+x,1/2-y,1/2+z
loop_
_atom_site_type_symbol
_atom_site_label
_atom_site_fract_x
_atom_site_fract_y
_atom_site_fract_z
Si Si1 0.217510 0.775992 0.515650
Si Si2 0.752858 0.063383 0.858459
Si Si3 0.421057 0.898611 0.927316
Si Si4 0.872439 0.409634 0.764769
Si Si5 0.860405 0.436025 0.091769
Si Si6 0.396566 0.275234 0.935086
Si Si7 0.741807 0.089603 0.185990
Si Si8 0.193183 0.399310 0.523331
O O1 0.307340 0.750313 0.475499
O O2 0.497717 0.844240 0.633262
O O3 0.898786 0.834591 0.409428
O O4 0.155628 0.681755 0.531075
O O5 0.555307 0.053160 0.724791
O O6 0.505295 0.014540 0.815867
O O7 0.056749 0.999657 0.974839
O O8 0.363204 0.877944 0.833246
O O9 0.081892 0.901930 0.836971
O O10 0.557941 0.999556 0.975514
O O11 0.532428 0.401801 0.613725
O O12 0.116082 0.343347 0.817346
O O13 0.715081 0.333917 0.041143
O O14 0.110059 0.484561 0.135408
O O15 0.457983 0.180976 0.919497
O O16 0.750292 0.121046 0.117199
#
# Coordination Sequence:
#
# PCOD9135887 Si02
#       8
#     4   4   4   4   4   4   4   4
#     4   9  20  36  60  90 112 162 210 244 299 375
#     4  10  22  38  66  92 121 161 208 256 306 366
#     4  10  21  36  61  87 119 158 202 260 304 363
#     4   9  21  37  57  89 118 155 207 248 309 364
#     4  10  22  38  66  92 121 161 208 256 306 366
#     4   9  20  36  60  90 112 162 210 244 299 375
#     4   9  21  37  57  89 118 155 207 248 309 364
#     4  10  21  36  61  87 119 158 202 260 304 363
#
# _framework density 23.923309
#
# number of rings (size 3 to 8) (size 9 to 14) (size 15 to 20)
#    0.000    2.500    0.000    0.000   17.500    0.000 
#    0.000    1.250   22.000    0.000    0.000    0.000 
#    0.000    0.000    0.000    0.000    0.000    0.000 
#
# Total GULP energy -89100.301655 kJ/mol
# GULP energy per Si atom -5568.768853 kJ/mol
# Density = 2.386886 g / cm^3
# Si number density = 23.923309 Si / 1000 Ang^3
#
#
#
# Elastic Constant Matrix: (Units=GPa)
#
#
# Indices 1 2 3 4 5 6 
#
# 1 56.1822 23.6236 23.3172 0.0007 14.5193 0.0000
# 2 23.6236 179.0104 65.5911 0.0005 39.8690 -0.0001
# 3 23.3172 65.5911 117.1523 0.0063 39.7014 -0.0006
# 4 0.0007 0.0005 0.0063 11.5962 -0.0010 13.0137
# 5 14.5193 39.8690 39.7014 -0.0010 44.2265 0.0003
# 6 0.0000 -0.0001 -0.0006 13.0137 0.0003 38.2718
#
#
#
# Elastic Compliance Matrix: (Units=1/GPa)
#
#
# Indices 1 2 3 4 5 6 
#
# 1 0.020092 -0.001030 -0.002158 -0.000001 -0.003730 0.000000
# 2 -0.001030 0.007619 -0.002655 0.000001 -0.004146 0.000000
# 3 -0.002158 -0.002655 0.013511 -0.000013 -0.009026 0.000005
# 4 -0.000001 0.000001 -0.000013 0.139448 0.000014 -0.047417
# 5 -0.003730 -0.004146 -0.009026 0.000014 0.035676 -0.000005
# 6 0.000000 0.000000 0.000005 -0.047417 -0.000005 0.042252
#
#
# Mechanical properties :
#
#
# Convention : Reuss Voigt Hill
#
# Bulk Modulus (GPa) = 33.85869 64.15654 49.00762
# Shear Modulus (GPa) = 17.84886 34.80644 26.32765
#
# Velocity S-wave (km/s) = 2.73442 3.81848 3.32098
# Velocity P-wave (km/s) = 4.91459 6.80565 5.93591
#
# Compressibility (1/GPa) = 0.02953451
#
# Stress axis : x y z
#
# Youngs Moduli (GPa) = 49.77103 131.25816 74.01333
#
# Poissons Ratio (x) = 0.13519 0.15974
# Poissons Ratio (y) = 0.05126 0.19654
# Poissons Ratio (z) = 0.10742 0.34855
#
# Static dielectric constant tensor:
#      x y z
#    x 2.120650 0.000000 -0.070950 
#    y 0.000000 1.975680 0.000000 
#    z -0.070950 0.000000 1.982800 
# 
# From -- ./inp_files/16730.got.cif
#   From: 2010.05.17/outbox.cif.g08.bks.cpg/sg9_9_cif.got.tgz:16730.got - 2010.06.03 20:04:27.
