data_PCOD9135390
_publ_section_title
;
Structure prediction by ZEFSAII (Michael W. Deem and Ramdas Pophale) SiO2 
 PCOD9135390
Probable space group: C C
;
_chemical_formula_sum "Si O2"
_cell_formula_units_Z 28
_cell_length_a 11.582237
_cell_length_b 7.948274
_cell_length_c 13.401289
_cell_angle_alpha 90.000000
_cell_angle_beta 71.019500
_cell_angle_gamma 90.000000
_cell_volume 1166.629037
_symmetry_space_group_name_H-M "C C"
_symmetry_group_IT_number 9
_symmetry_cell_setting 'monoclinic'
loop_
_space_group_symop_operation_xyz
x,y,z
x,-y,1/2+z
1/2+x,1/2+y,z
1/2+x,1/2-y,1/2+z
loop_
_atom_site_type_symbol
_atom_site_label
_atom_site_fract_x
_atom_site_fract_y
_atom_site_fract_z
Si Si1 0.757180 0.252557 0.995640
Si Si2 0.034222 0.740328 0.346863
Si Si3 0.860921 0.786717 0.041261
Si Si4 0.466713 0.580567 0.321258
Si Si5 0.130706 0.111485 0.017711
Si Si6 0.355308 0.592286 0.161792
Si Si7 0.083973 0.619175 0.884272
O O1 0.894435 0.291149 0.921348
O O2 0.694473 0.133150 0.930491
O O3 0.673836 0.419034 0.011932
O O4 0.768784 0.184242 0.106028
O O5 0.020780 0.899281 0.276384
O O6 0.117200 0.822937 0.409386
O O7 0.082625 0.551391 0.320768
O O8 0.964004 0.644901 0.991230
O O9 0.906582 0.928160 0.948622
O O10 0.732278 0.715536 0.046267
O O11 0.847578 0.891362 0.145734
O O12 0.359953 0.636162 0.276630
O O13 0.567775 0.723713 0.313142
O O14 0.996324 0.137426 0.098191
#
# Coordination Sequence:
#
# PCOD9135390 Si02
#       7
#     4   4   4   4   4   4   4
#     4  11  18  40  65  87 126 164 207 266 316 371
#     4  11  21  38  68  89 123 170 210 260 325 377
#     4  10  20  42  63  92 130 168 212 264 319 386
#     4  10  22  45  61  97 134 164 223 263 317 392
#     4  11  20  40  66  93 122 172 212 258 322 383
#     4  11  23  42  62  96 133 168 216 275 314 377
#     4  10  20  39  69  90 122 176 210 256 329 380
#
# _framework density 24.000775000000001
#
# number of rings (size 3 to 8) (size 9 to 14) (size 15 to 20)
#    0.857    0.571    7.143    0.857    0.000    0.000 
#    7.714    0.000    0.000    0.000    0.000    0.000 
#    0.000    0.000    0.000    0.000    0.000    0.000 
#
# Total GULP energy -78092.902981 kJ/mol
# GULP energy per Si atom -5578.064499 kJ/mol
# Density = 2.394615 g / cm^3
# Si number density = 24.000775 Si / 1000 Ang^3
#
#
#
# Elastic Constant Matrix: (Units=GPa)
#
#
# Indices 1 2 3 4 5 6 
#
# 1 122.4006 32.5294 30.0235 0.0000 29.6846 0.0000
# 2 32.5294 132.2652 21.5451 0.0000 18.2279 0.0000
# 3 30.0235 21.5451 72.0518 0.0000 33.9454 0.0000
# 4 0.0000 0.0000 0.0000 23.2499 0.0000 15.7558
# 5 29.6846 18.2279 33.9454 0.0000 40.4475 0.0000
# 6 0.0000 0.0000 0.0000 15.7558 0.0000 52.3508
#
#
#
# Elastic Compliance Matrix: (Units=1/GPa)
#
#
# Indices 1 2 3 4 5 6 
#
# 1 0.010282 -0.001538 -0.000986 0.000000 -0.006026 0.000000
# 2 -0.001538 0.008350 -0.001017 0.000000 -0.001781 0.000000
# 3 -0.000986 -0.001017 0.023217 0.000000 -0.018303 0.000000
# 4 0.000000 0.000000 0.000000 0.054031 0.000000 -0.016261
# 5 -0.006026 -0.001781 -0.018303 0.000000 0.045309 0.000000
# 6 0.000000 0.000000 0.000000 -0.016261 0.000000 0.023996
#
#
# Mechanical properties :
#
#
# Convention : Reuss Voigt Hill
#
# Bulk Modulus (GPa) = 28.76275 54.99042 41.87659
# Shear Modulus (GPa) = 27.19556 39.38430 33.28993
#
# Velocity S-wave (km/s) = 3.36982 4.05527 3.72833
# Velocity P-wave (km/s) = 5.21067 6.69990 6.00165
#
# Compressibility (1/GPa) = 0.03476719
#
# Stress axis : x y z
#
# Youngs Moduli (GPa) = 97.26061 119.76272 43.07254
#
# Poissons Ratio (x) = 0.18416 0.04246
# Poissons Ratio (y) = 0.14956 0.04381
# Poissons Ratio (z) = 0.09587 0.12180
#
# Static dielectric constant tensor:
#      x y z
#    x 1.925220 0.000000 -0.039340 
#    y 0.000000 1.957670 0.000000 
#    z -0.039340 0.000000 1.974250 
# 
# From -- ./inp_files/24051.got.cif
#   From: 2010.05.17/outbox.cif.g08.bks.cpg/sg9_13_cif.got.tgz:24051.got - 2010.06.03 20:04:27.
