data_PCOD9135808
_publ_section_title
;
Structure prediction by ZEFSAII (Michael W. Deem and Ramdas Pophale) SiO2 
 PCOD9135808
Probable space group: C C
;
_chemical_formula_sum "Si O2"
_cell_formula_units_Z 32
_cell_length_a 16.230230
_cell_length_b 10.738318
_cell_length_c 11.033129
_cell_angle_alpha 90.000000
_cell_angle_beta 138.672916
_cell_angle_gamma 90.000000
_cell_volume 1269.808510
_symmetry_space_group_name_H-M "C C"
_symmetry_group_IT_number 9
_symmetry_cell_setting 'monoclinic'
loop_
_space_group_symop_operation_xyz
x,y,z
x,-y,1/2+z
1/2+x,1/2+y,z
1/2+x,1/2-y,1/2+z
loop_
_atom_site_type_symbol
_atom_site_label
_atom_site_fract_x
_atom_site_fract_y
_atom_site_fract_z
Si Si1 0.064330 0.189179 0.994550
Si Si2 0.758580 0.959025 0.303994
Si Si3 0.030910 0.750755 0.117131
Si Si4 0.831889 0.309669 0.792963
Si Si5 0.091873 0.231329 0.309100
Si Si6 0.269640 0.287338 0.706298
Si Si7 0.955765 0.019270 0.704767
Si Si8 0.995430 0.474401 0.122637
O O1 0.955414 0.288985 0.849839
O O2 0.992508 0.065983 0.877509
O O3 0.199519 0.184452 0.080862
O O4 0.099756 0.198480 0.175066
O O5 0.818219 0.823918 0.346695
O O6 0.611415 0.950451 0.159294
O O7 0.775205 0.062720 0.219989
O O8 0.819228 0.011537 0.494902
O O9 0.018503 0.874459 0.186156
O O10 0.014023 0.619231 0.170060
O O11 0.159608 0.749228 0.181937
O O12 0.907162 0.745447 0.896017
O O13 0.867928 0.426871 0.917468
O O14 0.220888 0.239232 0.523694
O O15 0.025554 0.365737 0.252699
O O16 0.011280 0.117423 0.265051
#
# Coordination Sequence:
#
# PCOD9135808 Si02
#       8
#     4   4   4   4   4   4   4   4
#     4  11  26  42  72 106 146 192 241 302 370 438
#     4  10  20  45  69 101 142 189 238 295 368 428
#     4  10  25  48  69 106 143 185 242 300 366 428
#     4  11  21  44  69 104 146 185 246 294 363 445
#     4  11  24  44  71 108 141 190 241 297 357 439
#     4  10  25  42  74 100 145 187 236 303 361 429
#     4  11  25  44  74 106 147 192 242 303 366 442
#     4  10  22  43  70 101 140 184 240 298 357 429
#
# _framework density 25.200651000000001
#
# number of rings (size 3 to 8) (size 9 to 14) (size 15 to 20)
#    0.000    1.500    5.000    0.000    3.500    8.000 
#    0.000    0.000    0.000    0.000    0.000    0.000 
#    0.000    0.000    0.000    0.000    0.000    0.000 
#
# Total GULP energy -89254.916676 kJ/mol
# GULP energy per Si atom -5578.432292 kJ/mol
# Density = 2.514329 g / cm^3
# Si number density = 25.200651 Si / 1000 Ang^3
#
#
#
# Elastic Constant Matrix: (Units=GPa)
#
#
# Indices 1 2 3 4 5 6 
#
# 1 83.7343 28.9073 47.9187 0.0000 18.8192 0.0000
# 2 28.9073 99.4105 10.3947 0.0000 -3.5468 0.0000
# 3 47.9187 10.3947 145.3708 0.0000 23.2162 0.0000
# 4 0.0000 0.0000 0.0000 47.6586 0.0000 2.6954
# 5 18.8192 -3.5468 23.2162 0.0000 44.5564 0.0000
# 6 0.0000 0.0000 0.0000 2.6954 0.0000 41.2979
#
#
#
# Elastic Compliance Matrix: (Units=1/GPa)
#
#
# Indices 1 2 3 4 5 6 
#
# 1 0.017391 -0.004774 -0.004535 0.000000 -0.005363 0.000000
# 2 -0.004774 0.011514 0.000308 0.000000 0.002773 0.000000
# 3 -0.004535 0.000308 0.008772 0.000000 -0.002631 0.000000
# 4 0.000000 0.000000 0.000000 0.021060 0.000000 -0.001375
# 5 -0.005363 0.002773 -0.002631 0.000000 0.026300 0.000000
# 6 0.000000 0.000000 0.000000 -0.001375 0.000000 0.024304
#
#
# Mechanical properties :
#
#
# Convention : Reuss Voigt Hill
#
# Bulk Modulus (GPa) = 50.82753 55.88413 53.35583
# Shear Modulus (GPa) = 37.34048 42.78889 40.06469
#
# Velocity S-wave (km/s) = 3.85350 4.12506 3.99159
# Velocity P-wave (km/s) = 6.32552 6.70164 6.51629
#
# Compressibility (1/GPa) = 0.01967438
#
# Stress axis : x y z
#
# Youngs Moduli (GPa) = 57.50054 86.84805 113.99990
#
# Poissons Ratio (x) = 0.41464 0.51697
# Poissons Ratio (y) = 0.27452 -0.03507
# Poissons Ratio (z) = 0.26076 -0.02671
#
# Static dielectric constant tensor:
#      x y z
#    x 2.210490 0.000000 -0.010820 
#    y 0.000000 2.026890 0.000000 
#    z -0.010820 0.000000 1.990520 
# 
# From -- ./inp_files/19318.got.cif
#   From: 2010.05.17/outbox.cif.g08.bks.cpg/sg9_10_cif.got.tgz:19318.got - 2010.06.03 20:04:27.
