data_PCOD9135926
_publ_section_title
;
Structure prediction by ZEFSAII (Michael W. Deem and Ramdas Pophale) SiO2 
 PCOD9135926
Probable space group: C C
;
_chemical_formula_sum "Si O2"
_cell_formula_units_Z 32
_cell_length_a 16.826475
_cell_length_b 20.642898
_cell_length_c 16.654320
_cell_angle_alpha 90.000000
_cell_angle_beta 162.731474
_cell_angle_gamma 90.000000
_cell_volume 1717.229298
_symmetry_space_group_name_H-M "C C"
_symmetry_group_IT_number 9
_symmetry_cell_setting 'monoclinic'
loop_
_space_group_symop_operation_xyz
x,y,z
x,-y,1/2+z
1/2+x,1/2+y,z
1/2+x,1/2-y,1/2+z
loop_
_atom_site_type_symbol
_atom_site_label
_atom_site_fract_x
_atom_site_fract_y
_atom_site_fract_z
Si Si1 0.845930 0.422088 0.725150
Si Si2 0.647887 0.297082 0.161399
Si Si3 0.267212 0.369667 0.892298
Si Si4 0.993878 0.591516 0.965392
Si Si5 0.789139 0.978978 0.448201
Si Si6 0.846408 0.988906 0.685579
Si Si7 0.425139 0.202637 0.194202
Si Si8 0.317987 0.957202 0.872484
O O1 0.614013 0.474387 0.475469
O O2 0.839927 0.355082 0.672017
O O3 0.856771 0.412354 0.831977
O O4 0.123989 0.455130 0.969835
O O5 0.892713 0.246966 0.395749
O O6 0.763121 0.357155 0.219867
O O7 0.543443 0.330243 0.144441
O O8 0.151285 0.377348 0.691277
O O9 0.310196 0.442492 0.964935
O O10 0.048358 0.333737 0.734935
O O11 0.212209 0.565484 0.113125
O O12 0.854981 0.528128 0.868538
O O13 0.020747 0.950386 0.616731
O O14 0.851435 0.961770 0.600168
O O15 0.516682 0.957093 0.140813
O O16 0.672242 0.250258 0.449813
#
# Coordination Sequence:
#
# PCOD9135926 Si02
#       8
#     4   4   4   4   4   4   4   4
#     4  11  22  41  59  86 122 164 202 252 306 360
#     4  12  23  35  54  80 116 159 201 231 278 351
#     4  11  22  38  54  84 122 165 196 234 284 362
#     4  10  23  37  58  82 116 160 201 243 294 354
#     4  11  21  36  60  89 117 153 195 254 311 359
#     4  11  23  38  61  88 119 155 203 261 313 354
#     4  12  27  38  58  88 128 168 206 242 288 365
#     4  10  21  37  60  85 114 156 200 251 310 359
#
# _framework density 18.634668000000001
#
# number of rings (size 3 to 8) (size 9 to 14) (size 15 to 20)
#    0.000    1.000    3.750    4.500    5.250    0.000 
#    0.000    0.000    0.000    0.000    0.000    5.250 
#    0.000    0.000    0.000    0.000    0.000    0.000 
#
# Total GULP energy -89171.702794 kJ/mol
# GULP energy per Si atom -5573.231425 kJ/mol
# Density = 1.859225 g / cm^3
# Si number density = 18.634668 Si / 1000 Ang^3
#
#
#
# Elastic Constant Matrix: (Units=GPa)
#
#
# Indices 1 2 3 4 5 6 
#
# 1 84.6282 38.2657 2.8222 0.0039 -10.0751 0.0028
# 2 38.2657 66.1795 17.6553 -0.0018 -1.6385 0.0017
# 3 2.8222 17.6553 97.0267 -0.0015 5.7313 0.0020
# 4 0.0039 -0.0018 -0.0015 23.5148 0.0034 6.3427
# 5 -10.0751 -1.6385 5.7313 0.0034 22.6322 0.0020
# 6 0.0028 0.0017 0.0020 6.3427 0.0020 21.8715
#
#
#
# Elastic Compliance Matrix: (Units=1/GPa)
#
#
# Indices 1 2 3 4 5 6 
#
# 1 0.017079 -0.009957 0.000922 -0.000004 0.006649 -0.000001
# 2 -0.009957 0.021768 -0.003556 0.000004 -0.001956 -0.000001
# 3 0.000922 -0.003556 0.011083 0.000001 -0.002654 -0.000001
# 4 -0.000004 0.000004 0.000001 0.046135 -0.000008 -0.013379
# 5 0.006649 -0.001956 -0.002654 -0.000008 0.047675 -0.000003
# 6 -0.000001 -0.000001 -0.000001 -0.013379 -0.000003 0.049602
#
#
# Mechanical properties :
#
#
# Convention : Reuss Voigt Hill
#
# Bulk Modulus (GPa) = 40.40454 40.59120 40.49787
# Shear Modulus (GPa) = 22.04849 26.20978 24.12914
#
# Velocity S-wave (km/s) = 3.44350 3.75441 3.60231
# Velocity P-wave (km/s) = 6.12697 6.37370 6.25155
#
# Compressibility (1/GPa) = 0.02474969
#
# Stress axis : x y z
#
# Youngs Moduli (GPa) = 58.55047 45.93949 90.22525
#
# Poissons Ratio (x) = 0.45741 -0.08321
# Poissons Ratio (y) = 0.58298 0.32082
# Poissons Ratio (z) = -0.05400 0.16335
#
# Static dielectric constant tensor:
#      x y z
#    x 1.699150 0.000000 -0.041350 
#    y 0.000000 1.668340 0.000000 
#    z -0.041350 0.000000 1.727620 
# 
# From -- ./inp_files/26122.got.cif
#   From: 2010.05.17/outbox.cif.g08.bks.cpg/sg9_14_cif.got.tgz:26122.got - 2010.06.03 20:04:27.
