data_PCOD9135415
_publ_section_title
;
Structure prediction by ZEFSAII (Michael W. Deem and Ramdas Pophale) SiO2 
 PCOD9135415
Probable space group: C C
;
_chemical_formula_sum "Si O2"
_cell_formula_units_Z 32
_cell_length_a 9.238902
_cell_length_b 32.627111
_cell_length_c 5.445118
_cell_angle_alpha 90.000000
_cell_angle_beta 53.324253
_cell_angle_gamma 90.000000
_cell_volume 1316.424940
_symmetry_space_group_name_H-M "C C"
_symmetry_group_IT_number 9
_symmetry_cell_setting 'monoclinic'
loop_
_space_group_symop_operation_xyz
x,y,z
x,-y,1/2+z
1/2+x,1/2+y,z
1/2+x,1/2-y,1/2+z
loop_
_atom_site_type_symbol
_atom_site_label
_atom_site_fract_x
_atom_site_fract_y
_atom_site_fract_z
Si Si1 0.558400 0.620628 0.602410
Si Si2 0.539820 0.020020 0.137967
Si Si3 0.890727 0.332023 0.309911
Si Si4 0.225090 0.340263 0.326636
Si Si5 0.171757 0.277473 0.760506
Si Si6 0.935414 0.609588 0.359266
Si Si7 0.975808 0.976044 0.220209
Si Si8 0.532032 0.307865 0.526701
O O1 0.409028 0.637478 0.560408
O O2 0.773120 0.624918 0.346651
O O3 0.528895 0.572068 0.672665
O O4 0.518876 0.651278 0.873145
O O5 0.451987 0.061934 0.311048
O O6 0.489952 0.988640 0.406289
O O7 0.757095 0.023380 0.932021
O O8 0.054725 0.335487 0.327100
O O9 0.691765 0.314771 0.562860
O O10 0.986461 0.300994 0.014673
O O11 0.874174 0.375233 0.187149
O O12 0.249933 0.296978 0.433532
O O13 0.133953 0.371980 0.614043
O O14 0.331692 0.290898 0.789464
O O15 0.119406 0.230566 0.792176
O O16 0.033765 0.000391 0.409850
#
# Coordination Sequence:
#
# PCOD9135415 Si02
#       8
#     4   4   4   4   4   4   4   4
#     4  10  22  42  64  99 128 177 221 275 345 405
#     4  10  22  39  66  97 131 180 227 283 351 417
#     4  10  22  39  62  91 123 171 216 270 327 397
#     4  10  22  41  63  91 127 169 219 270 334 399
#     4  10  20  40  61  84 128 171 209 275 328 395
#     4  10  22  40  64  89 130 167 215 275 334 405
#     4  10  22  43  68  98 139 182 230 287 350 417
#     4  10  20  40  64  89 132 169 221 273 333 405
#
# _framework density 24.308261999999999
#
# number of rings (size 3 to 8) (size 9 to 14) (size 15 to 20)
#    0.000    2.000    2.500    0.000    1.750    3.000 
#    9.000    0.000    0.000    0.000    0.000    0.000 
#    0.000    0.000    0.000    0.000    0.000    0.000 
#
# Total GULP energy -89211.202596 kJ/mol
# GULP energy per Si atom -5575.700162 kJ/mol
# Density = 2.425293 g / cm^3
# Si number density = 24.308262 Si / 1000 Ang^3
#
#
#
# Elastic Constant Matrix: (Units=GPa)
#
#
# Indices 1 2 3 4 5 6 
#
# 1 125.3750 33.0674 41.0690 0.0000 -31.4141 0.0000
# 2 33.0674 123.4328 23.6743 0.0000 -8.8791 0.0000
# 3 41.0690 23.6743 68.4192 0.0000 -18.1544 0.0000
# 4 0.0000 0.0000 0.0000 18.7042 0.0000 -13.4404
# 5 -31.4141 -8.8791 -18.1544 0.0000 46.2474 0.0000
# 6 0.0000 0.0000 0.0000 -13.4404 0.0000 38.1031
#
#
#
# Elastic Compliance Matrix: (Units=1/GPa)
#
#
# Indices 1 2 3 4 5 6 
#
# 1 0.011379 -0.001737 -0.004763 0.000000 0.005526 0.000000
# 2 -0.001737 0.008955 -0.002135 0.000000 -0.000299 0.000000
# 3 -0.004763 -0.002135 0.019252 0.000000 0.003912 0.000000
# 4 0.000000 0.000000 0.000000 0.071617 0.000000 0.025262
# 5 0.005526 -0.000299 0.003912 0.000000 0.026855 0.000000
# 6 0.000000 0.000000 0.000000 0.025262 0.000000 0.035155
#
#
# Mechanical properties :
#
#
# Convention : Reuss Voigt Hill
#
# Bulk Modulus (GPa) = 44.81298 56.98318 50.89808
# Shear Modulus (GPa) = 25.26251 35.23868 30.25060
#
# Velocity S-wave (km/s) = 3.22725 3.81157 3.53151
# Velocity P-wave (km/s) = 5.68877 6.54702 6.13293
#
# Compressibility (1/GPa) = 0.02231496
#
# Stress axis : x y z
#
# Youngs Moduli (GPa) = 87.88015 111.66923 51.94398
#
# Poissons Ratio (x) = 0.19401 0.24740
# Poissons Ratio (y) = 0.15268 0.11090
# Poissons Ratio (z) = 0.41856 0.23842
#
# Static dielectric constant tensor:
#      x y z
#    x 2.120800 0.000000 0.079460 
#    y 0.000000 1.920480 0.000000 
#    z 0.079460 0.000000 2.018110 
# 
# From -- ./inp_files/1305.got.cif
#   From: 2010.05.17/outbox.cif.g08.bks.cpg/sg9_1_cif.got.tgz:1305.got - 2010.06.03 20:04:27.
