data_PCOD9135329
_publ_section_title
;
Structure prediction by ZEFSAII (Michael W. Deem and Ramdas Pophale) SiO2 
 PCOD9135329
Probable space group: C C
;
_chemical_formula_sum "Si O2"
_cell_formula_units_Z 32
_cell_length_a 24.361892
_cell_length_b 5.352941
_cell_length_c 10.096265
_cell_angle_alpha 90.000000
_cell_angle_beta 70.488512
_cell_angle_gamma 90.000000
_cell_volume 1241.023249
_symmetry_space_group_name_H-M "C C"
_symmetry_group_IT_number 9
_symmetry_cell_setting 'monoclinic'
loop_
_space_group_symop_operation_xyz
x,y,z
x,-y,1/2+z
1/2+x,1/2+y,z
1/2+x,1/2-y,1/2+z
loop_
_atom_site_type_symbol
_atom_site_label
_atom_site_fract_x
_atom_site_fract_y
_atom_site_fract_z
Si Si1 0.238830 0.335823 0.202630
Si Si2 0.439193 0.324809 0.768857
Si Si3 0.050928 0.758662 0.512075
Si Si4 0.331292 0.718156 0.184833
Si Si5 0.287570 0.987245 0.960982
Si Si6 0.576259 0.240515 0.074726
Si Si7 0.179802 0.163415 0.671276
Si Si8 0.467231 0.175419 0.337784
O O1 0.289859 0.478079 0.243909
O O2 0.275419 0.254359 0.041669
O O3 0.194847 0.567807 0.219622
O O4 0.200998 0.076051 0.240550
O O5 0.506420 0.306706 0.669697
O O6 0.396715 0.336562 0.678093
O O7 0.432015 0.569400 0.861120
O O8 0.429375 0.072312 0.857970
O O9 0.094507 0.534744 0.511753
O O10 0.010782 0.668854 0.424975
O O11 0.077354 0.032925 0.470234
O O12 0.312463 0.944283 0.298887
O O13 0.320160 0.821557 0.046171
O O14 0.223627 0.861029 0.009393
O O15 0.615461 0.330551 0.165191
O O16 0.509588 0.192902 0.174712
#
# Coordination Sequence:
#
# PCOD9135329 Si02
#       8
#     4   4   4   4   4   4   4   4
#     4   9  21  40  61  91 130 167 213 276 316 400
#     4  10  24  37  64  87 124 166 209 262 332 388
#     4  10  21  39  60  91 125 157 213 269 314 395
#     4  11  23  44  67 100 129 187 217 287 333 405
#     4   9  24  42  66  95 139 163 235 271 332 399
#     4  10  20  39  64  88 124 163 211 257 330 385
#     4   9  19  42  62  92 127 169 207 273 326 395
#     4  10  22  41  58  92 124 158 213 269 317 395
#
# _framework density 25.785177000000001
#
# number of rings (size 3 to 8) (size 9 to 14) (size 15 to 20)
#    0.750    1.500    0.000    1.500    3.500    3.000 
#    4.500    1.250    0.000    0.000    0.000    0.000 
#    0.000    0.000    0.000    0.000    0.000    0.000 
#
# Total GULP energy -89266.450842 kJ/mol
# GULP energy per Si atom -5579.153178 kJ/mol
# Density = 2.572649 g / cm^3
# Si number density = 25.785177 Si / 1000 Ang^3
#
#
#
# Elastic Constant Matrix: (Units=GPa)
#
#
# Indices 1 2 3 4 5 6 
#
# 1 99.6044 41.1215 17.8884 0.0000 13.9525 0.0000
# 2 41.1215 185.8831 22.5601 0.0000 6.9000 0.0000
# 3 17.8884 22.5601 64.2489 0.0000 7.4091 0.0000
# 4 0.0000 0.0000 0.0000 18.6360 0.0000 17.6783
# 5 13.9525 6.9000 7.4091 0.0000 38.1022 0.0000
# 6 0.0000 0.0000 0.0000 17.6783 0.0000 24.0370
#
#
#
# Elastic Compliance Matrix: (Units=1/GPa)
#
#
# Indices 1 2 3 4 5 6 
#
# 1 0.011832 -0.002231 -0.002105 0.000000 -0.003519 0.000000
# 2 -0.002231 0.006056 -0.001507 0.000000 0.000013 0.000000
# 3 -0.002105 -0.001507 0.016939 0.000000 -0.002250 0.000000
# 4 0.000000 0.000000 0.000000 0.177482 0.000000 -0.130531
# 5 -0.003519 0.000013 -0.002250 0.000000 0.027969 0.000000
# 6 0.000000 0.000000 0.000000 -0.130531 0.000000 0.137602
#
#
# Mechanical properties :
#
#
# Convention : Reuss Voigt Hill
#
# Bulk Modulus (GPa) = 43.21376 56.98629 50.10003
# Shear Modulus (GPa) = 12.58560 34.03281 23.30921
#
# Velocity S-wave (km/s) = 2.21168 3.63693 3.00988
# Velocity P-wave (km/s) = 4.82883 6.30751 5.61704
#
# Compressibility (1/GPa) = 0.02314077
#
# Stress axis : x y z
#
# Youngs Moduli (GPa) = 84.51685 165.13317 59.03511
#
# Poissons Ratio (x) = 0.36848 0.12427
# Poissons Ratio (y) = 0.18859 0.08895
# Poissons Ratio (z) = 0.17790 0.24880
#
# Static dielectric constant tensor:
#      x y z
#    x 2.035010 0.000000 -0.070640 
#    y 0.000000 2.090060 0.000000 
#    z -0.070640 0.000000 2.062860 
# 
# From -- ./inp_files/20607.got.cif
#   From: 2010.05.17/outbox.cif.g08.bks.cpg/sg9_11_cif.got.tgz:20607.got - 2010.06.03 20:04:27.
