data_PCOD9135929
_publ_section_title
;
Structure prediction by ZEFSAII (Michael W. Deem and Ramdas Pophale) SiO2 
 PCOD9135929
Probable space group: C C
;
_chemical_formula_sum "Si O2"
_cell_formula_units_Z 32
_cell_length_a 21.753136
_cell_length_b 12.832520
_cell_length_c 15.641241
_cell_angle_alpha 90.000000
_cell_angle_beta 160.360606
_cell_angle_gamma 90.000000
_cell_volume 1467.481111
_symmetry_space_group_name_H-M "C C"
_symmetry_group_IT_number 9
_symmetry_cell_setting 'monoclinic'
loop_
_space_group_symop_operation_xyz
x,y,z
x,-y,1/2+z
1/2+x,1/2+y,z
1/2+x,1/2-y,1/2+z
loop_
_atom_site_type_symbol
_atom_site_label
_atom_site_fract_x
_atom_site_fract_y
_atom_site_fract_z
Si Si1 0.491810 0.013412 0.530930
Si Si2 0.581444 0.760931 0.101664
Si Si3 0.664424 0.422052 0.831946
Si Si4 0.793776 0.970243 0.787179
Si Si5 0.383688 0.116165 0.054539
Si Si6 0.222193 0.881134 0.100672
Si Si7 0.018463 0.204685 0.495179
Si Si8 0.209361 0.662188 0.589754
O O1 0.527226 0.136851 0.585892
O O2 0.650984 0.973198 0.676715
O O3 0.474929 0.942441 0.592869
O O4 0.295546 0.993858 0.227969
O O5 0.685773 0.675103 0.294956
O O6 0.690544 0.802263 0.163344
O O7 0.403386 0.710917 0.822182
O O8 0.472803 0.470967 0.554113
O O9 0.805100 0.518062 0.005664
O O10 0.655472 0.384495 0.917010
O O11 0.867106 0.862817 0.847257
O O12 0.718708 0.037155 0.609385
O O13 0.536021 0.182958 0.303339
O O14 0.210702 0.187013 0.797744
O O15 0.407802 0.811725 0.343724
O O16 0.074579 0.838606 0.975002
#
# Coordination Sequence:
#
# PCOD9135929 Si02
#       8
#     4   4   4   4   4   4   4   4
#     4  10  21  39  60  86 119 155 196 247 301 355
#     4  10  21  38  60  88 119 152 196 247 293 349
#     4  10  21  38  61  89 120 155 198 244 296 354
#     4   9  20  39  58  85 120 151 194 251 300 355
#     4  10  22  40  61  87 121 160 198 244 299 357
#     4  11  23  39  61  88 118 159 200 248 303 357
#     4  10  23  40  59  86 122 156 198 251 302 359
#     4  10  21  37  60  87 117 156 196 242 296 352
#
# _framework density 21.806073000000001
#
# number of rings (size 3 to 8) (size 9 to 14) (size 15 to 20)
#    0.000    2.000    0.000    3.000    0.000    9.000 
#    0.000    3.750    0.000    0.000    0.000    0.000 
#    0.000    0.000    0.000    0.000    0.000    0.000 
#
# Total GULP energy -89263.295838 kJ/mol
# GULP energy per Si atom -5578.955990 kJ/mol
# Density = 2.175644 g / cm^3
# Si number density = 21.806073 Si / 1000 Ang^3
#
#
#
# Elastic Constant Matrix: (Units=GPa)
#
#
# Indices 1 2 3 4 5 6 
#
# 1 54.5771 -3.3741 -0.0781 -0.0005 -1.3691 -0.0003
# 2 -3.3741 33.7286 -2.3620 -0.0009 -6.3308 -0.0007
# 3 -0.0781 -2.3620 25.7062 -0.0012 -4.4826 -0.0010
# 4 -0.0005 -0.0009 -0.0012 7.6354 -0.0005 -0.8019
# 5 -1.3691 -6.3308 -4.4826 -0.0005 39.2464 -0.0004
# 6 -0.0003 -0.0007 -0.0010 -0.8019 -0.0004 15.2893
#
#
#
# Elastic Compliance Matrix: (Units=1/GPa)
#
#
# Indices 1 2 3 4 5 6 
#
# 1 0.018477 0.002071 0.000426 0.000002 0.001027 0.000001
# 2 0.002071 0.031164 0.003835 0.000005 0.005537 0.000002
# 3 0.000426 0.003835 0.040165 0.000008 0.005221 0.000003
# 4 0.000002 0.000005 0.000008 0.131694 0.000004 0.006907
# 5 0.001027 0.005537 0.005221 0.000004 0.027005 0.000002
# 6 0.000001 0.000002 0.000003 0.006907 0.000002 0.065767
#
#
# Mechanical properties :
#
#
# Convention : Reuss Voigt Hill
#
# Bulk Modulus (GPa) = 9.75902 11.37597 10.56749
# Shear Modulus (GPa) = 14.89136 20.42263 17.65700
#
# Velocity S-wave (km/s) = 2.61607 3.06364 2.84866
# Velocity P-wave (km/s) = 3.68920 4.21221 3.95935
#
# Compressibility (1/GPa) = 0.10246935
#
# Stress axis : x y z
#
# Youngs Moduli (GPa) = 54.12103 32.08880 24.89718
#
# Poissons Ratio (x) = -0.06646 -0.01059
# Poissons Ratio (y) = -0.11208 -0.09549
# Poissons Ratio (z) = -0.02303 -0.12307
#
# Static dielectric constant tensor:
#      x y z
#    x 1.791290 0.000000 0.003720 
#    y 0.000000 1.883330 0.000000 
#    z 0.003720 0.000000 1.791190 
# 
# From -- ./inp_files/24842.got.cif
#   From: 2010.05.17/outbox.cif.g08.bks.cpg/sg9_13_cif.got.tgz:24842.got - 2010.06.03 20:04:27.
