data_PCOD9135157
_publ_section_title
;
Structure prediction by ZEFSAII (Michael W. Deem and Ramdas Pophale) SiO2 
 PCOD9135157
Probable space group: C C
;
_chemical_formula_sum "Si O2"
_cell_formula_units_Z 32
_cell_length_a 18.450537
_cell_length_b 9.501336
_cell_length_c 15.217052
_cell_angle_alpha 90.000000
_cell_angle_beta 29.399824
_cell_angle_gamma 90.000000
_cell_volume 1309.538277
_symmetry_space_group_name_H-M "C C"
_symmetry_group_IT_number 9
_symmetry_cell_setting 'monoclinic'
loop_
_space_group_symop_operation_xyz
x,y,z
x,-y,1/2+z
1/2+x,1/2+y,z
1/2+x,1/2-y,1/2+z
loop_
_atom_site_type_symbol
_atom_site_label
_atom_site_fract_x
_atom_site_fract_y
_atom_site_fract_z
Si Si1 0.030050 0.498610 0.821390
Si Si2 0.220350 0.071937 0.705678
Si Si3 0.275889 0.300685 0.526025
Si Si4 0.920676 0.446626 0.758255
Si Si5 0.638516 0.436782 0.483910
Si Si6 0.268864 0.683178 0.671653
Si Si7 0.022365 0.205983 0.537237
Si Si8 0.988615 0.065652 0.312444
O O1 0.105421 0.349002 0.712768
O O2 0.153027 0.573006 0.751275
O O3 0.992105 0.537701 0.760600
O O4 0.877275 0.510510 0.036801
O O5 0.288899 0.222539 0.604691
O O6 0.114109 0.008397 0.741276
O O7 0.131205 0.100941 0.889280
O O8 0.324360 0.181082 0.405269
O O9 0.373278 0.439934 0.413511
O O10 0.810149 0.546427 0.823133
O O11 0.018867 0.359307 0.585531
O O12 0.567333 0.592296 0.560594
O O13 0.560452 0.368013 0.649577
O O14 0.369654 0.662868 0.652208
O O15 0.395857 0.682935 0.463536
O O16 0.154056 0.800147 0.826529
#
# Coordination Sequence:
#
# PCOD9135157 Si02
#       8
#     4   4   4   4   4   4   4   4
#     4  10  22  39  63 102 135 175 215 287 337 402
#     4  11  21  37  63  97 135 174 213 278 337 401
#     4  10  20  37  66  96 130 167 219 275 335 384
#     4  11  20  36  68 104 130 163 234 281 329 387
#     4  12  22  36  68  98 128 172 227 275 331 398
#     4  11  26  40  65  95 143 171 220 276 357 394
#     4  12  23  41  67 106 132 176 227 290 332 410
#     4  11  22  42  64  96 131 176 221 282 330 404
#
# _framework density 24.436091999999999
#
# number of rings (size 3 to 8) (size 9 to 14) (size 15 to 20)
#    0.000    1.000    6.250    3.000    0.000    0.000 
#    0.000    0.000    5.500    0.000    0.000    0.000 
#    0.000    0.000    0.000    0.000    0.000    0.000 
#
# Total GULP energy -89140.765824 kJ/mol
# GULP energy per Si atom -5571.297864 kJ/mol
# Density = 2.438047 g / cm^3
# Si number density = 24.436092 Si / 1000 Ang^3
#
#
#
# Elastic Constant Matrix: (Units=GPa)
#
#
# Indices 1 2 3 4 5 6 
#
# 1 98.7511 6.2091 36.3870 0.0000 1.0063 0.0000
# 2 6.2091 40.1625 18.4597 0.0000 7.5236 0.0000
# 3 36.3870 18.4597 167.0875 0.0000 15.7993 0.0000
# 4 0.0000 0.0000 0.0000 37.7886 0.0000 6.5133
# 5 1.0063 7.5236 15.7993 0.0000 56.2788 0.0000
# 6 0.0000 0.0000 0.0000 6.5133 0.0000 21.6517
#
#
#
# Elastic Compliance Matrix: (Units=1/GPa)
#
#
# Indices 1 2 3 4 5 6 
#
# 1 0.011042 -0.000720 -0.002379 0.000000 0.000567 0.000000
# 2 -0.000720 0.026704 -0.002524 0.000000 -0.002848 0.000000
# 3 -0.002379 -0.002524 0.006930 0.000000 -0.001565 0.000000
# 4 0.000000 0.000000 0.000000 0.027910 0.000000 -0.008396
# 5 0.000567 -0.002848 -0.001565 0.000000 0.018579 0.000000
# 6 0.000000 0.000000 0.000000 -0.008396 0.000000 0.048711
#
#
# Mechanical properties :
#
#
# Convention : Reuss Voigt Hill
#
# Bulk Modulus (GPa) = 29.91279 47.56806 38.74043
# Shear Modulus (GPa) = 30.81365 39.47349 35.14357
#
# Velocity S-wave (km/s) = 3.55489 4.02354 3.79645
# Velocity P-wave (km/s) = 5.39606 6.41044 5.92500
#
# Compressibility (1/GPa) = 0.03343052
#
# Stress axis : x y z
#
# Youngs Moduli (GPa) = 90.55944 37.44771 144.30417
#
# Poissons Ratio (x) = 0.02696 0.34327
# Poissons Ratio (y) = 0.06520 0.36424
# Poissons Ratio (z) = 0.21542 0.09452
#
# Static dielectric constant tensor:
#      x y z
#    x 1.986420 0.000000 0.006470 
#    y 0.000000 2.077750 0.000000 
#    z 0.006470 0.000000 2.009350 
# 
# From -- ./inp_files/9528.got.cif
#   From: 2010.05.17/outbox.cif.g08.bks.cpg/sg9_5_cif.got.tgz:9528.got - 2010.06.03 20:04:27.
