data_PCOD9135701
_publ_section_title
;
Structure prediction by ZEFSAII (Michael W. Deem and Ramdas Pophale) SiO2 
 PCOD9135701
Probable space group: C C
;
_chemical_formula_sum "Si O2"
_cell_formula_units_Z 28
_cell_length_a 7.285583
_cell_length_b 11.880089
_cell_length_c 14.241780
_cell_angle_alpha 90.000000
_cell_angle_beta 67.477309
_cell_angle_gamma 90.000000
_cell_volume 1138.655480
_symmetry_space_group_name_H-M "C C"
_symmetry_group_IT_number 9
_symmetry_cell_setting 'monoclinic'
loop_
_space_group_symop_operation_xyz
x,y,z
x,-y,1/2+z
1/2+x,1/2+y,z
1/2+x,1/2-y,1/2+z
loop_
_atom_site_type_symbol
_atom_site_label
_atom_site_fract_x
_atom_site_fract_y
_atom_site_fract_z
Si Si1 0.414950 0.256728 0.832260
Si Si2 0.536109 0.090784 0.125332
Si Si3 0.534588 0.825206 0.972175
Si Si4 0.614555 0.563121 0.170408
Si Si5 0.202109 0.815443 0.184270
Si Si6 0.957377 0.926244 0.493787
Si Si7 0.398192 0.008969 0.851412
O O1 0.269744 0.309527 0.937787
O O2 0.562006 0.348656 0.762144
O O3 0.273121 0.229290 0.770349
O O4 0.485417 0.134403 0.850170
O O5 0.341857 0.089200 0.099507
O O6 0.590639 0.217029 0.149545
O O7 0.465343 0.026295 0.233708
O O8 0.727197 0.038123 0.035745
O O9 0.484474 0.917726 0.905157
O O10 0.405485 0.844677 0.089483
O O11 0.460592 0.700895 0.954756
O O12 0.587027 0.433972 0.208068
O O13 0.490969 0.580581 0.100152
O O14 0.157172 0.985150 0.414909
#
# Coordination Sequence:
#
# PCOD9135701 Si02
#       7
#     4   4   4   4   4   4   4
#     4  11  23  42  69  98 145 180 227 293 343 406
#     4  11  24  43  68 105 136 183 236 281 348 416
#     4  10  20  42  71  99 137 184 227 286 349 406
#     4  12  23  44  69 102 131 188 232 273 355 415
#     4  11  22  44  69  98 145 180 223 294 342 402
#     4  10  23  43  69 100 144 180 227 296 341 406
#     4  11  21  42  73 100 140 185 230 289 350 411
#
# _framework density 24.590405000000001
#
# number of rings (size 3 to 8) (size 9 to 14) (size 15 to 20)
#    0.000    1.143    7.143    0.000    0.000    2.286 
#    2.571    5.714    0.000    0.000    0.000    0.000 
#    0.000    0.000    0.000    0.000    0.000    0.000 
#
# Total GULP energy -78298.161567 kJ/mol
# GULP energy per Si atom -5592.725826 kJ/mol
# Density = 2.453444 g / cm^3
# Si number density = 24.590405 Si / 1000 Ang^3
#
#
#
# Elastic Constant Matrix: (Units=GPa)
#
#
# Indices 1 2 3 4 5 6 
#
# 1 58.0773 32.8495 -5.7009 0.0000 -20.0925 0.0000
# 2 32.8495 179.5047 35.5788 0.0000 -9.7507 0.0000
# 3 -5.7009 35.5788 93.0224 0.0000 -31.6335 0.0000
# 4 0.0000 0.0000 0.0000 54.9976 0.0000 1.2600
# 5 -20.0925 -9.7507 -31.6335 0.0000 53.0520 0.0000
# 6 0.0000 0.0000 0.0000 1.2600 0.0000 30.5924
#
#
#
# Elastic Compliance Matrix: (Units=1/GPa)
#
#
# Indices 1 2 3 4 5 6 
#
# 1 0.026094 -0.005707 0.008512 0.000000 0.013909 0.000000
# 2 -0.005707 0.007281 -0.004283 0.000000 -0.003377 0.000000
# 3 0.008512 -0.004283 0.017233 0.000000 0.012712 0.000000
# 4 0.000000 0.000000 0.000000 0.018200 0.000000 -0.000750
# 5 0.013909 -0.003377 0.012712 0.000000 0.031076 0.000000
# 6 0.000000 0.000000 0.000000 -0.000750 0.000000 0.032719
#
#
# Mechanical properties :
#
#
# Convention : Reuss Voigt Hill
#
# Bulk Modulus (GPa) = 20.98562 50.67324 35.82943
# Shear Modulus (GPa) = 33.01610 45.58685 39.30147
#
# Velocity S-wave (km/s) = 3.66818 4.31030 4.00214
# Velocity P-wave (km/s) = 5.14717 6.73968 5.99652
#
# Compressibility (1/GPa) = 0.04765167
#
# Stress axis : x y z
#
# Youngs Moduli (GPa) = 38.32333 137.35026 58.02940
#
# Poissons Ratio (x) = 0.78382 -0.49393
# Poissons Ratio (y) = 0.21870 0.24853
# Poissons Ratio (z) = -0.32620 0.58824
#
# Static dielectric constant tensor:
#      x y z
#    x 1.962110 0.000000 -0.030480 
#    y 0.000000 1.999970 0.000000 
#    z -0.030480 0.000000 1.979790 
# 
# From -- ./inp_files/22537.got.cif
#   From: 2010.05.17/outbox.cif.g08.bks.cpg/sg9_12_cif.got.tgz:22537.got - 2010.06.03 20:04:27.
