data_PCOD9135730
_publ_section_title
;
Structure prediction by ZEFSAII (Michael W. Deem and Ramdas Pophale) SiO2 
 PCOD9135730
Probable space group: C C
;
_chemical_formula_sum "Si O2"
_cell_formula_units_Z 28
_cell_length_a 17.962555
_cell_length_b 5.276193
_cell_length_c 19.086685
_cell_angle_alpha 90.000000
_cell_angle_beta 40.801449
_cell_angle_gamma 90.000000
_cell_volume 1182.020038
_symmetry_space_group_name_H-M "C C"
_symmetry_group_IT_number 9
_symmetry_cell_setting 'monoclinic'
loop_
_space_group_symop_operation_xyz
x,y,z
x,-y,1/2+z
1/2+x,1/2+y,z
1/2+x,1/2-y,1/2+z
loop_
_atom_site_type_symbol
_atom_site_label
_atom_site_fract_x
_atom_site_fract_y
_atom_site_fract_z
Si Si1 0.444750 0.539145 0.225600
Si Si2 0.960569 0.608994 0.608487
Si Si3 0.881171 0.237916 0.903267
Si Si4 0.552769 0.970047 0.355892
Si Si5 0.963351 0.959143 0.478667
Si Si6 0.146287 0.205906 0.490729
Si Si7 0.258572 0.235410 0.273041
O O1 0.446535 0.829164 0.201028
O O2 0.442333 0.459358 0.307328
O O3 0.553624 0.429936 0.106137
O O4 0.330789 0.428728 0.270097
O O5 0.946680 0.853018 0.568227
O O6 0.852782 0.435337 0.669545
O O7 0.081906 0.469660 0.516848
O O8 0.968486 0.473468 0.851137
O O9 0.866188 0.120497 0.991645
O O10 0.760395 0.291094 0.954986
O O11 0.488290 0.753199 0.447652
O O12 0.679517 0.861997 0.270375
O O13 0.557633 0.255730 0.383070
O O14 0.182096 0.100374 0.388482
#
# Coordination Sequence:
#
# PCOD9135730 Si02
#       7
#     4   4   4   4   4   4   4
#     4  10  23  40  68 103 138 185 249 297 368 437
#     4  11  23  38  73 109 141 197 253 304 367 440
#     4   9  23  42  67 100 142 193 241 299 371 438
#     4  10  22  44  68  96 143 186 235 294 372 417
#     4  10  23  43  68 100 143 186 235 302 360 435
#     4  10  20  43  65  99 142 189 239 307 363 437
#     4  10  22  40  69  99 139 186 248 305 361 438
#
# _framework density 23.68826
#
# number of rings (size 3 to 8) (size 9 to 14) (size 15 to 20)
#    0.857    1.143    1.429    0.857    4.000    6.857 
#    5.143    0.000    0.000    0.000    0.000    0.000 
#    0.000    0.000    0.000    0.000    0.000    0.000 
#
# Total GULP energy -77943.324241 kJ/mol
# GULP energy per Si atom -5567.380303 kJ/mol
# Density = 2.363434 g / cm^3
# Si number density = 23.688260 Si / 1000 Ang^3
#
#
#
# Elastic Constant Matrix: (Units=GPa)
#
#
# Indices 1 2 3 4 5 6 
#
# 1 188.2922 48.7935 56.0463 -0.0614 -13.3738 0.0890
# 2 48.7935 79.9549 30.0925 -0.1211 -3.4961 0.1511
# 3 56.0463 30.0925 89.1197 -0.0097 -14.4446 0.0285
# 4 -0.0614 -0.1211 -0.0097 27.0008 0.0220 13.1825
# 5 -13.3738 -3.4961 -14.4446 0.0220 35.7070 -0.0497
# 6 0.0890 0.1511 0.0285 13.1825 -0.0497 29.9725
#
#
#
# Elastic Compliance Matrix: (Units=1/GPa)
#
#
# Indices 1 2 3 4 5 6 
#
# 1 0.007166 -0.003087 -0.003294 0.000001 0.001049 -0.000001
# 2 -0.003087 0.015670 -0.003519 0.000122 -0.001046 -0.000122
# 3 -0.003294 -0.003519 0.015223 -0.000040 0.004580 0.000038
# 4 0.000001 0.000122 -0.000040 0.047165 -0.000062 -0.020745
# 5 0.001049 -0.001046 0.004580 -0.000062 0.030149 0.000075
# 6 -0.000001 -0.000122 0.000038 -0.020745 0.000075 0.042489
#
#
# Mechanical properties :
#
#
# Convention : Reuss Voigt Hill
#
# Bulk Modulus (GPa) = 54.77007 69.69238 62.23123
# Shear Modulus (GPa) = 27.21101 33.36501 30.28801
#
# Velocity S-wave (km/s) = 3.39294 3.75708 3.57964
# Velocity P-wave (km/s) = 6.20651 6.95020 6.58886
#
# Compressibility (1/GPa) = 0.01825815
#
# Stress axis : x y z
#
# Youngs Moduli (GPa) = 139.54823 63.81459 65.68996
#
# Poissons Ratio (x) = 0.19703 0.21638
# Poissons Ratio (y) = 0.43085 0.23117
# Poissons Ratio (z) = 0.45968 0.22457
#
# Static dielectric constant tensor:
#      x y z
#    x 1.902000 -0.000030 0.007920 
#    y -0.000030 1.980870 0.000060 
#    z 0.007920 0.000060 1.959080 
# 
# From -- ./inp_files/33910.got.cif
#   From: 2010.05.17/outbox.cif.g08.bks.cpg/sg9_17_cif.got.tgz:33910.got - 2010.06.03 20:04:27.
