data_PCOD9135942
_publ_section_title
;
Structure prediction by ZEFSAII (Michael W. Deem and Ramdas Pophale) SiO2 
 PCOD9135942
Probable space group: C C
;
_chemical_formula_sum "Si O2"
_cell_formula_units_Z 28
_cell_length_a 8.763063
_cell_length_b 6.446204
_cell_length_c 21.403616
_cell_angle_alpha 90.000000
_cell_angle_beta 110.747209
_cell_angle_gamma 90.000000
_cell_volume 1130.653558
_symmetry_space_group_name_H-M "C C"
_symmetry_group_IT_number 9
_symmetry_cell_setting 'monoclinic'
loop_
_space_group_symop_operation_xyz
x,y,z
x,-y,1/2+z
1/2+x,1/2+y,z
1/2+x,1/2-y,1/2+z
loop_
_atom_site_type_symbol
_atom_site_label
_atom_site_fract_x
_atom_site_fract_y
_atom_site_fract_z
Si Si1 0.752310 0.839492 0.547280
Si Si2 0.632600 0.490734 0.764180
Si Si3 0.472424 0.140769 0.806992
Si Si4 0.364909 0.824486 0.698695
Si Si5 0.576395 0.542353 0.955252
Si Si6 0.740154 0.105306 0.421099
Si Si7 0.590692 0.200984 0.577241
O O1 0.657934 0.648748 0.502867
O O2 0.930881 0.761437 0.593361
O O3 0.773508 0.007936 0.494819
O O4 0.644395 0.960307 0.583114
O O5 0.784460 0.641559 0.801038
O O6 0.487763 0.631501 0.715670
O O7 0.724406 0.326264 0.732072
O O8 0.557473 0.358271 0.808657
O O9 0.461785 0.024643 0.737569
O O10 0.581670 0.000637 0.868084
O O11 0.253377 0.823926 0.621358
O O12 0.699991 0.653897 0.926113
O O13 0.401697 0.461131 0.907314
O O14 0.542390 0.723602 0.001090
#
# Coordination Sequence:
#
# PCOD9135942 Si02
#       7
#     4   4   4   4   4   4   4
#     4  10  21  37  61  91 122 163 204 264 317 378
#     4  10  24  41  64  90 130 169 217 258 328 371
#     4  10  24  41  64  94 131 174 214 270 316 393
#     4  10  24  40  63  92 129 175 217 267 319 389
#     4  10  21  37  63  91 121 165 201 264 316 376
#     4  10  21  39  61  91 125 156 216 252 322 377
#     4  10  21  39  58  89 124 158 215 255 318 378
#
# _framework density 24.764438999999999
#
# number of rings (size 3 to 8) (size 9 to 14) (size 15 to 20)
#    0.857    1.143    0.000    2.571    2.000    4.571 
#    0.000    0.000    0.000    0.000    0.000    0.000 
#    0.000    0.000    0.000    0.000    0.000    0.000 
#
# Total GULP energy -78149.504140 kJ/mol
# GULP energy per Si atom -5582.107439 kJ/mol
# Density = 2.470807 g / cm^3
# Si number density = 24.764439 Si / 1000 Ang^3
#
#
#
# Elastic Constant Matrix: (Units=GPa)
#
#
# Indices 1 2 3 4 5 6 
#
# 1 131.3049 63.9784 35.6942 0.0000 34.9625 0.0000
# 2 63.9784 96.5491 18.4328 0.0000 21.8780 0.0000
# 3 35.6942 18.4328 82.3279 0.0000 34.9458 0.0000
# 4 0.0000 0.0000 0.0000 36.4882 0.0000 4.8784
# 5 34.9625 21.8780 34.9458 0.0000 44.0673 0.0000
# 6 0.0000 0.0000 0.0000 4.8784 0.0000 48.9063
#
#
#
# Elastic Compliance Matrix: (Units=1/GPa)
#
#
# Indices 1 2 3 4 5 6 
#
# 1 0.012953 -0.007025 -0.001751 0.000000 -0.005401 0.000000
# 2 -0.007025 0.015484 0.000718 0.000000 -0.002683 0.000000
# 3 -0.001751 0.000718 0.018551 0.000000 -0.013679 0.000000
# 4 0.000000 0.000000 0.000000 0.027777 0.000000 -0.002771
# 5 -0.005401 -0.002683 -0.013679 0.000000 0.039156 0.000000
# 6 0.000000 0.000000 0.000000 -0.002771 0.000000 0.020724
#
#
# Mechanical properties :
#
#
# Convention : Reuss Voigt Hill
#
# Bulk Modulus (GPa) = 32.39226 60.71030 46.55128
# Shear Modulus (GPa) = 31.04624 38.69748 34.87186
#
# Velocity S-wave (km/s) = 3.54455 3.95729 3.75659
# Velocity P-wave (km/s) = 5.46446 6.74155 6.13632
#
# Compressibility (1/GPa) = 0.03087157
#
# Stress axis : x y z
#
# Youngs Moduli (GPa) = 77.20353 64.58488 53.90558
#
# Poissons Ratio (x) = 0.45372 0.09436
# Poissons Ratio (y) = 0.54237 -0.03870
# Poissons Ratio (z) = 0.13515 -0.04636
#
# Static dielectric constant tensor:
#      x y z
#    x 2.001260 0.000000 -0.054660 
#    y 0.000000 1.970760 0.000000 
#    z -0.054660 0.000000 1.963920 
# 
# From -- ./inp_files/34855.got.cif
#   From: 2010.05.17/outbox.cif.g08.bks.cpg/sg9_18_cif.got.tgz:34855.got - 2010.06.03 20:04:27.
