data_PCOD9135571
_publ_section_title
;
Structure prediction by ZEFSAII (Michael W. Deem and Ramdas Pophale) SiO2 
 PCOD9135571
Probable space group: C C
;
_chemical_formula_sum "Si O2"
_cell_formula_units_Z 28
_cell_length_a 8.729936
_cell_length_b 13.298505
_cell_length_c 14.620761
_cell_angle_alpha 90.000000
_cell_angle_beta 140.676871
_cell_angle_gamma 90.000000
_cell_volume 1075.630002
_symmetry_space_group_name_H-M "C C"
_symmetry_group_IT_number 9
_symmetry_cell_setting 'monoclinic'
loop_
_space_group_symop_operation_xyz
x,y,z
x,-y,1/2+z
1/2+x,1/2+y,z
1/2+x,1/2-y,1/2+z
loop_
_atom_site_type_symbol
_atom_site_label
_atom_site_fract_x
_atom_site_fract_y
_atom_site_fract_z
Si Si1 0.243940 0.974426 0.198600
Si Si2 0.670464 0.995946 0.136604
Si Si3 0.046111 0.666156 0.348642
Si Si4 0.809244 0.130419 0.034093
Si Si5 0.453753 0.325396 0.162665
Si Si6 0.651125 0.255515 0.805231
Si Si7 0.143328 0.064943 0.448293
O O1 0.473462 0.048846 0.313194
O O2 0.030175 0.057349 0.110985
O O3 0.188577 0.893045 0.251725
O O4 0.194081 0.924146 0.078535
O O5 0.766736 0.891273 0.137008
O O6 0.688127 0.077737 0.064271
O O7 0.391721 0.992209 0.035518
O O8 0.877644 0.015926 0.308653
O O9 0.317883 0.685044 0.504285
O O10 0.999434 0.720165 0.231424
O O11 0.886245 0.723804 0.351814
O O12 0.934455 0.230807 0.133625
O O13 0.667699 0.158033 0.876601
O O14 0.630153 0.344268 0.869858
#
# Coordination Sequence:
#
# PCOD9135571 Si02
#       7
#     4   4   4   4   4   4   4
#     4  10  25  44  70 108 146 197 252 317 387 464
#     4  10  24  45  73 103 148 196 253 314 394 468
#     4  11  23  46  76 106 151 204 259 321 400 469
#     4   9  21  42  67 100 140 187 250 302 379 460
#     4  11  25  46  75 109 149 204 267 315 390 487
#     4  10  20  41  67 104 137 189 245 305 380 458
#     4  11  24  44  72 106 147 195 248 322 388 462
#
# _framework density 26.031255000000002
#
# number of rings (size 3 to 8) (size 9 to 14) (size 15 to 20)
#    0.000    1.714    1.429    2.571    6.000    0.000 
#    5.143    0.000    0.000    0.000    0.000    0.000 
#    0.000    0.000    0.000    0.000    0.000    0.000 
#
# Total GULP energy -78378.500988 kJ/mol
# GULP energy per Si atom -5598.464356 kJ/mol
# Density = 2.597201 g / cm^3
# Si number density = 26.031255 Si / 1000 Ang^3
#
#
#
# Elastic Constant Matrix: (Units=GPa)
#
#
# Indices 1 2 3 4 5 6 
#
# 1 95.6798 38.9243 31.3776 0.0000 -5.1606 0.0000
# 2 38.9243 82.6604 23.0150 0.0000 2.7601 0.0000
# 3 31.3776 23.0150 156.2534 -0.0002 4.0627 -0.0001
# 4 0.0000 0.0000 -0.0002 37.9196 -0.0001 -18.4091
# 5 -5.1606 2.7601 4.0627 -0.0001 30.2663 0.0000
# 6 0.0000 0.0000 -0.0001 -18.4091 0.0000 31.1077
#
#
#
# Elastic Compliance Matrix: (Units=1/GPa)
#
#
# Indices 1 2 3 4 5 6 
#
# 1 0.013708 -0.006018 -0.001948 0.000000 0.003148 0.000000
# 2 -0.006018 0.015282 -0.000983 0.000000 -0.002288 0.000000
# 3 -0.001948 -0.000983 0.006966 0.000000 -0.001178 0.000000
# 4 0.000000 0.000000 0.000000 0.037002 0.000000 0.021898
# 5 0.003148 -0.002288 -0.001178 0.000000 0.033943 0.000000
# 6 0.000000 0.000000 0.000000 0.021898 0.000000 0.045105
#
#
# Mechanical properties :
#
#
# Convention : Reuss Voigt Hill
#
# Bulk Modulus (GPa) = 55.37608 57.91414 56.64511
# Shear Modulus (GPa) = 28.42121 35.94383 32.18252
#
# Velocity S-wave (km/s) = 3.30784 3.71994 3.51992
# Velocity P-wave (km/s) = 5.99234 6.38332 6.19092
#
# Compressibility (1/GPa) = 0.01805834
#
# Stress axis : x y z
#
# Youngs Moduli (GPa) = 72.94802 65.43847 143.54429
#
# Poissons Ratio (x) = 0.39380 0.27966
# Poissons Ratio (y) = 0.43899 0.14109
# Poissons Ratio (z) = 0.14212 0.06432
#
# Static dielectric constant tensor:
#      x y z
#    x 2.009950 0.000000 0.049370 
#    y 0.000000 2.075030 0.000000 
#    z 0.049370 0.000000 2.087510 
# 
# From -- ./inp_files/23484.got.cif
#   From: 2010.05.17/outbox.cif.g08.bks.cpg/sg9_12_cif.got.tgz:23484.got - 2010.06.03 20:04:27.
