data_PCOD9135104
_publ_section_title
;
Structure prediction by ZEFSAII (Michael W. Deem and Ramdas Pophale) SiO2 
 PCOD9135104
Probable space group: C C
;
_chemical_formula_sum "Si O2"
_cell_formula_units_Z 28
_cell_length_a 7.581908
_cell_length_b 17.383735
_cell_length_c 14.060200
_cell_angle_alpha 90.000000
_cell_angle_beta 41.522914
_cell_angle_gamma 90.000000
_cell_volume 1228.496461
_symmetry_space_group_name_H-M "C C"
_symmetry_group_IT_number 9
_symmetry_cell_setting 'monoclinic'
loop_
_space_group_symop_operation_xyz
x,y,z
x,-y,1/2+z
1/2+x,1/2+y,z
1/2+x,1/2-y,1/2+z
loop_
_atom_site_type_symbol
_atom_site_label
_atom_site_fract_x
_atom_site_fract_y
_atom_site_fract_z
Si Si1 0.489130 0.790560 0.217460
Si Si2 0.317658 0.633894 0.841933
Si Si3 0.937167 0.157100 0.003345
Si Si4 0.390018 0.902193 0.081743
Si Si5 0.913281 0.733143 0.187541
Si Si6 0.310736 0.384188 0.752054
Si Si7 0.839440 0.571371 0.121637
O O1 0.764579 0.780829 0.163853
O O2 0.401209 0.704813 0.224446
O O3 0.246415 0.819886 0.382922
O O4 0.489355 0.841649 0.121840
O O5 0.405870 0.617140 0.914251
O O6 0.297669 0.724910 0.827417
O O7 0.578694 0.608669 0.681112
O O8 0.029346 0.596599 0.956388
O O9 0.731692 0.228841 0.074387
O O10 0.824779 0.105569 0.133623
O O11 0.551673 0.896532 0.918786
O O12 0.427097 0.986424 0.113605
O O13 0.848159 0.643591 0.191070
O O14 0.538997 0.433765 0.708501
#
# Coordination Sequence:
#
# PCOD9135104 Si02
#       7
#     4   4   4   4   4   4   4
#     4  10  21  38  66  95 126 173 226 275 335 405
#     4  10  21  40  63  89 127 173 218 271 329 402
#     4  10  20  37  61  93 129 166 219 279 324 387
#     4  11  23  42  66  96 134 171 217 285 345 397
#     4  10  21  38  66  94 124 171 228 274 328 402
#     4  11  21  38  64  94 129 176 220 266 335 406
#     4  10  23  41  64  97 135 170 218 282 344 403
#
# _framework density 22.792088
#
# number of rings (size 3 to 8) (size 9 to 14) (size 15 to 20)
#    0.000    1.714    0.000    5.143    0.000    6.857 
#    0.000   12.857    0.000    3.429    0.000    0.000 
#    0.000    0.000    0.000    0.000    0.000    0.000 
#
# Total GULP energy -78031.752061 kJ/mol
# GULP energy per Si atom -5573.696576 kJ/mol
# Density = 2.274021 g / cm^3
# Si number density = 22.792088 Si / 1000 Ang^3
#
#
#
# Elastic Constant Matrix: (Units=GPa)
#
#
# Indices 1 2 3 4 5 6 
#
# 1 68.7602 7.2311 24.8522 -0.0001 0.8925 0.0000
# 2 7.2311 105.0922 10.5138 0.0000 13.0571 0.0000
# 3 24.8522 10.5138 130.6871 -0.0003 -9.4926 -0.0001
# 4 -0.0001 0.0000 -0.0003 15.9979 0.0001 -2.5269
# 5 0.8925 13.0571 -9.4926 0.0001 39.3482 0.0001
# 6 0.0000 0.0000 -0.0001 -2.5269 0.0001 16.7640
#
#
#
# Elastic Compliance Matrix: (Units=1/GPa)
#
#
# Indices 1 2 3 4 5 6 
#
# 1 0.015708 -0.000675 -0.002995 0.000000 -0.000855 0.000000
# 2 -0.000675 0.010099 -0.000943 0.000000 -0.003563 0.000000
# 3 -0.002995 -0.000943 0.008473 0.000000 0.002425 0.000000
# 4 0.000000 0.000000 0.000000 0.064033 0.000000 0.009652
# 5 -0.000855 -0.003563 0.002425 0.000000 0.027201 0.000000
# 6 0.000000 0.000000 0.000000 0.009652 0.000000 0.061107
#
#
# Mechanical properties :
#
#
# Convention : Reuss Voigt Hill
#
# Bulk Modulus (GPa) = 39.91284 43.30372 41.60828
# Shear Modulus (GPa) = 24.48609 31.88485 28.18547
#
# Velocity S-wave (km/s) = 3.28124 3.74430 3.52040
# Velocity P-wave (km/s) = 5.64846 6.14278 5.90080
#
# Compressibility (1/GPa) = 0.02505460
#
# Stress axis : x y z
#
# Youngs Moduli (GPa) = 63.66252 99.02009 118.01656
#
# Poissons Ratio (x) = 0.06684 0.35344
# Poissons Ratio (y) = 0.04297 0.11128
# Poissons Ratio (z) = 0.19066 0.09337
#
# Static dielectric constant tensor:
#      x y z
#    x 1.900100 0.000000 -0.011090 
#    y 0.000000 1.919500 0.000000 
#    z -0.011090 0.000000 1.924230 
# 
# From -- ./inp_files/23641.got.cif
#   From: 2010.05.17/outbox.cif.g08.bks.cpg/sg9_12_cif.got.tgz:23641.got - 2010.06.03 20:04:27.
