data_PCOD9135683
_publ_section_title
;
Structure prediction by ZEFSAII (Michael W. Deem and Ramdas Pophale) SiO2 
 PCOD9135683
Probable space group: C C
;
_chemical_formula_sum "Si O2"
_cell_formula_units_Z 32
_cell_length_a 25.595099
_cell_length_b 9.552642
_cell_length_c 15.242155
_cell_angle_alpha 90.000000
_cell_angle_beta 20.131771
_cell_angle_gamma 90.000000
_cell_volume 1282.663677
_symmetry_space_group_name_H-M "C C"
_symmetry_group_IT_number 9
_symmetry_cell_setting 'monoclinic'
loop_
_space_group_symop_operation_xyz
x,y,z
x,-y,1/2+z
1/2+x,1/2+y,z
1/2+x,1/2-y,1/2+z
loop_
_atom_site_type_symbol
_atom_site_label
_atom_site_fract_x
_atom_site_fract_y
_atom_site_fract_z
Si Si1 0.667040 0.010982 0.543960
Si Si2 0.709904 0.862246 0.792072
Si Si3 0.450657 0.807607 0.813929
Si Si4 0.074165 0.042675 0.523917
Si Si5 0.397480 0.032176 0.748373
Si Si6 0.616330 0.634228 0.272402
Si Si7 0.901576 0.639054 0.066455
Si Si8 0.315903 0.403984 0.990240
O O1 0.729664 0.094081 0.361813
O O2 0.765503 0.028627 0.475964
O O3 0.607628 0.855126 0.613676
O O4 0.511282 0.086142 0.817438
O O5 0.818322 0.736044 0.590226
O O6 0.764490 0.997965 0.650498
O O7 0.531176 0.853680 0.048384
O O8 0.474980 0.676490 0.711486
O O9 0.410653 0.934983 0.813341
O O10 0.083196 0.030911 0.404732
O O11 0.236667 0.091313 0.300652
O O12 0.997782 0.912836 0.694716
O O13 0.434732 0.943383 0.604019
O O14 0.222521 0.079924 0.026740
O O15 0.457560 0.702694 0.493827
O O16 0.726756 0.758085 0.136377
#
# Coordination Sequence:
#
# PCOD9135683 Si02
#       8
#     4   4   4   4   4   4   4   4
#     4  10  21  40  67  94 139 173 217 281 330 388
#     4  10  20  42  69  98 136 175 220 278 331 393
#     4  10  22  39  69 101 136 173 223 276 332 402
#     4  11  23  41  70  95 133 180 220 276 336 398
#     4  11  22  43  67  98 138 176 215 279 333 391
#     4  11  23  43  68  95 135 177 218 277 330 393
#     4  11  24  44  63  97 136 174 226 275 336 400
#     4  10  23  44  65 100 137 174 223 278 332 399
#
# _framework density 24.948084000000001
#
# number of rings (size 3 to 8) (size 9 to 14) (size 15 to 20)
#    0.000    1.500    3.750    2.250    1.750    5.000 
#    4.500    0.000    0.000    0.000    0.000    0.000 
#    0.000    0.000    0.000    0.000    0.000    0.000 
#
# Total GULP energy -89499.024549 kJ/mol
# GULP energy per Si atom -5593.689034 kJ/mol
# Density = 2.489130 g / cm^3
# Si number density = 24.948084 Si / 1000 Ang^3
#
#
#
# Elastic Constant Matrix: (Units=GPa)
#
#
# Indices 1 2 3 4 5 6 
#
# 1 101.6033 12.0245 35.2598 0.0000 21.0561 0.0000
# 2 12.0245 53.1962 20.1080 0.0000 10.4012 0.0000
# 3 35.2598 20.1080 153.3708 0.0000 5.8618 0.0000
# 4 0.0000 0.0000 0.0000 44.5013 0.0000 1.9820
# 5 21.0561 10.4012 5.8618 0.0000 46.8861 0.0000
# 6 0.0000 0.0000 0.0000 1.9820 0.0000 14.0464
#
#
#
# Elastic Compliance Matrix: (Units=1/GPa)
#
#
# Indices 1 2 3 4 5 6 
#
# 1 0.011772 -0.000808 -0.002417 0.000000 -0.004805 0.000000
# 2 -0.000808 0.020644 -0.002371 0.000000 -0.003920 0.000000
# 3 -0.002417 -0.002371 0.007360 0.000000 0.000691 0.000000
# 4 0.000000 0.000000 0.000000 0.022613 0.000000 -0.003191
# 5 -0.004805 -0.003920 0.000691 0.000000 0.024270 0.000000
# 6 0.000000 0.000000 0.000000 -0.003191 0.000000 0.071643
#
#
# Mechanical properties :
#
#
# Convention : Reuss Voigt Hill
#
# Bulk Modulus (GPa) = 34.98356 49.21723 42.10039
# Shear Modulus (GPa) = 27.92951 37.13862 32.53407
#
# Velocity S-wave (km/s) = 3.34953 3.86247 3.61511
# Velocity P-wave (km/s) = 5.38629 6.29780 5.85979
#
# Compressibility (1/GPa) = 0.02858486
#
# Stress axis : x y z
#
# Youngs Moduli (GPa) = 84.94427 48.44098 135.86552
#
# Poissons Ratio (x) = 0.03913 0.32837
# Poissons Ratio (y) = 0.06862 0.32213
# Poissons Ratio (z) = 0.20530 0.11485
#
# Static dielectric constant tensor:
#      x y z
#    x 1.967020 0.000000 -0.080460 
#    y 0.000000 2.025350 0.000000 
#    z -0.080460 0.000000 2.064360 
# 
# From -- ./inp_files/24680.got.cif
#   From: 2010.05.17/outbox.cif.g08.bks.cpg/sg9_13_cif.got.tgz:24680.got - 2010.06.03 20:04:27.
