data_PCOD9135042
_publ_section_title
;
Structure prediction by ZEFSAII (Michael W. Deem and Ramdas Pophale) SiO2 
 PCOD9135042
Probable space group: C C
;
_chemical_formula_sum "Si O2"
_cell_formula_units_Z 32
_cell_length_a 12.507470
_cell_length_b 15.249951
_cell_length_c 19.132369
_cell_angle_alpha 90.000000
_cell_angle_beta 26.483552
_cell_angle_gamma 90.000000
_cell_volume 1627.361200
_symmetry_space_group_name_H-M "C C"
_symmetry_group_IT_number 9
_symmetry_cell_setting 'monoclinic'
loop_
_space_group_symop_operation_xyz
x,y,z
x,-y,1/2+z
1/2+x,1/2+y,z
1/2+x,1/2-y,1/2+z
loop_
_atom_site_type_symbol
_atom_site_label
_atom_site_fract_x
_atom_site_fract_y
_atom_site_fract_z
Si Si1 0.380550 0.193264 0.729430
Si Si2 0.990394 0.222199 0.841848
Si Si3 0.159510 0.675168 0.841934
Si Si4 0.937154 0.942832 0.274144
Si Si5 0.687658 0.403801 0.681781
Si Si6 0.462762 0.993624 0.638874
Si Si7 0.864327 0.261060 0.393916
Si Si8 0.988757 0.324491 0.707594
O O1 0.624351 0.248848 0.579025
O O2 0.299926 0.200934 0.856354
O O3 0.185469 0.226978 0.788347
O O4 0.432364 0.092819 0.679481
O O5 0.031240 0.137369 0.767452
O O6 0.994380 0.303016 0.786075
O O7 0.731306 0.209956 0.028636
O O8 0.350745 0.600991 0.752406
O O9 0.273248 0.767258 0.800006
O O10 0.063296 0.683837 0.819849
O O11 0.925535 0.650580 0.024139
O O12 0.703513 0.979920 0.451923
O O13 0.119468 0.023443 0.163979
O O14 0.746467 0.460312 0.716236
O O15 0.477697 0.335018 0.816586
O O16 0.470917 0.925797 0.698109
#
# Coordination Sequence:
#
# PCOD9135042 Si02
#       8
#     4   4   4   4   4   4   4   4
#     4  12  24  40  62  93 127 173 211 269 323 379
#     4  10  21  39  62  92 128 165 213 261 323 376
#     4  10  22  39  64  96 125 166 211 267 323 376
#     4   9  19  36  65  92 120 164 217 262 308 385
#     4  11  19  39  65  93 125 165 217 259 313 392
#     4  10  20  36  64  93 121 165 219 259 315 379
#     4  12  24  39  62  91 131 165 215 264 327 384
#     4  10  21  40  66  94 123 167 219 265 314 387
#
# _framework density 19.663737000000001
#
# number of rings (size 3 to 8) (size 9 to 14) (size 15 to 20)
#    0.000    1.500    5.000    1.500    0.000    0.000 
#    0.000    3.750    2.750    0.000    0.000    0.000 
#    0.000    0.000    0.000    0.000    0.000    0.000 
#
# Total GULP energy -89325.544320 kJ/mol
# GULP energy per Si atom -5582.846520 kJ/mol
# Density = 1.961898 g / cm^3
# Si number density = 19.663737 Si / 1000 Ang^3
#
#
#
# Elastic Constant Matrix: (Units=GPa)
#
#
# Indices 1 2 3 4 5 6 
#
# 1 134.0214 37.4795 11.7211 -0.0093 0.3918 -0.0199
# 2 37.4795 49.8194 6.3882 -0.0081 -2.5934 0.0043
# 3 11.7211 6.3882 31.4722 -0.0067 -7.6607 -0.0423
# 4 -0.0093 -0.0081 -0.0067 12.1784 0.0186 -1.3639
# 5 0.3918 -2.5934 -7.6607 0.0186 26.5737 0.0286
# 6 -0.0199 0.0043 -0.0423 -1.3639 0.0286 32.6277
#
#
#
# Elastic Compliance Matrix: (Units=1/GPa)
#
#
# Indices 1 2 3 4 5 6 
#
# 1 0.009651 -0.007015 -0.002551 0.000004 -0.001562 0.000005
# 2 -0.007015 0.025726 -0.002122 0.000006 0.002002 -0.000012
# 3 -0.002551 -0.002122 0.035613 0.000005 0.010097 0.000036
# 4 0.000004 0.000006 0.000005 0.082499 -0.000060 0.003449
# 5 -0.001562 0.002002 0.010097 -0.000060 0.040760 -0.000026
# 6 0.000005 -0.000012 0.000036 0.003449 -0.000026 0.030793
#
#
# Mechanical properties :
#
#
# Convention : Reuss Voigt Hill
#
# Bulk Modulus (GPa) = 21.00191 36.27675 28.63933
# Shear Modulus (GPa) = 18.91877 24.92425 21.92151
#
# Velocity S-wave (km/s) = 3.10516 3.56409 3.34251
# Velocity P-wave (km/s) = 4.85384 5.95194 5.43072
#
# Compressibility (1/GPa) = 0.04761472
#
# Stress axis : x y z
#
# Youngs Moduli (GPa) = 103.61837 38.87121 28.08001
#
# Poissons Ratio (x) = 0.27267 0.07162
# Poissons Ratio (y) = 0.72684 0.05959
# Poissons Ratio (z) = 0.26429 0.08248
#
# Static dielectric constant tensor:
#      x y z
#    x 1.711970 0.000000 -0.023140 
#    y 0.000000 1.681670 0.000010 
#    z -0.023140 0.000010 1.679040 
# 
# From -- ./inp_files/7378.got.cif
#   From: 2010.05.17/outbox.cif.g08.bks.cpg/sg9_4_cif.got.tgz:7378.got - 2010.06.03 20:04:27.
