data_PCOD9135327
_publ_section_title
;
Structure prediction by ZEFSAII (Michael W. Deem and Ramdas Pophale) SiO2 
 PCOD9135327
Probable space group: C C
;
_chemical_formula_sum "Si O2"
_cell_formula_units_Z 32
_cell_length_a 19.112359
_cell_length_b 12.203166
_cell_length_c 22.271219
_cell_angle_alpha 90.000000
_cell_angle_beta 161.568522
_cell_angle_gamma 90.000000
_cell_volume 1642.297640
_symmetry_space_group_name_H-M "C C"
_symmetry_group_IT_number 9
_symmetry_cell_setting 'monoclinic'
loop_
_space_group_symop_operation_xyz
x,y,z
x,-y,1/2+z
1/2+x,1/2+y,z
1/2+x,1/2-y,1/2+z
loop_
_atom_site_type_symbol
_atom_site_label
_atom_site_fract_x
_atom_site_fract_y
_atom_site_fract_z
Si Si1 0.961540 0.436135 0.102480
Si Si2 0.930188 0.347853 0.852654
Si Si3 0.188728 0.016780 0.057947
Si Si4 0.472676 0.601866 0.207874
Si Si5 0.993490 0.633316 0.212081
Si Si6 0.330509 0.632128 0.588183
Si Si7 0.728237 0.894183 0.202655
Si Si8 0.009754 0.665873 0.773124
O O1 0.978319 0.561338 0.139967
O O2 0.990995 0.364130 0.187157
O O3 0.141849 0.414366 0.199063
O O4 0.717446 0.405867 0.878784
O O5 0.768171 0.428505 0.684933
O O6 0.822946 0.229506 0.775306
O O7 0.139713 0.333047 0.978989
O O8 0.025834 0.398388 0.991290
O O9 0.288537 0.093583 0.086516
O O10 0.321465 0.904126 0.154050
O O11 0.925015 0.023400 0.844192
O O12 0.435427 0.478162 0.199845
O O13 0.484807 0.704410 0.262851
O O14 0.254758 0.630219 0.992495
O O15 0.985276 0.764273 0.202403
O O16 0.209646 0.604114 0.427101
#
# Coordination Sequence:
#
# PCOD9135327 Si02
#       8
#     4   4   4   4   4   4   4   4
#     4  11  26  39  60  97 138 176 206 264 338 390
#     4  11  21  36  61  99 125 166 212 271 327 370
#     4  10  22  40  61  93 128 165 212 274 322 375
#     4  12  23  39  65  97 127 172 218 272 325 377
#     4  10  20  39  64 102 122 162 217 272 327 373
#     4  11  20  38  71  97 125 157 224 285 318 370
#     4  12  24  36  62  97 138 170 211 263 334 396
#     4  11  24  41  64  94 131 174 222 269 325 383
#
# _framework density 19.484895999999999
#
# number of rings (size 3 to 8) (size 9 to 14) (size 15 to 20)
#    0.000    1.000    7.500    1.500    5.250    1.000 
#    0.000    0.000    0.000    6.000    0.000    0.000 
#    0.000    0.000    0.000    0.000    0.000    0.000 
#
# Total GULP energy -89286.277113 kJ/mol
# GULP energy per Si atom -5580.392320 kJ/mol
# Density = 1.944055 g / cm^3
# Si number density = 19.484896 Si / 1000 Ang^3
#
#
#
# Elastic Constant Matrix: (Units=GPa)
#
#
# Indices 1 2 3 4 5 6 
#
# 1 75.5606 30.9784 38.2914 0.0141 2.9529 -0.0036
# 2 30.9784 154.4945 32.9443 0.0411 8.1090 0.0022
# 3 38.2914 32.9443 81.3576 0.0565 -7.6398 0.0101
# 4 0.0141 0.0411 0.0565 25.2708 0.0065 -2.5091
# 5 2.9529 8.1090 -7.6398 0.0065 26.7121 0.0042
# 6 -0.0036 0.0022 0.0101 -2.5091 0.0042 16.7100
#
#
#
# Elastic Compliance Matrix: (Units=1/GPa)
#
#
# Indices 1 2 3 4 5 6 
#
# 1 0.018277 -0.001696 -0.008279 0.000013 -0.003873 0.000012
# 2 -0.001696 0.007493 -0.002499 -0.000005 -0.002802 0.000000
# 3 -0.008279 -0.002499 0.017836 -0.000035 0.006775 -0.000019
# 4 0.000013 -0.000005 -0.000035 0.040170 -0.000021 0.006032
# 5 -0.003873 -0.002802 0.006775 -0.000021 0.040653 -0.000018
# 6 0.000012 0.000000 -0.000019 0.006032 -0.000018 0.060750
#
#
# Mechanical properties :
#
#
# Convention : Reuss Voigt Hill
#
# Bulk Modulus (GPa) = 53.59732 57.31565 55.45648
# Shear Modulus (GPa) = 23.11117 27.68514 25.39816
#
# Velocity S-wave (km/s) = 3.44773 3.77351 3.61429
# Velocity P-wave (km/s) = 6.58908 6.96169 6.77794
#
# Compressibility (1/GPa) = 0.01865765
#
# Stress axis : x y z
#
# Youngs Moduli (GPa) = 54.71483 133.46285 56.06623
#
# Poissons Ratio (x) = 0.22636 0.46417
# Poissons Ratio (y) = 0.09280 0.14010
# Poissons Ratio (z) = 0.45298 0.33351
#
# Static dielectric constant tensor:
#      x y z
#    x 1.648570 0.000000 -0.041920 
#    y 0.000000 1.733710 0.000000 
#    z -0.041920 0.000000 1.747450 
# 
# From -- ./inp_files/34125.got.cif
#   From: 2010.05.17/outbox.cif.g08.bks.cpg/sg9_18_cif.got.tgz:34125.got - 2010.06.03 20:04:27.
