data_PCOD9135254
_publ_section_title
;
Structure prediction by ZEFSAII (Michael W. Deem and Ramdas Pophale) SiO2 
 PCOD9135254
Probable space group: C C
;
_chemical_formula_sum "Si O2"
_cell_formula_units_Z 28
_cell_length_a 9.024343
_cell_length_b 17.027797
_cell_length_c 8.110733
_cell_angle_alpha 90.000000
_cell_angle_beta 84.161382
_cell_angle_gamma 90.000000
_cell_volume 1239.867681
_symmetry_space_group_name_H-M "C C"
_symmetry_group_IT_number 9
_symmetry_cell_setting 'monoclinic'
loop_
_space_group_symop_operation_xyz
x,y,z
x,-y,1/2+z
1/2+x,1/2+y,z
1/2+x,1/2-y,1/2+z
loop_
_atom_site_type_symbol
_atom_site_label
_atom_site_fract_x
_atom_site_fract_y
_atom_site_fract_z
Si Si1 0.901720 0.418772 0.816210
Si Si2 0.422426 0.244600 0.841137
Si Si3 0.222125 0.612630 0.325625
Si Si4 0.535967 0.579761 0.906296
Si Si5 0.848920 0.960808 0.132304
Si Si6 0.197042 0.190068 0.136221
Si Si7 0.847385 0.577292 0.699628
O O1 0.781222 0.382898 0.708767
O O2 0.946357 0.505354 0.751203
O O3 0.051494 0.367793 0.810530
O O4 0.839607 0.423141 0.005918
O O5 0.327126 0.314801 0.771580
O O6 0.595215 0.267822 0.787499
O O7 0.402021 0.160776 0.757897
O O8 0.332379 0.235215 0.026093
O O9 0.266788 0.536312 0.216690
O O10 0.252102 0.587411 0.512020
O O11 0.412331 0.590123 0.776988
O O12 0.687720 0.560601 0.795750
O O13 0.481768 0.504163 0.016155
O O14 0.582435 0.654109 0.013341
#
# Coordination Sequence:
#
# PCOD9135254 Si02
#       7
#     4   4   4   4   4   4   4
#     4  12  25  45  72 103 143 191 238 290 353 437
#     4  11  25  48  71 107 147 186 236 301 359 422
#     4  11  24  43  69 104 142 184 238 295 355 424
#     4  10  20  38  66 103 131 182 235 294 334 423
#     4  10  21  39  70 102 138 182 243 286 350 420
#     4  11  25  46  74 103 145 188 238 291 363 424
#     4  11  24  41  72 100 146 183 240 287 362 420
#
# _framework density 22.583057
#
# number of rings (size 3 to 8) (size 9 to 14) (size 15 to 20)
#    0.000    1.143    1.429    5.143    4.000    1.143 
#    5.143    1.429    0.000    0.000    0.000    0.000 
#    0.000    0.000    0.000    0.000    0.000    0.000 
#
# Total GULP energy -78198.649727 kJ/mol
# GULP energy per Si atom -5585.617838 kJ/mol
# Density = 2.253166 g / cm^3
# Si number density = 22.583057 Si / 1000 Ang^3
#
#
#
# Elastic Constant Matrix: (Units=GPa)
#
#
# Indices 1 2 3 4 5 6 
#
# 1 88.8449 37.2757 35.1246 0.0000 -20.0467 0.0000
# 2 37.2757 101.4192 37.6048 0.0000 4.6082 0.0000
# 3 35.1246 37.6048 65.8673 0.0000 -26.7898 0.0000
# 4 0.0000 0.0000 0.0000 24.9212 0.0000 -10.6521
# 5 -20.0467 4.6082 -26.7898 0.0000 30.4720 0.0000
# 6 0.0000 0.0000 0.0000 -10.6521 0.0000 -2.4429
#
#
#
# Elastic Compliance Matrix: (Units=1/GPa)
#
#
# Indices 1 2 3 4 5 6 
#
# 1 0.016807 -0.006496 -0.000556 0.000000 0.011550 0.000000
# 2 -0.006496 0.019257 -0.016271 0.000000 -0.021490 0.000000
# 3 -0.000556 -0.016271 0.039880 0.000000 0.037155 0.000000
# 4 0.000000 0.000000 0.000000 0.014012 0.000000 -0.061097
# 5 0.011550 -0.021490 0.037155 0.000000 0.076331 0.000000
# 6 0.000000 0.000000 0.000000 -0.061097 0.000000 -0.142939
#
#
# Mechanical properties :
#
#
# Convention : Reuss Voigt Hill
#
# Bulk Modulus (GPa) = 34.13161 52.90461 43.51811
# Shear Modulus (GPa) = 62.68872 20.33179 41.51026
#
# Velocity S-wave (km/s) = 5.27441 3.00377 4.29198
# Velocity P-wave (km/s) = 7.22767 5.95884 6.62371
#
# Compressibility (1/GPa) = 0.02929835
#
# Stress axis : x y z
#
# Youngs Moduli (GPa) = 59.49884 51.92927 25.07528
#
# Poissons Ratio (x) = 0.33733 0.01395
# Poissons Ratio (y) = 0.38650 0.40799
# Poissons Ratio (z) = 0.03309 0.84493
#
# Static dielectric constant tensor:
#      x y z
#    x 1.868570 0.000000 -0.034940 
#    y 0.000000 1.827840 0.000000 
#    z -0.034940 0.000000 1.851220 
# 
# From -- ./inp_files/5366.got.cif
#   From: 2010.05.17/outbox.cif.g08.bks.cpg/sg9_3_cif.got.tgz:5366.got - 2010.06.03 20:04:27.
