data_PCOD9135654
_publ_section_title
;
Structure prediction by ZEFSAII (Michael W. Deem and Ramdas Pophale) SiO2 
 PCOD9135654
Probable space group: C C
;
_chemical_formula_sum "Si O2"
_cell_formula_units_Z 32
_cell_length_a 23.455634
_cell_length_b 13.981701
_cell_length_c 8.877294
_cell_angle_alpha 90.000000
_cell_angle_beta 147.461188
_cell_angle_gamma 90.000000
_cell_volume 1565.906240
_symmetry_space_group_name_H-M "C C"
_symmetry_group_IT_number 9
_symmetry_cell_setting 'monoclinic'
loop_
_space_group_symop_operation_xyz
x,y,z
x,-y,1/2+z
1/2+x,1/2+y,z
1/2+x,1/2-y,1/2+z
loop_
_atom_site_type_symbol
_atom_site_label
_atom_site_fract_x
_atom_site_fract_y
_atom_site_fract_z
Si Si1 0.433740 0.542986 0.208690
Si Si2 0.880509 0.272433 0.673031
Si Si3 0.786824 0.362077 0.158753
Si Si4 0.249622 0.395184 0.777449
Si Si5 0.582121 0.042027 0.483085
Si Si6 0.540366 0.615412 0.144150
Si Si7 0.754345 0.169240 0.951389
Si Si8 0.919072 0.457030 0.885286
O O1 0.485973 0.597086 0.184797
O O2 0.514311 0.478751 0.485859
O O3 0.347990 0.465005 0.961830
O O4 0.362007 0.614496 0.147767
O O5 0.859036 0.321854 0.459375
O O6 0.789686 0.191964 0.466978
O O7 0.867280 0.352208 0.773327
O O8 0.986080 0.208468 0.942225
O O9 0.831643 0.459919 0.188132
O O10 0.666007 0.374498 0.943861
O O11 0.780106 0.280311 0.017385
O O12 0.166244 0.456185 0.686688
O O13 0.216542 0.359581 0.537558
O O14 0.658890 0.133038 0.631995
O O15 0.500488 0.061497 0.431970
O O16 0.502664 0.999591 0.186132
#
# Coordination Sequence:
#
# PCOD9135654 Si02
#       8
#     4   4   4   4   4   4   4   4
#     4  10  21  40  69 102 128 167 225 276 331 401
#     4  10  24  44  66  93 133 176 221 270 337 395
#     4  11  26  43  67  93 141 177 220 280 342 400
#     4   9  19  39  68  96 126 170 215 281 324 395
#     4  11  22  38  71  95 129 166 226 270 339 393
#     4  11  24  43  73  96 136 180 217 279 342 399
#     4  10  20  42  66  98 125 173 225 273 333 395
#     4  12  24  43  62  97 134 175 217 281 332 404
#
# _framework density 20.435449999999999
#
# number of rings (size 3 to 8) (size 9 to 14) (size 15 to 20)
#    0.000    1.500    3.750    0.750    3.500    1.000 
#    0.000    0.000    0.000    0.000    0.000    0.000 
#    0.000    0.000    0.000    0.000    0.000    0.000 
#
# Total GULP energy -89073.083565 kJ/mol
# GULP energy per Si atom -5567.067723 kJ/mol
# Density = 2.038894 g / cm^3
# Si number density = 20.435450 Si / 1000 Ang^3
#
#
#
# Elastic Constant Matrix: (Units=GPa)
#
#
# Indices 1 2 3 4 5 6 
#
# 1 41.4496 31.8219 33.4035 0.0000 16.8942 0.0000
# 2 31.8219 145.3226 60.4144 0.0000 20.9604 0.0000
# 3 33.4035 60.4144 116.3225 0.0000 10.4615 0.0000
# 4 0.0000 0.0000 0.0000 34.4944 0.0000 -3.9418
# 5 16.8942 20.9604 10.4615 0.0000 20.5045 0.0000
# 6 0.0000 0.0000 0.0000 -3.9418 0.0000 29.5186
#
#
#
# Elastic Compliance Matrix: (Units=1/GPa)
#
#
# Indices 1 2 3 4 5 6 
#
# 1 0.045707 -0.001551 -0.009512 0.000000 -0.031221 0.000000
# 2 -0.001551 0.009893 -0.004086 0.000000 -0.006750 0.000000
# 3 -0.009512 -0.004086 0.012965 0.000000 0.005399 0.000000
# 4 0.000000 0.000000 0.000000 0.029439 0.000000 0.003931
# 5 -0.031221 -0.006750 0.005399 0.000000 0.078639 0.000000
# 6 0.000000 0.000000 0.000000 0.003931 0.000000 0.034402
#
#
# Mechanical properties :
#
#
# Convention : Reuss Voigt Hill
#
# Bulk Modulus (GPa) = 26.13189 61.59713 43.86451
# Shear Modulus (GPa) = 19.67737 28.73382 24.20559
#
# Velocity S-wave (km/s) = 3.10644 3.75384 3.44538
# Velocity P-wave (km/s) = 5.06773 6.99972 6.11056
#
# Compressibility (1/GPa) = 0.03826741
#
# Stress axis : x y z
#
# Youngs Moduli (GPa) = 21.87839 101.08096 77.13296
#
# Poissons Ratio (x) = 0.15680 0.73368
# Poissons Ratio (y) = 0.03394 0.31513
# Poissons Ratio (z) = 0.20810 0.41298
#
# Static dielectric constant tensor:
#      x y z
#    x 1.697140 0.000000 -0.008070 
#    y 0.000000 1.739350 0.000000 
#    z -0.008070 0.000000 1.770010 
# 
# From -- ./inp_files/7482.got.cif
#   From: 2010.05.17/outbox.cif.g08.bks.cpg/sg9_4_cif.got.tgz:7482.got - 2010.06.03 20:04:27.
