data_PCOD9135144
_publ_section_title
;
Structure prediction by ZEFSAII (Michael W. Deem and Ramdas Pophale) SiO2 
 PCOD9135144
Probable space group: C C
;
_chemical_formula_sum "Si O2"
_cell_formula_units_Z 32
_cell_length_a 21.367386
_cell_length_b 5.206315
_cell_length_c 13.844029
_cell_angle_alpha 90.000000
_cell_angle_beta 130.509566
_cell_angle_gamma 90.000000
_cell_volume 1170.921858
_symmetry_space_group_name_H-M "C C"
_symmetry_group_IT_number 9
_symmetry_cell_setting 'monoclinic'
loop_
_space_group_symop_operation_xyz
x,y,z
x,-y,1/2+z
1/2+x,1/2+y,z
1/2+x,1/2-y,1/2+z
loop_
_atom_site_type_symbol
_atom_site_label
_atom_site_fract_x
_atom_site_fract_y
_atom_site_fract_z
Si Si1 0.646000 0.628437 0.352950
Si Si2 0.110978 0.705538 0.024276
Si Si3 0.533949 0.205543 0.212275
Si Si4 0.784535 0.727856 0.034321
Si Si5 0.998928 0.871563 0.383601
Si Si6 0.440471 0.011390 0.946909
Si Si7 0.204457 0.511392 0.289641
Si Si8 0.360393 0.272143 0.702230
O O1 0.631570 0.803666 0.432262
O O2 0.563648 0.501673 0.227314
O O3 0.693639 0.391644 0.453829
O O4 0.707545 0.717593 0.328997
O O5 0.030787 0.557603 0.985337
O O6 0.186136 0.606132 0.164569
O O7 0.081279 0.001668 0.009237
O O8 0.513358 0.196337 0.304289
O O9 0.614141 0.057611 0.251213
O O10 0.458792 0.106135 0.071981
O O11 0.776408 0.842540 0.918042
O O12 0.838104 0.478392 0.116687
O O13 0.806824 0.978392 0.119864
O O14 0.937382 0.782409 0.407554
O O15 0.951289 0.108356 0.282722
O O16 0.368520 0.157458 0.818508
#
# Coordination Sequence:
#
# PCOD9135144 Si02
#       8
#     4   4   4   4   4   4   4   4
#     4  10  20  40  64  91 130 165 205 268 312 379
#     4   9  21  37  62  99 120 166 207 260 325 376
#     4   9  21  37  62  99 120 166 207 260 325 376
#     4  11  22  41  65  86 125 176 214 257 314 368
#     4  10  20  40  64  91 130 165 205 268 312 379
#     4  10  20  37  65  92 126 162 208 265 311 380
#     4  10  20  37  65  92 126 162 208 265 311 380
#     4  11  22  41  65  86 125 176 214 257 314 368
#
# _framework density 27.328894999999999
#
# number of rings (size 3 to 8) (size 9 to 14) (size 15 to 20)
#    0.000    2.000    2.500    0.750    0.000    8.000 
#    0.000    2.500    0.000    0.000    0.000    0.000 
#    0.000    0.000    0.000    0.000    0.000    0.000 
#
# Total GULP energy -89123.513213 kJ/mol
# GULP energy per Si atom -5570.219576 kJ/mol
# Density = 2.726669 g / cm^3
# Si number density = 27.328895 Si / 1000 Ang^3
#
#
#
# Elastic Constant Matrix: (Units=GPa)
#
#
# Indices 1 2 3 4 5 6 
#
# 1 42.6117 11.1868 27.1727 0.0000 -17.0193 0.0000
# 2 11.1868 132.5182 63.8896 0.0002 -11.4540 0.0002
# 3 27.1727 63.8896 190.4735 0.0000 -27.3664 0.0000
# 4 0.0000 0.0002 0.0000 38.9873 0.0000 20.2222
# 5 -17.0193 -11.4540 -27.3664 0.0000 47.1829 0.0000
# 6 0.0000 0.0002 0.0000 20.2222 0.0000 27.3676
#
#
#
# Elastic Compliance Matrix: (Units=1/GPa)
#
#
# Indices 1 2 3 4 5 6 
#
# 1 0.028784 -0.000359 -0.002735 0.000000 0.008710 0.000000
# 2 -0.000359 0.009016 -0.002921 0.000000 0.000365 0.000000
# 3 -0.002735 -0.002921 0.006956 0.000000 0.002339 0.000000
# 4 0.000000 0.000000 0.000000 0.041589 0.000000 -0.030731
# 5 0.008710 0.000365 0.002339 0.000000 0.025781 0.000000
# 6 0.000000 0.000000 0.000000 -0.030731 0.000000 0.059247
#
#
# Mechanical properties :
#
#
# Convention : Reuss Voigt Hill
#
# Bulk Modulus (GPa) = 30.55438 63.34464 46.94951
# Shear Modulus (GPa) = 25.73200 40.26450 32.99825
#
# Velocity S-wave (km/s) = 3.07183 3.84256 3.47861
# Velocity P-wave (km/s) = 4.87709 6.55103 5.77503
#
# Compressibility (1/GPa) = 0.03272853
#
# Stress axis : x y z
#
# Youngs Moduli (GPa) = 34.74108 110.91336 143.76304
#
# Poissons Ratio (x) = 0.03978 0.39315
# Poissons Ratio (y) = 0.01246 0.41987
# Poissons Ratio (z) = 0.09501 0.32393
#
# Static dielectric constant tensor:
#      x y z
#    x 2.268190 0.000000 -0.068130 
#    y 0.000000 3.220050 0.000000 
#    z -0.068130 0.000000 2.266350 
# 
# From -- ./inp_files/28169.got.cif
#   From: 2010.05.17/outbox.cif.g08.bks.cpg/sg9_15_cif.got.tgz:28169.got - 2010.06.03 20:04:27.
