data_PCOD9135864
_publ_section_title
;
Structure prediction by ZEFSAII (Michael W. Deem and Ramdas Pophale) SiO2 
 PCOD9135864
Probable space group: C C
;
_chemical_formula_sum "Si O2"
_cell_formula_units_Z 28
_cell_length_a 11.233731
_cell_length_b 20.772145
_cell_length_c 5.108056
_cell_angle_alpha 90.000000
_cell_angle_beta 102.024109
_cell_angle_gamma 90.000000
_cell_volume 1165.806644
_symmetry_space_group_name_H-M "C C"
_symmetry_group_IT_number 9
_symmetry_cell_setting 'monoclinic'
loop_
_space_group_symop_operation_xyz
x,y,z
x,-y,1/2+z
1/2+x,1/2+y,z
1/2+x,1/2-y,1/2+z
loop_
_atom_site_type_symbol
_atom_site_label
_atom_site_fract_x
_atom_site_fract_y
_atom_site_fract_z
Si Si1 0.599320 0.336049 0.089660
Si Si2 0.378650 0.041630 0.396926
Si Si3 0.184505 0.264798 0.269081
Si Si4 0.162475 0.460176 0.060488
Si Si5 0.582217 0.800726 0.720512
Si Si6 0.824273 0.661403 0.061232
Si Si7 0.918573 0.046017 0.526334
O O1 0.548356 0.275108 0.226356
O O2 0.732706 0.346006 0.278393
O O3 0.608353 0.300140 0.813788
O O4 0.518566 0.398499 0.070419
O O5 0.522693 0.058149 0.448236
O O6 0.307954 0.103495 0.259421
O O7 0.353780 0.014866 0.673860
O O8 0.297493 0.229912 0.186936
O O9 0.188936 0.300061 0.551295
O O10 0.123990 0.312608 0.034019
O O11 0.173037 0.523328 0.872391
O O12 0.283196 0.424463 0.013125
O O13 0.466555 0.837555 0.553909
O O14 0.931029 0.994872 0.767331
#
# Coordination Sequence:
#
# PCOD9135864 Si02
#       7
#     4   4   4   4   4   4   4
#     4   9  23  41  60  92 129 153 215 264 311 380
#     4  10  23  38  61  93 129 166 210 253 317 385
#     4   9  22  40  59  88 123 158 209 262 306 373
#     4   8  16  36  53  77 116 154 201 251 283 354
#     4   9  22  40  62  83 123 167 209 255 322 360
#     4  11  23  42  68  89 135 166 209 271 326 376
#     4  10  21  35  63  88 125 168 205 254 319 370
#
# _framework density 24.017703000000001
#
# number of rings (size 3 to 8) (size 9 to 14) (size 15 to 20)
#    0.857    1.714    0.000    0.000    8.000    1.143 
#    5.143    0.000    3.143    0.000    0.000    0.000 
#    0.000    0.000    0.000    0.000    0.000    0.000 
#
# Total GULP energy -78002.179104 kJ/mol
# GULP energy per Si atom -5571.584222 kJ/mol
# Density = 2.396304 g / cm^3
# Si number density = 24.017703 Si / 1000 Ang^3
#
#
#
# Elastic Constant Matrix: (Units=GPa)
#
#
# Indices 1 2 3 4 5 6 
#
# 1 31.5128 9.1247 28.7947 0.0000 -0.2996 0.0000
# 2 9.1247 67.5138 28.1631 0.0000 16.0778 0.0000
# 3 28.7947 28.1631 134.2958 0.0000 -8.7478 0.0000
# 4 0.0000 0.0000 0.0000 26.8405 0.0000 14.2146
# 5 -0.2996 16.0778 -8.7478 0.0000 26.9136 0.0000
# 6 0.0000 0.0000 0.0000 14.2146 0.0000 24.7397
#
#
#
# Elastic Compliance Matrix: (Units=1/GPa)
#
#
# Indices 1 2 3 4 5 6 
#
# 1 0.039742 -0.001620 -0.008265 0.000000 -0.001276 0.000000
# 2 -0.001620 0.020297 -0.004802 0.000000 -0.013704 0.000000
# 3 -0.008265 -0.004802 0.010631 0.000000 0.006232 0.000000
# 4 0.000000 0.000000 0.000000 0.053552 0.000000 -0.030769
# 5 -0.001276 -0.013704 0.006232 0.000000 0.047354 0.000000
# 6 0.000000 0.000000 0.000000 -0.030769 0.000000 0.058100
#
#
# Mechanical properties :
#
#
# Convention : Reuss Voigt Hill
#
# Bulk Modulus (GPa) = 24.21436 40.60969 32.41203
# Shear Modulus (GPa) = 18.32745 26.84810 22.58777
#
# Velocity S-wave (km/s) = 2.76539 3.34705 3.07002
# Velocity P-wave (km/s) = 4.50558 5.64641 5.10794
#
# Compressibility (1/GPa) = 0.04129781
#
# Stress axis : x y z
#
# Youngs Moduli (GPa) = 25.16248 49.26766 94.06257
#
# Poissons Ratio (x) = 0.07980 0.77739
# Poissons Ratio (y) = 0.04076 0.45168
# Poissons Ratio (z) = 0.20796 0.23658
#
# Static dielectric constant tensor:
#      x y z
#    x 1.926550 0.000000 -0.006150 
#    y 0.000000 1.966390 0.000000 
#    z -0.006150 0.000000 1.928790 
# 
# From -- ./inp_files/1984.got.cif
#   From: 2010.05.17/outbox.cif.g08.bks.cpg/sg9_1_cif.got.tgz:1984.got - 2010.06.03 20:04:27.
