data_PCOD9135696
_publ_section_title
;
Structure prediction by ZEFSAII (Michael W. Deem and Ramdas Pophale) SiO2 
 PCOD9135696
Probable space group: C C
;
_chemical_formula_sum "Si O2"
_cell_formula_units_Z 32
_cell_length_a 7.071280
_cell_length_b 11.641019
_cell_length_c 21.243855
_cell_angle_alpha 90.000000
_cell_angle_beta 46.454653
_cell_angle_gamma 90.000000
_cell_volume 1267.529650
_symmetry_space_group_name_H-M "C C"
_symmetry_group_IT_number 9
_symmetry_cell_setting 'monoclinic'
loop_
_space_group_symop_operation_xyz
x,y,z
x,-y,1/2+z
1/2+x,1/2+y,z
1/2+x,1/2-y,1/2+z
loop_
_atom_site_type_symbol
_atom_site_label
_atom_site_fract_x
_atom_site_fract_y
_atom_site_fract_z
Si Si1 0.620900 0.892626 0.835470
Si Si2 0.881764 0.179084 0.951338
Si Si3 0.293851 0.899448 0.187438
Si Si4 0.758552 0.765808 0.291207
Si Si5 0.536472 0.469797 0.846982
Si Si6 0.796798 0.401534 0.452841
Si Si7 0.905577 0.150988 0.139782
Si Si8 0.454270 0.847254 0.636149
O O1 0.499407 0.767323 0.874969
O O2 0.830454 0.924344 0.842227
O O3 0.780583 0.894679 0.733376
O O4 0.379775 0.978879 0.902735
O O5 0.092704 0.172296 0.958814
O O6 0.871966 0.047280 0.931484
O O7 0.603339 0.210813 0.044315
O O8 0.469789 0.787435 0.134944
O O9 0.014435 0.844838 0.233500
O O10 0.362986 0.022966 0.141445
O O11 0.247325 0.941455 0.269386
O O12 0.707726 0.637626 0.328835
O O13 0.561881 0.833675 0.380778
O O14 0.742635 0.733984 0.219532
O O15 0.658981 0.409589 0.551981
O O16 0.675665 0.138339 0.140246
#
# Coordination Sequence:
#
# PCOD9135696 Si02
#       8
#     4   4   4   4   4   4   4   4
#     4  12  25  45  70 106 147 186 234 287 359 428
#     4  11  25  45  71 105 138 186 241 289 351 426
#     4  10  20  42  70  99 140 185 233 289 356 412
#     4  10  21  41  69 103 139 183 231 291 355 408
#     4  11  23  41  69 105 137 190 227 287 354 418
#     4  11  25  45  70 103 141 187 235 301 351 417
#     4  10  24  45  67 103 143 186 241 296 351 421
#     4   9  23  42  72 104 139 193 236 294 351 418
#
# _framework density 25.245957000000001
#
# number of rings (size 3 to 8) (size 9 to 14) (size 15 to 20)
#    0.000    1.500    3.750    0.000    7.000    2.000 
#    6.750    0.000    0.000    0.000    0.000    0.000 
#    0.000    0.000    0.000    0.000    0.000    0.000 
#
# Total GULP energy -89243.331756 kJ/mol
# GULP energy per Si atom -5577.708235 kJ/mol
# Density = 2.518850 g / cm^3
# Si number density = 25.245957 Si / 1000 Ang^3
#
#
#
# Elastic Constant Matrix: (Units=GPa)
#
#
# Indices 1 2 3 4 5 6 
#
# 1 67.1867 18.3079 20.4510 -0.0002 -0.3308 -0.0001
# 2 18.3079 151.4850 56.5180 -0.0001 -0.4430 -0.0003
# 3 20.4510 56.5180 205.9992 -0.0006 -3.1417 0.0014
# 4 -0.0002 -0.0001 -0.0006 32.1974 0.0003 -7.3276
# 5 -0.3308 -0.4430 -3.1417 0.0003 23.6076 -0.0004
# 6 -0.0001 -0.0003 0.0014 -7.3276 -0.0004 34.4513
#
#
#
# Elastic Compliance Matrix: (Units=1/GPa)
#
#
# Indices 1 2 3 4 5 6 
#
# 1 0.015632 -0.001460 -0.001151 0.000000 0.000038 0.000000
# 2 -0.001460 0.007491 -0.001912 0.000000 -0.000134 0.000000
# 3 -0.001151 -0.001912 0.005504 0.000000 0.000680 0.000000
# 4 0.000000 0.000000 0.000000 0.032638 0.000000 0.006942
# 5 0.000038 -0.000134 0.000680 0.000000 0.042448 0.000000
# 6 0.000000 0.000000 0.000000 0.006942 0.000000 0.030503
#
#
# Mechanical properties :
#
#
# Convention : Reuss Voigt Hill
#
# Bulk Modulus (GPa) = 51.07033 68.35833 59.71433
# Shear Modulus (GPa) = 33.38038 40.01085 36.69562
#
# Velocity S-wave (km/s) = 3.64016 3.98533 3.81665
# Velocity P-wave (km/s) = 6.15960 6.95074 6.56710
#
# Compressibility (1/GPa) = 0.01958084
#
# Stress axis : x y z
#
# Youngs Moduli (GPa) = 63.97066 133.49687 181.69664
#
# Poissons Ratio (x) = 0.19487 0.20910
# Poissons Ratio (y) = 0.09338 0.34746
# Poissons Ratio (z) = 0.07362 0.25529
#
# Static dielectric constant tensor:
#      x y z
#    x 2.153420 0.000000 -0.004770 
#    y 0.000000 2.018090 0.000000 
#    z -0.004770 0.000000 2.028350 
# 
# From -- ./inp_files/35008.got.cif
#   From: 2010.05.17/outbox.cif.g08.bks.cpg/sg9_18_cif.got.tgz:35008.got - 2010.06.03 20:04:27.
