data_PCOD9135626
_publ_section_title
;
Structure prediction by ZEFSAII (Michael W. Deem and Ramdas Pophale) SiO2 
 PCOD9135626
Probable space group: C C
;
_chemical_formula_sum "Si O2"
_cell_formula_units_Z 28
_cell_length_a 21.496335
_cell_length_b 7.518026
_cell_length_c 9.983508
_cell_angle_alpha 90.000000
_cell_angle_beta 131.149722
_cell_angle_gamma 90.000000
_cell_volume 1214.904500
_symmetry_space_group_name_H-M "C C"
_symmetry_group_IT_number 9
_symmetry_cell_setting 'monoclinic'
loop_
_space_group_symop_operation_xyz
x,y,z
x,-y,1/2+z
1/2+x,1/2+y,z
1/2+x,1/2-y,1/2+z
loop_
_atom_site_type_symbol
_atom_site_label
_atom_site_fract_x
_atom_site_fract_y
_atom_site_fract_z
Si Si1 0.665360 0.612067 0.209430
Si Si2 0.833076 0.459315 0.523511
Si Si3 0.566064 0.536116 0.322622
Si Si4 0.554886 0.091368 0.492558
Si Si5 0.500805 0.837827 0.636094
Si Si6 0.884951 0.822820 0.294566
Si Si7 0.397201 0.666526 0.122578
O O1 0.752772 0.515670 0.327832
O O2 0.636219 0.587992 0.319759
O O3 0.605949 0.518038 0.018393
O O4 0.642925 0.818192 0.149870
O O5 0.905454 0.385476 0.529169
O O6 0.865389 0.854817 0.423251
O O7 0.825676 0.315351 0.631687
O O8 0.495393 0.678419 0.243816
O O9 0.518502 0.369412 0.185053
O O10 0.549724 0.069489 0.327174
O O11 0.476495 0.227134 0.414740
O O12 0.535672 0.918466 0.550610
O O13 0.363291 0.852812 0.126712
O O14 0.883480 0.003406 0.204945
#
# Coordination Sequence:
#
# PCOD9135626 Si02
#       7
#     4   4   4   4   4   4   4
#     4  11  24  41  64  98 140 167 224 286 348 389
#     4  11  25  42  69 102 136 175 225 292 345 398
#     4  11  22  44  68  98 130 186 221 276 337 415
#     4  10  20  42  63  99 128 179 228 273 338 408
#     4  10  21  40  70  94 133 174 237 265 329 423
#     4  11  24  43  70 104 131 186 234 279 338 423
#     4  12  22  46  74  97 138 181 239 277 335 428
#
# _framework density 23.047077999999999
#
# number of rings (size 3 to 8) (size 9 to 14) (size 15 to 20)
#    0.000    1.143    7.143    0.000    2.000    6.857 
#    2.571    0.000    0.000    0.000    0.000    0.000 
#    0.000    0.000    0.000    0.000    0.000    0.000 
#
# Total GULP energy -78237.424018 kJ/mol
# GULP energy per Si atom -5588.387430 kJ/mol
# Density = 2.299462 g / cm^3
# Si number density = 23.047078 Si / 1000 Ang^3
#
#
#
# Elastic Constant Matrix: (Units=GPa)
#
#
# Indices 1 2 3 4 5 6 
#
# 1 25.4600 -3.5926 27.2588 0.0000 -0.2436 0.0000
# 2 -3.5926 92.9229 21.3691 0.0000 1.7795 0.0000
# 3 27.2588 21.3691 86.8104 0.0000 -2.9696 0.0000
# 4 0.0000 0.0000 0.0000 37.2088 0.0000 -2.4566
# 5 -0.2436 1.7795 -2.9696 0.0000 54.4908 0.0000
# 6 0.0000 0.0000 0.0000 -2.4566 0.0000 21.2810
#
#
#
# Elastic Compliance Matrix: (Units=1/GPa)
#
#
# Indices 1 2 3 4 5 6 
#
# 1 0.063808 0.007532 -0.021930 0.000000 -0.001156 0.000000
# 2 0.007532 0.012312 -0.005418 0.000000 -0.000664 0.000000
# 3 -0.021930 -0.005418 0.019779 0.000000 0.001157 0.000000
# 4 0.000000 0.000000 0.000000 0.027082 0.000000 0.003126
# 5 -0.001156 -0.000664 0.001157 0.000000 0.018431 0.000000
# 6 0.000000 0.000000 0.000000 0.003126 0.000000 0.047351
#
#
# Mechanical properties :
#
#
# Convention : Reuss Voigt Hill
#
# Bulk Modulus (GPa) = 17.77252 32.80708 25.28980
# Shear Modulus (GPa) = 20.23064 33.27331 26.75198
#
# Velocity S-wave (km/s) = 2.96598 3.80374 3.41068
# Velocity P-wave (km/s) = 4.41107 5.79284 5.14852
#
# Compressibility (1/GPa) = 0.05626665
#
# Stress axis : x y z
#
# Youngs Moduli (GPa) = 15.67198 81.22435 50.55944
#
# Poissons Ratio (x) = -0.61179 1.10875
# Poissons Ratio (y) = -0.11804 0.27395
# Poissons Ratio (z) = 0.34368 0.44011
#
# Static dielectric constant tensor:
#      x y z
#    x 1.874100 0.000000 0.010530 
#    y 0.000000 1.890320 0.000000 
#    z 0.010530 0.000000 1.884280 
# 
# From -- ./inp_files/12039.got.cif
#   From: 2010.05.17/outbox.cif.g08.bks.cpg/sg9_7_cif.got.tgz:12039.got - 2010.06.03 20:04:27.
