data_PCOD9135829
_publ_section_title
;
Structure prediction by ZEFSAII (Michael W. Deem and Ramdas Pophale) SiO2 
 PCOD9135829
Probable space group: C C
;
_chemical_formula_sum "Si O2"
_cell_formula_units_Z 32
_cell_length_a 17.288708
_cell_length_b 5.747848
_cell_length_c 14.518482
_cell_angle_alpha 90.000000
_cell_angle_beta 72.132087
_cell_angle_gamma 90.000000
_cell_volume 1373.154439
_symmetry_space_group_name_H-M "C C"
_symmetry_group_IT_number 9
_symmetry_cell_setting 'monoclinic'
loop_
_space_group_symop_operation_xyz
x,y,z
x,-y,1/2+z
1/2+x,1/2+y,z
1/2+x,1/2-y,1/2+z
loop_
_atom_site_type_symbol
_atom_site_label
_atom_site_fract_x
_atom_site_fract_y
_atom_site_fract_z
Si Si1 0.082420 0.662974 0.027640
Si Si2 0.585810 0.181828 0.679610
Si Si3 0.218914 0.948959 0.079894
Si Si4 0.420426 0.660291 0.651046
Si Si5 0.338331 0.155939 0.687382
Si Si6 0.361590 0.863210 0.398823
Si Si7 0.465102 0.475475 0.329889
Si Si8 0.041619 0.426647 0.862288
O O1 0.058952 0.434504 0.095107
O O2 0.162282 0.774437 0.042244
O O3 0.007709 0.836152 0.070568
O O4 0.086607 0.571884 0.923144
O O5 0.664092 0.334385 0.632356
O O6 0.517205 0.337541 0.752957
O O7 0.590203 0.972340 0.750650
O O8 0.256211 0.838235 0.158300
O O9 0.290159 0.038671 0.986840
O O10 0.379880 0.407346 0.651342
O O11 0.433381 0.680431 0.757005
O O12 0.377252 0.905695 0.641410
O O13 0.336590 0.137127 0.799678
O O14 0.389289 0.595835 0.406838
O O15 0.446755 0.991895 0.392079
O O16 0.527549 0.347754 0.374189
#
# Coordination Sequence:
#
# PCOD9135829 Si02
#       8
#     4   4   4   4   4   4   4   4
#     4  12  26  45  76 113 151 202 260 324 388 472
#     4  11  24  47  72 106 155 202 254 315 397 461
#     4  12  28  47  68 116 161 199 250 326 406 464
#     4  11  21  49  79 109 140 207 263 313 376 466
#     4  11  26  48  80 105 158 205 259 320 390 463
#     4  10  24  46  71 112 145 205 259 317 385 470
#     4  10  20  46  78 101 147 193 266 315 374 461
#     4  11  23  46  78 108 145 203 267 320 378 463
#
# _framework density 23.304005
#
# number of rings (size 3 to 8) (size 9 to 14) (size 15 to 20)
#    0.000    1.000    3.750    2.250    3.500    3.000 
#   11.250    0.000    0.000    0.000    0.000    0.000 
#    0.000    0.000    0.000    0.000    0.000    0.000 
#
# Total GULP energy -89358.054067 kJ/mol
# GULP energy per Si atom -5584.878379 kJ/mol
# Density = 2.325096 g / cm^3
# Si number density = 23.304005 Si / 1000 Ang^3
#
#
#
# Elastic Constant Matrix: (Units=GPa)
#
#
# Indices 1 2 3 4 5 6 
#
# 1 105.2312 47.6659 43.6908 0.0000 0.9930 0.0000
# 2 47.6659 114.7057 18.7448 0.0000 -1.4260 0.0000
# 3 43.6908 18.7448 46.7964 0.0000 6.1581 0.0000
# 4 0.0000 0.0000 0.0000 21.0623 0.0000 -2.0608
# 5 0.9930 -1.4260 6.1581 0.0000 28.2891 0.0000
# 6 0.0000 0.0000 0.0000 -2.0608 0.0000 38.1942
#
#
#
# Elastic Compliance Matrix: (Units=1/GPa)
#
#
# Indices 1 2 3 4 5 6 
#
# 1 0.018031 -0.004986 -0.015155 0.000000 0.002415 0.000000
# 2 -0.004986 0.010756 0.000260 0.000000 0.000661 0.000000
# 3 -0.015155 0.000260 0.036384 0.000000 -0.007375 0.000000
# 4 0.000000 0.000000 0.000000 0.047730 0.000000 0.002575
# 5 0.002415 0.000661 -0.007375 0.000000 0.036903 0.000000
# 6 0.000000 0.000000 0.000000 0.002575 0.000000 0.026321
#
#
# Mechanical properties :
#
#
# Convention : Reuss Voigt Hill
#
# Bulk Modulus (GPa) = 39.35562 54.10402 46.72982
# Shear Modulus (GPa) = 22.28597 27.95123 25.11860
#
# Velocity S-wave (km/s) = 3.09579 3.46702 3.28665
# Velocity P-wave (km/s) = 5.45006 6.26849 5.87355
#
# Compressibility (1/GPa) = 0.02540933
#
# Stress axis : x y z
#
# Youngs Moduli (GPa) = 55.46114 92.97438 27.48428
#
# Poissons Ratio (x) = 0.46358 0.41651
# Poissons Ratio (y) = 0.27653 -0.00715
# Poissons Ratio (z) = 0.84049 -0.02417
#
# Static dielectric constant tensor:
#      x y z
#    x 1.905680 0.000000 0.040190 
#    y 0.000000 2.067820 0.000000 
#    z 0.040190 0.000000 1.859960 
# 
# From -- ./inp_files/26458.got.cif
#   From: 2010.05.17/outbox.cif.g08.bks.cpg/sg9_14_cif.got.tgz:26458.got - 2010.06.03 20:04:27.
