data_PCOD9135786
_publ_section_title
;
Structure prediction by ZEFSAII (Michael W. Deem and Ramdas Pophale) SiO2 
 PCOD9135786
Probable space group: C C
;
_chemical_formula_sum "Si O2"
_cell_formula_units_Z 28
_cell_length_a 17.794637
_cell_length_b 7.591719
_cell_length_c 13.997369
_cell_angle_alpha 90.000000
_cell_angle_beta 142.289890
_cell_angle_gamma 90.000000
_cell_volume 1156.619387
_symmetry_space_group_name_H-M "C C"
_symmetry_group_IT_number 9
_symmetry_cell_setting 'monoclinic'
loop_
_space_group_symop_operation_xyz
x,y,z
x,-y,1/2+z
1/2+x,1/2+y,z
1/2+x,1/2-y,1/2+z
loop_
_atom_site_type_symbol
_atom_site_label
_atom_site_fract_x
_atom_site_fract_y
_atom_site_fract_z
Si Si1 0.533960 0.776197 0.263050
Si Si2 0.989909 0.883192 0.073186
Si Si3 0.975012 0.214802 0.954740
Si Si4 0.798798 0.912537 0.479781
Si Si5 0.605132 0.619252 0.887321
Si Si6 0.024738 0.588234 0.955538
Si Si7 0.267345 0.405005 0.138573
O O1 0.653670 0.867122 0.332811
O O2 0.595003 0.592378 0.364757
O O3 0.485136 0.884398 0.305889
O O4 0.407068 0.735886 0.077215
O O5 0.998968 0.756891 0.992905
O O6 0.043739 0.071786 0.089240
O O7 0.851878 0.926748 0.970089
O O8 0.060388 0.816960 0.238024
O O9 0.835879 0.156650 0.801696
O O10 0.021710 0.178885 0.892769
O O11 0.976960 0.421741 0.966516
O O12 0.825595 0.974986 0.615425
O O13 0.725498 0.728102 0.039657
O O14 0.163949 0.532715 0.076621
#
# Coordination Sequence:
#
# PCOD9135786 Si02
#       7
#     4   4   4   4   4   4   4
#     4  10  20  44  71 102 139 202 244 315 384 450
#     4  11  22  47  68 104 149 193 253 310 382 459
#     4  11  22  46  69 104 144 190 256 312 374 459
#     4  10  22  42  71 105 144 189 256 310 377 460
#     4  10  22  43  71  99 153 191 249 315 380 450
#     4  10  23  41  71  98 142 198 242 307 384 452
#     4  10  21  43  69 104 141 197 244 313 377 454
#
# _framework density 24.208483000000001
#
# number of rings (size 3 to 8) (size 9 to 14) (size 15 to 20)
#    0.000    1.714    4.286    0.000    2.000    1.143 
#   28.286    0.000    0.000    0.000    0.000    0.000 
#    0.000    0.000    0.000    0.000    0.000    0.000 
#
# Total GULP energy -77953.380639 kJ/mol
# GULP energy per Si atom -5568.098617 kJ/mol
# Density = 2.415338 g / cm^3
# Si number density = 24.208483 Si / 1000 Ang^3
#
#
#
# Elastic Constant Matrix: (Units=GPa)
#
#
# Indices 1 2 3 4 5 6 
#
# 1 79.0258 33.7517 15.7730 0.0000 -5.7455 0.0000
# 2 33.7517 88.0481 5.8670 0.0000 4.3880 0.0000
# 3 15.7730 5.8670 75.6413 0.0000 -18.7023 0.0000
# 4 0.0000 0.0000 0.0000 21.9982 0.0000 -2.3620
# 5 -5.7455 4.3880 -18.7023 0.0000 19.9345 0.0000
# 6 0.0000 0.0000 0.0000 -2.3620 0.0000 47.0526
#
#
#
# Elastic Compliance Matrix: (Units=1/GPa)
#
#
# Indices 1 2 3 4 5 6 
#
# 1 0.015980 -0.006221 -0.001787 0.000000 0.004299 0.000000
# 2 -0.006221 0.014136 -0.001318 0.000000 -0.006141 0.000000
# 3 -0.001787 -0.001318 0.017759 0.000000 0.016436 0.000000
# 4 0.000000 0.000000 0.000000 0.045705 0.000000 0.002294
# 5 0.004299 -0.006141 0.016436 0.000000 0.068176 0.000000
# 6 0.000000 0.000000 0.000000 0.002294 0.000000 0.021368
#
#
# Mechanical properties :
#
#
# Convention : Reuss Voigt Hill
#
# Bulk Modulus (GPa) = 34.21782 39.27761 36.74771
# Shear Modulus (GPa) = 23.63894 30.28529 26.96212
#
# Velocity S-wave (km/s) = 3.12825 3.54081 3.34090
# Velocity P-wave (km/s) = 5.21663 5.74251 5.48588
#
# Compressibility (1/GPa) = 0.02922454
#
# Stress axis : x y z
#
# Youngs Moduli (GPa) = 62.57742 70.74175 56.30959
#
# Poissons Ratio (x) = 0.44008 0.10062
# Poissons Ratio (y) = 0.38929 0.07419
# Poissons Ratio (z) = 0.11182 0.09320
#
# Static dielectric constant tensor:
#      x y z
#    x 2.126590 0.000000 0.037430 
#    y 0.000000 2.045150 0.000000 
#    z 0.037430 0.000000 2.080710 
# 
# From -- ./inp_files/26736.got.cif
#   From: 2010.05.17/outbox.cif.g08.bks.cpg/sg9_14_cif.got.tgz:26736.got - 2010.06.03 20:04:27.
