data_PCOD9135466
_publ_section_title
;
Structure prediction by ZEFSAII (Michael W. Deem and Ramdas Pophale) SiO2 
 PCOD9135466
Probable space group: C C
;
_chemical_formula_sum "Si O2"
_cell_formula_units_Z 28
_cell_length_a 13.687932
_cell_length_b 8.987062
_cell_length_c 9.911474
_cell_angle_alpha 90.000000
_cell_angle_beta 61.927954
_cell_angle_gamma 90.000000
_cell_volume 1075.815861
_symmetry_space_group_name_H-M "C C"
_symmetry_group_IT_number 9
_symmetry_cell_setting 'monoclinic'
loop_
_space_group_symop_operation_xyz
x,y,z
x,-y,1/2+z
1/2+x,1/2+y,z
1/2+x,1/2-y,1/2+z
loop_
_atom_site_type_symbol
_atom_site_label
_atom_site_fract_x
_atom_site_fract_y
_atom_site_fract_z
Si Si1 0.107990 0.780955 0.913240
Si Si2 0.214920 0.232407 0.825596
Si Si3 0.316518 0.566925 0.771033
Si Si4 0.558506 0.860483 0.717487
Si Si5 0.953870 0.981424 0.449855
Si Si6 0.108925 0.341929 0.129043
Si Si7 0.918030 0.354481 0.047784
O O1 0.231055 0.706021 0.848996
O O2 0.065524 0.720859 0.797098
O O3 0.074506 0.953224 0.913110
O O4 0.044489 0.716617 0.083874
O O5 0.253700 0.407345 0.816822
O O6 0.117921 0.244391 0.778727
O O7 0.303959 0.124093 0.700389
O O8 0.176509 0.216340 0.005550
O O9 0.371423 0.588701 0.588397
O O10 0.411507 0.542480 0.824305
O O11 0.648165 0.993413 0.643908
O O12 0.451139 0.908435 0.876204
O O13 0.927030 0.823644 0.533790
O O14 0.014374 0.396241 0.087558
#
# Coordination Sequence:
#
# PCOD9135466 Si02
#       7
#     4   4   4   4   4   4   4
#     4  12  21  35  66 101 135 174 243 300 341 430
#     4  10  20  40  66  91 128 184 219 273 362 423
#     4  11  20  39  63  97 131 175 236 287 347 435
#     4  11  21  39  67  98 132 174 234 287 349 421
#     4  11  24  39  64 101 132 187 237 286 362 438
#     4  11  21  39  66  99 132 175 237 283 349 431
#     4  10  23  41  66  93 138 179 222 288 356 428
#
# _framework density 26.026759999999999
#
# number of rings (size 3 to 8) (size 9 to 14) (size 15 to 20)
#    0.000    1.143    2.857    6.000    0.000    0.000 
#    0.000    0.000   31.429    0.000    0.000    0.000 
#    0.000    0.000    0.000    0.000    0.000    0.000 
#
# Total GULP energy -78006.806141 kJ/mol
# GULP energy per Si atom -5571.914724 kJ/mol
# Density = 2.596752 g / cm^3
# Si number density = 26.026760 Si / 1000 Ang^3
#
#
#
# Elastic Constant Matrix: (Units=GPa)
#
#
# Indices 1 2 3 4 5 6 
#
# 1 75.8584 -0.8396 45.0438 0.0000 0.6942 0.0000
# 2 -0.8396 48.7331 20.5488 0.0000 14.9633 0.0000
# 3 45.0438 20.5488 234.2381 0.0000 12.8730 0.0000
# 4 0.0000 0.0000 0.0000 36.2569 0.0000 0.6606
# 5 0.6942 14.9633 12.8730 0.0000 44.1614 0.0000
# 6 0.0000 0.0000 0.0000 0.6606 0.0000 39.8133
#
#
#
# Elastic Compliance Matrix: (Units=1/GPa)
#
#
# Indices 1 2 3 4 5 6 
#
# 1 0.014992 0.001489 -0.003021 0.000000 0.000140 0.000000
# 2 0.001489 0.023663 -0.001952 0.000000 -0.007472 0.000000
# 3 -0.003021 -0.001952 0.005064 0.000000 -0.000767 0.000000
# 4 0.000000 0.000000 0.000000 0.027589 0.000000 -0.000458
# 5 0.000140 -0.007472 -0.000767 0.000000 0.025397 0.000000
# 6 0.000000 0.000000 0.000000 -0.000458 0.000000 0.025125
#
#
# Mechanical properties :
#
#
# Convention : Reuss Voigt Hill
#
# Bulk Modulus (GPa) = 27.21049 54.25951 40.73500
# Shear Modulus (GPa) = 35.44914 43.65141 39.55027
#
# Velocity S-wave (km/s) = 3.69457 4.09977 3.90243
# Velocity P-wave (km/s) = 5.35512 6.58056 5.99921
#
# Compressibility (1/GPa) = 0.03675054
#
# Stress axis : x y z
#
# Youngs Moduli (GPa) = 66.70396 42.26040 197.49158
#
# Poissons Ratio (x) = -0.06293 0.59667
# Poissons Ratio (y) = -0.09933 0.38541
# Poissons Ratio (z) = 0.20153 0.08247
#
# Static dielectric constant tensor:
#      x y z
#    x 2.205490 0.000000 -0.071150 
#    y 0.000000 2.205420 0.000000 
#    z -0.071150 0.000000 2.191730 
# 
# From -- ./inp_files/9048.got.cif
#   From: 2010.05.17/outbox.cif.g08.bks.cpg/sg9_5_cif.got.tgz:9048.got - 2010.06.03 20:04:27.
