data_PCOD9135955
_publ_section_title
;
Structure prediction by ZEFSAII (Michael W. Deem and Ramdas Pophale) SiO2 
 PCOD9135955
Probable space group: C C
;
_chemical_formula_sum "Si O2"
_cell_formula_units_Z 24
_cell_length_a 30.602593
_cell_length_b 5.410493
_cell_length_c 9.007534
_cell_angle_alpha 90.000000
_cell_angle_beta 142.154054
_cell_angle_gamma 90.000000
_cell_volume 915.048691
_symmetry_space_group_name_H-M "C C"
_symmetry_group_IT_number 9
_symmetry_cell_setting 'monoclinic'
loop_
_space_group_symop_operation_xyz
x,y,z
x,-y,1/2+z
1/2+x,1/2+y,z
1/2+x,1/2-y,1/2+z
loop_
_atom_site_type_symbol
_atom_site_label
_atom_site_fract_x
_atom_site_fract_y
_atom_site_fract_z
Si Si1 0.130550 0.621471 0.884850
Si Si2 0.511611 0.546721 0.382181
Si Si3 0.611470 0.366357 0.419489
Si Si4 0.309277 0.169723 0.012023
Si Si5 0.465652 0.811547 0.981236
Si Si6 0.761268 0.817498 0.547404
O O1 0.158552 0.371943 0.030791
O O2 0.044363 0.595723 0.643877
O O3 0.140880 0.858712 0.016602
O O4 0.177801 0.661878 0.869145
O O5 0.545123 0.352131 0.354316
O O6 0.577999 0.617213 0.663048
O O7 0.476568 0.748381 0.183133
O O8 0.458368 0.431165 0.357140
O O9 0.390635 0.069570 0.252635
O O10 0.292211 0.421809 0.063809
O O11 0.269735 0.925315 0.967839
O O12 0.295354 0.244708 0.802168
#
# Coordination Sequence:
#
# PCOD9135955 Si02
#       6
#     4   4   4   4   4   4
#     4  10  24  42  69  97 130 175 228 281 334 407
#     4   8  19  37  62  99 131 164 217 284 340 393
#     4  10  21  37  62  99 131 164 217 284 340 393
#     4  12  28  49  72 104 146 189 232 289 358 422
#     4  10  22  40  69  97 130 175 228 281 334 407
#     4  12  28  49  72 104 146 189 232 289 358 422
#
# _framework density 26.228110999999998
#
# number of rings (size 3 to 8) (size 9 to 14) (size 15 to 20)
#    0.000    2.000    0.000    3.000    0.000   22.667 
#    0.000    0.000    0.000    0.000    0.000    0.000 
#    0.000    0.000    0.000    0.000    0.000    0.000 
#
# Total GULP energy -66957.020351 kJ/mol
# GULP energy per Si atom -5579.751696 kJ/mol
# Density = 2.616841 g / cm^3
# Si number density = 26.228111 Si / 1000 Ang^3
#
#
#
# Elastic Constant Matrix: (Units=GPa)
#
#
# Indices 1 2 3 4 5 6 
#
# 1 99.8551 47.0463 58.8893 0.0000 -1.1738 0.0000
# 2 47.0463 187.7662 20.5248 0.0000 0.0704 0.0000
# 3 58.8893 20.5248 126.5093 0.0000 -2.7894 0.0000
# 4 0.0000 0.0000 0.0000 15.5112 0.0000 -2.1889
# 5 -1.1738 0.0704 -2.7894 0.0000 61.5916 0.0000
# 6 0.0000 0.0000 0.0000 -2.1889 0.0000 43.4243
#
#
#
# Elastic Compliance Matrix: (Units=1/GPa)
#
#
# Indices 1 2 3 4 5 6 
#
# 1 0.015427 -0.003136 -0.006673 0.000000 -0.000005 0.000000
# 2 -0.003136 0.006060 0.000476 0.000000 -0.000045 0.000000
# 3 -0.006673 0.000476 0.010942 0.000000 0.000368 0.000000
# 4 0.000000 0.000000 0.000000 0.064931 0.000000 0.003273
# 5 -0.000005 -0.000045 0.000368 0.000000 0.016253 0.000000
# 6 0.000000 0.000000 0.000000 0.003273 0.000000 0.023194
#
#
# Mechanical properties :
#
#
# Convention : Reuss Voigt Hill
#
# Bulk Modulus (GPa) = 72.66139 74.11683 73.38911
# Shear Modulus (GPa) = 31.23853 43.28344 37.26099
#
# Velocity S-wave (km/s) = 3.45488 4.06676 3.77324
# Velocity P-wave (km/s) = 6.60899 7.09727 6.85748
#
# Compressibility (1/GPa) = 0.01376247
#
# Stress axis : x y z
#
# Youngs Moduli (GPa) = 64.82116 165.02909 91.39508
#
# Poissons Ratio (x) = 0.51753 0.60984
# Poissons Ratio (y) = 0.20328 -0.04348
# Poissons Ratio (z) = 0.43252 -0.07850
#
# Static dielectric constant tensor:
#      x y z
#    x 2.027040 0.000000 0.027320 
#    y 0.000000 2.177560 0.000000 
#    z 0.027320 0.000000 2.233780 
# 
# From -- ./inp_files/12320.got.cif
#   From: 2010.05.17/outbox.cif.g08.bks.cpg/sg9_7_cif.got.tgz:12320.got - 2010.06.03 20:04:27.
