data_PCOD9135017
_publ_section_title
;
Structure prediction by ZEFSAII (Michael W. Deem and Ramdas Pophale) SiO2 
 PCOD9135017
Probable space group: C C
;
_chemical_formula_sum "Si O2"
_cell_formula_units_Z 32
_cell_length_a 9.054869
_cell_length_b 17.918114
_cell_length_c 8.361429
_cell_angle_alpha 90.000000
_cell_angle_beta 77.781022
_cell_angle_gamma 90.000000
_cell_volume 1325.877021
_symmetry_space_group_name_H-M "C C"
_symmetry_group_IT_number 9
_symmetry_cell_setting 'monoclinic'
loop_
_space_group_symop_operation_xyz
x,y,z
x,-y,1/2+z
1/2+x,1/2+y,z
1/2+x,1/2-y,1/2+z
loop_
_atom_site_type_symbol
_atom_site_label
_atom_site_fract_x
_atom_site_fract_y
_atom_site_fract_z
Si Si1 0.848570 0.489072 0.613050
Si Si2 0.061705 0.725385 0.224433
Si Si3 0.408477 0.613609 0.756149
Si Si4 0.308423 0.778930 0.376083
Si Si5 0.065650 0.380157 0.415377
Si Si6 0.075311 0.897681 0.545671
Si Si7 0.830027 0.618673 0.421013
Si Si8 0.994016 0.864012 0.911897
O O1 0.706923 0.455564 0.550446
O O2 0.828492 0.576775 0.591006
O O3 0.846844 0.447593 0.783814
O O4 0.998435 0.458055 0.493051
O O5 0.229006 0.750261 0.234530
O O6 0.965991 0.800857 0.235346
O O7 0.970199 0.673994 0.370815
O O8 0.070860 0.674997 0.066110
O O9 0.229809 0.609698 0.808516
O O10 0.455857 0.582714 0.571009
O O11 0.486001 0.585789 0.902655
O O12 0.443921 0.837907 0.333395
O O13 0.170423 0.819766 0.501539
O O14 0.380468 0.705801 0.438874
O O15 0.984189 0.894373 0.733102
O O16 0.670660 0.656090 0.406767
#
# Coordination Sequence:
#
# PCOD9135017 Si02
#       8
#     4   4   4   4   4   4   4   4
#     4   9  21  42  66  83 122 166 213 265 310 360
#     4  10  21  38  62  94 127 165 203 261 318 375
#     4  11  22  37  67  94 127 166 201 251 332 382
#     4  10  20  36  61  91 126 164 197 255 327 368
#     4  10  20  39  60  88 130 161 204 262 309 376
#     4   9  22  41  59  93 127 163 208 262 308 375
#     4  10  22  42  65  89 123 166 216 266 308 376
#     4  11  22  37  62  92 128 161 206 258 316 378
#
# _framework density 24.134969000000002
#
# number of rings (size 3 to 8) (size 9 to 14) (size 15 to 20)
#    0.000    2.000    1.250    2.250    3.500    0.000 
#    4.500    1.250    2.750    0.000    0.000    0.000 
#    0.000    0.000    0.000    0.000    0.000    0.000 
#
# Total GULP energy -89426.642841 kJ/mol
# GULP energy per Si atom -5589.165178 kJ/mol
# Density = 2.408004 g / cm^3
# Si number density = 24.134969 Si / 1000 Ang^3
#
#
#
# Elastic Constant Matrix: (Units=GPa)
#
#
# Indices 1 2 3 4 5 6 
#
# 1 112.1025 3.2166 59.2651 0.0000 8.2322 0.0000
# 2 3.2166 45.7532 26.5283 0.0000 14.6982 0.0000
# 3 59.2651 26.5283 136.6064 0.0000 12.3169 0.0000
# 4 0.0000 0.0000 0.0000 29.4759 0.0000 12.9490
# 5 8.2322 14.6982 12.3169 0.0000 36.3289 0.0000
# 6 0.0000 0.0000 0.0000 12.9490 0.0000 32.6953
#
#
#
# Elastic Compliance Matrix: (Units=1/GPa)
#
#
# Indices 1 2 3 4 5 6 
#
# 1 0.011937 0.003059 -0.005588 0.000000 -0.002048 0.000000
# 2 0.003059 0.028331 -0.005914 0.000000 -0.010151 0.000000
# 3 -0.005588 -0.005914 0.010896 0.000000 -0.000035 0.000000
# 4 0.000000 0.000000 0.000000 0.041072 0.000000 -0.016267
# 5 -0.002048 -0.010151 -0.000035 0.000000 0.032109 0.000000
# 6 0.000000 0.000000 0.000000 -0.016267 0.000000 0.037028
#
#
# Mechanical properties :
#
#
# Convention : Reuss Voigt Hill
#
# Bulk Modulus (GPa) = 29.17272 52.49803 40.83537
# Shear Modulus (GPa) = 26.35939 33.39683 29.87811
#
# Velocity S-wave (km/s) = 3.30838 3.72392 3.52228
# Velocity P-wave (km/s) = 5.16792 6.34737 5.78777
#
# Compressibility (1/GPa) = 0.03427860
#
# Stress axis : x y z
#
# Youngs Moduli (GPa) = 83.77056 35.29707 91.77444
#
# Poissons Ratio (x) = -0.10797 0.51286
# Poissons Ratio (y) = -0.25624 0.54271
# Poissons Ratio (z) = 0.46813 0.20873
#
# Static dielectric constant tensor:
#      x y z
#    x 1.882090 0.000000 0.005210 
#    y 0.000000 1.941460 0.000000 
#    z 0.005210 0.000000 2.058590 
# 
# From -- ./inp_files/5738.got.cif
#   From: 2010.05.17/outbox.cif.g08.bks.cpg/sg9_3_cif.got.tgz:5738.got - 2010.06.03 20:04:27.
