data_PCOD9135969
_publ_section_title
;
Structure prediction by ZEFSAII (Michael W. Deem and Ramdas Pophale) SiO2 
 PCOD9135969
Probable space group: C C
;
_chemical_formula_sum "Si O2"
_cell_formula_units_Z 28
_cell_length_a 5.361241
_cell_length_b 9.521473
_cell_length_c 22.837651
_cell_angle_alpha 90.000000
_cell_angle_beta 62.117922
_cell_angle_gamma 90.000000
_cell_volume 1030.457085
_symmetry_space_group_name_H-M "C C"
_symmetry_group_IT_number 9
_symmetry_cell_setting 'monoclinic'
loop_
_space_group_symop_operation_xyz
x,y,z
x,-y,1/2+z
1/2+x,1/2+y,z
1/2+x,1/2-y,1/2+z
loop_
_atom_site_type_symbol
_atom_site_label
_atom_site_fract_x
_atom_site_fract_y
_atom_site_fract_z
Si Si1 0.095600 0.580031 0.151970
Si Si2 0.359430 0.954727 0.490688
Si Si3 0.485520 0.602077 0.928236
Si Si4 0.892109 0.296402 0.183193
Si Si5 0.576349 0.723637 0.541415
Si Si6 0.879066 0.882907 0.309493
Si Si7 0.072733 0.169914 0.280959
O O1 0.067486 0.419700 0.133627
O O2 0.041483 0.685787 0.104216
O O3 0.854727 0.586331 0.229263
O O4 0.363776 0.648340 0.154150
O O5 0.242626 0.957883 0.437115
O O6 0.141420 0.060779 0.545413
O O7 0.693193 0.989323 0.459933
O O8 0.362157 0.797507 0.518786
O O9 0.531281 0.635356 0.855380
O O10 0.372904 0.733511 0.977546
O O11 0.017751 0.270293 0.232780
O O12 0.573646 0.346596 0.231918
O O13 0.834633 0.050189 0.311176
O O14 0.637506 0.765346 0.329956
#
# Coordination Sequence:
#
# PCOD9135969 Si02
#       7
#     4   4   4   4   4   4   4
#     4  10  21  40  61  97 127 172 224 282 343 422
#     4  10  25  42  67  97 134 178 234 282 358 416
#     4  10  26  42  67  98 133 183 229 291 351 428
#     4  10  21  37  66  92 131 173 223 283 351 412
#     4  10  24  42  66  97 140 179 236 284 357 416
#     4  10  23  40  62  95 133 175 232 286 351 422
#     4  10  22  39  63  96 130 174 226 282 355 408
#
# _framework density 27.172405000000001
#
# number of rings (size 3 to 8) (size 9 to 14) (size 15 to 20)
#    0.857    1.143    0.000    1.714    6.000    3.429 
#    0.000    0.000    0.000    0.000    0.000    0.000 
#    0.000    0.000    0.000    0.000    0.000    0.000 
#
# Total GULP energy -78125.714049 kJ/mol
# GULP energy per Si atom -5580.408146 kJ/mol
# Density = 2.711056 g / cm^3
# Si number density = 27.172405 Si / 1000 Ang^3
#
#
#
# Elastic Constant Matrix: (Units=GPa)
#
#
# Indices 1 2 3 4 5 6 
#
# 1 113.5439 34.5466 23.8621 0.0000 25.7807 0.0001
# 2 34.5466 161.7891 33.6064 0.0000 5.2103 0.0001
# 3 23.8621 33.6064 100.4470 0.0000 5.1327 0.0000
# 4 0.0000 0.0000 0.0000 37.4780 0.0000 3.6587
# 5 25.7807 5.2103 5.1327 0.0000 58.9409 -0.0001
# 6 0.0001 0.0001 0.0000 3.6587 -0.0001 35.9274
#
#
#
# Elastic Compliance Matrix: (Units=1/GPa)
#
#
# Indices 1 2 3 4 5 6 
#
# 1 0.010706 -0.001788 -0.001722 0.000000 -0.004375 0.000000
# 2 -0.001788 0.006950 -0.001918 0.000000 0.000334 0.000000
# 3 -0.001722 -0.001918 0.011008 0.000000 -0.000036 0.000000
# 4 0.000000 0.000000 0.000000 0.026950 0.000000 -0.002744
# 5 -0.004375 0.000334 -0.000036 0.000000 0.018853 0.000000
# 6 0.000000 0.000000 0.000000 -0.002744 0.000000 0.028113
#
#
# Mechanical properties :
#
#
# Convention : Reuss Voigt Hill
#
# Bulk Modulus (GPa) = 56.14744 62.20114 59.17429
# Shear Modulus (GPa) = 41.88581 45.38692 43.63636
#
# Velocity S-wave (km/s) = 3.93043 4.09140 4.01172
# Velocity P-wave (km/s) = 6.42697 6.72759 6.57900
#
# Compressibility (1/GPa) = 0.01781025
#
# Stress axis : x y z
#
# Youngs Moduli (GPa) = 93.40354 143.88161 90.84321
#
# Poissons Ratio (x) = 0.25720 0.15641
# Poissons Ratio (y) = 0.16696 0.17421
# Poissons Ratio (z) = 0.16082 0.27593
#
# Static dielectric constant tensor:
#      x y z
#    x 2.155110 0.000000 -0.104900 
#    y 0.000000 2.242240 0.000000 
#    z -0.104900 0.000000 2.134920 
# 
# From -- ./inp_files/34736.got.cif
#   From: 2010.05.17/outbox.cif.g08.bks.cpg/sg9_18_cif.got.tgz:34736.got - 2010.06.03 20:04:27.
