data_PCOD9135780
_publ_section_title
;
Structure prediction by ZEFSAII (Michael W. Deem and Ramdas Pophale) SiO2 
 PCOD9135780
Probable space group: C C
;
_chemical_formula_sum "Si O2"
_cell_formula_units_Z 28
_cell_length_a 11.327961
_cell_length_b 14.298204
_cell_length_c 9.793482
_cell_angle_alpha 90.000000
_cell_angle_beta 55.067386
_cell_angle_gamma 90.000000
_cell_volume 1300.445289
_symmetry_space_group_name_H-M "C C"
_symmetry_group_IT_number 9
_symmetry_cell_setting 'monoclinic'
loop_
_space_group_symop_operation_xyz
x,y,z
x,-y,1/2+z
1/2+x,1/2+y,z
1/2+x,1/2-y,1/2+z
loop_
_atom_site_type_symbol
_atom_site_label
_atom_site_fract_x
_atom_site_fract_y
_atom_site_fract_z
Si Si1 0.464120 0.060316 0.452640
Si Si2 0.293547 0.762243 0.955539
Si Si3 0.528384 0.347615 0.050574
Si Si4 0.687785 0.448445 0.724873
Si Si5 0.634484 0.065824 0.618391
Si Si6 0.899129 0.062454 0.868252
Si Si7 0.774939 0.751529 0.137882
O O1 0.395438 0.154989 0.438182
O O2 0.566006 0.079219 0.514205
O O3 0.333504 0.002688 0.605872
O O4 0.539558 0.997837 0.284653
O O5 0.352609 0.661876 0.965691
O O6 0.287898 0.757068 0.793980
O O7 0.123812 0.786435 0.093861
O O8 0.408193 0.411467 0.201995
O O9 0.441399 0.283408 0.999748
O O10 0.643104 0.416436 0.906137
O O11 0.555369 0.516466 0.780622
O O12 0.715820 0.349091 0.629229
O O13 0.672554 0.165706 0.657808
O O14 0.781764 0.010787 0.491448
#
# Coordination Sequence:
#
# PCOD9135780 Si02
#       7
#     4   4   4   4   4   4   4
#     4  12  27  47  73 114 151 196 247 309 373 444
#     4  10  23  43  72 102 144 191 246 295 371 434
#     4  10  20  44  70 106 138 194 248 298 366 438
#     4  11  24  43  73 103 146 189 245 301 369 437
#     4  12  27  47  73 114 151 196 247 309 373 444
#     4  11  24  43  73 103 146 189 245 301 369 437
#     4  10  23  43  72 102 144 191 246 295 371 434
#
# _framework density 21.531085999999998
#
# number of rings (size 3 to 8) (size 9 to 14) (size 15 to 20)
#    0.000    1.143    2.857    3.429   10.000    0.000 
#    2.571    2.857    0.000    0.000    0.000    0.000 
#    0.000    0.000    0.000    0.000    0.000    0.000 
#
# Total GULP energy -77995.317037 kJ/mol
# GULP energy per Si atom -5571.094074 kJ/mol
# Density = 2.148208 g / cm^3
# Si number density = 21.531086 Si / 1000 Ang^3
#
#
#
# Elastic Constant Matrix: (Units=GPa)
#
#
# Indices 1 2 3 4 5 6 
#
# 1 75.5916 32.3312 -3.8462 0.0000 5.4302 0.0000
# 2 32.3312 142.4183 4.9196 0.0000 -0.5571 0.0000
# 3 -3.8462 4.9196 73.7458 0.0000 -8.3139 0.0000
# 4 0.0000 0.0000 0.0000 36.9985 0.0000 -7.3019
# 5 5.4302 -0.5571 -8.3139 0.0000 31.0309 0.0000
# 6 0.0000 0.0000 0.0000 -7.3019 0.0000 42.2300
#
#
#
# Elastic Compliance Matrix: (Units=1/GPa)
#
#
# Indices 1 2 3 4 5 6 
#
# 1 0.014906 -0.003419 0.000726 0.000000 -0.002475 0.000000
# 2 -0.003419 0.007822 -0.000636 0.000000 0.000568 0.000000
# 3 0.000726 -0.000636 0.014049 0.000000 0.003626 0.000000
# 4 0.000000 0.000000 0.000000 0.027983 0.000000 0.004838
# 5 -0.002475 0.000568 0.003626 0.000000 0.033641 0.000000
# 6 0.000000 0.000000 0.000000 0.004838 0.000000 0.024516
#
#
# Mechanical properties :
#
#
# Convention : Reuss Voigt Hill
#
# Bulk Modulus (GPa) = 33.20007 39.84055 36.52031
# Shear Modulus (GPa) = 35.81307 39.27527 37.54417
#
# Velocity S-wave (km/s) = 4.08281 4.27560 4.18032
# Velocity P-wave (km/s) = 6.13831 6.55121 6.34811
#
# Compressibility (1/GPa) = 0.03012041
#
# Stress axis : x y z
#
# Youngs Moduli (GPa) = 67.08736 127.84695 71.17867
#
# Poissons Ratio (x) = 0.43707 -0.05171
# Poissons Ratio (y) = 0.22935 0.04527
# Poissons Ratio (z) = -0.04873 0.08131
#
# Static dielectric constant tensor:
#      x y z
#    x 1.899270 0.000000 -0.056110 
#    y 0.000000 1.892160 0.000000 
#    z -0.056110 0.000000 1.966250 
# 
# From -- ./inp_files/16355.got.cif
#   From: 2010.05.17/outbox.cif.g08.bks.cpg/sg9_9_cif.got.tgz:16355.got - 2010.06.03 20:04:27.
