data_PCOD9135688
_publ_section_title
;
Structure prediction by ZEFSAII (Michael W. Deem and Ramdas Pophale) SiO2 
 PCOD9135688
Probable space group: C C
;
_chemical_formula_sum "Si O2"
_cell_formula_units_Z 24
_cell_length_a 11.545688
_cell_length_b 14.891905
_cell_length_c 5.355685
_cell_angle_alpha 90.000000
_cell_angle_beta 107.002243
_cell_angle_gamma 90.000000
_cell_volume 880.595004
_symmetry_space_group_name_H-M "C C"
_symmetry_group_IT_number 9
_symmetry_cell_setting 'monoclinic'
loop_
_space_group_symop_operation_xyz
x,y,z
x,-y,1/2+z
1/2+x,1/2+y,z
1/2+x,1/2-y,1/2+z
loop_
_atom_site_type_symbol
_atom_site_label
_atom_site_fract_x
_atom_site_fract_y
_atom_site_fract_z
Si Si1 0.525280 0.878229 0.294110
Si Si2 0.717984 0.028982 0.399268
Si Si3 0.532725 0.437801 0.864157
Si Si4 0.292996 0.943929 0.900948
Si Si5 0.452258 0.729483 0.597516
Si Si6 0.179933 0.277366 0.023908
O O1 0.417146 0.893611 0.032548
O O2 0.465465 0.825958 0.479259
O O3 0.596997 0.970559 0.378664
O O4 0.624818 0.812280 0.244847
O O5 0.685984 0.132127 0.356942
O O6 0.784463 0.012494 0.704214
O O7 0.524178 0.503056 0.103495
O O8 0.668343 0.396077 0.901092
O O9 0.451956 0.351512 0.892909
O O10 0.292143 0.022120 0.115663
O O11 0.321885 0.739565 0.645602
O O12 0.575111 0.715170 0.838307
#
# Coordination Sequence:
#
# PCOD9135688 Si02
#       6
#     4   4   4   4   4   4
#     4  11  24  43  72 108 149 194 259 316 378 454
#     4  10  20  42  70 107 144 193 247 308 370 449
#     4  10  25  48  72 107 151 204 253 316 391 460
#     4  10  21  40  73 106 146 197 251 308 379 458
#     4  12  27  49  74 111 150 204 255 324 379 460
#     4  11  27  46  75 109 154 196 257 316 389 453
#
# _framework density 27.254301000000002
#
# number of rings (size 3 to 8) (size 9 to 14) (size 15 to 20)
#    0.000    1.333    1.667    3.000    4.667    5.333 
#    0.000    0.000    0.000    0.000    0.000    0.000 
#    0.000    0.000    0.000    0.000    0.000    0.000 
#
# Total GULP energy -67110.528892 kJ/mol
# GULP energy per Si atom -5592.544074 kJ/mol
# Density = 2.719227 g / cm^3
# Si number density = 27.254301 Si / 1000 Ang^3
#
#
#
# Elastic Constant Matrix: (Units=GPa)
#
#
# Indices 1 2 3 4 5 6 
#
# 1 213.6050 56.7444 34.1971 0.0000 -12.2166 0.0000
# 2 56.7444 63.6360 14.6564 0.0000 8.5497 0.0000
# 3 34.1971 14.6564 91.7803 0.0000 -20.0717 0.0000
# 4 0.0000 0.0000 0.0000 44.4428 0.0000 -1.9084
# 5 -12.2166 8.5497 -20.0717 0.0000 43.8151 0.0000
# 6 0.0000 0.0000 0.0000 -1.9084 0.0000 41.8476
#
#
#
# Elastic Compliance Matrix: (Units=1/GPa)
#
#
# Indices 1 2 3 4 5 6 
#
# 1 0.006568 -0.005989 -0.000928 0.000000 0.002575 0.000000
# 2 -0.005989 0.022765 -0.003046 0.000000 -0.007507 0.000000
# 3 -0.000928 -0.003046 0.013115 0.000000 0.006344 0.000000
# 4 0.000000 0.000000 0.000000 0.022545 0.000000 0.001028
# 5 0.002575 -0.007507 0.006344 0.000000 0.027912 0.000000
# 6 0.000000 0.000000 0.000000 0.001028 0.000000 0.023943
#
#
# Mechanical properties :
#
#
# Convention : Reuss Voigt Hill
#
# Bulk Modulus (GPa) = 44.39886 64.46857 54.43371
# Shear Modulus (GPa) = 34.65442 43.58268 39.11855
#
# Velocity S-wave (km/s) = 3.56971 4.00323 3.79267
# Velocity P-wave (km/s) = 5.77203 6.71369 6.26059
#
# Compressibility (1/GPa) = 0.02252310
#
# Stress axis : x y z
#
# Youngs Moduli (GPa) = 152.24340 43.92674 76.24917
#
# Poissons Ratio (x) = 0.26309 0.07074
# Poissons Ratio (y) = 0.91184 0.23222
# Poissons Ratio (z) = 0.14125 0.13378
#
# Static dielectric constant tensor:
#      x y z
#    x 2.151750 0.000000 0.115430 
#    y 0.000000 2.128810 0.000000 
#    z 0.115430 0.000000 2.262160 
# 
# From -- ./inp_files/1512.got.cif
#   From: 2010.05.17/outbox.cif.g08.bks.cpg/sg9_1_cif.got.tgz:1512.got - 2010.06.03 20:04:27.
