data_PCOD9135722
_publ_section_title
;
Structure prediction by ZEFSAII (Michael W. Deem and Ramdas Pophale) SiO2 
 PCOD9135722
Probable space group: C C
;
_chemical_formula_sum "Si O2"
_cell_formula_units_Z 32
_cell_length_a 12.271303
_cell_length_b 12.323267
_cell_length_c 9.208096
_cell_angle_alpha 90.000000
_cell_angle_beta 110.186593
_cell_angle_gamma 90.000000
_cell_volume 1306.937445
_symmetry_space_group_name_H-M "C C"
_symmetry_group_IT_number 9
_symmetry_cell_setting 'monoclinic'
loop_
_space_group_symop_operation_xyz
x,y,z
x,-y,1/2+z
1/2+x,1/2+y,z
1/2+x,1/2-y,1/2+z
loop_
_atom_site_type_symbol
_atom_site_label
_atom_site_fract_x
_atom_site_fract_y
_atom_site_fract_z
Si Si1 0.891300 0.350130 0.555350
Si Si2 0.212449 0.833858 0.953299
Si Si3 0.461318 0.194812 0.563762
Si Si4 0.080325 0.391613 0.387617
Si Si5 0.089644 0.368949 0.860247
Si Si6 0.687000 0.665820 0.774325
Si Si7 0.962423 0.904210 0.762179
Si Si8 0.424544 0.388857 0.086984
O O1 0.769585 0.387732 0.432769
O O2 0.983005 0.359975 0.463044
O O3 0.968354 0.392550 0.721700
O O4 0.864869 0.225338 0.588933
O O5 0.169975 0.708328 0.927185
O O6 0.104643 0.900917 0.837573
O O7 0.339072 0.845583 0.944036
O O8 0.231738 0.857443 0.133096
O O9 0.519061 0.112852 0.702936
O O10 0.554093 0.207128 0.478677
O O11 0.437694 0.300797 0.649522
O O12 0.130424 0.512571 0.430268
O O13 0.172628 0.296180 0.797172
O O14 0.555253 0.628415 0.705964
O O15 0.894632 0.002848 0.657102
O O16 0.927590 0.899504 0.914661
#
# Coordination Sequence:
#
# PCOD9135722 Si02
#       8
#     4   4   4   4   4   4   4   4
#     4  11  21  43  63  89 128 168 204 256 319 374
#     4  10  20  43  64  88 124 170 203 252 321 374
#     4  11  23  41  63  94 130 161 208 267 311 366
#     4  11  21  42  66  90 129 169 210 253 322 377
#     4  11  25  38  65 100 124 162 216 267 302 371
#     4  10  21  42  64  87 127 167 204 255 315 374
#     4  10  22  38  63  87 123 162 204 254 310 370
#     4  10  21  39  62  89 119 165 205 252 310 372
#
# _framework density 24.484722000000001
#
# number of rings (size 3 to 8) (size 9 to 14) (size 15 to 20)
#    0.000    1.500    6.250    0.750    3.500    5.000 
#    0.000    0.000    0.000    0.000    0.000    0.000 
#    0.000    0.000    0.000    0.000    0.000    0.000 
#
# Total GULP energy -89331.296553 kJ/mol
# GULP energy per Si atom -5583.206035 kJ/mol
# Density = 2.442899 g / cm^3
# Si number density = 24.484722 Si / 1000 Ang^3
#
#
#
# Elastic Constant Matrix: (Units=GPa)
#
#
# Indices 1 2 3 4 5 6 
#
# 1 62.5923 -28.3941 29.5339 0.0000 27.9656 0.0000
# 2 -28.3941 88.0918 23.8544 0.0000 -0.0221 0.0000
# 3 29.5339 23.8544 99.6206 0.0000 18.5502 0.0000
# 4 0.0000 0.0000 0.0000 32.9692 0.0000 -0.8612
# 5 27.9656 -0.0221 18.5502 0.0000 35.5038 0.0000
# 6 0.0000 0.0000 0.0000 -0.8612 0.0000 -0.0556
#
#
#
# Elastic Compliance Matrix: (Units=1/GPa)
#
#
# Indices 1 2 3 4 5 6 
#
# 1 0.039528 0.015634 -0.010708 0.000000 -0.025531 0.000000
# 2 0.015634 0.018415 -0.007481 0.000000 -0.008394 0.000000
# 3 -0.010708 -0.007481 0.014882 0.000000 0.000654 0.000000
# 4 0.000000 0.000000 0.000000 0.021596 0.000000 -0.334408
# 5 -0.025531 -0.008394 0.000654 0.000000 0.047929 0.000000
# 6 0.000000 0.000000 0.000000 -0.334408 0.000000-12.802498
#
#
# Mechanical properties :
#
#
# Convention : Reuss Voigt Hill
#
# Bulk Modulus (GPa) = 14.76785 33.36590 24.06688
# Shear Modulus (GPa) = -0.39581 28.70417 14.15418
#
# Velocity S-wave (km/s) = -0.40250 3.42764 2.40694
# Velocity P-wave (km/s) = 2.41424 5.41496 4.19228
#
# Compressibility (1/GPa) = 0.06771465
#
# Stress axis : x y z
#
# Youngs Moduli (GPa) = 25.29830 54.30400 67.19389
#
# Poissons Ratio (x) = -0.84900 0.71953
# Poissons Ratio (y) = -0.39552 0.50270
# Poissons Ratio (z) = 0.27090 0.40627
#
# Static dielectric constant tensor:
#      x y z
#    x 1.957090 0.000000 0.043010 
#    y 0.000000 2.021880 0.000000 
#    z 0.043010 0.000000 1.903090 
# 
# From -- ./inp_files/9081.got.cif
#   From: 2010.05.17/outbox.cif.g08.bks.cpg/sg9_5_cif.got.tgz:9081.got - 2010.06.03 20:04:27.
