data_PCOD9135594
_publ_section_title
;
Structure prediction by ZEFSAII (Michael W. Deem and Ramdas Pophale) SiO2 
 PCOD9135594
Probable space group: C C
;
_chemical_formula_sum "Si O2"
_cell_formula_units_Z 32
_cell_length_a 17.749322
_cell_length_b 5.642817
_cell_length_c 13.139818
_cell_angle_alpha 90.000000
_cell_angle_beta 98.313187
_cell_angle_gamma 90.000000
_cell_volume 1302.205747
_symmetry_space_group_name_H-M "C C"
_symmetry_group_IT_number 9
_symmetry_cell_setting 'monoclinic'
loop_
_space_group_symop_operation_xyz
x,y,z
x,-y,1/2+z
1/2+x,1/2+y,z
1/2+x,1/2-y,1/2+z
loop_
_atom_site_type_symbol
_atom_site_label
_atom_site_fract_x
_atom_site_fract_y
_atom_site_fract_z
Si Si1 0.626910 0.168128 0.559010
Si Si2 0.853470 0.808598 0.373356
Si Si3 0.715898 0.451139 0.141612
Si Si4 0.990239 0.972007 0.014298
Si Si5 0.570069 0.225509 0.200358
Si Si6 0.184357 0.715560 0.922303
Si Si7 0.528309 0.148466 0.830380
Si Si8 0.371682 0.805850 0.260985
O O1 0.699368 0.271386 0.634354
O O2 0.562563 0.355976 0.516989
O O3 0.584901 0.995423 0.628488
O O4 0.660632 0.032965 0.469195
O O5 0.856770 0.044632 0.303767
O O6 0.913497 0.885369 0.473302
O O7 0.765740 0.788487 0.387825
O O8 0.873576 0.547228 0.332503
O O9 0.653609 0.345241 0.207490
O O10 0.800637 0.366741 0.176370
O O11 0.692155 0.377539 0.023109
O O12 0.000047 0.755622 0.933604
O O13 0.003917 0.867535 0.129291
O O14 0.543732 0.125497 0.303255
O O15 0.111159 0.769315 0.838177
O O16 0.458814 0.208432 0.741931
#
# Coordination Sequence:
#
# PCOD9135594 Si02
#       8
#     4   4   4   4   4   4   4   4
#     4  10  20  41  70  95 141 177 236 297 353 431
#     4  11  27  44  72 101 145 182 237 297 362 424
#     4  10  23  43  65 102 142 180 240 304 356 430
#     4  10  22  46  65 103 142 186 237 301 359 425
#     4  10  22  42  70 103 136 189 241 296 357 435
#     4  11  23  42  71  98 134 191 236 286 370 428
#     4  11  22  45  69  98 142 188 241 293 365 428
#     4  11  27  47  66 104 144 183 240 306 354 429
#
# _framework density 24.573688000000001
#
# number of rings (size 3 to 8) (size 9 to 14) (size 15 to 20)
#    0.000    1.500    3.750    1.500    8.750    2.000 
#   13.500    0.000    0.000    0.000    0.000    0.000 
#    0.000    0.000    0.000    0.000    0.000    0.000 
#
# Total GULP energy -89249.756086 kJ/mol
# GULP energy per Si atom -5578.109755 kJ/mol
# Density = 2.451776 g / cm^3
# Si number density = 24.573688 Si / 1000 Ang^3
#
#
#
# Elastic Constant Matrix: (Units=GPa)
#
#
# Indices 1 2 3 4 5 6 
#
# 1 155.9998 34.1878 47.7641 0.0000 38.0263 0.0000
# 2 34.1878 113.6209 40.5907 0.0000 -4.9325 0.0000
# 3 47.7641 40.5907 64.5161 0.0000 31.3279 0.0000
# 4 0.0000 0.0000 0.0000 49.9588 0.0000 0.1004
# 5 38.0263 -4.9325 31.3279 0.0000 51.9271 0.0000
# 6 0.0000 0.0000 0.0000 0.1004 0.0000 34.7443
#
#
#
# Elastic Compliance Matrix: (Units=1/GPa)
#
#
# Indices 1 2 3 4 5 6 
#
# 1 0.008939 -0.001761 -0.003183 0.000000 -0.004793 0.000000
# 2 -0.001761 0.014324 -0.012723 0.000000 0.010326 0.000000
# 3 -0.003183 -0.012723 0.035805 0.000000 -0.020479 0.000000
# 4 0.000000 0.000000 0.000000 0.020017 0.000000 -0.000058
# 5 -0.004793 0.010326 -0.020479 0.000000 0.036104 0.000000
# 6 0.000000 0.000000 0.000000 -0.000058 0.000000 0.028782
#
#
# Mechanical properties :
#
#
# Convention : Reuss Voigt Hill
#
# Bulk Modulus (GPa) = 42.12938 64.35800 53.24369
# Shear Modulus (GPa) = 26.70717 41.43231 34.06974
#
# Velocity S-wave (km/s) = 3.30027 4.11060 3.72752
# Velocity P-wave (km/s) = 5.63060 6.98398 6.34349
#
# Compressibility (1/GPa) = 0.02373640
#
# Stress axis : x y z
#
# Youngs Moduli (GPa) = 111.86947 69.81085 27.92882
#
# Poissons Ratio (x) = 0.12292 0.08889
# Poissons Ratio (y) = 0.19698 0.35533
# Poissons Ratio (z) = 0.35604 0.88819
#
# Static dielectric constant tensor:
#      x y z
#    x 1.920190 0.000000 0.017100 
#    y 0.000000 2.091160 0.000000 
#    z 0.017100 0.000000 2.008600 
# 
# From -- ./inp_files/26389.got.cif
#   From: 2010.05.17/outbox.cif.g08.bks.cpg/sg9_14_cif.got.tgz:26389.got - 2010.06.03 20:04:27.
