data_PCOD9135643
_publ_section_title
;
Structure prediction by ZEFSAII (Michael W. Deem and Ramdas Pophale) SiO2 
 PCOD9135643
Probable space group: C C
;
_chemical_formula_sum "Si O2"
_cell_formula_units_Z 32
_cell_length_a 8.903968
_cell_length_b 14.150581
_cell_length_c 19.746410
_cell_angle_alpha 90.000000
_cell_angle_beta 146.734625
_cell_angle_gamma 90.000000
_cell_volume 1364.698132
_symmetry_space_group_name_H-M "C C"
_symmetry_group_IT_number 9
_symmetry_cell_setting 'monoclinic'
loop_
_space_group_symop_operation_xyz
x,y,z
x,-y,1/2+z
1/2+x,1/2+y,z
1/2+x,1/2-y,1/2+z
loop_
_atom_site_type_symbol
_atom_site_label
_atom_site_fract_x
_atom_site_fract_y
_atom_site_fract_z
Si Si1 0.187850 0.780420 0.001130
Si Si2 0.426724 0.352712 0.400566
Si Si3 0.686223 0.805623 0.906688
Si Si4 0.386094 0.219182 0.752368
Si Si5 0.712598 0.514655 0.450245
Si Si6 0.715417 0.730497 0.139798
Si Si7 0.830259 0.064520 0.181948
Si Si8 0.869151 0.901313 0.101192
O O1 0.486266 0.732919 0.112062
O O2 0.986422 0.787806 0.988765
O O3 0.019160 0.733260 0.876627
O O4 0.246799 0.884464 0.996373
O O5 0.566687 0.290439 0.394496
O O6 0.487333 0.459740 0.408345
O O7 0.582475 0.323005 0.526985
O O8 0.111137 0.330053 0.290458
O O9 0.484211 0.821488 0.767817
O O10 0.671407 0.881981 0.961936
O O11 0.335735 0.324013 0.702536
O O12 0.138636 0.149394 0.674818
O O13 0.566223 0.524223 0.321804
O O14 0.007710 0.464081 0.566955
O O15 0.781146 0.834402 0.132030
O O16 0.893708 0.008731 0.135389
#
# Coordination Sequence:
#
# PCOD9135643 Si02
#       8
#     4   4   4   4   4   4   4   4
#     4  10  22  41  69  98 139 188 240 307 375 450
#     4  10  24  43  68 102 139 194 250 307 385 462
#     4  11  23  38  69 101 138 189 244 309 370 450
#     4  10  23  45  71 103 144 192 247 307 383 461
#     4  11  24  43  74 104 143 198 246 314 393 455
#     4  10  20  42  65  97 142 188 248 306 377 460
#     4  11  24  46  74 107 147 198 252 315 386 468
#     4  11  22  42  72 106 144 193 257 307 381 462
#
# _framework density 23.448409000000002
#
# number of rings (size 3 to 8) (size 9 to 14) (size 15 to 20)
#    0.000    1.500    2.500    2.250    5.250    0.000 
#    2.250    1.250    0.000    0.000    0.000    0.000 
#    0.000    0.000    0.000    0.000    0.000    0.000 
#
# Total GULP energy -89359.423877 kJ/mol
# GULP energy per Si atom -5584.963992 kJ/mol
# Density = 2.339504 g / cm^3
# Si number density = 23.448409 Si / 1000 Ang^3
#
#
#
# Elastic Constant Matrix: (Units=GPa)
#
#
# Indices 1 2 3 4 5 6 
#
# 1 119.2933 2.3279 42.3388 -0.0003 25.7720 -0.0001
# 2 2.3279 28.5303 25.3365 0.0003 16.7832 0.0000
# 3 42.3388 25.3365 83.7717 -0.0006 24.3993 -0.0004
# 4 -0.0003 0.0003 -0.0006 27.5539 0.0001 7.7233
# 5 25.7720 16.7832 24.3993 0.0001 40.4980 -0.0001
# 6 -0.0001 0.0000 -0.0004 7.7233 -0.0001 31.2773
#
#
#
# Elastic Compliance Matrix: (Units=1/GPa)
#
#
# Indices 1 2 3 4 5 6 
#
# 1 0.012297 0.009626 -0.006895 0.000000 -0.007661 0.000000
# 2 0.009626 0.062423 -0.017496 -0.000001 -0.021454 0.000000
# 3 -0.006895 -0.017496 0.021011 0.000001 -0.001020 0.000000
# 4 0.000000 -0.000001 0.000001 0.038991 0.000000 -0.009628
# 5 -0.007661 -0.021454 -0.001020 0.000000 0.039073 0.000000
# 6 0.000000 0.000000 0.000000 -0.009628 0.000000 0.034349
#
#
# Mechanical properties :
#
#
# Convention : Reuss Voigt Hill
#
# Bulk Modulus (GPa) = 15.10549 41.28907 28.19728
# Shear Modulus (GPa) = 19.24986 30.63867 24.94426
#
# Velocity S-wave (km/s) = 2.86832 3.61867 3.26512
# Velocity P-wave (km/s) = 4.17441 5.92507 5.12504
#
# Compressibility (1/GPa) = 0.06620110
#
# Stress axis : x y z
#
# Youngs Moduli (GPa) = 81.32010 16.01968 47.59445
#
# Poissons Ratio (x) = -0.15421 0.32818
# Poissons Ratio (y) = -0.78283 0.83272
# Poissons Ratio (z) = 0.56072 0.28028
#
# Static dielectric constant tensor:
#      x y z
#    x 1.895060 0.000000 -0.018330 
#    y 0.000000 1.873860 0.000000 
#    z -0.018330 0.000000 1.939430 
# 
# From -- ./inp_files/23356.got.cif
#   From: 2010.05.17/outbox.cif.g08.bks.cpg/sg9_12_cif.got.tgz:23356.got - 2010.06.03 20:04:27.
