data_PCOD9135902
_publ_section_title
;
Structure prediction by ZEFSAII (Michael W. Deem and Ramdas Pophale) SiO2 
 PCOD9135902
Probable space group: C C
;
_chemical_formula_sum "Si O2"
_cell_formula_units_Z 28
_cell_length_a 14.438986
_cell_length_b 10.681218
_cell_length_c 8.298754
_cell_angle_alpha 90.000000
_cell_angle_beta 67.410547
_cell_angle_gamma 90.000000
_cell_volume 1181.691840
_symmetry_space_group_name_H-M "C C"
_symmetry_group_IT_number 9
_symmetry_cell_setting 'monoclinic'
loop_
_space_group_symop_operation_xyz
x,y,z
x,-y,1/2+z
1/2+x,1/2+y,z
1/2+x,1/2-y,1/2+z
loop_
_atom_site_type_symbol
_atom_site_label
_atom_site_fract_x
_atom_site_fract_y
_atom_site_fract_z
Si Si1 0.329740 0.359286 0.790260
Si Si2 0.776664 0.299972 0.835364
Si Si3 0.952904 0.745885 0.451673
Si Si4 0.055009 0.249401 0.554680
Si Si5 0.386881 0.847843 0.459815
Si Si6 0.042701 0.544393 0.627264
Si Si7 0.249423 0.445113 0.147792
O O1 0.425331 0.343602 0.611480
O O2 0.315581 0.224428 0.881920
O O3 0.245775 0.420371 0.733459
O O4 0.327217 0.447598 0.948144
O O5 0.846704 0.300142 0.945579
O O6 0.825356 0.384593 0.660221
O O7 0.780861 0.160865 0.752814
O O8 0.659455 0.316839 0.947204
O O9 0.012163 0.634908 0.502003
O O10 0.012171 0.793051 0.255737
O O11 0.970614 0.248571 0.471478
O O12 0.065911 0.401438 0.565342
O O13 0.450762 0.945126 0.314330
O O14 0.142887 0.592092 0.646436
#
# Coordination Sequence:
#
# PCOD9135902 Si02
#       7
#     4   4   4   4   4   4   4
#     4  10  21  37  54  96 129 157 198 268 331 368
#     4  10  21  39  59  94 128 169 202 267 322 377
#     4  10  23  35  55  95 132 162 197 271 329 373
#     4  11  20  37  64  90 125 162 220 259 316 379
#     4   9  21  38  54  94 135 164 197 272 330 374
#     4  11  21  35  59 100 125 156 214 271 313 370
#     4  11  21  35  67  91 126 156 216 262 315 369
#
# _framework density 23.694838000000001
#
# number of rings (size 3 to 8) (size 9 to 14) (size 15 to 20)
#    0.000    1.714    1.429    3.429    4.000    0.000 
#    0.000    0.000    0.000    0.000  104.000    0.000 
#    0.000    0.000    0.000    0.000    0.000    0.000 
#
# Total GULP energy -78158.799902 kJ/mol
# GULP energy per Si atom -5582.771422 kJ/mol
# Density = 2.364091 g / cm^3
# Si number density = 23.694838 Si / 1000 Ang^3
#
#
#
# Elastic Constant Matrix: (Units=GPa)
#
#
# Indices 1 2 3 4 5 6 
#
# 1 128.5564 39.8001 34.1692 0.0000 6.7118 0.0000
# 2 39.8001 35.7153 21.0419 0.0000 10.7064 0.0000
# 3 34.1692 21.0419 155.5084 0.0000 -6.2156 0.0000
# 4 0.0000 0.0000 0.0000 35.8736 0.0000 10.8324
# 5 6.7118 10.7064 -6.2156 0.0000 43.4168 0.0000
# 6 0.0000 0.0000 0.0000 10.8324 0.0000 35.5755
#
#
#
# Elastic Compliance Matrix: (Units=1/GPa)
#
#
# Indices 1 2 3 4 5 6 
#
# 1 0.012058 -0.013369 -0.000788 0.000000 0.001320 0.000000
# 2 -0.013369 0.048402 -0.004029 0.000000 -0.010446 0.000000
# 3 -0.000788 -0.004029 0.007235 0.000000 0.002151 0.000000
# 4 0.000000 0.000000 0.000000 0.030698 0.000000 -0.009347
# 5 0.001320 -0.010446 0.002151 0.000000 0.025712 0.000000
# 6 0.000000 0.000000 0.000000 -0.009347 0.000000 0.030955
#
#
# Mechanical properties :
#
#
# Convention : Reuss Voigt Hill
#
# Bulk Modulus (GPa) = 31.92502 56.64474 44.28488
# Shear Modulus (GPa) = 24.76795 37.95776 31.36286
#
# Velocity S-wave (km/s) = 3.23660 4.00677 3.64210
# Velocity P-wave (km/s) = 5.24119 6.73524 6.03463
#
# Compressibility (1/GPa) = 0.03132340
#
# Stress axis : x y z
#
# Youngs Moduli (GPa) = 82.93269 20.66023 138.22038
#
# Poissons Ratio (x) = 0.27620 0.10889
# Poissons Ratio (y) = 1.10869 0.55695
# Poissons Ratio (z) = 0.06533 0.08325
#
# Static dielectric constant tensor:
#      x y z
#    x 1.899770 0.000000 -0.001870 
#    y 0.000000 1.924970 0.000000 
#    z -0.001870 0.000000 1.978090 
# 
# From -- ./inp_files/9502.got.cif
#   From: 2010.05.17/outbox.cif.g08.bks.cpg/sg9_5_cif.got.tgz:9502.got - 2010.06.03 20:04:27.
