data_PCOD9135675
_publ_section_title
;
Structure prediction by ZEFSAII (Michael W. Deem and Ramdas Pophale) SiO2 
 PCOD9135675
Probable space group: C C
;
_chemical_formula_sum "Si O2"
_cell_formula_units_Z 32
_cell_length_a 8.727275
_cell_length_b 14.986432
_cell_length_c 10.867372
_cell_angle_alpha 90.000000
_cell_angle_beta 109.126973
_cell_angle_gamma 90.000000
_cell_volume 1342.885300
_symmetry_space_group_name_H-M "C C"
_symmetry_group_IT_number 9
_symmetry_cell_setting 'monoclinic'
loop_
_space_group_symop_operation_xyz
x,y,z
x,-y,1/2+z
1/2+x,1/2+y,z
1/2+x,1/2-y,1/2+z
loop_
_atom_site_type_symbol
_atom_site_label
_atom_site_fract_x
_atom_site_fract_y
_atom_site_fract_z
Si Si1 0.044900 0.539925 0.772940
Si Si2 0.306767 0.419858 0.788335
Si Si3 0.237303 0.823745 0.478676
Si Si4 0.696191 0.463867 0.686258
Si Si5 0.485280 0.591578 0.739928
Si Si6 0.613118 0.682222 0.351927
Si Si7 0.617515 0.168736 0.016709
Si Si8 0.655597 0.815041 0.134807
O O1 0.146571 0.449076 0.817379
O O2 0.099826 0.604994 0.894821
O O3 0.078167 0.589964 0.651044
O O4 0.858459 0.519303 0.729912
O O5 0.401665 0.514111 0.800582
O O6 0.438063 0.346824 0.858774
O O7 0.233607 0.379609 0.643081
O O8 0.203249 0.896215 0.576072
O O9 0.432188 0.817813 0.515532
O O10 0.143257 0.735346 0.502022
O O11 0.144171 0.861947 0.336512
O O12 0.545073 0.531775 0.641242
O O13 0.687588 0.406451 0.810956
O O14 0.348079 0.664992 0.690003
O O15 0.691624 0.738857 0.482524
O O16 0.602821 0.747721 0.230384
#
# Coordination Sequence:
#
# PCOD9135675 Si02
#       8
#     4   4   4   4   4   4   4   4
#     4  10  20  42  68  97 131 169 228 273 322 396
#     4  10  22  43  69  95 132 173 225 276 327 398
#     4  11  22  42  67  96 134 177 217 271 343 394
#     4  10  20  42  68  97 131 169 228 273 322 396
#     4  10  22  43  69  95 132 173 225 276 327 398
#     4   9  22  41  62  94 132 169 214 273 331 390
#     4  11  22  42  67  96 134 177 217 271 343 394
#     4   9  22  41  62  94 132 169 214 273 331 390
#
# _framework density 23.829288999999999
#
# number of rings (size 3 to 8) (size 9 to 14) (size 15 to 20)
#    0.000    2.000    2.500    0.000    0.000   10.000 
#    9.000    7.500    0.000    0.000    0.000    0.000 
#    0.000    0.000    0.000    0.000    0.000    0.000 
#
# Total GULP energy -89296.889019 kJ/mol
# GULP energy per Si atom -5581.055564 kJ/mol
# Density = 2.377505 g / cm^3
# Si number density = 23.829289 Si / 1000 Ang^3
#
#
#
# Elastic Constant Matrix: (Units=GPa)
#
#
# Indices 1 2 3 4 5 6 
#
# 1 67.2008 19.6735 7.5966 0.0000 -7.6294 0.0000
# 2 19.6735 86.6901 32.4009 0.0000 -5.1294 0.0000
# 3 7.5966 32.4009 30.2287 0.0000 -11.8980 0.0000
# 4 0.0000 0.0000 0.0000 38.0044 0.0000 -11.6323
# 5 -7.6294 -5.1294 -11.8980 0.0000 23.0760 0.0000
# 6 0.0000 0.0000 0.0000 -11.6323 0.0000 47.7519
#
#
#
# Elastic Compliance Matrix: (Units=1/GPa)
#
#
# Indices 1 2 3 4 5 6 
#
# 1 0.016553 -0.004563 0.003119 0.000000 0.006067 0.000000
# 2 -0.004563 0.021750 -0.026167 0.000000 -0.010166 0.000000
# 3 0.003119 -0.026167 0.073346 0.000000 0.033032 0.000000
# 4 0.000000 0.000000 0.000000 0.028433 0.000000 0.006926
# 5 0.006067 -0.010166 0.033032 0.000000 0.060113 0.000000
# 6 0.000000 0.000000 0.000000 0.006926 0.000000 0.022629
#
#
# Mechanical properties :
#
#
# Convention : Reuss Voigt Hill
#
# Bulk Modulus (GPa) = 17.72215 33.71799 25.72007
# Shear Modulus (GPa) = 16.84331 30.06302 23.45316
#
# Velocity S-wave (km/s) = 2.66152 3.55575 3.14062
# Velocity P-wave (km/s) = 4.11074 5.57121 4.89574
#
# Compressibility (1/GPa) = 0.05642657
#
# Stress axis : x y z
#
# Youngs Moduli (GPa) = 60.41241 45.97800 13.63398
#
# Poissons Ratio (x) = 0.20982 -0.04253
# Poissons Ratio (y) = 0.27569 0.35676
# Poissons Ratio (z) = -0.18845 1.20311
#
# Static dielectric constant tensor:
#      x y z
#    x 1.898110 0.000000 -0.028150 
#    y 0.000000 1.963300 0.000000 
#    z -0.028150 0.000000 1.904760 
# 
# From -- ./inp_files/14675.got.cif
#   From: 2010.05.17/outbox.cif.g08.bks.cpg/sg9_8_cif.got.tgz:14675.got - 2010.06.03 20:04:27.
