data_PCOD9135739
_publ_section_title
;
Structure prediction by ZEFSAII (Michael W. Deem and Ramdas Pophale) SiO2 
 PCOD9135739
Probable space group: C C
;
_chemical_formula_sum "Si O2"
_cell_formula_units_Z 32
_cell_length_a 8.153586
_cell_length_b 16.374990
_cell_length_c 15.340685
_cell_angle_alpha 90.000000
_cell_angle_beta 40.819772
_cell_angle_gamma 90.000000
_cell_volume 1338.877494
_symmetry_space_group_name_H-M "C C"
_symmetry_group_IT_number 9
_symmetry_cell_setting 'monoclinic'
loop_
_space_group_symop_operation_xyz
x,y,z
x,-y,1/2+z
1/2+x,1/2+y,z
1/2+x,1/2-y,1/2+z
loop_
_atom_site_type_symbol
_atom_site_label
_atom_site_fract_x
_atom_site_fract_y
_atom_site_fract_z
Si Si1 0.219200 0.666720 0.115520
Si Si2 0.198023 0.175463 0.044961
Si Si3 0.622349 0.623007 0.828149
Si Si4 0.401715 0.726199 0.316802
Si Si5 0.481875 0.984034 0.673196
Si Si6 0.613496 0.066503 0.797609
Si Si7 0.088121 0.156172 0.641954
Si Si8 0.580006 0.061717 0.446693
O O1 0.413108 0.675578 0.118564
O O2 0.975919 0.609083 0.211795
O O3 0.179941 0.753235 0.086344
O O4 0.382091 0.614909 0.983370
O O5 0.148041 0.194698 0.166320
O O6 0.367334 0.244711 0.930354
O O7 0.353754 0.096357 0.948921
O O8 0.798214 0.692254 0.805574
O O9 0.569022 0.656474 0.754510
O O10 0.718558 0.531297 0.779459
O O11 0.218931 0.648226 0.390671
O O12 0.607687 0.031827 0.703221
O O13 0.576753 0.013622 0.539723
O O14 0.816840 0.137525 0.714767
O O15 0.704771 0.995077 0.824420
O O16 0.295205 0.088251 0.536002
#
# Coordination Sequence:
#
# PCOD9135739 Si02
#       8
#     4   4   4   4   4   4   4   4
#     4  11  21  42  71  98 136 196 233 296 364 437
#     4  11  23  44  72 104 146 189 245 292 371 440
#     4  10  20  43  67  97 136 183 241 289 361 436
#     4  11  20  44  76  97 132 201 240 285 365 450
#     4  11  24  44  70 104 143 184 242 308 362 429
#     4  12  27  44  69 114 149 183 250 315 359 436
#     4  11  24  45  72 103 141 188 247 302 363 443
#     4  11  25  46  73 105 141 196 244 301 375 435
#
# _framework density 23.900618999999999
#
# number of rings (size 3 to 8) (size 9 to 14) (size 15 to 20)
#    0.000    1.000    6.250    2.250    3.500    0.000 
#    4.500    1.250    0.000    0.000    0.000    0.000 
#    0.000    0.000    0.000    0.000    0.000    0.000 
#
# Total GULP energy -89191.010762 kJ/mol
# GULP energy per Si atom -5574.438173 kJ/mol
# Density = 2.384622 g / cm^3
# Si number density = 23.900619 Si / 1000 Ang^3
#
#
#
# Elastic Constant Matrix: (Units=GPa)
#
#
# Indices 1 2 3 4 5 6 
#
# 1 38.5815 21.3474 24.6041 -0.0009 2.0196 0.0009
# 2 21.3474 89.5652 -13.0401 -0.0002 -11.5646 0.0003
# 3 24.6041 -13.0401 43.7564 -0.0009 12.1023 0.0010
# 4 -0.0009 -0.0002 -0.0009 27.3927 0.0006 -0.8095
# 5 2.0196 -11.5646 12.1023 0.0006 16.7543 -0.0007
# 6 0.0009 0.0003 0.0010 -0.8095 -0.0007 26.7497
#
#
#
# Elastic Compliance Matrix: (Units=1/GPa)
#
#
# Indices 1 2 3 4 5 6 
#
# 1 0.067608 -0.021579 -0.047579 0.000000 0.011323 0.000000
# 2 -0.021579 0.019240 0.016839 0.000000 0.003718 0.000000
# 3 -0.047579 0.016839 0.062264 0.000001 -0.027617 -0.000002
# 4 0.000000 0.000000 0.000001 0.036539 -0.000002 0.001106
# 5 0.011323 0.003718 -0.027617 -0.000002 0.080836 0.000003
# 6 0.000000 0.000000 -0.000002 0.001106 0.000003 0.037417
#
#
# Mechanical properties :
#
#
# Convention : Reuss Voigt Hill
#
# Bulk Modulus (GPa) = 22.48424 26.41400 24.44912
# Shear Modulus (GPa) = 11.81011 23.44544 17.62777
#
# Velocity S-wave (km/s) = 2.22532 3.13542 2.71872
# Velocity P-wave (km/s) = 4.00382 4.91766 4.48408
#
# Compressibility (1/GPa) = 0.04447559
#
# Stress axis : x y z
#
# Youngs Moduli (GPa) = 14.79114 51.97486 16.06062
#
# Poissons Ratio (x) = 1.12157 0.76414
# Poissons Ratio (y) = 0.31918 -0.27045
# Poissons Ratio (z) = 0.70374 -0.87523
#
# Static dielectric constant tensor:
#      x y z
#    x 1.983670 0.000000 -0.059580 
#    y 0.000000 2.076710 0.000000 
#    z -0.059580 0.000000 1.957850 
# 
# From -- ./inp_files/29428.got.cif
#   From: 2010.05.17/outbox.cif.g08.bks.cpg/sg9_15_cif.got.tgz:29428.got - 2010.06.03 20:04:27.
