data_PCOD9135110
_publ_section_title
;
Structure prediction by ZEFSAII (Michael W. Deem and Ramdas Pophale) SiO2 
 PCOD9135110
Probable space group: C C
;
_chemical_formula_sum "Si O2"
_cell_formula_units_Z 32
_cell_length_a 10.295284
_cell_length_b 9.316554
_cell_length_c 20.326376
_cell_angle_alpha 90.000000
_cell_angle_beta 40.885126
_cell_angle_gamma 90.000000
_cell_volume 1276.123826
_symmetry_space_group_name_H-M "C C"
_symmetry_group_IT_number 9
_symmetry_cell_setting 'monoclinic'
loop_
_space_group_symop_operation_xyz
x,y,z
x,-y,1/2+z
1/2+x,1/2+y,z
1/2+x,1/2-y,1/2+z
loop_
_atom_site_type_symbol
_atom_site_label
_atom_site_fract_x
_atom_site_fract_y
_atom_site_fract_z
Si Si1 0.955260 0.386801 0.659910
Si Si2 0.200835 0.754977 0.170726
Si Si3 0.819679 0.969509 0.954130
Si Si4 0.337299 0.904685 0.846285
Si Si5 0.198505 0.083509 0.150295
Si Si6 0.264638 0.432517 0.828286
Si Si7 0.075272 0.851331 0.460363
Si Si8 0.009734 0.315218 0.426125
O O1 0.866802 0.458674 0.759211
O O2 0.784634 0.325137 0.678530
O O3 0.089782 0.264289 0.642144
O O4 0.102321 0.491453 0.564611
O O5 0.050197 0.671751 0.277366
O O6 0.214122 0.923340 0.173795
O O7 0.414710 0.684591 0.078113
O O8 0.827326 0.002983 0.874719
O O9 0.886320 0.804412 0.934336
O O10 0.960399 0.059362 0.948002
O O11 0.167270 0.783132 0.907327
O O12 0.249450 0.041120 0.917339
O O13 0.973014 0.111995 0.216896
O O14 0.353817 0.106681 0.033144
O O15 0.144234 0.294306 0.898690
O O16 0.140535 0.560148 0.842581
#
# Coordination Sequence:
#
# PCOD9135110 Si02
#       8
#     4   4   4   4   4   4   4   4
#     4   9  19  38  64  85 117 166 199 243 315 353
#     4   9  19  35  59  89 120 156 203 259 295 362
#     4  10  22  42  64  88 127 160 205 262 301 364
#     4   9  20  38  58  87 125 156 201 256 302 359
#     4  12  21  36  63  92 121 161 207 250 305 372
#     4  12  23  39  65  91 123 165 207 251 311 367
#     4  10  20  37  62  88 119 162 204 247 308 365
#     4  11  22  39  61  94 122 160 206 256 305 366
#
# _framework density 25.075938000000001
#
# number of rings (size 3 to 8) (size 9 to 14) (size 15 to 20)
#    0.750    1.000    3.750    1.500    1.750    0.000 
#    0.000    5.000    0.000    1.500    0.000    0.000 
#    0.000    0.000    0.000    0.000    0.000    0.000 
#
# Total GULP energy -89397.539329 kJ/mol
# GULP energy per Si atom -5587.346208 kJ/mol
# Density = 2.501886 g / cm^3
# Si number density = 25.075938 Si / 1000 Ang^3
#
#
#
# Elastic Constant Matrix: (Units=GPa)
#
#
# Indices 1 2 3 4 5 6 
#
# 1 64.0006 15.3475 13.3091 0.0000 -9.4692 0.0000
# 2 15.3475 111.8169 35.6102 0.0000 -17.8043 0.0000
# 3 13.3091 35.6102 166.7892 0.0000 -36.8538 0.0000
# 4 0.0000 0.0000 0.0000 37.7134 0.0000 -4.0043
# 5 -9.4692 -17.8043 -36.8538 0.0000 37.4635 0.0000
# 6 0.0000 0.0000 0.0000 -4.0043 0.0000 27.7306
#
#
#
# Elastic Compliance Matrix: (Units=1/GPa)
#
#
# Indices 1 2 3 4 5 6 
#
# 1 0.016547 -0.001689 -0.000272 0.000000 0.003112 0.000000
# 2 -0.001689 0.010088 -0.001347 0.000000 0.003043 0.000000
# 3 -0.000272 -0.001347 0.007856 0.000000 0.007019 0.000000
# 4 0.000000 0.000000 0.000000 0.026929 0.000000 0.003889
# 5 0.003112 0.003043 0.007019 0.000000 0.035830 0.000000
# 6 0.000000 0.000000 0.000000 0.003889 0.000000 0.036623
#
#
# Mechanical properties :
#
#
# Convention : Reuss Voigt Hill
#
# Bulk Modulus (GPa) = 35.87421 52.34894 44.11157
# Shear Modulus (GPa) = 33.38221 39.13747 36.25984
#
# Velocity S-wave (km/s) = 3.65258 3.95493 3.80676
# Velocity P-wave (km/s) = 5.66796 6.46350 6.07875
#
# Compressibility (1/GPa) = 0.02787518
#
# Stress axis : x y z
#
# Youngs Moduli (GPa) = 60.43424 99.12362 127.29426
#
# Poissons Ratio (x) = 0.16742 0.03464
# Poissons Ratio (y) = 0.10207 0.17145
# Poissons Ratio (z) = 0.01645 0.13350
#
# Static dielectric constant tensor:
#      x y z
#    x 2.041440 0.000000 -0.065740 
#    y 0.000000 1.955050 0.000000 
#    z -0.065740 0.000000 1.997040 
# 
# From -- ./inp_files/29929.got.cif
#   From: 2010.05.17/outbox.cif.g08.bks.cpg/sg9_15_cif.got.tgz:29929.got - 2010.06.03 20:04:27.
