data_PCOD9135897
_publ_section_title
;
Structure prediction by ZEFSAII (Michael W. Deem and Ramdas Pophale) SiO2 
 PCOD9135897
Probable space group: C C
;
_chemical_formula_sum "Si O2"
_cell_formula_units_Z 28
_cell_length_a 9.727231
_cell_length_b 28.728234
_cell_length_c 5.280506
_cell_angle_alpha 90.000000
_cell_angle_beta 59.011161
_cell_angle_gamma 90.000000
_cell_volume 1264.998806
_symmetry_space_group_name_H-M "C C"
_symmetry_group_IT_number 9
_symmetry_cell_setting 'monoclinic'
loop_
_space_group_symop_operation_xyz
x,y,z
x,-y,1/2+z
1/2+x,1/2+y,z
1/2+x,1/2-y,1/2+z
loop_
_atom_site_type_symbol
_atom_site_label
_atom_site_fract_x
_atom_site_fract_y
_atom_site_fract_z
Si Si1 0.816220 0.090170 0.750000
Si Si2 0.652310 0.270330 0.076319
Si Si3 0.383303 0.725000 0.499413
Si Si4 0.441637 0.801306 0.091946
Si Si5 0.747590 0.854577 0.805900
Si Si6 0.142336 0.031468 0.421084
Si Si7 0.496528 0.030366 0.159078
O O1 0.790630 0.111116 0.494953
O O2 0.985173 0.063282 0.597655
O O3 0.813290 0.128034 0.977555
O O4 0.657863 0.059490 0.960352
O O5 0.542876 0.294970 0.971529
O O6 0.747919 0.230095 0.837252
O O7 0.772800 0.303498 0.110283
O O8 0.537994 0.241317 0.368938
O O9 0.321701 0.694268 0.328892
O O10 0.412189 0.778858 0.393947
O O11 0.556240 0.845416 0.976274
O O12 0.320887 0.053837 0.282627
O O13 0.135135 0.993354 0.653890
O O14 0.500014 0.009907 0.440085
#
# Coordination Sequence:
#
# PCOD9135897 Si02
#       7
#     4   4   4   4   4   4   4
#     4  12  25  43  64 102 146 172 204 278 350 387
#     4  10  21  36  66  82 115 152 240 285 322 378
#     4  11  21  40  61  88 114 171 229 283 325 397
#     4  11  21  40  61  88 114 171 229 283 325 397
#     4  12  26  41  64  92 139 172 220 281 344 393
#     4  10  21  42  74 102 130 175 222 255 306 410
#     4  10  21  42  74 102 130 175 222 255 306 410
#
# _framework density 22.134408000000001
#
# number of rings (size 3 to 8) (size 9 to 14) (size 15 to 20)
#    0.000    1.143    2.857    3.429    4.000    0.000 
#    2.571    0.000    0.000    0.000    0.000    0.000 
#    0.000    0.000    0.000    0.000    0.000    0.000 
#
# Total GULP energy -78215.534390 kJ/mol
# GULP energy per Si atom -5586.823885 kJ/mol
# Density = 2.208403 g / cm^3
# Si number density = 22.134408 Si / 1000 Ang^3
#
#
#
# Elastic Constant Matrix: (Units=GPa)
#
#
# Indices 1 2 3 4 5 6 
#
# 1 143.7393 10.1396 18.4192 0.0000 -10.1021 0.0000
# 2 10.1396 17.4955 6.5275 0.0000 -10.3345 0.0000
# 3 18.4192 6.5275 77.6243 0.0000 -11.0659 0.0000
# 4 0.0000 0.0000 0.0000 28.7131 0.0000 7.0182
# 5 -10.1021 -10.3345 -11.0659 0.0000 43.8241 0.0000
# 6 0.0000 0.0000 0.0000 7.0182 0.0000 28.3892
#
#
#
# Elastic Compliance Matrix: (Units=1/GPa)
#
#
# Indices 1 2 3 4 5 6 
#
# 1 0.007418 -0.003459 -0.001392 0.000000 0.000543 0.000000
# 2 -0.003459 0.068938 -0.002876 0.000000 0.014733 0.000000
# 3 -0.001392 -0.002876 0.013809 0.000000 0.002488 0.000000
# 4 0.000000 0.000000 0.000000 0.037067 0.000000 -0.009164
# 5 0.000543 0.014733 0.002488 0.000000 0.027046 0.000000
# 6 0.000000 0.000000 0.000000 -0.009164 0.000000 0.037490
#
#
# Mechanical properties :
#
#
# Convention : Reuss Voigt Hill
#
# Bulk Modulus (GPa) = 13.38483 34.33684 23.86084
# Shear Modulus (GPa) = 21.54006 33.77013 27.65510
#
# Velocity S-wave (km/s) = 3.12292 3.91024 3.53854
# Velocity P-wave (km/s) = 4.36620 5.99443 5.24389
#
# Compressibility (1/GPa) = 0.07471142
#
# Stress axis : x y z
#
# Youngs Moduli (GPa) = 134.81555 14.50577 72.41474
#
# Poissons Ratio (x) = 0.05018 0.10079
# Poissons Ratio (y) = 0.46633 0.20826
# Poissons Ratio (z) = 0.18764 0.04172
#
# Static dielectric constant tensor:
#      x y z
#    x 1.848020 0.000000 -0.011680 
#    y 0.000000 1.818160 0.000000 
#    z -0.011680 0.000000 1.810450 
# 
# From -- ./inp_files/1183.got.cif
#   From: 2010.05.17/outbox.cif.g08.bks.cpg/sg9_1_cif.got.tgz:1183.got - 2010.06.03 20:04:27.
