data_PCOD9135522
_publ_section_title
;
Structure prediction by ZEFSAII (Michael W. Deem and Ramdas Pophale) SiO2 
 PCOD9135522
Probable space group: C C
;
_chemical_formula_sum "Si O2"
_cell_formula_units_Z 28
_cell_length_a 7.101032
_cell_length_b 12.978381
_cell_length_c 11.628875
_cell_angle_alpha 90.000000
_cell_angle_beta 71.999739
_cell_angle_gamma 90.000000
_cell_volume 1019.260923
_symmetry_space_group_name_H-M "C C"
_symmetry_group_IT_number 9
_symmetry_cell_setting 'monoclinic'
loop_
_space_group_symop_operation_xyz
x,y,z
x,-y,1/2+z
1/2+x,1/2+y,z
1/2+x,1/2-y,1/2+z
loop_
_atom_site_type_symbol
_atom_site_label
_atom_site_fract_x
_atom_site_fract_y
_atom_site_fract_z
Si Si1 0.332610 0.525965 0.597340
Si Si2 0.337562 0.846788 0.488743
Si Si3 0.491877 0.382106 0.381620
Si Si4 0.491571 0.857643 0.078067
Si Si5 0.243642 0.950095 0.720172
Si Si6 0.567050 0.699499 0.620951
Si Si7 0.049872 0.454289 0.837312
O O1 0.336474 0.436848 0.499346
O O2 0.542134 0.583122 0.572415
O O3 0.242225 0.473374 0.726257
O O4 0.192660 0.630426 0.612783
O O5 0.169767 0.828165 0.422174
O O6 0.196971 0.878939 0.622745
O O7 0.491429 0.774411 0.531936
O O8 0.463442 0.937740 0.403668
O O9 0.576675 0.489517 0.315685
O O10 0.463810 0.317275 0.267801
O O11 0.301933 0.783311 0.104486
O O12 0.387413 0.961644 0.143261
O O13 0.577508 0.881133 0.937901
O O14 0.384882 0.901449 0.788385
#
# Coordination Sequence:
#
# PCOD9135522 Si02
#       7
#     4   4   4   4   4   4   4
#     4  11  21  39  69 106 135 189 250 297 367 450
#     4  10  21  41  68 108 146 186 241 309 383 436
#     4  10  20  40  73 101 146 193 246 301 365 461
#     4   9  19  37  64  94 132 182 242 288 345 440
#     4   8  16  35  65  95 127 184 239 293 351 427
#     4  11  23  42  68 106 148 187 239 313 381 428
#     4   9  18  38  67  96 130 181 241 295 346 444
#
# _framework density 27.470884000000002
#
# number of rings (size 3 to 8) (size 9 to 14) (size 15 to 20)
#    0.000    2.286    0.000    5.143    0.000    0.000 
#    7.714    4.286    0.000    0.000    0.000    0.000 
#    0.000    0.000    0.000    0.000    0.000    0.000 
#
# Total GULP energy -77975.250901 kJ/mol
# GULP energy per Si atom -5569.660779 kJ/mol
# Density = 2.740836 g / cm^3
# Si number density = 27.470884 Si / 1000 Ang^3
#
#
#
# Elastic Constant Matrix: (Units=GPa)
#
#
# Indices 1 2 3 4 5 6 
#
# 1 106.0875 31.5438 31.1455 0.0000 10.3363 0.0000
# 2 31.5438 112.9465 49.2865 0.0000 -4.4325 0.0000
# 3 31.1455 49.2865 188.6948 0.0000 5.4901 0.0000
# 4 0.0000 0.0000 0.0000 5.6099 0.0000 11.9165
# 5 10.3363 -4.4325 5.4901 0.0000 60.0163 0.0000
# 6 0.0000 0.0000 0.0000 11.9165 0.0000 37.3146
#
#
#
# Elastic Compliance Matrix: (Units=1/GPa)
#
#
# Indices 1 2 3 4 5 6 
#
# 1 0.010694 -0.002615 -0.001026 0.000000 -0.001941 0.000000
# 2 -0.002615 0.010690 -0.002403 0.000000 0.001460 0.000000
# 3 -0.001026 -0.002403 0.006113 0.000000 -0.000560 0.000000
# 4 0.000000 0.000000 0.000000 0.554237 0.000000 -0.176997
# 5 -0.001941 0.001460 -0.000560 0.000000 0.017155 0.000000
# 6 0.000000 0.000000 0.000000 -0.176997 0.000000 0.083324
#
#
# Mechanical properties :
#
#
# Convention : Reuss Voigt Hill
#
# Bulk Modulus (GPa) = 64.89648 70.18671 67.54159
# Shear Modulus (GPa) = 7.14861 40.30502 23.72681
#
# Velocity S-wave (km/s) = 1.61490 3.83455 2.94208
# Velocity P-wave (km/s) = 5.21078 6.72384 6.01507
#
# Compressibility (1/GPa) = 0.01540916
#
# Stress axis : x y z
#
# Youngs Moduli (GPa) = 93.51027 93.54504 163.59148
#
# Poissons Ratio (x) = 0.24465 0.16777
# Poissons Ratio (y) = 0.24456 0.39311
# Poissons Ratio (z) = 0.09590 0.22479
#
# Static dielectric constant tensor:
#      x y z
#    x 2.345560 0.000000 0.085560 
#    y 0.000000 2.283880 0.000000 
#    z 0.085560 0.000000 2.169510 
# 
# From -- ./inp_files/14402.got.cif
#   From: 2010.05.17/outbox.cif.g08.bks.cpg/sg9_8_cif.got.tgz:14402.got - 2010.06.03 20:04:27.
