data_PCOD9135555
_publ_section_title
;
Structure prediction by ZEFSAII (Michael W. Deem and Ramdas Pophale) SiO2 
 PCOD9135555
Probable space group: C C
;
_chemical_formula_sum "Si O2"
_cell_formula_units_Z 32
_cell_length_a 11.362859
_cell_length_b 9.214663
_cell_length_c 11.294317
_cell_angle_alpha 90.000000
_cell_angle_beta 110.737338
_cell_angle_gamma 90.000000
_cell_volume 1105.955892
_symmetry_space_group_name_H-M "C C"
_symmetry_group_IT_number 9
_symmetry_cell_setting 'monoclinic'
loop_
_space_group_symop_operation_xyz
x,y,z
x,-y,1/2+z
1/2+x,1/2+y,z
1/2+x,1/2-y,1/2+z
loop_
_atom_site_type_symbol
_atom_site_label
_atom_site_fract_x
_atom_site_fract_y
_atom_site_fract_z
Si Si1 0.470840 0.793622 0.416780
Si Si2 0.314829 0.722152 0.755049
Si Si3 0.081431 0.024367 0.588282
Si Si4 0.889715 0.450292 0.597458
Si Si5 0.590180 0.391450 0.351195
Si Si6 0.861869 0.217787 0.041048
Si Si7 0.312714 0.448684 0.733348
Si Si8 0.112873 0.559960 0.340918
O O1 0.526051 0.679681 0.531868
O O2 0.369614 0.878844 0.462268
O O3 0.420591 0.682163 0.300203
O O4 0.550709 0.923789 0.385079
O O5 0.322460 0.861781 0.679629
O O6 0.431446 0.594146 0.780562
O O7 0.225202 0.603732 0.671525
O O8 0.309292 0.747087 0.890183
O O9 0.135445 0.055984 0.738882
O O10 0.139478 0.980295 0.480658
O O11 0.981331 0.892222 0.570387
O O12 0.880148 0.621074 0.593902
O O13 0.032300 0.421728 0.691451
O O14 0.594378 0.222102 0.386064
O O15 0.772260 0.132844 0.097700
O O16 0.255519 0.445223 0.848449
#
# Coordination Sequence:
#
# PCOD9135555 Si02
#       8
#     4   4   4   4   4   4   4   4
#     4  12  21  43  71  99 137 195 231 298 381 430
#     4  10  21  40  67  98 134 182 236 282 358 448
#     4  11  19  39  73  99 130 192 237 281 377 444
#     4  11  22  42  70  98 140 186 233 287 372 437
#     4  10  20  41  65 101 136 180 232 295 357 445
#     4  11  21  39  71  98 132 185 235 290 363 441
#     4  12  24  43  71 102 135 190 243 295 365 437
#     4  11  26  43  66 105 142 180 245 304 359 444
#
# _framework density 28.934246000000002
#
# number of rings (size 3 to 8) (size 9 to 14) (size 15 to 20)
#    0.000    1.000    7.500    2.250    0.000    1.000 
#    0.000    2.500    0.000    0.000    0.000    0.000 
#    0.000    0.000    0.000    0.000    0.000    0.000 
#
# Total GULP energy -89281.615026 kJ/mol
# GULP energy per Si atom -5580.100939 kJ/mol
# Density = 2.886839 g / cm^3
# Si number density = 28.934246 Si / 1000 Ang^3
#
#
#
# Elastic Constant Matrix: (Units=GPa)
#
#
# Indices 1 2 3 4 5 6 
#
# 1 51.3117 51.9723 52.2081 0.0000 -20.7754 0.0000
# 2 51.9723 294.2542 126.7045 0.0000 -25.1501 0.0000
# 3 52.2081 126.7045 231.8237 0.0000 -10.6990 0.0000
# 4 0.0000 0.0000 0.0000 76.6176 0.0000 -23.5151
# 5 -20.7754 -25.1501 -10.6990 0.0000 47.4139 0.0000
# 6 0.0000 0.0000 0.0000 -23.5151 0.0000 31.5145
#
#
#
# Elastic Compliance Matrix: (Units=1/GPa)
#
#
# Indices 1 2 3 4 5 6 
#
# 1 0.032048 -0.002345 -0.005401 0.000000 0.011580 0.000000
# 2 -0.002345 0.004779 -0.002035 0.000000 0.001048 0.000000
# 3 -0.005401 -0.002035 0.006552 0.000000 -0.001968 0.000000
# 4 0.000000 0.000000 0.000000 0.016929 0.000000 0.012632
# 5 0.011580 0.001048 -0.001968 0.000000 0.026277 0.000000
# 6 0.000000 0.000000 0.000000 0.012632 0.000000 0.041157
#
#
# Mechanical properties :
#
#
# Convention : Reuss Voigt Hill
#
# Bulk Modulus (GPa) = 41.99007 115.46215 78.72611
# Shear Modulus (GPa) = 32.20781 54.20952 43.20867
#
# Velocity S-wave (km/s) = 3.33999 4.33314 3.86857
# Velocity P-wave (km/s) = 5.42382 8.06390 6.87184
#
# Compressibility (1/GPa) = 0.02381515
#
# Stress axis : x y z
#
# Youngs Moduli (GPa) = 31.20306 209.26869 152.63400
#
# Poissons Ratio (x) = 0.49072 0.82444
# Poissons Ratio (y) = 0.07317 0.31065
# Poissons Ratio (z) = 0.16854 0.42592
#
# Static dielectric constant tensor:
#      x y z
#    x 2.602470 0.000000 0.045430 
#    y 0.000000 2.223440 0.000000 
#    z 0.045430 0.000000 2.225940 
# 
# From -- ./inp_files/17938.got.cif
#   From: 2010.05.17/outbox.cif.g08.bks.cpg/sg9_9_cif.got.tgz:17938.got - 2010.06.03 20:04:27.
