data_PCOD9135590
_publ_section_title
;
Structure prediction by ZEFSAII (Michael W. Deem and Ramdas Pophale) SiO2 
 PCOD9135590
Probable space group: C C
;
_chemical_formula_sum "Si O2"
_cell_formula_units_Z 32
_cell_length_a 7.751324
_cell_length_b 12.081053
_cell_length_c 22.067704
_cell_angle_alpha 90.000000
_cell_angle_beta 38.175687
_cell_angle_gamma 90.000000
_cell_volume 1277.258833
_symmetry_space_group_name_H-M "C C"
_symmetry_group_IT_number 9
_symmetry_cell_setting 'monoclinic'
loop_
_space_group_symop_operation_xyz
x,y,z
x,-y,1/2+z
1/2+x,1/2+y,z
1/2+x,1/2-y,1/2+z
loop_
_atom_site_type_symbol
_atom_site_label
_atom_site_fract_x
_atom_site_fract_y
_atom_site_fract_z
Si Si1 0.552110 0.205621 0.587100
Si Si2 0.910039 0.358300 0.617138
Si Si3 0.147669 0.684206 0.821949
Si Si4 0.485885 0.033584 0.700966
Si Si5 0.309323 0.247371 0.804415
Si Si6 0.890429 0.571218 0.990939
Si Si7 0.670357 0.646496 0.588789
Si Si8 0.030137 0.345596 0.781512
O O1 0.743742 0.310042 0.521664
O O2 0.441400 0.150008 0.556618
O O3 0.271161 0.265270 0.689053
O O4 0.658628 0.116132 0.607427
O O5 0.601381 0.303988 0.700529
O O6 0.982289 0.417998 0.534956
O O7 0.897637 0.440131 0.677607
O O8 0.135831 0.262174 0.564155
O O9 0.394033 0.650107 0.707212
O O10 0.251313 0.788991 0.832963
O O11 0.886261 0.722007 0.852714
O O12 0.110484 0.579585 0.876491
O O13 0.573030 0.962784 0.736285
O O14 0.271873 0.124045 0.786838
O O15 0.073842 0.327282 0.841351
O O16 0.693577 0.464453 0.043265
#
# Coordination Sequence:
#
# PCOD9135590 Si02
#       8
#     4   4   4   4   4   4   4   4
#     4  10  21  37  65  97 129 179 227 275 352 408
#     4  11  21  38  70  99 133 179 231 296 345 416
#     4  10  24  46  69 106 142 182 244 289 345 418
#     4  11  19  37  70  99 128 171 235 280 341 426
#     4  10  22  41  67 102 128 180 234 277 362 403
#     4  12  24  44  67 101 148 180 236 300 339 419
#     4  10  23  44  69 100 136 191 235 281 363 409
#     4  10  20  41  69  94 132 178 226 282 343 417
#
# _framework density 25.053654000000002
#
# number of rings (size 3 to 8) (size 9 to 14) (size 15 to 20)
#    0.000    1.500    7.500    0.000    3.500    0.000 
#    4.500    6.250    0.000    0.000    0.000    0.000 
#    0.000    0.000    0.000    0.000    0.000    0.000 
#
# Total GULP energy -89230.408193 kJ/mol
# GULP energy per Si atom -5576.900512 kJ/mol
# Density = 2.499663 g / cm^3
# Si number density = 25.053654 Si / 1000 Ang^3
#
#
#
# Elastic Constant Matrix: (Units=GPa)
#
#
# Indices 1 2 3 4 5 6 
#
# 1 138.1527 72.6311 18.1521 -0.0011 24.9703 -0.0015
# 2 72.6311 186.1370 24.0913 0.0001 7.4272 -0.0012
# 3 18.1521 24.0913 55.5040 -0.0025 13.1910 0.0029
# 4 -0.0011 0.0001 -0.0025 29.3360 -0.0012 6.4541
# 5 24.9703 7.4272 13.1910 -0.0012 14.8316 0.0027
# 6 -0.0015 -0.0012 0.0029 6.4541 0.0027 36.7864
#
#
#
# Elastic Compliance Matrix: (Units=1/GPa)
#
#
# Indices 1 2 3 4 5 6 
#
# 1 0.013513 -0.004756 0.003152 -0.000001 -0.023172 0.000002
# 2 -0.004756 0.007374 -0.003386 0.000000 0.007326 0.000000
# 3 0.003152 -0.003386 0.024490 0.000001 -0.025392 0.000000
# 4 -0.000001 0.000000 0.000001 0.035456 0.000004 -0.006221
# 5 -0.023172 0.007326 -0.025392 0.000004 0.125349 -0.000009
# 6 0.000002 0.000000 0.000000 -0.006221 -0.000009 0.028275
#
#
# Mechanical properties :
#
#
# Convention : Reuss Voigt Hill
#
# Bulk Modulus (GPa) = 28.25150 67.72697 47.98923
# Shear Modulus (GPa) = 19.51307 33.85207 26.68257
#
# Velocity S-wave (km/s) = 2.79382 3.67983 3.26700
# Velocity P-wave (km/s) = 4.65920 6.71910 5.78163
#
# Compressibility (1/GPa) = 0.03539635
#
# Stress axis : x y z
#
# Youngs Moduli (GPa) = 74.00410 135.60799 40.83223
#
# Poissons Ratio (x) = 0.64496 -0.12870
# Poissons Ratio (y) = 0.35197 0.13828
# Poissons Ratio (z) = -0.23326 0.45923
#
# Static dielectric constant tensor:
#      x y z
#    x 2.075550 -0.000030 0.036940 
#    y -0.000030 2.068550 0.000060 
#    z 0.036940 0.000060 2.185550 
# 
# From -- ./inp_files/35006.got.cif
#   From: 2010.05.17/outbox.cif.g08.bks.cpg/sg9_18_cif.got.tgz:35006.got - 2010.06.03 20:04:27.
