data_PCOD9135317
_publ_section_title
;
Structure prediction by ZEFSAII (Michael W. Deem and Ramdas Pophale) SiO2 
 PCOD9135317
Probable space group: C C
;
_chemical_formula_sum "Si O2"
_cell_formula_units_Z 24
_cell_length_a 5.248121
_cell_length_b 15.440417
_cell_length_c 15.251538
_cell_angle_alpha 90.000000
_cell_angle_beta 132.888717
_cell_angle_gamma 90.000000
_cell_volume 905.501192
_symmetry_space_group_name_H-M "C C"
_symmetry_group_IT_number 9
_symmetry_cell_setting 'monoclinic'
loop_
_space_group_symop_operation_xyz
x,y,z
x,-y,1/2+z
1/2+x,1/2+y,z
1/2+x,1/2-y,1/2+z
loop_
_atom_site_type_symbol
_atom_site_label
_atom_site_fract_x
_atom_site_fract_y
_atom_site_fract_z
Si Si1 0.770700 0.807386 0.142690
Si Si2 0.848170 0.988713 0.223110
Si Si3 0.362133 0.637698 0.468039
Si Si4 0.018501 0.724151 0.870027
Si Si5 0.587572 0.661993 0.217381
Si Si6 0.670885 0.033758 0.884331
O O1 0.600546 0.716771 0.131929
O O2 0.116085 0.803003 0.285727
O O3 0.651477 0.905831 0.136635
O O4 0.848968 0.813357 0.057479
O O5 0.823432 0.081413 0.167110
O O6 0.735311 0.990345 0.297680
O O7 0.265445 0.974913 0.315324
O O8 0.581678 0.695311 0.451082
O O9 0.979377 0.635195 0.334687
O O10 0.413890 0.534521 0.493535
O O11 0.235316 0.635729 0.913580
O O12 0.008994 0.767921 0.773106
#
# Coordination Sequence:
#
# PCOD9135317 Si02
#       6
#     4   4   4   4   4   4
#     4  10  22  40  60  95 129 168 220 272 322 393
#     4  10  20  39  63  87 121 168 210 260 329 384
#     4  10  22  40  60  95 129 168 220 272 322 393
#     4  10  20  39  65  86 128 172 211 267 331 387
#     4  10  20  39  65  86 128 172 211 267 331 387
#     4  10  20  39  63  87 121 168 210 260 329 384
#
# _framework density 26.504660999999999
#
# number of rings (size 3 to 8) (size 9 to 14) (size 15 to 20)
#    0.000    2.000    3.333    0.000    0.000    1.333 
#    6.000    0.000    0.000    0.000    0.000    0.000 
#    0.000    0.000    0.000    0.000    0.000    0.000 
#
# Total GULP energy -66976.733521 kJ/mol
# GULP energy per Si atom -5581.394460 kJ/mol
# Density = 2.644433 g / cm^3
# Si number density = 26.504661 Si / 1000 Ang^3
#
#
#
# Elastic Constant Matrix: (Units=GPa)
#
#
# Indices 1 2 3 4 5 6 
#
# 1 80.6459 38.5745 30.1961 0.0000 -28.0196 -0.0001
# 2 38.5745 253.3302 66.9955 0.0000 -20.9769 0.0000
# 3 30.1961 66.9955 83.0027 0.0000 -23.2631 0.0000
# 4 0.0000 0.0000 0.0000 62.8457 0.0000 -42.9608
# 5 -28.0196 -20.9769 -23.2631 0.0000 54.0306 -0.0001
# 6 -0.0001 0.0000 0.0000 -42.9608 -0.0001 185.7222
#
#
#
# Elastic Compliance Matrix: (Units=1/GPa)
#
#
# Indices 1 2 3 4 5 6 
#
# 1 0.016468 -0.001099 -0.003218 0.000000 0.006728 0.000000
# 2 -0.001099 0.005095 -0.003773 0.000000 -0.000217 0.000000
# 3 -0.003218 -0.003773 0.017497 0.000000 0.004400 0.000000
# 4 0.000000 0.000000 0.000000 0.018901 0.000000 0.004372
# 5 0.006728 -0.000217 0.004400 0.000000 0.023807 0.000000
# 6 0.000000 0.000000 0.000000 0.004372 0.000000 0.006396
#
#
# Mechanical properties :
#
#
# Convention : Reuss Voigt Hill
#
# Bulk Modulus (GPa) = 43.70825 76.50122 60.10474
# Shear Modulus (GPa) = 44.65458 79.26720 61.96089
#
# Velocity S-wave (km/s) = 4.10906 5.47465 4.84026
# Velocity P-wave (km/s) = 6.24813 8.29990 7.34600
#
# Compressibility (1/GPa) = 0.02287898
#
# Stress axis : x y z
#
# Youngs Moduli (GPa) = 60.72297 196.28344 57.15291
#
# Poissons Ratio (x) = 0.21581 0.18392
# Poissons Ratio (y) = 0.06676 0.21563
# Poissons Ratio (z) = 0.19541 0.74056
#
# Static dielectric constant tensor:
#      x y z
#    x 2.358680 0.000000 0.161880 
#    y 0.000000 1.351460 0.000000 
#    z 0.161880 0.000000 2.087290 
# 
# From -- ./inp_files/12922.got.cif
#   From: 2010.05.17/outbox.cif.g08.bks.cpg/sg9_7_cif.got.tgz:12922.got - 2010.06.03 20:04:27.
