data_PCOD9135777
_publ_section_title
;
Structure prediction by ZEFSAII (Michael W. Deem and Ramdas Pophale) SiO2 
 PCOD9135777
Probable space group: C C
;
_chemical_formula_sum "Si O2"
_cell_formula_units_Z 20
_cell_length_a 10.812939
_cell_length_b 9.243794
_cell_length_c 9.044108
_cell_angle_alpha 90.000000
_cell_angle_beta 63.207666
_cell_angle_gamma 90.000000
_cell_volume 806.935981
_symmetry_space_group_name_H-M "C C"
_symmetry_group_IT_number 9
_symmetry_cell_setting 'monoclinic'
loop_
_space_group_symop_operation_xyz
x,y,z
x,-y,1/2+z
1/2+x,1/2+y,z
1/2+x,1/2-y,1/2+z
loop_
_atom_site_type_symbol
_atom_site_label
_atom_site_fract_x
_atom_site_fract_y
_atom_site_fract_z
Si Si1 0.503110 0.441333 0.202980
Si Si2 0.180294 0.870853 0.841936
Si Si3 0.325924 0.629148 0.064027
Si Si4 0.668913 0.845991 0.118071
Si Si5 0.337307 0.845988 0.287892
O O1 0.596485 0.546815 0.255306
O O2 0.409736 0.546816 0.150653
O O3 0.422860 0.351096 0.370205
O O4 0.583357 0.351093 0.035756
O O5 0.219171 0.720401 0.746878
O O6 0.295781 0.986941 0.823607
O O7 0.210435 0.513061 0.082363
O O8 0.287049 0.779600 0.159083
O O9 0.503110 0.834276 0.202981
O O10 0.753112 0.750005 0.952980
#
# Coordination Sequence:
#
# PCOD9135777 Si02
#       5
#     4   4   4   4   4
#     4  10  20  44  70 100 136 194 218 278 358 418
#     4  11  22  44  75  97 142 188 228 283 357 407
#     4  11  22  44  75  97 142 188 228 283 357 407
#     4  12  25  47  70 105 144 181 230 297 343 411
#     4  12  25  47  70 105 144 181 230 297 343 411
#
# _framework density 24.785112000000002
#
# number of rings (size 3 to 8) (size 9 to 14) (size 15 to 20)
#    0.000    0.800    6.000    2.400    0.000    3.200 
#    3.600    0.000    0.000    0.000    0.000    0.000 
#    0.000    0.000    0.000    0.000    0.000    0.000 
#
# Total GULP energy -55984.574731 kJ/mol
# GULP energy per Si atom -5598.457473 kJ/mol
# Density = 2.472870 g / cm^3
# Si number density = 24.785112 Si / 1000 Ang^3
#
#
#
# Elastic Constant Matrix: (Units=GPa)
#
#
# Indices 1 2 3 4 5 6 
#
# 1 108.7075 21.6268 35.1320 0.0000 -11.6273 0.0000
# 2 21.6268 107.0811 55.9893 0.0000 -17.3002 0.0000
# 3 35.1320 55.9893 223.6695 0.0000 -11.2299 0.0000
# 4 0.0000 0.0000 0.0000 30.0495 0.0000 22.4734
# 5 -11.6273 -17.3002 -11.2299 0.0000 42.9931 0.0000
# 6 0.0000 0.0000 0.0000 22.4734 0.0000 31.0822
#
#
#
# Elastic Compliance Matrix: (Units=1/GPa)
#
#
# Indices 1 2 3 4 5 6 
#
# 1 0.010012 -0.001075 -0.001205 0.000000 0.001960 0.000000
# 2 -0.001075 0.011464 -0.002517 0.000000 0.003665 0.000000
# 3 -0.001205 -0.002517 0.005292 0.000000 0.000044 0.000000
# 4 0.000000 0.000000 0.000000 0.072461 0.000000 -0.052391
# 5 0.001960 0.003665 0.000044 0.000000 0.025276 0.000000
# 6 0.000000 0.000000 0.000000 -0.052391 0.000000 0.070053
#
#
# Mechanical properties :
#
#
# Convention : Reuss Voigt Hill
#
# Bulk Modulus (GPa) = 58.22720 73.88382 66.05551
# Shear Modulus (GPa) = 23.82349 42.60562 33.21456
#
# Velocity S-wave (km/s) = 3.10369 4.15058 3.66471
# Velocity P-wave (km/s) = 6.03222 7.26940 6.67952
#
# Compressibility (1/GPa) = 0.01717410
#
# Stress axis : x y z
#
# Youngs Moduli (GPa) = 99.87986 87.23017 188.95199
#
# Poissons Ratio (x) = 0.09380 0.22769
# Poissons Ratio (y) = 0.10740 0.47555
# Poissons Ratio (z) = 0.12036 0.21954
#
# Static dielectric constant tensor:
#      x y z
#    x 2.061060 0.000000 -0.003820 
#    y 0.000000 1.970670 0.000000 
#    z -0.003820 0.000000 1.902180 
# 
# From -- ./inp_files/6632.got.cif
#   From: 2010.05.17/outbox.cif.g08.bks.cpg/sg9_4_cif.got.tgz:6632.got - 2010.06.03 20:04:27.
