data_PCOD9135486
_publ_section_title
;
Structure prediction by ZEFSAII (Michael W. Deem and Ramdas Pophale) SiO2 
 PCOD9135486
Probable space group: C C
;
_chemical_formula_sum "Si O2"
_cell_formula_units_Z 32
_cell_length_a 19.479605
_cell_length_b 5.025343
_cell_length_c 24.138103
_cell_angle_alpha 90.000000
_cell_angle_beta 146.721747
_cell_angle_gamma 90.000000
_cell_volume 1296.547221
_symmetry_space_group_name_H-M "C C"
_symmetry_group_IT_number 9
_symmetry_cell_setting 'monoclinic'
loop_
_space_group_symop_operation_xyz
x,y,z
x,-y,1/2+z
1/2+x,1/2+y,z
1/2+x,1/2-y,1/2+z
loop_
_atom_site_type_symbol
_atom_site_label
_atom_site_fract_x
_atom_site_fract_y
_atom_site_fract_z
Si Si1 0.598350 0.749949 0.449480
Si Si2 0.114595 0.346107 0.652592
Si Si3 0.367852 0.360162 0.304645
Si Si4 0.580471 0.882557 0.317478
Si Si5 0.995528 0.400688 0.974712
Si Si6 0.083743 0.847136 0.706617
Si Si7 0.239367 0.898250 0.621705
Si Si8 0.928583 0.915288 0.186559
O O1 0.498061 0.506996 0.379028
O O2 0.641267 0.853145 0.418587
O O3 0.706814 0.652171 0.563715
O O4 0.526935 0.966576 0.437292
O O5 0.251286 0.434903 0.722795
O O6 0.013539 0.380352 0.534491
O O7 0.131497 0.071344 0.696695
O O8 0.070040 0.573896 0.664977
O O9 0.373376 0.258993 0.372640
O O10 0.335819 0.138724 0.236841
O O11 0.645423 0.743492 0.307511
O O12 0.463129 0.679680 0.243846
O O13 0.528282 0.174975 0.267239
O O14 0.107818 0.192761 0.059729
O O15 0.955520 0.983985 0.642779
O O16 0.296385 0.700766 0.614004
#
# Coordination Sequence:
#
# PCOD9135486 Si02
#       8
#     4   4   4   4   4   4   4   4
#     4  11  23  38  66  98 132 161 217 275 327 391
#     4  11  24  41  69  89 131 171 221 255 319 381
#     4  10  22  42  61  93 128 173 211 266 332 385
#     4  10  21  40  67  92 127 168 209 264 320 373
#     4  10  25  39  64  99 127 166 215 275 321 392
#     4  10  21  43  66  92 123 179 216 260 309 384
#     4  10  22  39  63  97 126 169 208 268 337 387
#     4  10  20  40  68  88 124 171 209 257 321 371
#
# _framework density 24.680934000000001
#
# number of rings (size 3 to 8) (size 9 to 14) (size 15 to 20)
#    0.750    1.000    2.500    0.750   10.500    1.000 
#    0.000    2.500    0.000    0.000    0.000    0.000 
#    0.000    0.000    0.000    0.000    0.000    0.000 
#
# Total GULP energy -89185.459498 kJ/mol
# GULP energy per Si atom -5574.091219 kJ/mol
# Density = 2.462476 g / cm^3
# Si number density = 24.680934 Si / 1000 Ang^3
#
#
#
# Elastic Constant Matrix: (Units=GPa)
#
#
# Indices 1 2 3 4 5 6 
#
# 1 87.0110 20.8956 30.9328 -0.0003 -33.9772 0.0056
# 2 20.8956 113.5482 41.6025 0.0022 -18.1993 0.0158
# 3 30.9328 41.6025 118.4028 0.0015 -30.7076 -0.0003
# 4 -0.0003 0.0022 0.0015 26.4468 -0.0002 -4.1390
# 5 -33.9772 -18.1993 -30.7076 -0.0002 42.1514 -0.0021
# 6 0.0056 0.0158 -0.0003 -4.1390 -0.0021 37.9262
#
#
#
# Elastic Compliance Matrix: (Units=1/GPa)
#
#
# Indices 1 2 3 4 5 6 
#
# 1 0.016942 -0.000766 -0.000864 0.000000 0.012696 -0.000001
# 2 -0.000766 0.010310 -0.002994 -0.000001 0.001653 -0.000004
# 3 -0.000864 -0.002994 0.011352 0.000000 0.006281 0.000002
# 4 0.000000 -0.000001 0.000000 0.038469 0.000000 0.004198
# 5 0.012696 0.001653 0.006281 0.000000 0.039247 0.000000
# 6 -0.000001 -0.000004 0.000002 0.004198 0.000000 0.026825
#
#
# Mechanical properties :
#
#
# Convention : Reuss Voigt Hill
#
# Bulk Modulus (GPa) = 34.06494 56.20264 45.13379
# Shear Modulus (GPa) = 30.83036 36.34031 33.58533
#
# Velocity S-wave (km/s) = 3.53818 3.84135 3.69288
# Velocity P-wave (km/s) = 5.52482 6.51888 6.04233
#
# Compressibility (1/GPa) = 0.02935570
#
# Stress axis : x y z
#
# Youngs Moduli (GPa) = 59.02616 96.99749 88.08740
#
# Poissons Ratio (x) = 0.07432 0.07612
# Poissons Ratio (y) = 0.04522 0.26370
# Poissons Ratio (z) = 0.05101 0.29037
#
# Static dielectric constant tensor:
#      x y z
#    x 2.003370 0.000000 -0.019300 
#    y 0.000000 2.012530 0.000010 
#    z -0.019300 0.000010 2.021440 
# 
# From -- ./inp_files/20480.got.cif
#   From: 2010.05.17/outbox.cif.g08.bks.cpg/sg9_11_cif.got.tgz:20480.got - 2010.06.03 20:04:27.
