data_PCOD9135689
_publ_section_title
;
Structure prediction by ZEFSAII (Michael W. Deem and Ramdas Pophale) SiO2 
 PCOD9135689
Probable space group: C C
;
_chemical_formula_sum "Si O2"
_cell_formula_units_Z 20
_cell_length_a 22.407788
_cell_length_b 6.860242
_cell_length_c 8.003236
_cell_angle_alpha 90.000000
_cell_angle_beta 145.462401
_cell_angle_gamma 90.000000
_cell_volume 697.503600
_symmetry_space_group_name_H-M "C C"
_symmetry_group_IT_number 9
_symmetry_cell_setting 'monoclinic'
loop_
_space_group_symop_operation_xyz
x,y,z
x,-y,1/2+z
1/2+x,1/2+y,z
1/2+x,1/2-y,1/2+z
loop_
_atom_site_type_symbol
_atom_site_label
_atom_site_fract_x
_atom_site_fract_y
_atom_site_fract_z
Si Si1 0.860990 0.881112 0.694150
Si Si2 0.331525 0.212188 0.281181
Si Si3 0.641201 0.289563 0.149825
Si Si4 0.561395 0.944959 0.183264
Si Si5 0.511151 0.638661 0.812521
O O1 0.822464 0.739893 0.459117
O O2 0.804943 0.068128 0.647396
O O3 0.950998 0.004122 0.806900
O O4 0.916968 0.782229 0.980600
O O5 0.446606 0.126586 0.495413
O O6 0.238560 0.109357 0.968282
O O7 0.580245 0.163760 0.156125
O O8 0.647321 0.132565 0.013451
O O9 0.587895 0.470456 0.927325
O O10 0.568420 0.814162 0.032875
#
# Coordination Sequence:
#
# PCOD9135689 Si02
#       5
#     4   4   4   4   4
#     4   9  17  40  69  88 133 185 215 284 355 403
#     4  10  21  42  68 101 139 181 236 287 356 423
#     4  12  24  43  69 104 137 182 241 287 354 431
#     4  11  26  43  68 100 141 184 232 298 352 421
#     4  10  20  42  70  91 140 184 224 288 357 408
#
# _framework density 28.673687000000001
#
# number of rings (size 3 to 8) (size 9 to 14) (size 15 to 20)
#    0.000    1.600    6.000    1.200    2.800    0.000 
#    3.600    4.000    0.000    0.000    0.000    0.000 
#    0.000    0.000    0.000    0.000    0.000    0.000 
#
# Total GULP energy -55805.449515 kJ/mol
# GULP energy per Si atom -5580.544951 kJ/mol
# Density = 2.860842 g / cm^3
# Si number density = 28.673687 Si / 1000 Ang^3
#
#
#
# Elastic Constant Matrix: (Units=GPa)
#
#
# Indices 1 2 3 4 5 6 
#
# 1 67.9126 41.8461 38.6515 0.0000 -3.1286 0.0000
# 2 41.8461 146.2567 31.9069 0.0000 -4.0016 0.0000
# 3 38.6515 31.9069 199.6582 0.0000 -42.9785 0.0000
# 4 0.0000 0.0000 0.0000 22.4172 0.0000 -9.4637
# 5 -3.1286 -4.0016 -42.9785 0.0000 47.2800 0.0000
# 6 0.0000 0.0000 0.0000 -9.4637 0.0000 51.8191
#
#
#
# Elastic Compliance Matrix: (Units=1/GPa)
#
#
# Indices 1 2 3 4 5 6 
#
# 1 0.019650 -0.004918 -0.003516 0.000000 -0.002312 0.000000
# 2 -0.004918 0.008326 -0.000369 0.000000 0.000044 0.000000
# 3 -0.003516 -0.000369 0.007076 0.000000 0.006168 0.000000
# 4 0.000000 0.000000 0.000000 0.048335 0.000000 0.008827
# 5 -0.002312 0.000044 0.006168 0.000000 0.026608 0.000000
# 6 0.000000 0.000000 0.000000 0.008827 0.000000 0.020910
#
#
# Mechanical properties :
#
#
# Convention : Reuss Voigt Hill
#
# Bulk Modulus (GPa) = 57.32019 70.95964 64.13992
# Shear Modulus (GPa) = 32.39877 44.39811 38.39844
#
# Velocity S-wave (km/s) = 3.36506 3.93923 3.66341
# Velocity P-wave (km/s) = 5.92724 6.74471 6.34914
#
# Compressibility (1/GPa) = 0.01744586
#
# Stress axis : x y z
#
# Youngs Moduli (GPa) = 50.89121 120.10254 141.32481
#
# Poissons Ratio (x) = 0.59071 0.49684
# Poissons Ratio (y) = 0.25030 0.05215
# Poissons Ratio (z) = 0.17891 0.04432
#
# Static dielectric constant tensor:
#      x y z
#    x 2.437480 0.000000 0.158910 
#    y 0.000000 2.458840 0.000000 
#    z 0.158910 0.000000 2.309030 
# 
# From -- ./inp_files/10268.got.cif
#   From: 2010.05.17/outbox.cif.g08.bks.cpg/sg9_6_cif.got.tgz:10268.got - 2010.06.03 20:04:27.
