data_PCOD9135184
_publ_section_title
;
Structure prediction by ZEFSAII (Michael W. Deem and Ramdas Pophale) SiO2 
 PCOD9135184
Probable space group: C C
;
_chemical_formula_sum "Si O2"
_cell_formula_units_Z 28
_cell_length_a 13.381454
_cell_length_b 8.879577
_cell_length_c 11.784637
_cell_angle_alpha 90.000000
_cell_angle_beta 61.801294
_cell_angle_gamma 90.000000
_cell_volume 1234.077752
_symmetry_space_group_name_H-M "C C"
_symmetry_group_IT_number 9
_symmetry_cell_setting 'monoclinic'
loop_
_space_group_symop_operation_xyz
x,y,z
x,-y,1/2+z
1/2+x,1/2+y,z
1/2+x,1/2-y,1/2+z
loop_
_atom_site_type_symbol
_atom_site_label
_atom_site_fract_x
_atom_site_fract_y
_atom_site_fract_z
Si Si1 0.836510 0.504346 0.114070
Si Si2 0.094775 0.881218 0.219793
Si Si3 0.026812 0.654301 0.660820
Si Si4 0.386343 0.716664 0.961439
Si Si5 0.494515 0.239895 0.938062
Si Si6 0.488836 0.452947 0.572584
Si Si7 0.169276 0.613108 0.013761
O O1 0.702403 0.479495 0.203597
O O2 0.916875 0.438559 0.171272
O O3 0.865329 0.391420 0.993947
O O4 0.880042 0.668714 0.054760
O O5 0.142657 0.745643 0.117733
O O6 0.014971 0.810199 0.356885
O O7 0.010060 0.967100 0.180523
O O8 0.000514 0.712713 0.800971
O O9 0.054456 0.796881 0.565907
O O10 0.130980 0.540478 0.592174
O O11 0.373489 0.622585 0.086390
O O12 0.300745 0.640429 0.920318
O O13 0.510926 0.411544 0.971088
O O14 0.593809 0.142922 0.944097
#
# Coordination Sequence:
#
# PCOD9135184 Si02
#       7
#     4   4   4   4   4   4   4
#     4   9  21  38  61  90 119 161 214 252 306 390
#     4  10  20  38  59  86 126 162 200 257 314 370
#     4  10  20  39  62  88 122 161 207 260 317 372
#     4  10  20  38  59  86 126 162 200 257 314 370
#     4  10  20  39  62  88 122 161 207 260 317 372
#     4  10  22  36  56  90 122 156 206 254 308 380
#     4   9  21  38  61  90 119 161 214 252 306 390
#
# _framework density 22.689008999999999
#
# number of rings (size 3 to 8) (size 9 to 14) (size 15 to 20)
#    0.000    2.286    0.000    1.714    0.000    3.429 
#    0.000   24.286    0.000    0.000    0.000    0.000 
#    0.000    0.000    0.000    0.000    0.000    0.000 
#
# Total GULP energy -77978.959452 kJ/mol
# GULP energy per Si atom -5569.925675 kJ/mol
# Density = 2.263737 g / cm^3
# Si number density = 22.689009 Si / 1000 Ang^3
#
#
#
# Elastic Constant Matrix: (Units=GPa)
#
#
# Indices 1 2 3 4 5 6 
#
# 1 81.3078 4.1673 35.3768 0.0000 -7.6650 0.0000
# 2 4.1673 97.9451 22.6798 0.0000 1.1827 0.0000
# 3 35.3768 22.6798 70.7660 0.0000 2.5227 0.0000
# 4 0.0000 0.0000 0.0000 16.8440 0.0000 3.3318
# 5 -7.6650 1.1827 2.5227 0.0000 37.7517 0.0000
# 6 0.0000 0.0000 0.0000 3.3318 0.0000 26.4652
#
#
#
# Elastic Compliance Matrix: (Units=1/GPa)
#
#
# Indices 1 2 3 4 5 6 
#
# 1 0.016406 0.001281 -0.008750 0.000000 0.003876 0.000000
# 2 0.001281 0.011129 -0.004214 0.000000 0.000193 0.000000
# 3 -0.008750 -0.004214 0.019962 0.000000 -0.002979 0.000000
# 4 0.000000 0.000000 0.000000 0.060884 0.000000 -0.007665
# 5 0.003876 0.000193 -0.002979 0.000000 0.027469 0.000000
# 6 0.000000 0.000000 0.000000 -0.007665 0.000000 0.038750
#
#
# Mechanical properties :
#
#
# Convention : Reuss Voigt Hill
#
# Bulk Modulus (GPa) = 41.44095 41.60743 41.52419
# Shear Modulus (GPa) = 24.27065 28.73185 26.50125
#
# Velocity S-wave (km/s) = 3.27419 3.56242 3.42134
# Velocity P-wave (km/s) = 5.70948 5.94130 5.82654
#
# Compressibility (1/GPa) = 0.02413072
#
# Stress axis : x y z
#
# Youngs Moduli (GPa) = 60.95381 89.85732 50.09457
#
# Poissons Ratio (x) = -0.11514 0.43834
# Poissons Ratio (y) = -0.07810 0.21110
# Poissons Ratio (z) = 0.53337 0.37867
#
# Static dielectric constant tensor:
#      x y z
#    x 1.908910 0.000000 0.001820 
#    y 0.000000 1.863170 0.000000 
#    z 0.001820 0.000000 1.914120 
# 
# From -- ./inp_files/17563.got.cif
#   From: 2010.05.17/outbox.cif.g08.bks.cpg/sg9_9_cif.got.tgz:17563.got - 2010.06.03 20:04:27.
