data_PCOD9135139
_publ_section_title
;
Structure prediction by ZEFSAII (Michael W. Deem and Ramdas Pophale) SiO2 
 PCOD9135139
Probable space group: C C
;
_chemical_formula_sum "Si O2"
_cell_formula_units_Z 32
_cell_length_a 5.124111
_cell_length_b 18.374823
_cell_length_c 15.860004
_cell_angle_alpha 90.000000
_cell_angle_beta 79.127104
_cell_angle_gamma 90.000000
_cell_volume 1466.485340
_symmetry_space_group_name_H-M "C C"
_symmetry_group_IT_number 9
_symmetry_cell_setting 'monoclinic'
loop_
_space_group_symop_operation_xyz
x,y,z
x,-y,1/2+z
1/2+x,1/2+y,z
1/2+x,1/2-y,1/2+z
loop_
_atom_site_type_symbol
_atom_site_label
_atom_site_fract_x
_atom_site_fract_y
_atom_site_fract_z
Si Si1 0.224730 0.265378 0.038050
Si Si2 0.892653 0.606371 0.502337
Si Si3 0.300706 0.710198 0.721939
Si Si4 0.122214 0.533062 0.060485
Si Si5 0.199219 0.791252 0.886113
Si Si6 0.269515 0.880278 0.268285
Si Si7 0.085208 0.988448 0.139281
Si Si8 0.480307 0.649361 0.950374
O O1 0.340643 0.267516 0.123594
O O2 0.987942 0.323771 0.048856
O O3 0.419202 0.290562 0.951078
O O4 0.130007 0.185858 0.018882
O O5 0.096795 0.540638 0.505480
O O6 0.843725 0.636639 0.411971
O O7 0.634017 0.574208 0.564723
O O8 0.193402 0.775589 0.787563
O O9 0.579618 0.682423 0.741428
O O10 0.075331 0.645910 0.741661
O O11 0.264398 0.593551 0.996929
O O12 0.297293 0.518057 0.133767
O O13 0.817906 0.545931 0.104899
O O14 0.342460 0.718791 0.914077
O O15 0.173300 0.950352 0.220810
O O16 0.183310 0.885801 0.371169
#
# Coordination Sequence:
#
# PCOD9135139 Si02
#       8
#     4   4   4   4   4   4   4   4
#     4  11  20  37  65  92 127 164 208 269 325 375
#     4   9  19  34  61  89 117 159 212 249 308 377
#     4  11  22  35  61  93 125 158 212 264 322 375
#     4  10  22  38  62  89 120 170 203 261 313 385
#     4  10  21  37  60  95 126 166 211 267 321 389
#     4  11  20  40  61  95 119 164 214 267 297 394
#     4  10  20  37  65  86 116 159 220 248 302 374
#     4  10  24  38  63  93 132 164 212 265 334 375
#
# _framework density 21.820876999999999
#
# number of rings (size 3 to 8) (size 9 to 14) (size 15 to 20)
#    0.750    1.000    2.500    3.000    3.500    0.000 
#    0.000    0.000    8.250    0.000    0.000    0.000 
#    0.000    0.000    0.000    0.000    0.000    0.000 
#
# Total GULP energy -89238.738977 kJ/mol
# GULP energy per Si atom -5577.421186 kJ/mol
# Density = 2.177121 g / cm^3
# Si number density = 21.820877 Si / 1000 Ang^3
#
#
#
# Elastic Constant Matrix: (Units=GPa)
#
#
# Indices 1 2 3 4 5 6 
#
# 1 75.7109 14.8831 -8.0902 0.0000 2.2260 0.0000
# 2 14.8831 39.5121 2.7314 0.0000 4.8190 0.0000
# 3 -8.0902 2.7314 34.4180 0.0000 0.0623 0.0000
# 4 0.0000 0.0000 0.0000 13.1353 0.0000 -5.2312
# 5 2.2260 4.8190 0.0623 0.0000 23.9456 0.0000
# 6 0.0000 0.0000 0.0000 -5.2312 0.0000 31.2116
#
#
#
# Elastic Compliance Matrix: (Units=1/GPa)
#
#
# Indices 1 2 3 4 5 6 
#
# 1 0.014777 -0.005812 0.003935 0.000000 -0.000214 0.000000
# 2 -0.005812 0.028377 -0.003609 0.000000 -0.005161 0.000000
# 3 0.003935 -0.003609 0.030265 0.000000 0.000282 0.000000
# 4 0.000000 0.000000 0.000000 0.081576 0.000000 0.013673
# 5 -0.000214 -0.005161 0.000282 0.000000 0.042819 0.000000
# 6 0.000000 0.000000 0.000000 0.013673 0.000000 0.034331
#
#
# Mechanical properties :
#
#
# Convention : Reuss Voigt Hill
#
# Bulk Modulus (GPa) = 16.01327 18.74330 17.37828
# Shear Modulus (GPa) = 18.94416 22.99960 20.97188
#
# Velocity S-wave (km/s) = 2.94966 3.25009 3.10351
# Velocity P-wave (km/s) = 4.35375 4.76365 4.56330
#
# Compressibility (1/GPa) = 0.06244820
#
# Stress axis : x y z
#
# Youngs Moduli (GPa) = 67.67056 35.23996 33.04097
#
# Poissons Ratio (x) = 0.20482 -0.13002
# Poissons Ratio (y) = 0.39331 0.11924
# Poissons Ratio (z) = -0.26630 0.12718
#
# Static dielectric constant tensor:
#      x y z
#    x 1.846200 0.000000 0.009870 
#    y 0.000000 1.803780 0.000000 
#    z 0.009870 0.000000 1.838490 
# 
# From -- ./inp_files/22161.got.cif
#   From: 2010.05.17/outbox.cif.g08.bks.cpg/sg9_12_cif.got.tgz:22161.got - 2010.06.03 20:04:27.
