data_PCOD9135710
_publ_section_title
;
Structure prediction by ZEFSAII (Michael W. Deem and Ramdas Pophale) SiO2 
 PCOD9135710
Probable space group: C C
;
_chemical_formula_sum "Si O2"
_cell_formula_units_Z 32
_cell_length_a 25.118426
_cell_length_b 4.893820
_cell_length_c 13.313885
_cell_angle_alpha 90.000000
_cell_angle_beta 70.873284
_cell_angle_gamma 90.000000
_cell_volume 1546.263014
_symmetry_space_group_name_H-M "C C"
_symmetry_group_IT_number 9
_symmetry_cell_setting 'monoclinic'
loop_
_space_group_symop_operation_xyz
x,y,z
x,-y,1/2+z
1/2+x,1/2+y,z
1/2+x,1/2-y,1/2+z
loop_
_atom_site_type_symbol
_atom_site_label
_atom_site_fract_x
_atom_site_fract_y
_atom_site_fract_z
Si Si1 0.144790 0.302500 0.234700
Si Si2 0.606065 0.994551 0.950623
Si Si3 0.473212 0.227714 0.228625
Si Si4 0.834603 0.680885 0.723754
Si Si5 0.415798 0.267800 0.852536
Si Si6 0.703442 0.270810 0.281312
Si Si7 0.393341 0.691503 0.598030
Si Si8 0.082736 0.018133 0.092858
O O1 0.095509 0.401079 0.342846
O O2 0.183790 0.569936 0.202927
O O3 0.121596 0.176392 0.147874
O O4 0.181145 0.070824 0.268663
O O5 0.666388 0.846199 0.896785
O O6 0.608720 0.263676 0.016323
O O7 0.566708 0.760135 0.023397
O O8 0.433079 0.422934 0.318479
O O9 0.448002 0.240249 0.131590
O O10 0.533373 0.369125 0.185028
O O11 0.465197 0.928634 0.279231
O O12 0.861538 0.697491 0.817925
O O13 0.769109 0.747078 0.760395
O O14 0.844601 0.381577 0.673564
O O15 0.872660 0.885076 0.632905
O O16 0.404603 0.241895 0.976308
#
# Coordination Sequence:
#
# PCOD9135710 Si02
#       8
#     4   4   4   4   4   4   4   4
#     4  10  22  40  58  86 129 160 209 256 299 364
#     4  10  22  40  60  87 128 156 215 250 300 370
#     4  10  23  39  62  89 122 152 204 255 303 363
#     4  10  21  39  63  86 125 153 203 249 311 363
#     4  10  21  42  59  91 120 153 200 256 307 372
#     4  10  20  43  58  88 129 164 193 274 296 360
#     4  10  21  40  63  91 117 157 199 256 304 382
#     4  12  22  41  63  90 120 175 199 256 314 366
#
# _framework density 20.695056000000001
#
# number of rings (size 3 to 8) (size 9 to 14) (size 15 to 20)
#    0.750    1.000    1.250    3.000    0.000    1.000 
#    9.000    0.000    0.000    0.000    0.000    0.000 
#    0.000    0.000    0.000    0.000    0.000    0.000 
#
# Total GULP energy -89252.139109 kJ/mol
# GULP energy per Si atom -5578.258694 kJ/mol
# Density = 2.064795 g / cm^3
# Si number density = 20.695056 Si / 1000 Ang^3
#
#
#
# Elastic Constant Matrix: (Units=GPa)
#
#
# Indices 1 2 3 4 5 6 
#
# 1 31.4828 -7.8021 -2.0474 0.0000 0.2734 0.0000
# 2 -7.8021 88.0897 -3.5648 0.0000 6.6718 0.0000
# 3 -2.0474 -3.5648 62.3236 0.0000 14.1671 0.0000
# 4 0.0000 0.0000 0.0000 -551.5424 0.0000 -260.2503
# 5 0.2734 6.6718 14.1671 0.0000 9.3208 0.0000
# 6 0.0000 0.0000 0.0000 -260.2503 0.0000 -97.2562
#
#
#
# Elastic Compliance Matrix: (Units=1/GPa)
#
#
# Indices 1 2 3 4 5 6 
#
# 1 0.032964 0.003696 0.003232 0.000000 -0.008525 0.000000
# 2 0.003696 0.013119 0.004631 0.000000 -0.016539 0.000000
# 3 0.003232 0.004631 0.026267 0.000000 -0.043335 0.000000
# 4 0.000000 0.000000 0.000000 0.006903 0.000000 -0.018471
# 5 -0.008525 -0.016539 -0.043335 0.000000 0.185242 0.000000
# 6 0.000000 0.000000 0.000000 -0.018471 0.000000 0.039146
#
#
# Mechanical properties :
#
#
# Convention : Reuss Voigt Hill
#
# Bulk Modulus (GPa) = 10.47455 17.22972 13.85213
# Shear Modulus (GPa) = 16.00794 -114.87488 -49.43347
#
# Velocity S-wave (km/s) = 2.78423 -7.45848 -4.89270
# Velocity P-wave (km/s) = 3.92534 8.11346 5.02095
#
# Compressibility (1/GPa) = 0.09546953
#
# Stress axis : x y z
#
# Youngs Moduli (GPa) = 30.33649 76.22252 38.07059
#
# Poissons Ratio (x) = -0.28173 -0.12305
# Poissons Ratio (y) = -0.11213 -0.17632
# Poissons Ratio (z) = -0.09806 -0.35301
#
# Static dielectric constant tensor:
#      x y z
#    x 1.736730 0.000000 -0.000510 
#    y 0.000000 2.174420 0.000000 
#    z -0.000510 0.000000 1.753670 
# 
# From -- ./inp_files/20461.got.cif
#   From: 2010.05.17/outbox.cif.g08.bks.cpg/sg9_11_cif.got.tgz:20461.got - 2010.06.03 20:04:27.
