data_PCOD9135751
_publ_section_title
;
Structure prediction by ZEFSAII (Michael W. Deem and Ramdas Pophale) SiO2 
 PCOD9135751
Probable space group: C C
;
_chemical_formula_sum "Si O2"
_cell_formula_units_Z 32
_cell_length_a 11.036209
_cell_length_b 10.036149
_cell_length_c 13.866634
_cell_angle_alpha 90.000000
_cell_angle_beta 110.278188
_cell_angle_gamma 90.000000
_cell_volume 1440.690207
_symmetry_space_group_name_H-M "C C"
_symmetry_group_IT_number 9
_symmetry_cell_setting 'monoclinic'
loop_
_space_group_symop_operation_xyz
x,y,z
x,-y,1/2+z
1/2+x,1/2+y,z
1/2+x,1/2-y,1/2+z
loop_
_atom_site_type_symbol
_atom_site_label
_atom_site_fract_x
_atom_site_fract_y
_atom_site_fract_z
Si Si1 0.577950 0.036040 0.258810
Si Si2 0.135837 0.657222 0.464337
Si Si3 0.426579 0.006885 0.027604
Si Si4 0.888204 0.657895 0.821042
Si Si5 0.815133 0.920771 0.559723
Si Si6 0.712335 0.350366 0.089549
Si Si7 0.042009 0.917425 0.487809
Si Si8 0.374157 0.464839 0.789258
O O1 0.585802 0.152140 0.340700
O O2 0.499862 0.071151 0.140256
O O3 0.725217 0.999532 0.272473
O O4 0.504929 0.915695 0.295193
O O5 0.253318 0.553854 0.499716
O O6 0.152076 0.805918 0.508074
O O7 0.031066 0.588874 0.505349
O O8 0.313312 0.921372 0.044776
O O9 0.378095 0.096701 0.924911
O O10 0.768139 0.641712 0.713634
O O11 0.904055 0.815555 0.833650
O O12 0.711758 0.804130 0.556129
O O13 0.882049 0.959110 0.677501
O O14 0.924525 0.865906 0.520317
O O15 0.588712 0.443049 0.044359
O O16 0.977356 0.941461 0.367023
#
# Coordination Sequence:
#
# PCOD9135751 Si02
#       8
#     4   4   4   4   4   4   4   4
#     4  10  21  41  69  99 130 179 227 270 337 404
#     4  11  23  45  68  97 140 175 223 280 333 401
#     4  10  20  43  72  96 133 182 221 281 339 390
#     4   9  23  41  69 100 131 180 225 275 337 400
#     4  11  24  49  69  94 141 186 220 278 341 400
#     4  10  24  45  69  98 137 178 228 274 337 405
#     4  12  27  44  66 109 137 173 231 280 334 407
#     4  11  24  42  68 101 133 181 227 276 334 403
#
# _framework density 22.211576999999998
#
# number of rings (size 3 to 8) (size 9 to 14) (size 15 to 20)
#    0.000    1.500    3.750    0.000    5.250    1.000 
#   11.250    1.250    0.000    0.000    0.000    0.000 
#    0.000    0.000    0.000    0.000    0.000    0.000 
#
# Total GULP energy -89380.224227 kJ/mol
# GULP energy per Si atom -5586.264014 kJ/mol
# Density = 2.216102 g / cm^3
# Si number density = 22.211577 Si / 1000 Ang^3
#
#
#
# Elastic Constant Matrix: (Units=GPa)
#
#
# Indices 1 2 3 4 5 6 
#
# 1 18.6996 54.3812 -10.0593 0.0000 0.3373 0.0000
# 2 54.3812 72.4161 80.0282 0.0000 3.2562 0.0000
# 3 -10.0593 80.0282 137.1996 0.0000 -14.6900 0.0000
# 4 0.0000 0.0000 0.0000 -11.9341 0.0000 -24.9334
# 5 0.3373 3.2562 -14.6900 0.0000 26.0723 0.0000
# 6 0.0000 0.0000 0.0000 -24.9334 0.0000 1.6850
#
#
#
# Elastic Compliance Matrix: (Units=1/GPa)
#
#
# Indices 1 2 3 4 5 6 
#
# 1 -0.006044 0.018289 -0.012076 0.000000 -0.009010 0.000000
# 2 0.018289 -0.005414 0.004838 0.000000 0.003165 0.000000
# 3 -0.012076 0.004838 0.003760 0.000000 0.001671 0.000000
# 4 0.000000 0.000000 0.000000 -0.002625 0.000000 -0.038850
# 5 -0.009010 0.003165 0.001671 0.000000 0.039018 0.000000
# 6 0.000000 0.000000 0.000000 -0.038850 0.000000 0.018595
#
#
# Mechanical properties :
#
#
# Convention : Reuss Voigt Hill
#
# Bulk Modulus (GPa) = 69.42287 53.00174 61.21231
# Shear Modulus (GPa) = 166.72455 10.09563 88.41009
#
# Velocity S-wave (km/s) = 8.67323 2.13426 6.31585
# Velocity P-wave (km/s) = 11.47271 5.47608 8.98917
#
# Compressibility (1/GPa) = 0.01440447
#
# Stress axis : x y z
#
# Youngs Moduli (GPa) = -165.45129 -184.71605 265.93091
#
# Poissons Ratio (x) = 3.37830 3.21134
# Poissons Ratio (y) = 3.02597 -1.28648
# Poissons Ratio (z) = -1.99797 0.89359
#
# Static dielectric constant tensor:
#      x y z
#    x 1.820840 0.000000 0.018980 
#    y 0.000000 1.857540 0.000000 
#    z 0.018980 0.000000 1.824290 
# 
# From -- ./inp_files/24334.got.cif
#   From: 2010.05.17/outbox.cif.g08.bks.cpg/sg9_13_cif.got.tgz:24334.got - 2010.06.03 20:04:27.
