data_PCOD9135041
_publ_section_title
;
Structure prediction by ZEFSAII (Michael W. Deem and Ramdas Pophale) SiO2 
 PCOD9135041
Probable space group: C C
;
_chemical_formula_sum "Si O2"
_cell_formula_units_Z 28
_cell_length_a 18.647232
_cell_length_b 5.105885
_cell_length_c 26.407760
_cell_angle_alpha 90.000000
_cell_angle_beta 142.413474
_cell_angle_gamma 90.000000
_cell_volume 1533.619029
_symmetry_space_group_name_H-M "C C"
_symmetry_group_IT_number 9
_symmetry_cell_setting 'monoclinic'
loop_
_space_group_symop_operation_xyz
x,y,z
x,-y,1/2+z
1/2+x,1/2+y,z
1/2+x,1/2-y,1/2+z
loop_
_atom_site_type_symbol
_atom_site_label
_atom_site_fract_x
_atom_site_fract_y
_atom_site_fract_z
Si Si1 0.747150 0.312921 0.814430
Si Si2 0.275480 0.298041 0.445634
Si Si3 0.662624 0.015402 0.183320
Si Si4 0.899214 0.306101 0.555661
Si Si5 0.011560 0.439656 0.283046
Si Si6 0.507002 0.441115 0.211972
Si Si7 0.302243 0.980596 0.742852
O O1 0.791727 0.286368 0.895998
O O2 0.706651 0.040547 0.765711
O O3 0.624877 0.473003 0.748340
O O4 0.831013 0.437149 0.818777
O O5 0.346565 0.565213 0.494443
O O6 0.136729 0.347925 0.374979
O O7 0.317904 0.061215 0.504888
O O8 0.706729 0.750587 0.180505
O O9 0.526431 0.087937 0.108556
O O10 0.735257 0.248884 0.200449
O O11 0.917188 0.179603 0.621185
O O12 0.035149 0.704555 0.265317
O O13 0.914510 0.511157 0.270220
O O14 0.971062 0.201757 0.223166
#
# Coordination Sequence:
#
# PCOD9135041 Si02
#       7
#     4   4   4   4   4   4   4
#     4   9  21  37  64  90 109 155 210 245 280 348
#     4  11  23  33  62  89 126 149 200 247 305 353
#     4  10  20  36  64  85 116 151 203 244 294 336
#     4  12  21  37  59  93 120 154 195 258 299 340
#     4  11  23  40  62  93 116 160 204 242 300 355
#     4  11  21  38  64  87 118 155 211 248 281 355
#     4  10  21  37  67  85 119 150 207 248 285 351
#
# _framework density 18.257469
#
# number of rings (size 3 to 8) (size 9 to 14) (size 15 to 20)
#    0.857    0.571    1.429    6.857    2.000    0.000 
#    0.000    0.000   12.571    0.000    0.000    0.000 
#    0.000    0.000    0.000    0.000    0.000    0.000 
#
# Total GULP energy -78008.403589 kJ/mol
# GULP energy per Si atom -5572.028828 kJ/mol
# Density = 1.821591 g / cm^3
# Si number density = 18.257469 Si / 1000 Ang^3
#
#
#
# Elastic Constant Matrix: (Units=GPa)
#
#
# Indices 1 2 3 4 5 6 
#
# 1 100.4072 25.7705 22.3908 -0.0033 4.8611 -0.0013
# 2 25.7705 124.2322 19.0477 -0.0054 0.2270 -0.0192
# 3 22.3908 19.0477 59.9108 -0.0035 1.2365 -0.0127
# 4 -0.0033 -0.0054 -0.0035 41.2021 -0.0035 -1.6401
# 5 4.8611 0.2270 1.2365 -0.0035 5.2513 -0.0072
# 6 -0.0013 -0.0192 -0.0127 -1.6401 -0.0072 17.2499
#
#
#
# Elastic Compliance Matrix: (Units=1/GPa)
#
#
# Indices 1 2 3 4 5 6 
#
# 1 0.011717 -0.001863 -0.003582 -0.000001 -0.009922 -0.000008
# 2 -0.001863 0.008759 -0.002126 0.000001 0.001847 0.000009
# 3 -0.003582 -0.002126 0.018727 0.000001 -0.001002 0.000011
# 4 -0.000001 0.000001 0.000001 0.024363 0.000020 0.002316
# 5 -0.009922 0.001847 -0.001002 0.000020 0.199771 0.000086
# 6 -0.000008 0.000009 0.000011 0.002316 0.000086 0.058192
#
#
# Mechanical properties :
#
#
# Convention : Reuss Voigt Hill
#
# Bulk Modulus (GPa) = 41.56390 46.55203 44.05797
# Shear Modulus (GPa) = 14.50577 27.23006 20.86791
#
# Velocity S-wave (km/s) = 2.82177 3.86612 3.38447
# Velocity P-wave (km/s) = 5.78198 6.74404 6.28145
#
# Compressibility (1/GPa) = 0.02405934
#
# Stress axis : x y z
#
# Youngs Moduli (GPa) = 85.34767 114.17354 53.39915
#
# Poissons Ratio (x) = 0.21273 0.19127
# Poissons Ratio (y) = 0.15902 0.11355
# Poissons Ratio (z) = 0.30570 0.24278
#
# Static dielectric constant tensor:
#      x y z
#    x 1.617110 -0.000010 -0.023430 
#    y -0.000010 1.651190 0.000000 
#    z -0.023430 0.000000 1.642520 
# 
# From -- ./inp_files/34213.got.cif
#   From: 2010.05.17/outbox.cif.g08.bks.cpg/sg9_18_cif.got.tgz:34213.got - 2010.06.03 20:04:27.
