data_PCOD9135303
_publ_section_title
;
Structure prediction by ZEFSAII (Michael W. Deem and Ramdas Pophale) SiO2 
 PCOD9135303
Probable space group: C C
;
_chemical_formula_sum "Si O2"
_cell_formula_units_Z 28
_cell_length_a 7.474670
_cell_length_b 17.781171
_cell_length_c 9.383439
_cell_angle_alpha 90.000000
_cell_angle_beta 101.092144
_cell_angle_gamma 90.000000
_cell_volume 1223.840012
_symmetry_space_group_name_H-M "C C"
_symmetry_group_IT_number 9
_symmetry_cell_setting 'monoclinic'
loop_
_space_group_symop_operation_xyz
x,y,z
x,-y,1/2+z
1/2+x,1/2+y,z
1/2+x,1/2-y,1/2+z
loop_
_atom_site_type_symbol
_atom_site_label
_atom_site_fract_x
_atom_site_fract_y
_atom_site_fract_z
Si Si1 0.628640 0.720811 0.026200
Si Si2 0.000262 0.594121 0.897919
Si Si3 0.381903 0.197729 0.299599
Si Si4 0.435216 0.429789 0.492979
Si Si5 0.890915 0.925359 0.818190
Si Si6 0.009611 0.239413 0.322752
Si Si7 0.463401 0.043215 0.212674
O O1 0.826259 0.726132 0.132572
O O2 0.503811 0.737692 0.148387
O O3 0.572038 0.776236 0.892039
O O4 0.568023 0.637726 0.968144
O O5 0.223290 0.591380 0.927121
O O6 0.942858 0.680505 0.867731
O O7 0.925854 0.540007 0.762292
O O8 0.946706 0.558623 0.042130
O O9 0.227518 0.232257 0.377045
O O10 0.359646 0.108447 0.282789
O O11 0.452064 0.436795 0.664956
O O12 0.475277 0.509662 0.427986
O O13 0.674346 0.939685 0.782822
O O14 0.931496 0.839468 0.864586
#
# Coordination Sequence:
#
# PCOD9135303 Si02
#       7
#     4   4   4   4   4   4   4
#     4   9  19  37  64  85 123 163 208 246 320 372
#     4  10  20  39  61  89 121 170 209 256 310 384
#     4  10  21  39  63  91 124 166 209 258 316 382
#     4   9  16  37  58  86 114 163 202 253 297 383
#     4   9  19  36  62  85 122 160 212 250 313 374
#     4   9  20  38  66  87 122 167 205 260 315 372
#     4  10  23  38  60  91 128 161 217 255 315 379
#
# _framework density 22.878806000000001
#
# number of rings (size 3 to 8) (size 9 to 14) (size 15 to 20)
#    0.857    1.714    1.429    0.000    2.000    1.143 
#   10.286    0.000    0.000    0.000    0.000    0.000 
#    0.000    0.000    0.000    0.000    0.000    0.000 
#
# Total GULP energy -78093.206809 kJ/mol
# GULP energy per Si atom -5578.086201 kJ/mol
# Density = 2.282673 g / cm^3
# Si number density = 22.878806 Si / 1000 Ang^3
#
#
#
# Elastic Constant Matrix: (Units=GPa)
#
#
# Indices 1 2 3 4 5 6 
#
# 1 27.6816 13.4786 19.0676 0.0000 2.9776 0.0000
# 2 13.4786 148.8566 50.9837 0.0000 -23.2824 0.0000
# 3 19.0676 50.9837 70.3256 0.0000 11.4586 0.0000
# 4 0.0000 0.0000 0.0000 39.1929 0.0000 -0.6266
# 5 2.9776 -23.2824 11.4586 0.0000 23.6867 0.0000
# 6 0.0000 0.0000 0.0000 -0.6266 0.0000 33.2029
#
#
#
# Elastic Compliance Matrix: (Units=1/GPa)
#
#
# Indices 1 2 3 4 5 6 
#
# 1 0.044431 0.000357 -0.012433 0.000000 0.000780 0.000000
# 2 0.000357 0.015117 -0.014623 0.000000 0.021888 0.000000
# 3 -0.012433 -0.014623 0.032870 0.000000 -0.028711 0.000000
# 4 0.000000 0.000000 0.000000 0.025523 0.000000 0.000482
# 5 0.000780 0.021888 -0.028711 0.000000 0.077524 0.000000
# 6 0.000000 0.000000 0.000000 0.000482 0.000000 0.030127
#
#
# Mechanical properties :
#
#
# Convention : Reuss Voigt Hill
#
# Bulk Modulus (GPa) = 25.62702 45.99151 35.80926
# Shear Modulus (GPa) = 17.12353 30.10542 23.61447
#
# Velocity S-wave (km/s) = 2.73874 3.63142 3.21620
# Velocity P-wave (km/s) = 4.60722 6.14238 5.42933
#
# Compressibility (1/GPa) = 0.03902131
#
# Stress axis : x y z
#
# Youngs Moduli (GPa) = 22.50666 66.14884 30.42308
#
# Poissons Ratio (x) = -0.02363 0.37825
# Poissons Ratio (y) = -0.00804 0.44487
# Poissons Ratio (z) = 0.27982 0.96729
#
# Static dielectric constant tensor:
#      x y z
#    x 1.939050 0.000000 0.003340 
#    y 0.000000 1.835890 0.000000 
#    z 0.003340 0.000000 1.819510 
# 
# From -- ./inp_files/14649.got.cif
#   From: 2010.05.17/outbox.cif.g08.bks.cpg/sg9_8_cif.got.tgz:14649.got - 2010.06.03 20:04:27.
