data_PCOD9135919
_publ_section_title
;
Structure prediction by ZEFSAII (Michael W. Deem and Ramdas Pophale) SiO2 
 PCOD9135919
Probable space group: C C
;
_chemical_formula_sum "Si O2"
_cell_formula_units_Z 28
_cell_length_a 14.304199
_cell_length_b 9.712730
_cell_length_c 8.269720
_cell_angle_alpha 90.000000
_cell_angle_beta 115.698253
_cell_angle_gamma 90.000000
_cell_volume 1035.294608
_symmetry_space_group_name_H-M "C C"
_symmetry_group_IT_number 9
_symmetry_cell_setting 'monoclinic'
loop_
_space_group_symop_operation_xyz
x,y,z
x,-y,1/2+z
1/2+x,1/2+y,z
1/2+x,1/2-y,1/2+z
loop_
_atom_site_type_symbol
_atom_site_label
_atom_site_fract_x
_atom_site_fract_y
_atom_site_fract_z
Si Si1 0.365560 0.611236 0.263660
Si Si2 0.203226 0.702175 0.388791
Si Si3 0.941826 0.825880 0.327498
Si Si4 0.044073 0.765529 0.061481
Si Si5 0.545560 0.054757 0.796947
Si Si6 0.836854 0.354201 0.996899
Si Si7 0.140654 0.185598 0.175180
O O1 0.305078 0.647596 0.380571
O O2 0.360862 0.448994 0.242725
O O3 0.486191 0.647457 0.382393
O O4 0.329090 0.711269 0.094219
O O5 0.120193 0.577536 0.350375
O O6 0.203333 0.779916 0.557300
O O7 0.158659 0.796772 0.207938
O O8 0.894628 0.694116 0.378113
O O9 0.033368 0.874178 0.521288
O O10 0.985874 0.787018 0.186993
O O11 0.043415 0.615089 0.978334
O O12 0.423693 0.051999 0.650689
O O13 0.604043 0.173091 0.735518
O O14 0.720007 0.392398 0.855421
#
# Coordination Sequence:
#
# PCOD9135919 Si02
#       7
#     4   4   4   4   4   4   4
#     4  11  22  39  66  94 124 164 210 257 312 377
#     4  11  22  39  66  94 124 164 210 257 312 377
#     4  10  21  37  59  88 124 164 207 255 307 369
#     4  10  22  38  58  92 128 158 208 264 308 364
#     4  10  21  37  59  88 124 164 207 255 307 369
#     4  10  21  37  59  90 126 160 202 257 313 367
#     4  10  21  37  59  90 126 160 202 257 313 367
#
# _framework density 27.045441
#
# number of rings (size 3 to 8) (size 9 to 14) (size 15 to 20)
#    0.000    1.714    0.000    4.286    0.000    3.429 
#    0.000    4.286    0.000   22.286    0.000    8.000 
#    0.000    0.000    0.000    0.000    0.000    0.000 
#
# Total GULP energy -78263.536250 kJ/mol
# GULP energy per Si atom -5590.252589 kJ/mol
# Density = 2.698388 g / cm^3
# Si number density = 27.045441 Si / 1000 Ang^3
#
#
#
# Elastic Constant Matrix: (Units=GPa)
#
#
# Indices 1 2 3 4 5 6 
#
# 1 68.9349 -3.7008 28.2128 0.0000 11.7566 0.0000
# 2 -3.7008 51.6274 13.2124 0.0000 15.2561 0.0000
# 3 28.2128 13.2124 180.3085 0.0000 23.7558 0.0000
# 4 0.0000 0.0000 0.0000 15.1802 0.0000 2.3637
# 5 11.7566 15.2561 23.7558 0.0000 55.7715 0.0000
# 6 0.0000 0.0000 0.0000 2.3637 0.0000 30.3740
#
#
#
# Elastic Compliance Matrix: (Units=1/GPa)
#
#
# Indices 1 2 3 4 5 6 
#
# 1 0.016131 0.002677 -0.002305 0.000000 -0.003151 0.000000
# 2 0.002677 0.021636 -0.001219 0.000000 -0.005964 0.000000
# 3 -0.002305 -0.001219 0.006238 0.000000 -0.001838 0.000000
# 4 0.000000 0.000000 0.000000 0.066683 0.000000 -0.005189
# 5 -0.003151 -0.005964 -0.001838 0.000000 0.021009 0.000000
# 6 0.000000 0.000000 0.000000 -0.005189 0.000000 0.033327
#
#
# Mechanical properties :
#
#
# Convention : Reuss Voigt Hill
#
# Bulk Modulus (GPa) = 23.63388 41.81329 32.72359
# Shear Modulus (GPa) = 27.65176 37.80822 32.72999
#
# Velocity S-wave (km/s) = 3.20100 3.74298 3.48255
# Velocity P-wave (km/s) = 4.73491 5.84583 5.31945
#
# Compressibility (1/GPa) = 0.04231213
#
# Stress axis : x y z
#
# Youngs Moduli (GPa) = 61.99273 46.22002 160.30374
#
# Poissons Ratio (x) = -0.12375 0.36951
# Poissons Ratio (y) = -0.16598 0.19534
# Poissons Ratio (z) = 0.14290 0.05632
#
# Static dielectric constant tensor:
#      x y z
#    x 2.145510 0.000000 0.082180 
#    y 0.000000 2.118360 0.000000 
#    z 0.082180 0.000000 2.160800 
# 
# From -- ./inp_files/9033.got.cif
#   From: 2010.05.17/outbox.cif.g08.bks.cpg/sg9_5_cif.got.tgz:9033.got - 2010.06.03 20:04:27.
