data_PCOD9135745
_publ_section_title
;
Structure prediction by ZEFSAII (Michael W. Deem and Ramdas Pophale) SiO2 
 PCOD9135745
Probable space group: C C
;
_chemical_formula_sum "Si O2"
_cell_formula_units_Z 32
_cell_length_a 28.017959
_cell_length_b 10.083290
_cell_length_c 13.489055
_cell_angle_alpha 90.000000
_cell_angle_beta 157.481387
_cell_angle_gamma 90.000000
_cell_volume 1459.487535
_symmetry_space_group_name_H-M "C C"
_symmetry_group_IT_number 9
_symmetry_cell_setting 'monoclinic'
loop_
_space_group_symop_operation_xyz
x,y,z
x,-y,1/2+z
1/2+x,1/2+y,z
1/2+x,1/2-y,1/2+z
loop_
_atom_site_type_symbol
_atom_site_label
_atom_site_fract_x
_atom_site_fract_y
_atom_site_fract_z
Si Si1 0.690490 0.135571 0.794820
Si Si2 0.922999 0.234020 0.143836
Si Si3 0.874015 0.530621 0.422486
Si Si4 0.856741 0.196546 0.796725
Si Si5 0.154538 0.515172 0.925730
Si Si6 0.033630 0.877276 0.455422
Si Si7 0.785576 0.114545 0.374363
Si Si8 0.687937 0.382253 0.188675
O O1 0.648238 0.121844 0.825631
O O2 0.604589 0.238990 0.571481
O O3 0.699126 0.988847 0.767539
O O4 0.831516 0.187456 0.054057
O O5 0.064628 0.203358 0.433257
O O6 0.894201 0.385721 0.062947
O O7 0.890351 0.165217 0.976014
O O8 0.846607 0.642943 0.286081
O O9 0.758716 0.436914 0.226654
O O10 0.011796 0.473272 0.671252
O O11 0.957148 0.143694 0.910651
O O12 0.731129 0.114318 0.540015
O O13 0.232957 0.588733 0.163106
O O14 0.137007 0.993590 0.653989
O O15 0.930988 0.915301 0.175642
O O16 0.776728 0.265501 0.398050
#
# Coordination Sequence:
#
# PCOD9135745 Si02
#       8
#     4   4   4   4   4   4   4   4
#     4  12  23  45  77  96 142 191 227 291 355 411
#     4  10  20  43  69  95 135 181 225 285 342 407
#     4  10  23  40  67  98 141 177 228 290 344 404
#     4  10  20  43  70  97 133 182 228 282 345 409
#     4  12  22  44  71  98 139 189 229 284 356 411
#     4  12  24  45  70 106 137 183 234 289 350 415
#     4  12  26  42  72 103 140 183 233 287 348 424
#     4  12  24  42  68 105 135 184 236 286 350 411
#
# _framework density 21.925504
#
# number of rings (size 3 to 8) (size 9 to 14) (size 15 to 20)
#    0.750    0.000    7.500    0.000    1.750    0.000 
#    2.250    2.500    2.750    0.000    0.000    0.000 
#    0.000    0.000    0.000    0.000    0.000    0.000 
#
# Total GULP energy -89139.362005 kJ/mol
# GULP energy per Si atom -5571.210125 kJ/mol
# Density = 2.187560 g / cm^3
# Si number density = 21.925504 Si / 1000 Ang^3
#
#
#
# Elastic Constant Matrix: (Units=GPa)
#
#
# Indices 1 2 3 4 5 6 
#
# 1 46.9058 11.2764 12.8081 0.0000 19.1704 0.0000
# 2 11.2764 105.0639 19.7810 0.0000 12.8804 0.0000
# 3 12.8081 19.7810 72.0137 0.0000 26.0177 0.0000
# 4 0.0000 0.0000 0.0000 37.8218 0.0000 15.5259
# 5 19.1704 12.8804 26.0177 0.0000 43.6796 0.0000
# 6 0.0000 0.0000 0.0000 15.5259 0.0000 15.6112
#
#
#
# Elastic Compliance Matrix: (Units=1/GPa)
#
#
# Indices 1 2 3 4 5 6 
#
# 1 0.026198 -0.001414 -0.000341 0.000000 -0.010878 0.000000
# 2 -0.001414 0.010211 -0.002153 0.000000 -0.001108 0.000000
# 3 -0.000341 -0.002153 0.018164 0.000000 -0.010035 0.000000
# 4 0.000000 0.000000 0.000000 0.044681 0.000000 -0.044437
# 5 -0.010878 -0.001108 -0.010035 0.000000 0.033972 0.000000
# 6 0.000000 0.000000 0.000000 -0.044437 0.000000 0.108250
#
#
# Mechanical properties :
#
#
# Convention : Reuss Voigt Hill
#
# Bulk Modulus (GPa) = 21.38729 34.63494 28.01112
# Shear Modulus (GPa) = 18.87662 31.43038 25.15350
#
# Velocity S-wave (km/s) = 2.93737 3.79028 3.39075
# Velocity P-wave (km/s) = 4.61301 5.91489 5.30404
#
# Compressibility (1/GPa) = 0.04675674
#
# Stress axis : x y z
#
# Youngs Moduli (GPa) = 38.17055 97.93381 55.05494
#
# Poissons Ratio (x) = 0.13848 0.01878
# Poissons Ratio (y) = 0.05397 0.11853
# Poissons Ratio (z) = 0.01302 0.21085
#
# Static dielectric constant tensor:
#      x y z
#    x 1.803050 0.000000 -0.016420 
#    y 0.000000 1.880780 0.000000 
#    z -0.016420 0.000000 1.827150 
# 
# From -- ./inp_files/28325.got.cif
#   From: 2010.05.17/outbox.cif.g08.bks.cpg/sg9_15_cif.got.tgz:28325.got - 2010.06.03 20:04:27.
