data_PCOD9135541
_publ_section_title
;
Structure prediction by ZEFSAII (Michael W. Deem and Ramdas Pophale) SiO2 
 PCOD9135541
Probable space group: C C
;
_chemical_formula_sum "Si O2"
_cell_formula_units_Z 32
_cell_length_a 7.717324
_cell_length_b 11.018072
_cell_length_c 15.575310
_cell_angle_alpha 90.000000
_cell_angle_beta 99.430561
_cell_angle_gamma 90.000000
_cell_volume 1306.470125
_symmetry_space_group_name_H-M "C C"
_symmetry_group_IT_number 9
_symmetry_cell_setting 'monoclinic'
loop_
_space_group_symop_operation_xyz
x,y,z
x,-y,1/2+z
1/2+x,1/2+y,z
1/2+x,1/2-y,1/2+z
loop_
_atom_site_type_symbol
_atom_site_label
_atom_site_fract_x
_atom_site_fract_y
_atom_site_fract_z
Si Si1 0.751510 0.946449 0.957790
Si Si2 0.608162 0.551882 0.557949
Si Si3 0.125913 0.345356 0.763546
Si Si4 0.669949 0.395598 0.330932
Si Si5 0.927025 0.963293 0.712239
Si Si6 0.756452 0.344034 0.802237
Si Si7 0.668625 0.695901 0.021998
Si Si8 0.262479 0.285270 0.488133
O O1 0.674051 0.906790 0.859718
O O2 0.727714 0.836004 0.024273
O O3 0.682861 0.079127 0.980535
O O4 0.962910 0.959675 0.970331
O O5 0.499507 0.531837 0.635627
O O6 0.734706 0.432737 0.567120
O O7 0.685077 0.683536 0.544963
O O8 0.213300 0.212119 0.769546
O O9 0.226762 0.423154 0.700675
O O10 0.917940 0.321228 0.751150
O O11 0.475071 0.444058 0.292912
O O12 0.784496 0.515332 0.332409
O O13 0.684458 0.336479 0.423421
O O14 0.064812 0.852565 0.742536
O O15 0.757027 0.266003 0.889500
O O16 0.465013 0.701403 0.031261
#
# Coordination Sequence:
#
# PCOD9135541 Si02
#       8
#     4   4   4   4   4   4   4   4
#     4  10  23  38  67  97 115 167 217 269 318 362
#     4  11  23  42  61  89 138 172 198 261 325 391
#     4  11  21  42  68  91 128 163 214 279 314 362
#     4   9  20  40  62  96 127 154 226 270 302 374
#     4  10  24  43  59  96 135 170 207 258 322 397
#     4  10  21  40  65  97 117 169 216 264 316 370
#     4  10  20  41  63  93 125 159 219 275 302 373
#     4  11  20  38  67  91 127 158 219 268 317 369
#
# _framework density 24.493480999999999
#
# number of rings (size 3 to 8) (size 9 to 14) (size 15 to 20)
#    0.750    1.000    3.750    2.250    0.000    6.000 
#    4.500    0.000    0.000    0.000    0.000    0.000 
#    0.000    0.000    0.000    0.000    0.000    0.000 
#
# Total GULP energy -89140.743965 kJ/mol
# GULP energy per Si atom -5571.296498 kJ/mol
# Density = 2.443773 g / cm^3
# Si number density = 24.493481 Si / 1000 Ang^3
#
#
#
# Elastic Constant Matrix: (Units=GPa)
#
#
# Indices 1 2 3 4 5 6 
#
# 1 57.7458 16.4444 -6.8517 0.0000 -7.9425 0.0000
# 2 16.4444 190.2607 9.8267 0.0000 -13.4716 0.0000
# 3 -6.8517 9.8267 52.1380 0.0000 -3.5720 0.0000
# 4 0.0000 0.0000 0.0000 15.3592 0.0000 -8.1019
# 5 -7.9425 -13.4716 -3.5720 0.0000 27.7045 0.0000
# 6 0.0000 0.0000 0.0000 -8.1019 0.0000 36.8460
#
#
#
# Elastic Compliance Matrix: (Units=1/GPa)
#
#
# Indices 1 2 3 4 5 6 
#
# 1 0.018789 -0.001423 0.003086 0.000000 0.005093 0.000000
# 2 -0.001423 0.005589 -0.001092 0.000000 0.002169 0.000000
# 3 0.003086 -0.001092 0.019992 0.000000 0.002932 0.000000
# 4 0.000000 0.000000 0.000000 0.073650 0.000000 0.016195
# 5 0.005093 0.002169 0.002932 0.000000 0.038988 0.000000
# 6 0.000000 0.000000 0.000000 0.016195 0.000000 0.030701
#
#
# Mechanical properties :
#
#
# Convention : Reuss Voigt Hill
#
# Bulk Modulus (GPa) = 21.97150 37.66481 29.81816
# Shear Modulus (GPa) = 24.78477 34.69695 29.74086
#
# Velocity S-wave (km/s) = 3.18448 3.76783 3.48837
# Velocity P-wave (km/s) = 4.74458 5.86000 5.33154
#
# Compressibility (1/GPa) = 0.04551351
#
# Stress axis : x y z
#
# Youngs Moduli (GPa) = 53.22233 178.92672 50.01987
#
# Poissons Ratio (x) = 0.25457 -0.15437
# Poissons Ratio (y) = 0.07572 0.05461
# Poissons Ratio (z) = -0.16426 0.19534
#
# Static dielectric constant tensor:
#      x y z
#    x 1.982160 0.000000 0.006870 
#    y 0.000000 2.066570 0.000000 
#    z 0.006870 0.000000 2.012170 
# 
# From -- ./inp_files/29092.got.cif
#   From: 2010.05.17/outbox.cif.g08.bks.cpg/sg9_15_cif.got.tgz:29092.got - 2010.06.03 20:04:27.
