data_PCOD9135168
_publ_section_title
;
Structure prediction by ZEFSAII (Michael W. Deem and Ramdas Pophale) SiO2 
 PCOD9135168
Probable space group: C C
;
_chemical_formula_sum "Si O2"
_cell_formula_units_Z 32
_cell_length_a 26.171458
_cell_length_b 9.152191
_cell_length_c 15.459775
_cell_angle_alpha 90.000000
_cell_angle_beta 157.468776
_cell_angle_gamma 90.000000
_cell_volume 1418.948925
_symmetry_space_group_name_H-M "C C"
_symmetry_group_IT_number 9
_symmetry_cell_setting 'monoclinic'
loop_
_space_group_symop_operation_xyz
x,y,z
x,-y,1/2+z
1/2+x,1/2+y,z
1/2+x,1/2-y,1/2+z
loop_
_atom_site_type_symbol
_atom_site_label
_atom_site_fract_x
_atom_site_fract_y
_atom_site_fract_z
Si Si1 0.326220 0.570425 0.554950
Si Si2 0.990162 0.057637 0.986609
Si Si3 0.317430 0.971620 0.280694
Si Si4 0.035359 0.165958 0.322974
Si Si5 0.178877 0.314534 0.294328
Si Si6 0.779089 0.397590 0.420725
Si Si7 0.406581 0.131511 0.743829
Si Si8 0.350375 0.284857 0.393765
O O1 0.397479 0.559617 0.758710
O O2 0.431450 0.469229 0.667066
O O3 0.188209 0.480969 0.336337
O O4 0.300215 0.730319 0.479199
O O5 0.888349 0.061216 0.907952
O O6 0.047989 0.220658 0.088719
O O7 0.123677 0.956924 0.188827
O O8 0.312135 0.147659 0.274216
O O9 0.326568 0.926783 0.396263
O O10 0.411612 0.908342 0.352279
O O11 0.176593 0.904335 0.031689
O O12 0.027257 0.272719 0.393345
O O13 0.977743 0.257209 0.152972
O O14 0.281933 0.235374 0.521251
O O15 0.232864 0.299725 0.280463
O O16 0.871380 0.489902 0.631415
#
# Coordination Sequence:
#
# PCOD9135168 Si02
#       8
#     4   4   4   4   4   4   4   4
#     4  10  21  39  61  92 128 164 210 272 315 385
#     4  11  20  41  70  86 130 174 204 267 342 360
#     4  12  20  41  72  96 125 180 223 259 336 389
#     4  10  20  42  66  88 138 174 206 278 336 367
#     4   9  20  43  60  93 134 162 218 271 316 393
#     4  11  21  41  64  99 131 163 226 270 307 404
#     4   9  20  38  65  94 130 172 216 272 322 390
#     4  10  20  37  70  94 120 177 219 259 326 400
#
# _framework density 22.551902999999999
#
# number of rings (size 3 to 8) (size 9 to 14) (size 15 to 20)
#    0.000    2.000    5.000    2.250    0.000    0.000 
#   13.500    0.000    5.500    0.000    0.000    0.000 
#    0.000    0.000    0.000    0.000    0.000    0.000 
#
# Total GULP energy -89162.570221 kJ/mol
# GULP energy per Si atom -5572.660639 kJ/mol
# Density = 2.250057 g / cm^3
# Si number density = 22.551903 Si / 1000 Ang^3
#
#
#
# Elastic Constant Matrix: (Units=GPa)
#
#
# Indices 1 2 3 4 5 6 
#
# 1 117.7939 27.2435 21.2328 0.0000 -26.7593 0.0000
# 2 27.2435 129.2797 26.1653 0.0000 -8.4774 0.0000
# 3 21.2328 26.1653 54.4125 0.0000 6.6089 0.0000
# 4 0.0000 0.0000 0.0000 38.6993 0.0000 2.1059
# 5 -26.7593 -8.4774 6.6089 0.0000 19.6028 0.0000
# 6 0.0000 0.0000 0.0000 2.1059 0.0000 12.0705
#
#
#
# Elastic Compliance Matrix: (Units=1/GPa)
#
#
# Indices 1 2 3 4 5 6 
#
# 1 0.015695 0.000166 -0.009192 0.000000 0.024596 0.000000
# 2 0.000166 0.009137 -0.005178 0.000000 0.005923 0.000000
# 3 -0.009192 -0.005178 0.027371 0.000000 -0.024014 0.000000
# 4 0.000000 0.000000 0.000000 0.026088 0.000000 -0.004552
# 5 0.024596 0.005923 -0.024014 0.000000 0.095246 0.000000
# 6 0.000000 0.000000 0.000000 -0.004552 0.000000 0.083641
#
#
# Mechanical properties :
#
#
# Convention : Reuss Voigt Hill
#
# Bulk Modulus (GPa) = 42.02351 50.08550 46.05450
# Shear Modulus (GPa) = 17.03476 29.19747 23.11612
#
# Velocity S-wave (km/s) = 2.75136 3.60207 3.20506
# Velocity P-wave (km/s) = 5.36357 6.28944 5.84487
#
# Compressibility (1/GPa) = 0.02379620
#
# Stress axis : x y z
#
# Youngs Moduli (GPa) = 63.71294 109.45066 36.53447
#
# Poissons Ratio (x) = -0.01813 0.33581
# Poissons Ratio (y) = -0.01055 0.18916
# Poissons Ratio (z) = 0.58563 0.56668
#
# Static dielectric constant tensor:
#      x y z
#    x 2.011400 0.000000 0.005220 
#    y 0.000000 1.854530 0.000000 
#    z 0.005220 0.000000 1.845200 
# 
# From -- ./inp_files/27992.got.cif
#   From: 2010.05.17/outbox.cif.g08.bks.cpg/sg9_14_cif.got.tgz:27992.got - 2010.06.03 20:04:27.
