data_PCOD9135723
_publ_section_title
;
Structure prediction by ZEFSAII (Michael W. Deem and Ramdas Pophale) SiO2 
 PCOD9135723
Probable space group: C C
;
_chemical_formula_sum "Si O2"
_cell_formula_units_Z 32
_cell_length_a 12.535170
_cell_length_b 6.662971
_cell_length_c 18.305839
_cell_angle_alpha 90.000000
_cell_angle_beta 84.195138
_cell_angle_gamma 90.000000
_cell_volume 1521.090502
_symmetry_space_group_name_H-M "C C"
_symmetry_group_IT_number 9
_symmetry_cell_setting 'monoclinic'
loop_
_space_group_symop_operation_xyz
x,y,z
x,-y,1/2+z
1/2+x,1/2+y,z
1/2+x,1/2-y,1/2+z
loop_
_atom_site_type_symbol
_atom_site_label
_atom_site_fract_x
_atom_site_fract_y
_atom_site_fract_z
Si Si1 0.801850 0.518534 0.832450
Si Si2 0.769365 0.103901 0.239041
Si Si3 0.646272 0.257457 0.125882
Si Si4 0.681662 0.132813 0.873364
Si Si5 0.802163 0.380131 0.588299
Si Si6 0.509081 0.152825 0.996615
Si Si7 0.925611 0.772533 0.223905
Si Si8 0.827678 0.146979 0.454788
O O1 0.770548 0.672063 0.770305
O O2 0.706869 0.367195 0.861960
O O3 0.894237 0.373868 0.792877
O O4 0.827947 0.666470 0.897592
O O5 0.731051 0.111829 0.158906
O O6 0.690829 0.971207 0.294343
O O7 0.883731 0.997093 0.242064
O O8 0.709460 0.462985 0.108666
O O9 0.547222 0.272184 0.189362
O O10 0.594527 0.188120 0.054007
O O11 0.572812 0.079352 0.922135
O O12 0.776408 0.037859 0.916767
O O13 0.851953 0.298097 0.660057
O O14 0.764007 0.215325 0.531695
O O15 0.908248 0.467535 0.538027
O O16 0.448955 0.360024 0.976744
#
# Coordination Sequence:
#
# PCOD9135723 Si02
#       8
#     4   4   4   4   4   4   4   4
#     4  10  20  43  64  89 129 159 210 267 301 369
#     4  10  23  41  64  95 125 163 213 253 310 373
#     4  11  21  40  64  91 128 170 204 261 312 361
#     4  10  21  42  67  90 124 167 204 259 314 364
#     4   9  20  41  59  93 129 153 213 258 291 381
#     4   9  22  38  63  92 123 164 211 249 315 368
#     4  10  22  41  61  91 127 167 207 255 313 369
#     4   9  21  40  60  91 125 159 212 258 302 373
#
# _framework density 21.037535999999999
#
# number of rings (size 3 to 8) (size 9 to 14) (size 15 to 20)
#    0.750    1.500    1.250    0.750    3.500    0.000 
#   11.250    1.250    0.000    0.000    0.000    0.000 
#    0.000    0.000    0.000    0.000    0.000    0.000 
#
# Total GULP energy -89132.283496 kJ/mol
# GULP energy per Si atom -5570.767719 kJ/mol
# Density = 2.098965 g / cm^3
# Si number density = 21.037536 Si / 1000 Ang^3
#
#
#
# Elastic Constant Matrix: (Units=GPa)
#
#
# Indices 1 2 3 4 5 6 
#
# 1 45.3497 23.3513 -0.8641 0.0000 -2.4373 0.0000
# 2 23.3513 72.1372 17.7163 0.0000 -3.2651 0.0000
# 3 -0.8641 17.7163 64.9173 0.0000 -3.3041 0.0000
# 4 0.0000 0.0000 0.0000 18.0167 0.0000 0.3936
# 5 -2.4373 -3.2651 -3.3041 0.0000 35.7013 0.0000
# 6 0.0000 0.0000 0.0000 0.3936 0.0000 20.3469
#
#
#
# Elastic Compliance Matrix: (Units=1/GPa)
#
#
# Indices 1 2 3 4 5 6 
#
# 1 0.027031 -0.009429 0.002997 0.000000 0.001260 0.000000
# 2 -0.009429 0.018182 -0.005060 0.000000 0.000551 0.000000
# 3 0.002997 -0.005060 0.016891 0.000000 0.001305 0.000000
# 4 0.000000 0.000000 0.000000 0.055527 0.000000 -0.001074
# 5 0.001260 0.000551 0.001305 0.000000 0.028267 0.000000
# 6 0.000000 0.000000 0.000000 -0.001074 0.000000 0.049168
#
#
# Mechanical properties :
#
#
# Convention : Reuss Voigt Hill
#
# Bulk Modulus (GPa) = 25.56129 29.20124 27.38126
# Shear Modulus (GPa) = 21.63647 24.29302 22.96474
#
# Velocity S-wave (km/s) = 3.21046 3.40184 3.30753
# Velocity P-wave (km/s) = 5.09111 5.41671 5.25643
#
# Compressibility (1/GPa) = 0.03912166
#
# Stress axis : x y z
#
# Youngs Moduli (GPa) = 36.99458 54.99856 59.20202
#
# Poissons Ratio (x) = 0.51859 -0.17744
# Poissons Ratio (y) = 0.34883 0.29953
# Poissons Ratio (z) = -0.11088 0.27827
#
# Static dielectric constant tensor:
#      x y z
#    x 1.776620 0.000000 0.006540 
#    y 0.000000 1.756380 0.000000 
#    z 0.006540 0.000000 1.799860 
# 
# From -- ./inp_files/33480.got.cif
#   From: 2010.05.17/outbox.cif.g08.bks.cpg/sg9_17_cif.got.tgz:33480.got - 2010.06.03 20:04:27.
