data_PCOD9135186
_publ_section_title
;
Structure prediction by ZEFSAII (Michael W. Deem and Ramdas Pophale) SiO2 
 PCOD9135186
Probable space group: C C
;
_chemical_formula_sum "Si O2"
_cell_formula_units_Z 32
_cell_length_a 11.602217
_cell_length_b 9.037921
_cell_length_c 25.344677
_cell_angle_alpha 90.000000
_cell_angle_beta 148.273208
_cell_angle_gamma 90.000000
_cell_volume 1397.572090
_symmetry_space_group_name_H-M "C C"
_symmetry_group_IT_number 9
_symmetry_cell_setting 'monoclinic'
loop_
_space_group_symop_operation_xyz
x,y,z
x,-y,1/2+z
1/2+x,1/2+y,z
1/2+x,1/2-y,1/2+z
loop_
_atom_site_type_symbol
_atom_site_label
_atom_site_fract_x
_atom_site_fract_y
_atom_site_fract_z
Si Si1 0.668880 0.118173 0.506880
Si Si2 0.785422 0.922758 0.647871
Si Si3 0.655405 0.626031 0.549390
Si Si4 0.082041 0.485563 0.746700
Si Si5 0.691844 0.283787 0.845945
Si Si6 0.016800 0.164890 0.386130
Si Si7 0.193998 0.390692 0.899275
Si Si8 0.834140 0.613141 0.011050
O O1 0.439798 0.163580 0.443702
O O2 0.616872 0.060906 0.427126
O O3 0.812933 0.262440 0.548284
O O4 0.785501 0.010176 0.593112
O O5 0.728133 0.748321 0.619657
O O6 0.569698 0.966434 0.597008
O O7 0.027432 0.917006 0.765623
O O8 0.594087 0.719763 0.473427
O O9 0.433741 0.541045 0.478909
O O10 0.863549 0.519028 0.629063
O O11 0.179596 0.648101 0.799826
O O12 0.262414 0.381214 0.789610
O O13 0.041798 0.416840 0.789635
O O14 0.596592 0.244938 0.866692
O O15 0.148775 0.009980 0.439025
O O16 0.263494 0.218219 0.933707
#
# Coordination Sequence:
#
# PCOD9135186 Si02
#       8
#     4   4   4   4   4   4   4   4
#     4  10  20  38  60  80 119 156 187 240 297 339
#     4  10  21  40  57  86 119 149 199 239 287 352
#     4   9  21  37  59  83 114 153 190 244 292 342
#     4  10  20  39  57  86 116 144 204 237 281 356
#     4  11  23  36  61  89 114 156 195 241 292 353
#     4  11  21  36  60  82 116 153 188 237 301 336
#     4   8  19  36  59  80 111 156 185 234 295 333
#     4   9  19  38  55  78 121 149 182 242 279 341
#
# _framework density 22.896851000000002
#
# number of rings (size 3 to 8) (size 9 to 14) (size 15 to 20)
#    0.750    1.500    2.500    0.000    3.500    1.000 
#    0.000    1.250    0.000    0.000    0.000    0.000 
#    0.000    0.000    0.000    0.000    0.000    0.000 
#
# Total GULP energy -89120.749522 kJ/mol
# GULP energy per Si atom -5570.046845 kJ/mol
# Density = 2.284474 g / cm^3
# Si number density = 22.896851 Si / 1000 Ang^3
#
#
#
# Elastic Constant Matrix: (Units=GPa)
#
#
# Indices 1 2 3 4 5 6 
#
# 1 106.7865 1.1877 6.2933 0.0000 -5.5982 0.0000
# 2 1.1877 39.1469 0.8771 0.0000 -2.0582 0.0000
# 3 6.2933 0.8771 47.3865 0.0000 -5.0478 0.0000
# 4 0.0000 0.0000 0.0000 26.9307 0.0000 -12.6857
# 5 -5.5982 -2.0582 -5.0478 0.0000 23.8087 0.0000
# 6 0.0000 0.0000 0.0000 -12.6857 0.0000 23.8204
#
#
#
# Elastic Compliance Matrix: (Units=1/GPa)
#
#
# Indices 1 2 3 4 5 6 
#
# 1 0.009533 -0.000160 -0.001050 0.000000 0.002005 0.000000
# 2 -0.000160 0.025667 -0.000227 0.000000 0.002133 0.000000
# 3 -0.001050 -0.000227 0.021709 0.000000 0.004336 0.000000
# 4 0.000000 0.000000 0.000000 0.049567 0.000000 0.026397
# 5 0.002005 0.002133 0.004336 0.000000 0.043577 0.000000
# 6 0.000000 0.000000 0.000000 0.026397 0.000000 0.056039
#
#
# Mechanical properties :
#
#
# Convention : Reuss Voigt Hill
#
# Bulk Modulus (GPa) = 18.50620 23.33733 20.92177
# Shear Modulus (GPa) = 22.02884 27.24277 24.63580
#
# Velocity S-wave (km/s) = 3.10512 3.45310 3.28372
# Velocity P-wave (km/s) = 4.57774 5.11009 4.85122
#
# Compressibility (1/GPa) = 0.05403596
#
# Stress axis : x y z
#
# Youngs Moduli (GPa) = 104.89622 38.96069 46.06482
#
# Poissons Ratio (x) = 0.00625 0.04835
# Poissons Ratio (y) = 0.01682 0.01044
# Poissons Ratio (z) = 0.11009 0.00883
#
# Static dielectric constant tensor:
#      x y z
#    x 1.984990 0.000000 -0.024610 
#    y 0.000000 1.885810 0.000000 
#    z -0.024610 0.000000 1.889650 
# 
# From -- ./inp_files/16194.got.cif
#   From: 2010.05.17/outbox.cif.g08.bks.cpg/sg9_9_cif.got.tgz:16194.got - 2010.06.03 20:04:27.
