data_PCOD9135801
_publ_section_title
;
Structure prediction by ZEFSAII (Michael W. Deem and Ramdas Pophale) SiO2 
 PCOD9135801
Probable space group: C C
;
_chemical_formula_sum "Si O2"
_cell_formula_units_Z 24
_cell_length_a 10.008970
_cell_length_b 9.545958
_cell_length_c 12.668447
_cell_angle_alpha 90.000000
_cell_angle_beta 62.598152
_cell_angle_gamma 90.000000
_cell_volume 1074.602116
_symmetry_space_group_name_H-M "C C"
_symmetry_group_IT_number 9
_symmetry_cell_setting 'monoclinic'
loop_
_space_group_symop_operation_xyz
x,y,z
x,-y,1/2+z
1/2+x,1/2+y,z
1/2+x,1/2-y,1/2+z
loop_
_atom_site_type_symbol
_atom_site_label
_atom_site_fract_x
_atom_site_fract_y
_atom_site_fract_z
Si Si1 0.981830 0.555055 0.610100
Si Si2 0.290084 0.370680 0.082379
Si Si3 0.683046 0.171746 0.954886
Si Si4 0.374032 0.589103 0.325365
Si Si5 0.211063 0.874369 0.758361
Si Si6 0.340535 0.670651 0.110439
O O1 0.043355 0.435666 0.508783
O O2 0.826297 0.502971 0.716883
O O3 0.958900 0.703982 0.562895
O O4 0.116080 0.576321 0.645283
O O5 0.315441 0.430631 0.363693
O O6 0.296305 0.248229 0.162900
O O7 0.387649 0.509818 0.069427
O O8 0.672406 0.306015 0.885346
O O9 0.824862 0.830518 0.949558
O O10 0.720429 0.206847 0.063078
O O11 0.554719 0.592792 0.256190
O O12 0.300812 0.656652 0.248380
#
# Coordination Sequence:
#
# PCOD9135801 Si02
#       6
#     4   4   4   4   4   4
#     4  10  23  42  65  97 123 172 218 264 320 386
#     4  10  23  43  65  90 136 168 211 277 320 378
#     4  10  25  44  65  95 138 171 208 281 320 384
#     4  10  21  41  67  91 127 175 213 264 323 380
#     4  12  22  43  66  95 128 171 217 263 333 385
#     4  10  20  45  64  94 126 173 217 261 326 379
#
# _framework density 22.333848
#
# number of rings (size 3 to 8) (size 9 to 14) (size 15 to 20)
#    0.000    2.000    3.333    1.000    0.000    4.000 
#   24.000    0.000    0.000    0.000    0.000    0.000 
#    0.000    0.000    0.000    0.000    0.000    0.000 
#
# Total GULP energy -66903.961460 kJ/mol
# GULP energy per Si atom -5575.330122 kJ/mol
# Density = 2.228302 g / cm^3
# Si number density = 22.333848 Si / 1000 Ang^3
#
#
#
# Elastic Constant Matrix: (Units=GPa)
#
#
# Indices 1 2 3 4 5 6 
#
# 1 73.5285 59.0644 25.6060 0.0000 -0.8693 0.0000
# 2 59.0644 85.4194 26.0800 0.0000 -4.0262 0.0000
# 3 25.6060 26.0800 113.1867 0.0000 23.0388 0.0000
# 4 0.0000 0.0000 0.0000 18.7805 0.0000 -1.9436
# 5 -0.8693 -4.0262 23.0388 0.0000 29.7536 0.0000
# 6 0.0000 0.0000 0.0000 -1.9436 0.0000 41.1038
#
#
#
# Elastic Compliance Matrix: (Units=1/GPa)
#
#
# Indices 1 2 3 4 5 6 
#
# 1 0.031112 -0.020855 -0.002189 0.000000 -0.000218 0.000000
# 2 -0.020855 0.027149 -0.002566 0.000000 0.005051 0.000000
# 3 -0.002189 -0.002566 0.011877 0.000000 -0.009608 0.000000
# 4 0.000000 0.000000 0.000000 0.053508 0.000000 0.002530
# 5 -0.000218 0.005051 -0.009608 0.000000 0.041726 0.000000
# 6 0.000000 0.000000 0.000000 0.002530 0.000000 0.024448
#
#
# Mechanical properties :
#
#
# Convention : Reuss Voigt Hill
#
# Bulk Modulus (GPa) = 52.85631 54.84840 53.85236
# Shear Modulus (GPa) = 20.21457 28.68655 24.45056
#
# Velocity S-wave (km/s) = 3.01177 3.58780 3.31233
# Velocity P-wave (km/s) = 5.98433 6.46334 6.22844
#
# Compressibility (1/GPa) = 0.01891922
#
# Stress axis : x y z
#
# Youngs Moduli (GPa) = 32.14147 36.83382 84.19724
#
# Poissons Ratio (x) = 0.76818 0.18428
# Poissons Ratio (y) = 0.67032 0.21602
# Poissons Ratio (z) = 0.07035 0.09450
#
# Static dielectric constant tensor:
#      x y z
#    x 1.865210 0.000000 -0.004960 
#    y 0.000000 1.847970 0.000000 
#    z -0.004960 0.000000 1.851540 
# 
# From -- ./inp_files/23973.got.cif
#   From: 2010.05.17/outbox.cif.g08.bks.cpg/sg9_12_cif.got.tgz:23973.got - 2010.06.03 20:04:27.
