data_PCOD9135386
_publ_section_title
;
Structure prediction by ZEFSAII (Michael W. Deem and Ramdas Pophale) SiO2 
 PCOD9135386
Probable space group: C C
;
_chemical_formula_sum "Si O2"
_cell_formula_units_Z 28
_cell_length_a 5.127877
_cell_length_b 32.500218
_cell_length_c 10.507355
_cell_angle_alpha 90.000000
_cell_angle_beta 122.449935
_cell_angle_gamma 90.000000
_cell_volume 1477.705865
_symmetry_space_group_name_H-M "C C"
_symmetry_group_IT_number 9
_symmetry_cell_setting 'monoclinic'
loop_
_space_group_symop_operation_xyz
x,y,z
x,-y,1/2+z
1/2+x,1/2+y,z
1/2+x,1/2-y,1/2+z
loop_
_atom_site_type_symbol
_atom_site_label
_atom_site_fract_x
_atom_site_fract_y
_atom_site_fract_z
Si Si1 0.908680 0.983249 0.521820
Si Si2 0.051019 0.346548 0.465410
Si Si3 0.107159 0.267180 0.900958
Si Si4 0.699500 0.708044 0.689086
Si Si5 0.001780 0.775252 0.625406
Si Si6 0.165062 0.027798 0.830849
Si Si7 0.089969 0.099803 0.983545
O O1 0.020621 0.012596 0.662487
O O2 0.088541 0.939136 0.579495
O O3 0.538950 0.975474 0.427515
O O4 0.020441 0.997906 0.411385
O O5 0.217929 0.305982 0.564141
O O6 0.309842 0.372428 0.458112
O O7 0.808044 0.331127 0.295575
O O8 0.885847 0.372091 0.533560
O O9 0.186782 0.244557 0.790525
O O10 0.789535 0.289898 0.784306
O O11 0.379388 0.294461 0.029761
O O12 0.059182 0.230591 0.990822
O O13 0.937536 0.728195 0.652063
O O14 0.061629 0.074055 0.843588
#
# Coordination Sequence:
#
# PCOD9135386 Si02
#       7
#     4   4   4   4   4   4   4
#     4  10  20  39  68  98 125 159 205 249 295 390
#     4  12  22  38  62  86 128 164 199 273 304 360
#     4  10  21  36  54  88 111 146 236 253 296 362
#     4  11  21  36  58  84 111 165 213 258 302 361
#     4  11  21  36  58  84 111 165 213 258 302 361
#     4  10  20  39  68  98 125 159 205 249 295 390
#     4  10  23  38  62  98 121 158 207 242 332 366
#
# _framework density 18.948291999999999
#
# number of rings (size 3 to 8) (size 9 to 14) (size 15 to 20)
#    0.857    0.571    4.286    1.714    4.000    0.000 
#    0.000    0.000    3.143    6.857    0.000    0.000 
#    0.000    0.000    0.000    0.000    0.000    0.000 
#
# Total GULP energy -77935.585602 kJ/mol
# GULP energy per Si atom -5566.827543 kJ/mol
# Density = 1.890516 g / cm^3
# Si number density = 18.948292 Si / 1000 Ang^3
#
#
#
# Elastic Constant Matrix: (Units=GPa)
#
#
# Indices 1 2 3 4 5 6 
#
# 1 102.4772 -4.7889 11.8304 0.0000 3.0253 0.0000
# 2 -4.7889 13.7480 -26.1010 0.0000 3.5085 0.0000
# 3 11.8304 -26.1010 48.4983 0.0000 15.5625 0.0000
# 4 0.0000 0.0000 0.0000 15.3389 0.0000 -4.9014
# 5 3.0253 3.5085 15.5625 0.0000 33.7362 0.0000
# 6 0.0000 0.0000 0.0000 -4.9014 0.0000 22.6262
#
#
#
# Elastic Compliance Matrix: (Units=1/GPa)
#
#
# Indices 1 2 3 4 5 6 
#
# 1 0.009974 0.003629 -0.000084 0.000000 -0.001233 0.000000
# 2 0.003629 -0.190515 -0.128726 0.000000 0.078869 0.000000
# 3 -0.000084 -0.128726 -0.062134 0.000000 0.042057 0.000000
# 4 0.000000 0.000000 0.000000 0.070042 0.000000 0.015173
# 5 -0.001233 0.078869 0.042057 0.000000 0.002149 0.000000
# 6 0.000000 0.000000 0.000000 0.015173 0.000000 0.047483
#
#
# Mechanical properties :
#
#
# Convention : Reuss Voigt Hill
#
# Bulk Modulus (GPa) = -2.02824 14.06717 6.01946
# Shear Modulus (GPa) = -135.18855 26.59249 -54.29803
#
# Velocity S-wave (km/s) = -8.45582 3.75029 -5.35893
# Velocity P-wave (km/s) = 9.81872 5.11791 5.92513
#
# Compressibility (1/GPa) = -0.49303713
#
# Stress axis : x y z
#
# Youngs Moduli (GPa) = 100.26089 -5.24892 -16.09421
#
# Poissons Ratio (x) = 0.01905 -0.00135
# Poissons Ratio (y) = -0.36387 -2.07174
# Poissons Ratio (z) = 0.00844 -0.67567
#
# Static dielectric constant tensor:
#      x y z
#    x 1.741060 0.000000 -0.000410 
#    y 0.000000 1.670160 0.000000 
#    z -0.000410 0.000000 1.635330 
# 
# From -- ./inp_files/4420.got.cif
#   From: 2010.05.17/outbox.cif.g08.bks.cpg/sg9_3_cif.got.tgz:4420.got - 2010.06.03 20:04:27.
