data_PCOD9135457
_publ_section_title
;
Structure prediction by ZEFSAII (Michael W. Deem and Ramdas Pophale) SiO2 
 PCOD9135457
Probable space group: C C
;
_chemical_formula_sum "Si O2"
_cell_formula_units_Z 32
_cell_length_a 11.308086
_cell_length_b 10.492587
_cell_length_c 14.084739
_cell_angle_alpha 90.000000
_cell_angle_beta 48.027044
_cell_angle_gamma 90.000000
_cell_volume 1242.448596
_symmetry_space_group_name_H-M "C C"
_symmetry_group_IT_number 9
_symmetry_cell_setting 'monoclinic'
loop_
_space_group_symop_operation_xyz
x,y,z
x,-y,1/2+z
1/2+x,1/2+y,z
1/2+x,1/2-y,1/2+z
loop_
_atom_site_type_symbol
_atom_site_label
_atom_site_fract_x
_atom_site_fract_y
_atom_site_fract_z
Si Si1 0.566600 0.772782 0.969810
Si Si2 0.251122 0.820808 0.821153
Si Si3 0.380922 0.426466 0.792344
Si Si4 0.324369 0.347502 0.454686
Si Si5 0.894171 0.392320 0.449756
Si Si6 0.100048 0.006914 0.527290
Si Si7 0.146508 0.282930 0.181710
Si Si8 0.502752 0.976806 0.598566
O O1 0.720400 0.851172 0.850665
O O2 0.417493 0.733512 0.983560
O O3 0.615661 0.631078 0.971305
O O4 0.526287 0.870483 0.078438
O O5 0.334111 0.738065 0.855972
O O6 0.226592 0.745095 0.739581
O O7 0.345153 0.944923 0.738127
O O8 0.098506 0.877779 0.955398
O O9 0.382632 0.514207 0.885323
O O10 0.439869 0.509667 0.672743
O O11 0.521699 0.327993 0.728296
O O12 0.141853 0.391061 0.571034
O O13 0.760595 0.502405 0.504646
O O14 0.792653 0.259894 0.528966
O O15 0.985738 0.430021 0.497945
O O16 0.017610 0.388894 0.294104
#
# Coordination Sequence:
#
# PCOD9135457 Si02
#       8
#     4   4   4   4   4   4   4   4
#     4  11  24  44  69 100 143 181 235 291 358 420
#     4  11  24  41  69  96 134 183 231 286 360 424
#     4  10  24  44  67 101 138 181 234 295 350 427
#     4  11  24  44  69 100 143 181 235 291 358 420
#     4  10  20  40  65  92 127 175 226 283 344 415
#     4  11  24  41  69  96 134 183 231 286 360 424
#     4  10  20  40  65  92 127 175 226 283 344 415
#     4  10  24  44  67 101 138 181 234 295 350 427
#
# _framework density 25.755592
#
# number of rings (size 3 to 8) (size 9 to 14) (size 15 to 20)
#    0.000    1.500    2.500    1.500    3.500    1.000 
#    0.000    0.000    0.000    0.000    0.000    0.000 
#    0.000    0.000    0.000    0.000    0.000    0.000 
#
# Total GULP energy -89160.523820 kJ/mol
# GULP energy per Si atom -5572.532739 kJ/mol
# Density = 2.569697 g / cm^3
# Si number density = 25.755592 Si / 1000 Ang^3
#
#
#
# Elastic Constant Matrix: (Units=GPa)
#
#
# Indices 1 2 3 4 5 6 
#
# 1 88.8125 18.8598 -0.6770 0.0000 -19.4229 0.0000
# 2 18.8598 92.4736 0.4218 0.0000 -14.8289 0.0000
# 3 -0.6770 0.4218 62.6893 0.0000 -9.8391 0.0000
# 4 0.0000 0.0000 0.0000 26.4444 0.0000 -8.5065
# 5 -19.4229 -14.8289 -9.8391 0.0000 21.5056 0.0000
# 6 0.0000 0.0000 0.0000 -8.5065 0.0000 -309.8010
#
#
#
# Elastic Compliance Matrix: (Units=1/GPa)
#
#
# Indices 1 2 3 4 5 6 
#
# 1 0.014397 -0.000781 0.002281 0.000000 0.013508 0.000000
# 2 -0.000781 0.012304 0.001217 0.000000 0.008336 0.000000
# 3 0.002281 0.001217 0.017694 0.000000 0.010994 0.000000
# 4 0.000000 0.000000 0.000000 0.037484 0.000000 -0.001029
# 5 0.013508 0.008336 0.010994 0.000000 0.069478 0.000000
# 6 0.000000 0.000000 0.000000 -0.001029 0.000000 -0.003200
#
#
# Mechanical properties :
#
#
# Convention : Reuss Voigt Hill
#
# Bulk Modulus (GPa) = 20.06828 31.24271 25.65549
# Shear Modulus (GPa) = 31.38101 -37.34548 -2.98223
#
# Velocity S-wave (km/s) = 3.49437 -3.81201 -1.07722
# Velocity P-wave (km/s) = 4.90811 2.68672 2.90440
#
# Compressibility (1/GPa) = 0.04982989
#
# Stress axis : x y z
#
# Youngs Moduli (GPa) = 69.45911 81.27228 56.51734
#
# Poissons Ratio (x) = 0.06343 -0.12891
# Poissons Ratio (y) = 0.05421 -0.06879
# Poissons Ratio (z) = -0.15842 -0.09892
#
# Static dielectric constant tensor:
#      x y z
#    x 2.117460 0.000000 0.006670 
#    y 0.000000 2.147090 0.000000 
#    z 0.006670 0.000000 2.127220 
# 
# From -- ./inp_files/16472.got.cif
#   From: 2010.05.17/outbox.cif.g08.bks.cpg/sg9_9_cif.got.tgz:16472.got - 2010.06.03 20:04:27.
