data_PCOD9135291
_publ_section_title
;
Structure prediction by ZEFSAII (Michael W. Deem and Ramdas Pophale) SiO2 
 PCOD9135291
Probable space group: C C
;
_chemical_formula_sum "Si O2"
_cell_formula_units_Z 28
_cell_length_a 15.794774
_cell_length_b 5.096465
_cell_length_c 16.771503
_cell_angle_alpha 90.000000
_cell_angle_beta 112.014698
_cell_angle_gamma 90.000000
_cell_volume 1251.628023
_symmetry_space_group_name_H-M "C C"
_symmetry_group_IT_number 9
_symmetry_cell_setting 'monoclinic'
loop_
_space_group_symop_operation_xyz
x,y,z
x,-y,1/2+z
1/2+x,1/2+y,z
1/2+x,1/2-y,1/2+z
loop_
_atom_site_type_symbol
_atom_site_label
_atom_site_fract_x
_atom_site_fract_y
_atom_site_fract_z
Si Si1 0.390990 0.233878 0.582860
Si Si2 0.630914 0.497803 0.182205
Si Si3 0.560935 0.002910 0.077733
Si Si4 0.123134 0.117789 0.863581
Si Si5 0.690199 0.111484 0.972557
Si Si6 0.925340 0.050287 0.261961
Si Si7 0.830862 0.545637 0.207961
O O1 0.459328 0.125508 0.539482
O O2 0.298994 0.384680 0.525929
O O3 0.142667 0.954111 0.279491
O O4 0.360385 0.984767 0.626301
O O5 0.608704 0.797049 0.153935
O O6 0.439579 0.600365 0.171675
O O7 0.728989 0.444523 0.177285
O O8 0.562687 0.289604 0.117580
O O9 0.624359 0.024890 0.022320
O O10 0.159984 0.405905 0.894420
O O11 0.167407 0.907012 0.938235
O O12 0.014293 0.073694 0.832114
O O13 0.894893 0.339014 0.278282
O O14 0.845283 0.838994 0.241742
#
# Coordination Sequence:
#
# PCOD9135291 Si02
#       7
#     4   4   4   4   4   4   4
#     4  10  24  43  71  99 135 186 239 286 340 438
#     4  12  22  44  73 105 130 192 244 286 345 443
#     4  12  24  44  77  99 134 196 247 276 356 443
#     4  12  26  46  66 102 152 177 228 306 374 405
#     4  12  27  45  67 108 150 178 226 317 367 409
#     4  10  21  42  68  96 131 186 233 279 339 427
#     4  10  20  38  72  97 132 167 253 284 325 407
#
# _framework density 22.370861999999999
#
# number of rings (size 3 to 8) (size 9 to 14) (size 15 to 20)
#    0.857    0.000    2.857    5.143    2.000    0.000 
#    7.714    0.000    0.000    0.000    0.000    0.000 
#    0.000    0.000    0.000    0.000    0.000    0.000 
#
# Total GULP energy -78115.279648 kJ/mol
# GULP energy per Si atom -5579.662832 kJ/mol
# Density = 2.231994 g / cm^3
# Si number density = 22.370862 Si / 1000 Ang^3
#
#
#
# Elastic Constant Matrix: (Units=GPa)
#
#
# Indices 1 2 3 4 5 6 
#
# 1 106.0148 0.6622 12.4420 0.0000 3.5534 0.0000
# 2 0.6622 75.1037 -11.0194 -0.0001 -0.6515 0.0001
# 3 12.4420 -11.0194 38.7894 0.0000 3.2448 0.0000
# 4 0.0000 -0.0001 0.0000 37.8205 0.0000 8.2555
# 5 3.5534 -0.6515 3.2448 0.0000 38.2543 0.0000
# 6 0.0000 0.0001 0.0000 8.2555 0.0000 13.8336
#
#
#
# Elastic Compliance Matrix: (Units=1/GPa)
#
#
# Indices 1 2 3 4 5 6 
#
# 1 0.009841 -0.000571 -0.003265 0.000000 -0.000647 0.000000
# 2 -0.000571 0.013928 0.004145 0.000000 -0.000061 0.000000
# 3 -0.003265 0.004145 0.028174 0.000000 -0.002016 0.000000
# 4 0.000000 0.000000 0.000000 0.030401 0.000000 -0.018142
# 5 -0.000647 -0.000061 -0.002016 0.000000 0.026371 0.000000
# 6 0.000000 0.000000 0.000000 -0.018142 0.000000 0.083114
#
#
# Mechanical properties :
#
#
# Convention : Reuss Voigt Hill
#
# Bulk Modulus (GPa) = 19.02593 24.89749 21.96171
# Shear Modulus (GPa) = 23.95433 32.50322 28.22878
#
# Velocity S-wave (km/s) = 3.27583 3.81586 3.55611
# Velocity P-wave (km/s) = 4.77822 5.52883 5.16717
#
# Compressibility (1/GPa) = 0.05255984
#
# Stress axis : x y z
#
# Youngs Moduli (GPa) = 101.61510 71.79992 35.49427
#
# Poissons Ratio (x) = 0.04103 0.11588
# Poissons Ratio (y) = 0.05806 -0.14712
# Poissons Ratio (z) = 0.33175 -0.29761
#
# Static dielectric constant tensor:
#      x y z
#    x 1.923850 0.000000 0.020230 
#    y 0.000000 1.803040 0.000000 
#    z 0.020230 0.000000 1.816400 
# 
# From -- ./inp_files/30273.got.cif
#   From: 2010.05.17/outbox.cif.g08.bks.cpg/sg9_16_cif.got.tgz:30273.got - 2010.06.03 20:04:27.
