data_PCOD9135700
_publ_section_title
;
Structure prediction by ZEFSAII (Michael W. Deem and Ramdas Pophale) SiO2 
 PCOD9135700
Probable space group: C C
;
_chemical_formula_sum "Si O2"
_cell_formula_units_Z 28
_cell_length_a 6.598484
_cell_length_b 19.184430
_cell_length_c 12.295912
_cell_angle_alpha 90.000000
_cell_angle_beta 134.333808
_cell_angle_gamma 90.000000
_cell_volume 1113.346122
_symmetry_space_group_name_H-M "C C"
_symmetry_group_IT_number 9
_symmetry_cell_setting 'monoclinic'
loop_
_space_group_symop_operation_xyz
x,y,z
x,-y,1/2+z
1/2+x,1/2+y,z
1/2+x,1/2-y,1/2+z
loop_
_atom_site_type_symbol
_atom_site_label
_atom_site_fract_x
_atom_site_fract_y
_atom_site_fract_z
Si Si1 0.244670 0.375390 0.801250
Si Si2 0.821721 0.611889 0.577900
Si Si3 0.658354 0.663205 0.859160
Si Si4 0.504153 0.956333 0.361586
Si Si5 0.630136 0.257511 0.142283
Si Si6 0.934249 0.381376 0.882677
Si Si7 0.100230 0.108464 0.063173
O O1 0.314814 0.307103 0.759104
O O2 0.196462 0.355558 0.909311
O O3 0.935169 0.406221 0.654644
O O4 0.527621 0.419716 0.915954
O O5 0.782801 0.683779 0.629354
O O6 0.975474 0.630192 0.524122
O O7 0.934702 0.558685 0.709191
O O8 0.513055 0.706447 0.708343
O O9 0.808969 0.596131 0.859202
O O10 0.500104 0.645403 0.913285
O O11 0.907213 0.714340 0.990083
O O12 0.841493 0.941833 0.498263
O O13 0.433017 0.034740 0.367195
O O14 0.675048 0.354994 0.707630
#
# Coordination Sequence:
#
# PCOD9135700 Si02
#       7
#     4   4   4   4   4   4   4
#     4   9  22  42  70  99 136 185 223 283 344 402
#     4  11  24  45  72 104 134 189 234 283 349 415
#     4  10  22  43  69  98 136 187 223 290 347 406
#     4  11  26  44  68 104 137 179 238 288 341 417
#     4  10  20  42  71  96 143 180 227 283 345 412
#     4  10  26  42  71 102 141 182 232 281 356 413
#     4   9  24  44  65 101 133 184 225 280 350 401
#
# _framework density 25.149412999999999
#
# number of rings (size 3 to 8) (size 9 to 14) (size 15 to 20)
#    0.857    1.143    1.429    0.000    8.000    2.286 
#    2.571    4.286    0.000    0.000    0.000    0.000 
#    0.000    0.000    0.000    0.000    0.000    0.000 
#
# Total GULP energy -77938.178752 kJ/mol
# GULP energy per Si atom -5567.012768 kJ/mol
# Density = 2.509217 g / cm^3
# Si number density = 25.149413 Si / 1000 Ang^3
#
#
#
# Elastic Constant Matrix: (Units=GPa)
#
#
# Indices 1 2 3 4 5 6 
#
# 1 81.1588 20.0756 25.0882 0.0000 -31.2850 0.0000
# 2 20.0756 90.4007 15.3155 0.0000 -25.3224 0.0000
# 3 25.0882 15.3155 120.3967 0.0000 -30.5574 0.0000
# 4 0.0000 0.0000 0.0000 23.9864 0.0000 -10.3205
# 5 -31.2850 -25.3224 -30.5574 0.0000 66.6340 0.0000
# 6 0.0000 0.0000 0.0000 -10.3205 0.0000 21.3467
#
#
#
# Elastic Compliance Matrix: (Units=1/GPa)
#
#
# Indices 1 2 3 4 5 6 
#
# 1 0.015473 -0.001499 -0.001510 0.000000 0.006003 0.000000
# 2 -0.001499 0.012545 -0.000285 0.000000 0.003933 0.000000
# 3 -0.001510 -0.000285 0.009562 0.000000 0.003568 0.000000
# 4 0.000000 0.000000 0.000000 0.052640 0.000000 0.025450
# 5 0.006003 0.003933 0.003568 0.000000 0.020956 0.000000
# 6 0.000000 0.000000 0.000000 0.025450 0.000000 0.059150
#
#
# Mechanical properties :
#
#
# Convention : Reuss Voigt Hill
#
# Bulk Modulus (GPa) = 32.26712 45.87943 39.07327
# Shear Modulus (GPa) = 26.70289 37.82522 32.26406
#
# Velocity S-wave (km/s) = 3.26202 3.88238 3.58564
# Velocity P-wave (km/s) = 5.20055 6.19512 5.71949
#
# Compressibility (1/GPa) = 0.03099130
#
# Stress axis : x y z
#
# Youngs Moduli (GPa) = 64.62896 79.71526 104.57676
#
# Poissons Ratio (x) = 0.11949 0.15792
# Poissons Ratio (y) = 0.09687 0.02984
# Poissons Ratio (z) = 0.09760 0.02274
#
# Static dielectric constant tensor:
#      x y z
#    x 2.098720 0.000000 0.035940 
#    y 0.000000 1.987200 0.000000 
#    z 0.035940 0.000000 2.081360 
# 
# From -- ./inp_files/13418.got.cif
#   From: 2010.05.17/outbox.cif.g08.bks.cpg/sg9_7_cif.got.tgz:13418.got - 2010.06.03 20:04:27.
