data_PCOD9135613
_publ_section_title
;
Structure prediction by ZEFSAII (Michael W. Deem and Ramdas Pophale) SiO2 
 PCOD9135613
Probable space group: C C
;
_chemical_formula_sum "Si O2"
_cell_formula_units_Z 20
_cell_length_a 19.268466
_cell_length_b 7.281941
_cell_length_c 12.853975
_cell_angle_alpha 90.000000
_cell_angle_beta 25.382730
_cell_angle_gamma 90.000000
_cell_volume 773.121190
_symmetry_space_group_name_H-M "C C"
_symmetry_group_IT_number 9
_symmetry_cell_setting 'monoclinic'
loop_
_space_group_symop_operation_xyz
x,y,z
x,-y,1/2+z
1/2+x,1/2+y,z
1/2+x,1/2-y,1/2+z
loop_
_atom_site_type_symbol
_atom_site_label
_atom_site_fract_x
_atom_site_fract_y
_atom_site_fract_z
Si Si1 0.468420 0.266666 0.302740
Si Si2 0.176687 0.656738 0.832532
Si Si3 0.739253 0.753041 0.846354
Si Si4 0.010123 0.353561 0.336154
Si Si5 0.606189 0.281926 0.321447
O O1 0.549453 0.374360 0.289901
O O2 0.277841 0.309994 0.550600
O O3 0.482850 0.054945 0.323082
O O4 0.567715 0.268557 0.062616
O O5 0.079273 0.630818 0.858233
O O6 0.341283 0.752323 0.576215
O O7 0.217586 0.461853 0.832009
O O8 0.668632 0.634747 0.845992
O O9 0.928707 0.711339 0.601388
O O10 0.636473 0.750281 0.089686
#
# Coordination Sequence:
#
# PCOD9135613 Si02
#       5
#     4   4   4   4   4
#     4  10  22  40  63  87 123 159 203 252 303 363
#     4  11  23  40  60  92 123 158 205 253 300 365
#     4  10  22  40  63  87 123 159 203 252 303 363
#     4  11  23  40  60  92 123 158 205 253 300 365
#     4  10  20  42  60  86 118 162 202 252 308 356
#
# _framework density 25.869163
#
# number of rings (size 3 to 8) (size 9 to 14) (size 15 to 20)
#    0.000    1.600    2.000    2.400    2.800    0.000 
#    0.000    6.000    0.000    0.000    0.000    0.000 
#    0.000    0.000    0.000    0.000    0.000    0.000 
#
# Total GULP energy -55854.863085 kJ/mol
# GULP energy per Si atom -5585.486309 kJ/mol
# Density = 2.581028 g / cm^3
# Si number density = 25.869163 Si / 1000 Ang^3
#
#
#
# Elastic Constant Matrix: (Units=GPa)
#
#
# Indices 1 2 3 4 5 6 
#
# 1 91.9620 -2.9732 35.0578 -0.0008 -12.1514 0.0001
# 2 -2.9732 76.7644 11.0643 -0.0010 8.6972 0.0003
# 3 35.0578 11.0643 186.5584 -0.0011 20.5747 0.0003
# 4 -0.0008 -0.0010 -0.0011 42.3220 0.0001 -0.3869
# 5 -12.1514 8.6972 20.5747 0.0001 72.6472 0.0000
# 6 0.0001 0.0003 0.0003 -0.3869 0.0000 7.4618
#
#
#
# Elastic Compliance Matrix: (Units=1/GPa)
#
#
# Indices 1 2 3 4 5 6 
#
# 1 0.012258 0.000545 -0.002637 0.000000 0.002732 0.000000
# 2 0.000545 0.013302 -0.000749 0.000000 -0.001289 0.000000
# 3 -0.002637 -0.000749 0.006130 0.000000 -0.002088 0.000000
# 4 0.000000 0.000000 0.000000 0.023640 0.000000 0.001226
# 5 0.002732 -0.001289 -0.002088 0.000000 0.014968 0.000000
# 6 0.000000 0.000000 0.000000 0.001226 0.000000 0.134079
#
#
# Mechanical properties :
#
#
# Convention : Reuss Voigt Hill
#
# Bulk Modulus (GPa) = 38.44897 49.06471 43.75684
# Shear Modulus (GPa) = 22.85944 45.29528 34.07736
#
# Velocity S-wave (km/s) = 2.97586 4.18896 3.63340
# Velocity P-wave (km/s) = 5.16747 6.51185 5.87822
#
# Compressibility (1/GPa) = 0.02600850
#
# Stress axis : x y z
#
# Youngs Moduli (GPa) = 81.57931 75.17650 163.11910
#
# Poissons Ratio (x) = -0.04100 0.43017
# Poissons Ratio (y) = -0.04449 0.12221
# Poissons Ratio (z) = 0.21514 0.05632
#
# Static dielectric constant tensor:
#      x y z
#    x 2.030150 0.000000 0.018250 
#    y 0.000000 2.297150 0.000000 
#    z 0.018250 0.000000 1.944230 
# 
# From -- ./inp_files/4802.got.cif
#   From: 2010.05.17/outbox.cif.g08.bks.cpg/sg9_3_cif.got.tgz:4802.got - 2010.06.03 20:04:27.
