data_PCOD9135714
_publ_section_title
;
Structure prediction by ZEFSAII (Michael W. Deem and Ramdas Pophale) SiO2 
 PCOD9135714
Probable space group: C C
;
_chemical_formula_sum "Si O2"
_cell_formula_units_Z 32
_cell_length_a 13.327909
_cell_length_b 4.886240
_cell_length_c 33.874687
_cell_angle_alpha 90.000000
_cell_angle_beta 136.643953
_cell_angle_gamma 90.000000
_cell_volume 1514.508041
_symmetry_space_group_name_H-M "C C"
_symmetry_group_IT_number 9
_symmetry_cell_setting 'monoclinic'
loop_
_space_group_symop_operation_xyz
x,y,z
x,-y,1/2+z
1/2+x,1/2+y,z
1/2+x,1/2-y,1/2+z
loop_
_atom_site_type_symbol
_atom_site_label
_atom_site_fract_x
_atom_site_fract_y
_atom_site_fract_z
Si Si1 0.933870 0.535166 0.723920
Si Si2 0.359464 0.746240 0.404590
Si Si3 0.732990 0.961838 0.160996
Si Si4 0.978905 0.348111 0.150051
Si Si5 0.282614 0.654060 0.588738
Si Si6 0.170219 0.555109 0.973843
Si Si7 0.738503 0.477090 0.445075
Si Si8 0.668266 0.718359 0.348094
O O1 0.871467 0.231957 0.711123
O O2 0.016949 0.568979 0.705881
O O3 0.035794 0.646050 0.787551
O O4 0.791380 0.729547 0.679751
O O5 0.361187 0.860826 0.450241
O O6 0.298212 0.441401 0.387353
O O7 0.515499 0.792295 0.430638
O O8 0.238340 0.944025 0.349625
O O9 0.603691 0.907126 0.154299
O O10 0.696708 0.888399 0.105115
O O11 0.837169 0.535890 0.100195
O O12 0.927447 0.034758 0.134785
O O13 0.206256 0.549616 0.527692
O O14 0.279377 0.785547 0.987484
O O15 0.172869 0.286640 0.947447
O O16 0.632980 0.624040 0.382664
#
# Coordination Sequence:
#
# PCOD9135714 Si02
#       8
#     4   4   4   4   4   4   4   4
#     4  10  21  39  62  87 120 149 196 239 302 347
#     4  10  22  40  57  86 124 154 204 244 286 354
#     4  10  21  40  61  89 115 150 194 248 291 366
#     4  10  21  42  59  89 117 147 196 248 293 361
#     4  10  23  37  61  87 119 150 196 246 294 346
#     4  12  22  39  63  86 119 168 197 243 302 355
#     4  10  22  40  56  85 125 154 201 249 283 350
#     4  10  20  43  59  85 129 158 188 265 287 345
#
# _framework density 21.128972999999998
#
# number of rings (size 3 to 8) (size 9 to 14) (size 15 to 20)
#    0.750    1.000    1.250    3.000    0.000    2.000 
#    6.750    0.000    0.000    0.000    0.000    0.000 
#    0.000    0.000    0.000    0.000    0.000    0.000 
#
# Total GULP energy -89273.942435 kJ/mol
# GULP energy per Si atom -5579.621402 kJ/mol
# Density = 2.108088 g / cm^3
# Si number density = 21.128973 Si / 1000 Ang^3
#
#
#
# Elastic Constant Matrix: (Units=GPa)
#
#
# Indices 1 2 3 4 5 6 
#
# 1 117.0428 19.4541 25.0067 -0.0002 -26.5447 -0.0020
# 2 19.4541 101.1067 1.5634 0.0008 -7.3981 -0.0027
# 3 25.0067 1.5634 42.0873 -0.0008 -15.0830 0.0012
# 4 -0.0002 0.0008 -0.0008 20.8014 0.0007 -4.1342
# 5 -26.5447 -7.3981 -15.0830 0.0007 18.7631 -0.0004
# 6 -0.0020 -0.0027 0.0012 -4.1342 -0.0004 17.4631
#
#
#
# Elastic Compliance Matrix: (Units=1/GPa)
#
#
# Indices 1 2 3 4 5 6 
#
# 1 0.012802 -0.001250 -0.001750 0.000000 0.016212 0.000002
# 2 -0.001250 0.010373 0.001671 0.000000 0.003665 0.000001
# 3 -0.001750 0.001671 0.033834 0.000000 0.025380 -0.000002
# 4 0.000000 0.000000 0.000000 0.050447 -0.000002 0.011943
# 5 0.016212 0.003665 0.025380 -0.000002 0.098079 0.000002
# 6 0.000002 0.000001 -0.000002 0.011943 0.000002 0.060091
#
#
# Mechanical properties :
#
#
# Convention : Reuss Voigt Hill
#
# Bulk Modulus (GPa) = 18.39911 39.14279 28.77095
# Shear Modulus (GPa) = 17.45792 25.68636 21.57214
#
# Velocity S-wave (km/s) = 2.87758 3.49046 3.19874
# Velocity P-wave (km/s) = 4.44607 5.90003 5.22388
#
# Compressibility (1/GPa) = 0.05435046
#
# Stress axis : x y z
#
# Youngs Moduli (GPa) = 78.11010 96.40057 29.55634
#
# Poissons Ratio (x) = 0.12050 0.05173
# Poissons Ratio (y) = 0.09764 -0.04938
# Poissons Ratio (z) = 0.13671 -0.16106
#
# Static dielectric constant tensor:
#      x y z
#    x 1.750990 0.000000 -0.027690 
#    y 0.000000 1.741910 0.000000 
#    z -0.027690 0.000000 1.778990 
# 
# From -- ./inp_files/35119.got.cif
#   From: 2010.05.17/outbox.cif.g08.bks.cpg/sg9_18_cif.got.tgz:35119.got - 2010.06.03 20:04:27.
