data_PCOD9135536
_publ_section_title
;
Structure prediction by ZEFSAII (Michael W. Deem and Ramdas Pophale) SiO2 
 PCOD9135536
Probable space group: C C
;
_chemical_formula_sum "Si O2"
_cell_formula_units_Z 32
_cell_length_a 29.703353
_cell_length_b 5.616234
_cell_length_c 14.099085
_cell_angle_alpha 90.000000
_cell_angle_beta 145.554022
_cell_angle_gamma 90.000000
_cell_volume 1330.372404
_symmetry_space_group_name_H-M "C C"
_symmetry_group_IT_number 9
_symmetry_cell_setting 'monoclinic'
loop_
_space_group_symop_operation_xyz
x,y,z
x,-y,1/2+z
1/2+x,1/2+y,z
1/2+x,1/2-y,1/2+z
loop_
_atom_site_type_symbol
_atom_site_label
_atom_site_fract_x
_atom_site_fract_y
_atom_site_fract_z
Si Si1 0.071490 0.406447 0.174880
Si Si2 0.739484 0.592979 0.035683
Si Si3 0.286856 0.394266 0.367262
Si Si4 0.205102 0.108285 0.748812
Si Si5 0.580049 0.722294 0.836715
Si Si6 0.763307 0.105759 0.043145
Si Si7 0.462487 0.657552 0.138892
Si Si8 0.559247 0.092096 0.950685
O O1 0.056993 0.663481 0.196367
O O2 0.166960 0.370973 0.354776
O O3 0.015273 0.237002 0.139580
O O4 0.052567 0.430041 0.031779
O O5 0.720276 0.605954 0.889036
O O6 0.657568 0.567966 0.951073
O O7 0.788077 0.351882 0.135527
O O8 0.773359 0.855896 0.113858
O O9 0.249135 0.655535 0.284590
O O10 0.303101 0.404395 0.509410
O O11 0.370434 0.362785 0.461435
O O12 0.235654 0.149670 0.267390
O O13 0.113179 0.178455 0.570638
O O14 0.503664 0.587446 0.741386
O O15 0.602444 0.937258 0.944717
O O16 0.480119 0.832685 0.257786
#
# Coordination Sequence:
#
# PCOD9135536 Si02
#       8
#     4   4   4   4   4   4   4   4
#     4  10  20  41  62  92 130 179 215 275 328 406
#     4   9  16  33  59  91 115 165 210 264 302 390
#     4  10  22  39  65  96 131 182 212 269 348 403
#     4  10  21  40  70  90 132 181 223 265 338 405
#     4  10  21  35  63  98 131 162 224 278 335 383
#     4   9  16  33  63  86 114 169 214 249 315 385
#     4  11  25  38  67  98 135 171 224 281 341 401
#     4  11  23  39  67 101 126 173 232 283 319 403
#
# _framework density 24.053415999999999
#
# number of rings (size 3 to 8) (size 9 to 14) (size 15 to 20)
#    0.000    2.000    5.000    0.000    5.250    1.000 
#    0.000    0.000   16.500    0.000    0.000    0.000 
#    0.000    0.000    0.000    0.000    0.000    0.000 
#
# Total GULP energy -89349.381891 kJ/mol
# GULP energy per Si atom -5584.336368 kJ/mol
# Density = 2.399867 g / cm^3
# Si number density = 24.053416 Si / 1000 Ang^3
#
#
#
# Elastic Constant Matrix: (Units=GPa)
#
#
# Indices 1 2 3 4 5 6 
#
# 1 91.1771 16.9265 39.8801 0.0000 -0.6938 0.0000
# 2 16.9265 153.3228 21.7354 0.0001 -0.4277 0.0000
# 3 39.8801 21.7354 77.6526 0.0000 -11.1306 0.0000
# 4 0.0000 0.0001 0.0000 17.8478 0.0000 -6.2412
# 5 -0.6938 -0.4277 -11.1306 0.0000 26.4470 0.0000
# 6 0.0000 0.0000 0.0000 -6.2412 0.0000 34.7765
#
#
#
# Elastic Compliance Matrix: (Units=1/GPa)
#
#
# Indices 1 2 3 4 5 6 
#
# 1 0.014389 -0.000511 -0.007656 0.000000 -0.002853 0.000000
# 2 -0.000511 0.006823 -0.001738 0.000000 -0.000635 0.000000
# 3 -0.007656 -0.001738 0.018372 0.000000 0.007503 0.000000
# 4 0.000000 0.000000 0.000000 0.059781 0.000000 0.010729
# 5 -0.002853 -0.000635 0.007503 0.000000 0.040884 0.000000
# 6 0.000000 0.000000 0.000000 0.010729 0.000000 0.030680
#
#
# Mechanical properties :
#
#
# Convention : Reuss Voigt Hill
#
# Bulk Modulus (GPa) = 50.57207 53.24849 51.91028
# Shear Modulus (GPa) = 25.33800 32.05497 28.69648
#
# Velocity S-wave (km/s) = 3.24914 3.65452 3.45778
# Velocity P-wave (km/s) = 5.92844 6.32400 6.12941
#
# Compressibility (1/GPa) = 0.01977376
#
# Stress axis : x y z
#
# Youngs Moduli (GPa) = 69.49531 146.55708 54.43152
#
# Poissons Ratio (x) = 0.07492 0.41672
# Poissons Ratio (y) = 0.03553 0.09462
# Poissons Ratio (z) = 0.53204 0.25476
#
# Static dielectric constant tensor:
#      x y z
#    x 1.912600 0.000000 -0.037250 
#    y 0.000000 1.992580 0.000000 
#    z -0.037250 0.000000 1.907100 
# 
# From -- ./inp_files/27150.got.cif
#   From: 2010.05.17/outbox.cif.g08.bks.cpg/sg9_14_cif.got.tgz:27150.got - 2010.06.03 20:04:27.
