data_PCOD9135082
_publ_section_title
;
Structure prediction by ZEFSAII (Michael W. Deem and Ramdas Pophale) SiO2 
 PCOD9135082
Probable space group: C C
;
_chemical_formula_sum "Si O2"
_cell_formula_units_Z 32
_cell_length_a 14.338625
_cell_length_b 18.541800
_cell_length_c 11.565539
_cell_angle_alpha 90.000000
_cell_angle_beta 147.722519
_cell_angle_gamma 90.000000
_cell_volume 1642.036761
_symmetry_space_group_name_H-M "C C"
_symmetry_group_IT_number 9
_symmetry_cell_setting 'monoclinic'
loop_
_space_group_symop_operation_xyz
x,y,z
x,-y,1/2+z
1/2+x,1/2+y,z
1/2+x,1/2-y,1/2+z
loop_
_atom_site_type_symbol
_atom_site_label
_atom_site_fract_x
_atom_site_fract_y
_atom_site_fract_z
Si Si1 0.979570 0.043678 0.855290
Si Si2 0.381567 0.338618 0.637100
Si Si3 0.498538 0.945272 0.609966
Si Si4 0.768295 0.324986 0.996415
Si Si5 0.597860 0.078375 0.453213
Si Si6 0.574585 0.903599 0.451773
Si Si7 0.314670 0.915478 0.826545
Si Si8 0.876874 0.978893 0.504059
O O1 0.804418 0.092951 0.665538
O O2 0.975482 0.003625 0.726002
O O3 0.951566 0.005852 0.953894
O O4 0.170464 0.075281 0.076010
O O5 0.316173 0.258669 0.542232
O O6 0.260634 0.370939 0.611737
O O7 0.356834 0.393595 0.504454
O O8 0.588289 0.335507 0.877244
O O9 0.494586 0.905240 0.727532
O O10 0.511468 0.891887 0.515774
O O11 0.357811 0.007910 0.435409
O O12 0.687052 0.985217 0.809858
O O13 0.929369 0.369024 0.218266
O O14 0.745262 0.359173 0.846208
O O15 0.495050 0.107744 0.455316
O O16 0.583323 0.990261 0.446398
#
# Coordination Sequence:
#
# PCOD9135082 Si02
#       8
#     4   4   4   4   4   4   4   4
#     4  11  22  32  57  86 126 148 193 252 311 357
#     4  12  23  38  59  85 127 158 203 249 294 355
#     4  10  20  37  60  84 126 154 190 253 310 364
#     4  12  25  37  59  91 121 162 206 247 293 359
#     4  10  21  37  57  87 123 156 184 256 302 371
#     4  11  21  38  57  90 120 153 200 247 311 355
#     4  11  22  34  56  88 119 155 200 242 302 368
#     4  11  20  39  55  91 118 156 190 252 315 357
#
# _framework density 19.487991999999998
#
# number of rings (size 3 to 8) (size 9 to 14) (size 15 to 20)
#    0.000    1.000    8.750    0.000    5.250    0.000 
#    0.000    0.000    0.000    0.000   13.000    0.000 
#    0.000    0.000    0.000    0.000    0.000    0.000 
#
# Total GULP energy -89173.085506 kJ/mol
# GULP energy per Si atom -5573.317844 kJ/mol
# Density = 1.944364 g / cm^3
# Si number density = 19.487992 Si / 1000 Ang^3
#
#
#
# Elastic Constant Matrix: (Units=GPa)
#
#
# Indices 1 2 3 4 5 6 
#
# 1 91.6327 3.6413 10.6321 0.0000 -9.6080 0.0000
# 2 3.6413 47.4901 10.6894 0.0000 0.1726 0.0000
# 3 10.6321 10.6894 81.6992 0.0000 -5.5760 0.0000
# 4 0.0000 0.0000 0.0000 3.3541 0.0000 2.4594
# 5 -9.6080 0.1726 -5.5760 0.0000 47.5153 0.0000
# 6 0.0000 0.0000 0.0000 2.4594 0.0000 15.6332
#
#
#
# Elastic Compliance Matrix: (Units=1/GPa)
#
#
# Indices 1 2 3 4 5 6 
#
# 1 0.011306 -0.000594 -0.001247 0.000000 0.002142 0.000000
# 2 -0.000594 0.021735 -0.002803 0.000000 -0.000528 0.000000
# 3 -0.001247 -0.002803 0.012855 0.000000 0.001267 0.000000
# 4 0.000000 0.000000 0.000000 0.337012 0.000000 -0.053018
# 5 0.002142 -0.000528 0.001267 0.000000 0.021630 0.000000
# 6 0.000000 0.000000 0.000000 -0.053018 0.000000 0.072307
#
#
# Mechanical properties :
#
#
# Convention : Reuss Voigt Hill
#
# Bulk Modulus (GPa) = 27.31562 30.08304 28.69933
# Shear Modulus (GPa) = 10.03338 26.35781 18.19559
#
# Velocity S-wave (km/s) = 2.27149 3.68165 3.05894
# Velocity P-wave (km/s) = 4.57456 5.79162 5.21869
#
# Compressibility (1/GPa) = 0.03660910
#
# Stress axis : x y z
#
# Youngs Moduli (GPa) = 88.44810 46.00811 77.78779
#
# Poissons Ratio (x) = 0.02732 0.09704
# Poissons Ratio (y) = 0.05253 0.21800
# Poissons Ratio (z) = 0.11033 0.12894
#
# Static dielectric constant tensor:
#      x y z
#    x 1.774690 0.000000 -0.016790 
#    y 0.000000 1.661350 0.000000 
#    z -0.016790 0.000000 1.725140 
# 
# From -- ./inp_files/18635.got.cif
#   From: 2010.05.17/outbox.cif.g08.bks.cpg/sg9_10_cif.got.tgz:18635.got - 2010.06.03 20:04:27.
