data_PCOD9135169
_publ_section_title
;
Structure prediction by ZEFSAII (Michael W. Deem and Ramdas Pophale) SiO2 
 PCOD9135169
Probable space group: C C
;
_chemical_formula_sum "Si O2"
_cell_formula_units_Z 28
_cell_length_a 18.139692
_cell_length_b 8.311185
_cell_length_c 14.092677
_cell_angle_alpha 90.000000
_cell_angle_beta 34.241464
_cell_angle_gamma 90.000000
_cell_volume 1195.498967
_symmetry_space_group_name_H-M "C C"
_symmetry_group_IT_number 9
_symmetry_cell_setting 'monoclinic'
loop_
_space_group_symop_operation_xyz
x,y,z
x,-y,1/2+z
1/2+x,1/2+y,z
1/2+x,1/2-y,1/2+z
loop_
_atom_site_type_symbol
_atom_site_label
_atom_site_fract_x
_atom_site_fract_y
_atom_site_fract_z
Si Si1 0.452320 0.888472 0.287160
Si Si2 0.094345 0.712314 0.110596
Si Si3 0.319959 0.510737 0.792565
Si Si4 0.055392 0.053621 0.172359
Si Si5 0.005625 0.794226 0.996793
Si Si6 0.274333 0.164102 0.802218
Si Si7 0.286554 0.920675 0.633946
O O1 0.538070 0.734719 0.229989
O O2 0.403944 0.867360 0.229350
O O3 0.317810 0.906967 0.489794
O O4 0.531820 0.052012 0.220291
O O5 0.087420 0.875910 0.179836
O O6 0.234154 0.658989 0.920066
O O7 0.017711 0.746036 0.094226
O O8 0.409261 0.465160 0.786420
O O9 0.412534 0.549616 0.604529
O O10 0.240616 0.352133 0.847791
O O11 0.157783 0.067478 0.977055
O O12 0.149522 0.833621 0.804765
O O13 0.914074 0.665242 0.043423
O O14 0.284840 0.094682 0.685674
#
# Coordination Sequence:
#
# PCOD9135169 Si02
#       7
#     4   4   4   4   4   4   4
#     4  11  26  42  67 101 135 177 228 284 338 409
#     4  11  20  41  70  95 130 182 225 280 343 403
#     4  10  20  37  70  99 128 184 232 272 344 420
#     4  10  22  39  67  95 130 178 227 273 343 410
#     4  11  22  42  68  98 136 182 228 276 347 410
#     4  11  21  42  67  94 139 180 219 286 340 401
#     4  12  25  43  69 102 140 181 229 287 347 403
#
# _framework density 23.421182999999999
#
# number of rings (size 3 to 8) (size 9 to 14) (size 15 to 20)
#    0.000    1.143    7.143    0.000    4.000    0.000 
#    2.571    0.000    0.000    0.000    0.000    0.000 
#    0.000    0.000    0.000    0.000    0.000    0.000 
#
# Total GULP energy -78074.590805 kJ/mol
# GULP energy per Si atom -5576.756486 kJ/mol
# Density = 2.336788 g / cm^3
# Si number density = 23.421183 Si / 1000 Ang^3
#
#
#
# Elastic Constant Matrix: (Units=GPa)
#
#
# Indices 1 2 3 4 5 6 
#
# 1 51.1163 10.7810 0.2265 0.0000 -5.6641 0.0000
# 2 10.7810 172.6882 46.1262 0.0000 -7.9857 0.0000
# 3 0.2265 46.1262 112.4537 0.0000 -15.5519 0.0000
# 4 0.0000 0.0000 0.0000 38.4745 0.0000 -16.9938
# 5 -5.6641 -7.9857 -15.5519 0.0000 33.6090 0.0000
# 6 0.0000 0.0000 0.0000 -16.9938 0.0000 14.6993
#
#
#
# Elastic Compliance Matrix: (Units=1/GPa)
#
#
# Indices 1 2 3 4 5 6 
#
# 1 0.020241 -0.001370 0.001013 0.000000 0.003554 0.000000
# 2 -0.001370 0.006599 -0.002692 0.000000 0.000092 0.000000
# 3 0.001013 -0.002692 0.010609 0.000000 0.004440 0.000000
# 4 0.000000 0.000000 0.000000 0.053112 0.000000 0.061403
# 5 0.003554 0.000092 0.004440 0.000000 0.032429 0.000000
# 6 0.000000 0.000000 0.000000 0.061403 0.000000 0.139018
#
#
# Mechanical properties :
#
#
# Convention : Reuss Voigt Hill
#
# Bulk Modulus (GPa) = 31.89572 50.05841 40.97706
# Shear Modulus (GPa) = 17.94967 35.96486 26.95726
#
# Velocity S-wave (km/s) = 2.77137 3.92289 3.39629
# Velocity P-wave (km/s) = 4.88759 6.47597 5.73702
#
# Compressibility (1/GPa) = 0.03135217
#
# Stress axis : x y z
#
# Youngs Moduli (GPa) = 49.40348 151.52736 94.26363
#
# Poissons Ratio (x) = 0.20756 -0.09546
# Poissons Ratio (y) = 0.06767 0.25371
# Poissons Ratio (z) = -0.05003 0.40784
#
# Static dielectric constant tensor:
#      x y z
#    x 1.926600 0.000000 -0.007040 
#    y 0.000000 1.974920 0.000000 
#    z -0.007040 0.000000 1.903410 
# 
# From -- ./inp_files/10446.got.cif
#   From: 2010.05.17/outbox.cif.g08.bks.cpg/sg9_6_cif.got.tgz:10446.got - 2010.06.03 20:04:27.
