data_PCOD9135616
_publ_section_title
;
Structure prediction by ZEFSAII (Michael W. Deem and Ramdas Pophale) SiO2 
 PCOD9135616
Probable space group: C C
;
_chemical_formula_sum "Si O2"
_cell_formula_units_Z 28
_cell_length_a 16.007216
_cell_length_b 6.297795
_cell_length_c 13.436056
_cell_angle_alpha 90.000000
_cell_angle_beta 73.563273
_cell_angle_gamma 90.000000
_cell_volume 1299.136758
_symmetry_space_group_name_H-M "C C"
_symmetry_group_IT_number 9
_symmetry_cell_setting 'monoclinic'
loop_
_space_group_symop_operation_xyz
x,y,z
x,-y,1/2+z
1/2+x,1/2+y,z
1/2+x,1/2-y,1/2+z
loop_
_atom_site_type_symbol
_atom_site_label
_atom_site_fract_x
_atom_site_fract_y
_atom_site_fract_z
Si Si1 0.778010 0.272469 0.142390
Si Si2 0.571672 0.717886 0.410532
Si Si3 0.016416 0.680272 0.715706
Si Si4 0.373732 0.845355 0.696695
Si Si5 0.450655 0.461768 0.564981
Si Si6 0.248336 0.441696 0.332134
Si Si7 0.653066 0.955393 0.549395
O O1 0.799116 0.503306 0.176679
O O2 0.870236 0.190877 0.065233
O O3 0.754421 0.116219 0.243133
O O4 0.701238 0.237534 0.089323
O O5 0.517832 0.778542 0.331852
O O6 0.531543 0.497289 0.463451
O O7 0.671742 0.764070 0.345644
O O8 0.574446 0.873366 0.505713
O O9 0.948426 0.494355 0.714516
O O10 0.111026 0.609712 0.643406
O O11 0.987214 0.876978 0.657655
O O12 0.406870 0.689247 0.599295
O O13 0.335941 0.692210 0.794766
O O14 0.223243 0.544546 0.446632
#
# Coordination Sequence:
#
# PCOD9135616 Si02
#       7
#     4   4   4   4   4   4   4
#     4  10  21  39  66  85 131 169 207 275 320 381
#     4  10  22  42  63  95 123 166 223 254 324 399
#     4  11  22  43  66  88 137 168 210 280 316 387
#     4  10  21  41  61  92 128 169 214 265 325 383
#     4  10  23  41  61  95 127 169 218 262 321 388
#     4   9  21  38  58  91 124 161 220 252 322 391
#     4  10  20  42  61  96 128 166 216 266 324 387
#
# _framework density 21.552772000000001
#
# number of rings (size 3 to 8) (size 9 to 14) (size 15 to 20)
#    0.857    1.143    2.857    0.000    0.000    6.857 
#    2.571    0.000    0.000    0.000    0.000    0.000 
#    0.000    0.000    0.000    0.000    0.000    0.000 
#
# Total GULP energy -77938.456553 kJ/mol
# GULP energy per Si atom -5567.032611 kJ/mol
# Density = 2.150372 g / cm^3
# Si number density = 21.552772 Si / 1000 Ang^3
#
#
#
# Elastic Constant Matrix: (Units=GPa)
#
#
# Indices 1 2 3 4 5 6 
#
# 1 48.6343 19.9808 29.8284 0.0000 -0.8426 0.0000
# 2 19.9808 54.8810 16.6581 0.0000 -0.8762 0.0000
# 3 29.8284 16.6581 70.8353 0.0000 16.6812 0.0000
# 4 0.0000 0.0000 0.0000 21.9233 0.0000 -8.7930
# 5 -0.8426 -0.8762 16.6812 0.0000 37.4493 0.0000
# 6 0.0000 0.0000 0.0000 -8.7930 0.0000 30.1811
#
#
#
# Elastic Compliance Matrix: (Units=1/GPa)
#
#
# Indices 1 2 3 4 5 6 
#
# 1 0.031807 -0.007491 -0.013138 0.000000 0.006392 0.000000
# 2 -0.007491 0.021654 -0.002254 0.000000 0.001342 0.000000
# 3 -0.013138 -0.002254 0.022636 0.000000 -0.010431 0.000000
# 4 0.000000 0.000000 0.000000 0.051649 0.000000 0.015047
# 5 0.006392 0.001342 -0.010431 0.000000 0.031524 0.000000
# 6 0.000000 0.000000 0.000000 0.015047 0.000000 0.037517
#
#
# Mechanical properties :
#
#
# Convention : Reuss Voigt Hill
#
# Bulk Modulus (GPa) = 32.96785 34.14281 33.55533
# Shear Modulus (GPa) = 19.78914 25.10294 22.44604
#
# Velocity S-wave (km/s) = 3.03342 3.41650 3.23064
# Velocity P-wave (km/s) = 5.25342 5.60707 5.43312
#
# Compressibility (1/GPa) = 0.03033258
#
# Stress axis : x y z
#
# Youngs Moduli (GPa) = 31.43925 46.18085 44.17726
#
# Poissons Ratio (x) = 0.34592 0.58039
# Poissons Ratio (y) = 0.23550 0.09958
# Poissons Ratio (z) = 0.41304 0.10410
#
# Static dielectric constant tensor:
#      x y z
#    x 1.814020 0.000000 -0.020470 
#    y 0.000000 1.767830 0.000000 
#    z -0.020470 0.000000 1.807640 
# 
# From -- ./inp_files/19672.got.cif
#   From: 2010.05.17/outbox.cif.g08.bks.cpg/sg9_10_cif.got.tgz:19672.got - 2010.06.03 20:04:27.
