data_PCOD9135238
_publ_section_title
;
Structure prediction by ZEFSAII (Michael W. Deem and Ramdas Pophale) SiO2 
 PCOD9135238
Probable space group: C C
;
_chemical_formula_sum "Si O2"
_cell_formula_units_Z 32
_cell_length_a 13.807955
_cell_length_b 13.914909
_cell_length_c 8.374618
_cell_angle_alpha 90.000000
_cell_angle_beta 112.916702
_cell_angle_gamma 90.000000
_cell_volume 1482.068542
_symmetry_space_group_name_H-M "C C"
_symmetry_group_IT_number 9
_symmetry_cell_setting 'monoclinic'
loop_
_space_group_symop_operation_xyz
x,y,z
x,-y,1/2+z
1/2+x,1/2+y,z
1/2+x,1/2-y,1/2+z
loop_
_atom_site_type_symbol
_atom_site_label
_atom_site_fract_x
_atom_site_fract_y
_atom_site_fract_z
Si Si1 0.261640 0.996537 0.170330
Si Si2 0.074641 0.888431 0.433311
Si Si3 0.913839 0.518398 0.512263
Si Si4 0.125406 0.183005 0.526447
Si Si5 0.331823 0.289651 0.643346
Si Si6 0.431286 0.206455 0.033846
Si Si7 0.981527 0.946140 0.702897
Si Si8 0.959905 0.708279 0.415697
O O1 0.375126 0.970053 0.168864
O O2 0.193443 0.901690 0.150457
O O3 0.192336 0.072847 0.029286
O O4 0.298894 0.041055 0.359418
O O5 0.009753 0.932536 0.539030
O O6 0.059893 0.775956 0.447384
O O7 0.011550 0.943930 0.255304
O O8 0.944851 0.407877 0.518830
O O9 0.986467 0.599391 0.483303
O O10 0.212155 0.261013 0.530714
O O11 0.040761 0.237866 0.578435
O O12 0.061334 0.125155 0.349571
O O13 0.367804 0.401449 0.668777
O O14 0.397920 0.246465 0.533981
O O15 0.361751 0.246818 0.839496
O O16 0.400977 0.215021 0.204118
#
# Coordination Sequence:
#
# PCOD9135238 Si02
#       8
#     4   4   4   4   4   4   4   4
#     4  11  21  35  66  91 123 164 213 269 315 377
#     4  10  22  37  61  99 124 158 217 273 316 381
#     4  12  21  39  60  94 127 165 210 264 325 378
#     4  10  20  38  64  91 122 171 211 260 324 379
#     4  10  21  43  62  90 132 168 209 266 324 384
#     4  11  24  38  66  95 128 169 213 268 324 382
#     4   9  21  36  63  91 126 164 206 271 325 373
#     4  11  24  40  64  95 128 169 213 267 327 382
#
# _framework density 21.591443000000002
#
# number of rings (size 3 to 8) (size 9 to 14) (size 15 to 20)
#    0.000    1.500    3.750    1.500    7.000    0.000 
#    0.000    0.000    8.250    0.000    0.000    0.000 
#    0.000    0.000    0.000    0.000    0.000    0.000 
#
# Total GULP energy -89082.145728 kJ/mol
# GULP energy per Si atom -5567.634108 kJ/mol
# Density = 2.154230 g / cm^3
# Si number density = 21.591443 Si / 1000 Ang^3
#
#
#
# Elastic Constant Matrix: (Units=GPa)
#
#
# Indices 1 2 3 4 5 6 
#
# 1 61.5270 36.3469 10.1128 0.0000 -2.3251 0.0000
# 2 36.3469 121.3621 7.3737 0.0000 6.2426 0.0000
# 3 10.1128 7.3737 52.0367 0.0000 -18.1599 0.0000
# 4 0.0000 0.0000 0.0000 27.4282 0.0000 2.2292
# 5 -2.3251 6.2426 -18.1599 0.0000 28.9736 0.0000
# 6 0.0000 0.0000 0.0000 2.2292 0.0000 37.2590
#
#
#
# Elastic Compliance Matrix: (Units=1/GPa)
#
#
# Indices 1 2 3 4 5 6 
#
# 1 0.020265 -0.005972 -0.002657 0.000000 0.001248 0.000000
# 2 -0.005972 0.010315 -0.001592 0.000000 -0.003700 0.000000
# 3 -0.002657 -0.001592 0.025605 0.000000 0.016179 0.000000
# 4 0.000000 0.000000 0.000000 0.036637 0.000000 -0.002192
# 5 0.001248 -0.003700 0.016179 0.000000 0.045552 0.000000
# 6 0.000000 0.000000 0.000000 -0.002192 0.000000 0.026970
#
#
# Mechanical properties :
#
#
# Convention : Reuss Voigt Hill
#
# Bulk Modulus (GPa) = 27.97687 38.06585 33.02136
# Shear Modulus (GPa) = 25.29082 30.80500 28.04791
#
# Velocity S-wave (km/s) = 3.42619 3.78130 3.60811
# Velocity P-wave (km/s) = 5.35138 6.06074 5.71707
#
# Compressibility (1/GPa) = 0.03574381
#
# Stress axis : x y z
#
# Youngs Moduli (GPa) = 49.34689 96.94261 39.05469
#
# Poissons Ratio (x) = 0.57893 0.10375
# Poissons Ratio (y) = 0.29469 0.06219
# Poissons Ratio (z) = 0.13109 0.15436
#
# Static dielectric constant tensor:
#      x y z
#    x 1.807880 0.000000 -0.024350 
#    y 0.000000 1.844480 0.000000 
#    z -0.024350 0.000000 1.887080 
# 
# From -- ./inp_files/9530.got.cif
#   From: 2010.05.17/outbox.cif.g08.bks.cpg/sg9_5_cif.got.tgz:9530.got - 2010.06.03 20:04:27.
