data_PCOD9135542
_publ_section_title
;
Structure prediction by ZEFSAII (Michael W. Deem and Ramdas Pophale) SiO2 
 PCOD9135542
Probable space group: C C
;
_chemical_formula_sum "Si O2"
_cell_formula_units_Z 32
_cell_length_a 25.270321
_cell_length_b 8.785832
_cell_length_c 18.904536
_cell_angle_alpha 90.000000
_cell_angle_beta 161.358325
_cell_angle_gamma 90.000000
_cell_volume 1341.629136
_symmetry_space_group_name_H-M "C C"
_symmetry_group_IT_number 9
_symmetry_cell_setting 'monoclinic'
loop_
_space_group_symop_operation_xyz
x,y,z
x,-y,1/2+z
1/2+x,1/2+y,z
1/2+x,1/2-y,1/2+z
loop_
_atom_site_type_symbol
_atom_site_label
_atom_site_fract_x
_atom_site_fract_y
_atom_site_fract_z
Si Si1 0.988080 0.307234 0.756600
Si Si2 0.962652 0.894990 0.021469
Si Si3 0.186857 0.437817 0.246776
Si Si4 0.656656 0.402867 0.669848
Si Si5 0.978278 0.572709 0.089026
Si Si6 0.837663 0.096215 0.664754
Si Si7 0.221793 0.699446 0.087289
Si Si8 0.939594 0.443092 0.311835
O O1 0.949214 0.392945 0.634361
O O2 0.894594 0.152929 0.659790
O O3 0.933093 0.416420 0.750890
O O4 0.189095 0.299149 0.009240
O O5 0.848912 0.850832 0.810248
O O6 0.845779 0.958442 0.934552
O O7 0.042387 0.735966 0.143043
O O8 0.082284 0.026363 0.147176
O O9 0.221948 0.266085 0.266934
O O10 0.108603 0.450966 0.225136
O O11 0.047619 0.504720 0.016210
O O12 0.505348 0.395152 0.423315
O O13 0.803049 0.518176 0.834949
O O14 0.756825 0.929536 0.572559
O O15 0.271344 0.864055 0.122402
O O16 0.045399 0.681483 0.901123
#
# Coordination Sequence:
#
# PCOD9135542 Si02
#       8
#     4   4   4   4   4   4   4   4
#     4  11  26  45  66 102 141 183 224 292 365 417
#     4  10  22  39  65 100 134 172 235 287 346 415
#     4  11  22  41  68  98 143 178 235 296 340 423
#     4  11  24  43  72 103 130 188 243 287 347 425
#     4  12  26  42  71 102 141 185 236 295 361 413
#     4  10  24  43  69  96 141 176 235 280 345 428
#     4   9  20  36  64  96 121 172 228 278 324 399
#     4  10  20  41  63  95 131 178 228 281 336 420
#
# _framework density 23.851599
#
# number of rings (size 3 to 8) (size 9 to 14) (size 15 to 20)
#    0.000    1.500    2.500    2.250   10.500    1.000 
#    4.500    1.250    0.000    0.000    0.000    0.000 
#    0.000    0.000    0.000    0.000    0.000    0.000 
#
# Total GULP energy -89421.629515 kJ/mol
# GULP energy per Si atom -5588.851845 kJ/mol
# Density = 2.379731 g / cm^3
# Si number density = 23.851599 Si / 1000 Ang^3
#
#
#
# Elastic Constant Matrix: (Units=GPa)
#
#
# Indices 1 2 3 4 5 6 
#
# 1 119.2517 32.9550 27.0850 0.0000 6.6167 0.0000
# 2 32.9550 71.1789 18.7475 0.0000 5.6333 0.0000
# 3 27.0850 18.7475 53.7910 0.0000 1.0117 0.0000
# 4 0.0000 0.0000 0.0000 19.7622 0.0000 15.5572
# 5 6.6167 5.6333 1.0117 0.0000 21.3946 0.0000
# 6 0.0000 0.0000 0.0000 15.5572 0.0000 49.2586
#
#
#
# Elastic Compliance Matrix: (Units=1/GPa)
#
#
# Indices 1 2 3 4 5 6 
#
# 1 0.010393 -0.003611 -0.003935 0.000000 -0.002077 0.000000
# 2 -0.003611 0.017042 -0.004062 0.000000 -0.003179 0.000000
# 3 -0.003935 -0.004062 0.021964 0.000000 0.001248 0.000000
# 4 0.000000 0.000000 0.000000 0.067345 0.000000 -0.021270
# 5 -0.002077 -0.003179 0.001248 0.000000 0.048161 0.000000
# 6 0.000000 0.000000 0.000000 -0.021270 0.000000 0.027019
#
#
# Mechanical properties :
#
#
# Convention : Reuss Voigt Hill
#
# Bulk Modulus (GPa) = 38.19245 44.64407 41.41826
# Shear Modulus (GPa) = 22.33466 29.11203 25.72334
#
# Velocity S-wave (km/s) = 3.06339 3.49742 3.28758
# Velocity P-wave (km/s) = 5.34413 5.92177 5.64035
#
# Compressibility (1/GPa) = 0.02618319
#
# Stress axis : x y z
#
# Youngs Moduli (GPa) = 96.22300 58.67795 45.52865
#
# Poissons Ratio (x) = 0.21187 0.17917
# Poissons Ratio (y) = 0.34743 0.18493
# Poissons Ratio (z) = 0.37868 0.23834
#
# Static dielectric constant tensor:
#      x y z
#    x 1.903860 0.000000 -0.036550 
#    y 0.000000 1.877690 0.000000 
#    z -0.036550 0.000000 1.926600 
# 
# From -- ./inp_files/11324.got.cif
#   From: 2010.05.17/outbox.cif.g08.bks.cpg/sg9_6_cif.got.tgz:11324.got - 2010.06.03 20:04:27.
