data_PCOD9135077
_publ_section_title
;
Structure prediction by ZEFSAII (Michael W. Deem and Ramdas Pophale) SiO2 
 PCOD9135077
Probable space group: C C
;
_chemical_formula_sum "Si O2"
_cell_formula_units_Z 32
_cell_length_a 20.749825
_cell_length_b 8.364365
_cell_length_c 11.209966
_cell_angle_alpha 90.000000
_cell_angle_beta 128.405633
_cell_angle_gamma 90.000000
_cell_volume 1524.628683
_symmetry_space_group_name_H-M "C C"
_symmetry_group_IT_number 9
_symmetry_cell_setting 'monoclinic'
loop_
_space_group_symop_operation_xyz
x,y,z
x,-y,1/2+z
1/2+x,1/2+y,z
1/2+x,1/2-y,1/2+z
loop_
_atom_site_type_symbol
_atom_site_label
_atom_site_fract_x
_atom_site_fract_y
_atom_site_fract_z
Si Si1 0.396300 0.515071 0.010490
Si Si2 0.360067 0.736032 0.663842
Si Si3 0.108554 0.361890 0.479880
Si Si4 0.149188 0.827678 0.787696
Si Si5 0.739641 0.869249 0.202661
Si Si6 0.476574 0.795759 0.019154
Si Si7 0.483113 0.933944 0.689473
Si Si8 0.565303 0.655024 0.661503
O O1 0.372782 0.423816 0.102834
O O2 0.475347 0.427765 0.043131
O O3 0.317166 0.524814 0.835744
O O4 0.429130 0.694599 0.066502
O O5 0.272235 0.728988 0.625593
O O6 0.428113 0.752948 0.845466
O O7 0.391196 0.878733 0.615899
O O8 0.146221 0.257315 0.413588
O O9 0.168306 0.506457 0.588270
O O10 0.091876 0.246920 0.572737
O O11 0.027046 0.446167 0.331706
O O12 0.220582 0.754942 0.787541
O O13 0.069035 0.762808 0.624980
O O14 0.131122 0.017480 0.771719
O O15 0.477371 0.978362 0.056187
O O16 0.544605 0.784101 0.740837
#
# Coordination Sequence:
#
# PCOD9135077 Si02
#       8
#     4   4   4   4   4   4   4   4
#     4   9  21  39  61  88 118 154 200 246 297 359
#     4  10  20  37  59  83 119 159 188 244 304 341
#     4  11  22  40  66  88 120 162 196 252 305 344
#     4  10  22  38  58  90 120 153 201 245 294 359
#     4  11  22  39  60  89 125 159 196 238 301 368
#     4   9  19  36  60  86 114 150 204 248 285 352
#     4  10  20  37  63  91 116 153 207 248 291 356
#     4  10  22  40  63  89 118 156 208 251 291 355
#
# _framework density 20.988717999999999
#
# number of rings (size 3 to 8) (size 9 to 14) (size 15 to 20)
#    0.000    2.000    0.000    3.750    0.000   13.000 
#    0.000   12.500    0.000    0.000    0.000    0.000 
#    0.000    0.000    0.000    0.000    0.000    0.000 
#
# Total GULP energy -89208.886391 kJ/mol
# GULP energy per Si atom -5575.555399 kJ/mol
# Density = 2.094095 g / cm^3
# Si number density = 20.988718 Si / 1000 Ang^3
#
#
#
# Elastic Constant Matrix: (Units=GPa)
#
#
# Indices 1 2 3 4 5 6 
#
# 1 110.5489 39.5284 -0.6234 0.0000 -15.4343 0.0000
# 2 39.5284 96.2218 16.3130 0.0000 -14.8451 0.0000
# 3 -0.6234 16.3130 47.4532 0.0000 4.2033 0.0000
# 4 0.0000 0.0000 0.0000 25.1047 0.0000 -2.1946
# 5 -15.4343 -14.8451 4.2033 0.0000 22.3203 0.0000
# 6 0.0000 0.0000 0.0000 -2.1946 0.0000 15.6038
#
#
#
# Elastic Compliance Matrix: (Units=1/GPa)
#
#
# Indices 1 2 3 4 5 6 
#
# 1 0.011168 -0.004029 0.001103 0.000000 0.004835 0.000000
# 2 -0.004029 0.014189 -0.005613 0.000000 0.007708 0.000000
# 3 0.001103 -0.005613 0.023676 0.000000 -0.007429 0.000000
# 4 0.000000 0.000000 0.000000 0.040329 0.000000 0.005672
# 5 0.004835 0.007708 -0.007429 0.000000 0.054671 0.000000
# 6 0.000000 0.000000 0.000000 0.005672 0.000000 0.064885
#
#
# Mechanical properties :
#
#
# Convention : Reuss Voigt Hill
#
# Bulk Modulus (GPa) = 31.29462 40.51779 35.90620
# Shear Modulus (GPa) = 21.12868 25.87282 23.50075
#
# Velocity S-wave (km/s) = 3.17625 3.51479 3.34980
# Velocity P-wave (km/s) = 5.32860 5.98483 5.66622
#
# Compressibility (1/GPa) = 0.03195437
#
# Stress axis : x y z
#
# Youngs Moduli (GPa) = 89.54480 70.47942 42.23759
#
# Poissons Ratio (x) = 0.28395 -0.04661
# Poissons Ratio (y) = 0.36076 0.23709
# Poissons Ratio (z) = -0.09881 0.39562
#
# Static dielectric constant tensor:
#      x y z
#    x 1.821280 0.000000 -0.006410 
#    y 0.000000 1.814720 0.000000 
#    z -0.006410 0.000000 1.750380 
# 
# From -- ./inp_files/20012.got.cif
#   From: 2010.05.17/outbox.cif.g08.bks.cpg/sg9_11_cif.got.tgz:20012.got - 2010.06.03 20:04:27.
