data_PCOD9135026
_publ_section_title
;
Structure prediction by ZEFSAII (Michael W. Deem and Ramdas Pophale) SiO2 
 PCOD9135026
Probable space group: C C
;
_chemical_formula_sum "Si O2"
_cell_formula_units_Z 32
_cell_length_a 27.572552
_cell_length_b 8.670814
_cell_length_c 14.007993
_cell_angle_alpha 90.000000
_cell_angle_beta 153.256556
_cell_angle_gamma 90.000000
_cell_volume 1507.029158
_symmetry_space_group_name_H-M "C C"
_symmetry_group_IT_number 9
_symmetry_cell_setting 'monoclinic'
loop_
_space_group_symop_operation_xyz
x,y,z
x,-y,1/2+z
1/2+x,1/2+y,z
1/2+x,1/2-y,1/2+z
loop_
_atom_site_type_symbol
_atom_site_label
_atom_site_fract_x
_atom_site_fract_y
_atom_site_fract_z
Si Si1 0.867470 0.110052 0.365290
Si Si2 0.879161 0.084606 0.703244
Si Si3 0.680227 0.325210 0.968223
Si Si4 0.156098 0.396471 0.260749
Si Si5 0.002692 0.851847 0.818547
Si Si6 0.297911 0.319724 0.349441
Si Si7 0.265905 0.157958 0.088663
Si Si8 0.052736 0.293964 0.613495
O O1 0.956280 0.242910 0.514062
O O2 0.907381 0.991616 0.354175
O O3 0.837592 0.993889 0.396148
O O4 0.757333 0.194439 0.146125
O O5 0.856746 0.263684 0.681041
O O6 0.767489 0.992307 0.481592
O O7 0.969072 0.025200 0.789796
O O8 0.636715 0.247738 0.795478
O O9 0.589233 0.357403 0.886541
O O10 0.749773 0.476114 0.066356
O O11 0.185655 0.333244 0.208490
O O12 0.065768 0.523717 0.120411
O O13 0.895475 0.764263 0.589812
O O14 0.040041 0.773558 0.983486
O O15 0.283713 0.225942 0.226614
O O16 0.157109 0.224870 0.849717
#
# Coordination Sequence:
#
# PCOD9135026 Si02
#       8
#     4   4   4   4   4   4   4   4
#     4   9  18  35  58  83 117 156 202 250 301 360
#     4   7  16  36  58  78 110 159 199 237 297 361
#     4  11  22  36  58  94 129 159 201 263 314 368
#     4   9  19  36  60  87 123 161 196 247 311 371
#     4  10  20  36  62  90 119 161 210 256 309 373
#     4  10  20  40  62  85 120 169 210 250 308 376
#     4  10  21  37  60  88 120 158 210 261 306 366
#     4  10  20  38  62  89 120 165 208 248 308 377
#
# _framework density 21.233827999999999
#
# number of rings (size 3 to 8) (size 9 to 14) (size 15 to 20)
#    0.000    2.500    0.000    3.000    0.000    2.000 
#    0.000    1.250    0.000   18.000    0.000    0.000 
#    0.000    0.000    0.000    0.000    0.000    0.000 
#
# Total GULP energy -89144.794781 kJ/mol
# GULP energy per Si atom -5571.549674 kJ/mol
# Density = 2.118550 g / cm^3
# Si number density = 21.233828 Si / 1000 Ang^3
#
#
#
# Elastic Constant Matrix: (Units=GPa)
#
#
# Indices 1 2 3 4 5 6 
#
# 1 118.5683 43.2910 13.6530 0.0000 6.3277 0.0000
# 2 43.2910 96.7221 3.7972 0.0000 0.8545 0.0000
# 3 13.6530 3.7972 47.1818 0.0000 -12.0541 0.0000
# 4 0.0000 0.0000 0.0000 26.9669 0.0000 -5.3867
# 5 6.3277 0.8545 -12.0541 0.0000 38.5200 0.0000
# 6 0.0000 0.0000 0.0000 -5.3867 0.0000 9.6146
#
#
#
# Elastic Compliance Matrix: (Units=1/GPa)
#
#
# Indices 1 2 3 4 5 6 
#
# 1 0.010654 -0.004611 -0.003405 0.000000 -0.002714 0.000000
# 2 -0.004611 0.012377 0.000502 0.000000 0.000640 0.000000
# 3 -0.003405 0.000502 0.024216 0.000000 0.008126 0.000000
# 4 0.000000 0.000000 0.000000 0.041756 0.000000 0.023394
# 5 -0.002714 0.000640 0.008126 0.000000 0.028935 0.000000
# 6 0.000000 0.000000 0.000000 0.023394 0.000000 0.117115
#
#
# Mechanical properties :
#
#
# Convention : Reuss Voigt Hill
#
# Bulk Modulus (GPa) = 31.03838 42.66161 36.85000
# Shear Modulus (GPa) = 19.17017 28.46903 23.81960
#
# Velocity S-wave (km/s) = 3.00794 3.66558 3.35293
# Velocity P-wave (km/s) = 5.16844 6.16849 5.69048
#
# Compressibility (1/GPa) = 0.03221818
#
# Stress axis : x y z
#
# Youngs Moduli (GPa) = 93.85742 80.79248 41.29562
#
# Poissons Ratio (x) = 0.37254 0.14062
# Poissons Ratio (y) = 0.43278 -0.02072
# Poissons Ratio (z) = 0.31961 -0.04053
#
# Static dielectric constant tensor:
#      x y z
#    x 1.785420 0.000000 -0.018220 
#    y 0.000000 1.762950 0.000000 
#    z -0.018220 0.000000 1.858120 
# 
# From -- ./inp_files/28035.got.cif
#   From: 2010.05.17/outbox.cif.g08.bks.cpg/sg9_15_cif.got.tgz:28035.got - 2010.06.03 20:04:27.
