data_PCOD9135589
_publ_section_title
;
Structure prediction by ZEFSAII (Michael W. Deem and Ramdas Pophale) SiO2 
 PCOD9135589
Probable space group: C C
;
_chemical_formula_sum "Si O2"
_cell_formula_units_Z 32
_cell_length_a 9.156329
_cell_length_b 24.736527
_cell_length_c 11.811496
_cell_angle_alpha 90.000000
_cell_angle_beta 149.890210
_cell_angle_gamma 90.000000
_cell_volume 1342.064056
_symmetry_space_group_name_H-M "C C"
_symmetry_group_IT_number 9
_symmetry_cell_setting 'monoclinic'
loop_
_space_group_symop_operation_xyz
x,y,z
x,-y,1/2+z
1/2+x,1/2+y,z
1/2+x,1/2-y,1/2+z
loop_
_atom_site_type_symbol
_atom_site_label
_atom_site_fract_x
_atom_site_fract_y
_atom_site_fract_z
Si Si1 0.728420 0.768144 0.419490
Si Si2 0.484560 0.131875 0.658253
Si Si3 0.652502 0.201447 0.555181
Si Si4 0.338436 0.883331 0.711441
Si Si5 0.223721 0.151384 0.887610
Si Si6 0.351699 0.441004 0.520620
Si Si7 0.398444 0.436834 0.025495
Si Si8 0.820713 0.884731 0.731694
O O1 0.637652 0.830420 0.355272
O O2 0.919572 0.756107 0.661096
O O3 0.963527 0.750877 0.478859
O O4 0.606158 0.156224 0.623249
O O5 0.140666 0.140276 0.429285
O O6 0.580328 0.071553 0.754325
O O7 0.481296 0.174257 0.336668
O O8 0.992620 0.200557 0.747489
O O9 0.218728 0.878545 0.505103
O O10 0.100918 0.901456 0.640877
O O11 0.593450 0.926943 0.883944
O O12 0.106584 0.108712 0.717281
O O13 0.562319 0.158088 0.082947
O O14 0.473317 0.501184 0.593011
O O15 0.265690 0.423888 0.588758
O O16 0.347937 0.421479 0.861716
#
# Coordination Sequence:
#
# PCOD9135589 Si02
#       8
#     4   4   4   4   4   4   4   4
#     4  10  23  40  72 109 144 176 234 299 367 435
#     4  11  23  40  66 104 138 179 233 301 360 434
#     4  10  20  41  69 101 131 180 229 296 360 434
#     4  10  21  39  64  96 130 178 240 293 349 422
#     4  10  22  44  64  94 139 186 237 293 359 431
#     4  12  24  38  67  95 138 187 247 295 355 427
#     4  10  26  40  60  96 140 193 239 292 359 431
#     4  11  25  42  64  97 142 189 233 297 367 424
#
# _framework density 23.843868000000001
#
# number of rings (size 3 to 8) (size 9 to 14) (size 15 to 20)
#    0.000    1.500    2.500    1.500    8.750    1.000 
#    0.000    0.000    0.000    6.000    0.000    0.000 
#    0.000    0.000    0.000    0.000    0.000    0.000 
#
# Total GULP energy -89307.568167 kJ/mol
# GULP energy per Si atom -5581.723010 kJ/mol
# Density = 2.378960 g / cm^3
# Si number density = 23.843868 Si / 1000 Ang^3
#
#
#
# Elastic Constant Matrix: (Units=GPa)
#
#
# Indices 1 2 3 4 5 6 
#
# 1 108.4798 7.5826 36.0359 0.0000 8.4805 0.0000
# 2 7.5826 56.9775 17.3823 0.0000 0.7195 0.0000
# 3 36.0359 17.3823 114.9618 0.0000 18.4520 0.0002
# 4 0.0000 0.0000 0.0000 17.3448 0.0000 -0.8013
# 5 8.4805 0.7195 18.4520 0.0000 55.0511 0.0001
# 6 0.0000 0.0000 0.0002 -0.8013 0.0001 23.3385
#
#
#
# Elastic Compliance Matrix: (Units=1/GPa)
#
#
# Indices 1 2 3 4 5 6 
#
# 1 0.010314 -0.000426 -0.003080 0.000000 -0.000551 0.000000
# 2 -0.000426 0.018445 -0.002777 0.000000 0.000755 0.000000
# 3 -0.003080 -0.002777 0.010571 0.000000 -0.003032 0.000000
# 4 0.000000 0.000000 0.000000 0.057746 0.000000 0.001983
# 5 -0.000551 0.000755 -0.003032 0.000000 0.019256 0.000000
# 6 0.000000 0.000000 0.000000 0.001983 0.000000 0.042916
#
#
# Mechanical properties :
#
#
# Convention : Reuss Voigt Hill
#
# Bulk Modulus (GPa) = 37.36326 44.71343 41.03834
# Shear Modulus (GPa) = 27.66485 33.77478 30.71982
#
# Velocity S-wave (km/s) = 3.40994 3.76772 3.59329
# Velocity P-wave (km/s) = 5.58637 6.14174 5.87063
#
# Compressibility (1/GPa) = 0.02676426
#
# Stress axis : x y z
#
# Youngs Moduli (GPa) = 96.95184 54.21524 94.60190
#
# Poissons Ratio (x) = 0.02309 0.29140
# Poissons Ratio (y) = 0.04130 0.26267
# Poissons Ratio (z) = 0.29864 0.15053
#
# Static dielectric constant tensor:
#      x y z
#    x 1.892140 0.000000 0.004530 
#    y 0.000000 1.946750 0.000000 
#    z 0.004530 0.000000 1.998030 
# 
# From -- ./inp_files/15752.got.cif
#   From: 2010.05.17/outbox.cif.g08.bks.cpg/sg9_8_cif.got.tgz:15752.got - 2010.06.03 20:04:27.
