data_PCOD9135562
_publ_section_title
;
Structure prediction by ZEFSAII (Michael W. Deem and Ramdas Pophale) SiO2 
 PCOD9135562
Probable space group: C C
;
_chemical_formula_sum "Si O2"
_cell_formula_units_Z 32
_cell_length_a 13.225019
_cell_length_b 18.124086
_cell_length_c 7.396830
_cell_angle_alpha 90.000000
_cell_angle_beta 132.193954
_cell_angle_gamma 90.000000
_cell_volume 1313.539915
_symmetry_space_group_name_H-M "C C"
_symmetry_group_IT_number 9
_symmetry_cell_setting 'monoclinic'
loop_
_space_group_symop_operation_xyz
x,y,z
x,-y,1/2+z
1/2+x,1/2+y,z
1/2+x,1/2-y,1/2+z
loop_
_atom_site_type_symbol
_atom_site_label
_atom_site_fract_x
_atom_site_fract_y
_atom_site_fract_z
Si Si1 0.983300 0.459232 0.000000
Si Si2 0.251309 0.284875 0.917308
Si Si3 0.679376 0.942111 0.947572
Si Si4 0.968588 0.049589 0.970965
Si Si5 0.048138 0.252908 0.381949
Si Si6 0.358174 0.106252 0.676151
Si Si7 0.542357 0.290294 0.446243
Si Si8 0.550313 0.598580 0.442199
O O1 0.917953 0.534814 0.850322
O O2 0.055446 0.414845 0.927480
O O3 0.875448 0.414311 0.986006
O O4 0.111190 0.487339 0.273082
O O5 0.222626 0.372688 0.882445
O O6 0.195457 0.263009 0.652929
O O7 0.158056 0.243558 0.957297
O O8 0.400542 0.270577 0.177094
O O9 0.816830 0.962033 0.216393
O O10 0.039361 0.119493 0.956735
O O11 0.047775 0.971896 0.066972
O O12 0.959673 0.073747 0.165631
O O13 0.953239 0.322508 0.313727
O O14 0.995572 0.179081 0.421582
O O15 0.050586 0.238446 0.166771
O O16 0.203274 0.111623 0.552742
#
# Coordination Sequence:
#
# PCOD9135562 Si02
#       8
#     4   4   4   4   4   4   4   4
#     4  10  21  39  68  98 132 180 220 299 340 424
#     4  11  24  45  69 104 141 190 237 291 362 429
#     4  10  20  41  65  98 136 174 236 279 356 425
#     4  10  23  44  64 100 132 182 234 286 358 419
#     4  11  26  45  69 104 144 184 237 298 359 431
#     4  11  23  44  67 102 136 179 236 286 364 423
#     4  10  26  44  71 104 145 189 239 300 359 429
#     4  11  25  44  67 100 138 182 233 297 356 424
#
# _framework density 24.361649
#
# number of rings (size 3 to 8) (size 9 to 14) (size 15 to 20)
#    0.000    1.500    1.250    2.250    7.000    0.000 
#   11.250    0.000    0.000    0.000    0.000    0.000 
#    0.000    0.000    0.000    0.000    0.000    0.000 
#
# Total GULP energy -89424.502985 kJ/mol
# GULP energy per Si atom -5589.031437 kJ/mol
# Density = 2.430620 g / cm^3
# Si number density = 24.361649 Si / 1000 Ang^3
#
#
#
# Elastic Constant Matrix: (Units=GPa)
#
#
# Indices 1 2 3 4 5 6 
#
# 1 70.3739 28.7664 35.5264 0.0000 13.8112 0.0000
# 2 28.7664 102.4205 18.6328 0.0000 6.9492 0.0000
# 3 35.5264 18.6328 143.2453 0.0000 0.6812 0.0000
# 4 0.0000 0.0000 0.0000 15.4566 0.0000 -13.1438
# 5 13.8112 6.9492 0.6812 0.0000 28.7227 0.0000
# 6 0.0000 0.0000 0.0000 -13.1438 0.0000 32.7196
#
#
#
# Elastic Compliance Matrix: (Units=1/GPa)
#
#
# Indices 1 2 3 4 5 6 
#
# 1 0.019744 -0.004193 -0.004312 0.000000 -0.008377 0.000000
# 2 -0.004193 0.011057 -0.000395 0.000000 -0.000650 0.000000
# 3 -0.004312 -0.000395 0.008092 0.000000 0.001977 0.000000
# 4 0.000000 0.000000 0.000000 0.098264 0.000000 0.039474
# 5 -0.008377 -0.000650 0.001977 0.000000 0.038954 0.000000
# 6 0.000000 0.000000 0.000000 0.039474 0.000000 0.046420
#
#
# Mechanical properties :
#
#
# Convention : Reuss Voigt Hill
#
# Bulk Modulus (GPa) = 47.40542 53.54345 50.47443
# Shear Modulus (GPa) = 20.21319 30.92072 25.56695
#
# Velocity S-wave (km/s) = 2.88360 3.56650 3.24308
# Velocity P-wave (km/s) = 5.53065 6.24389 5.89806
#
# Compressibility (1/GPa) = 0.02109464
#
# Stress axis : x y z
#
# Youngs Moduli (GPa) = 50.64739 90.43815 123.57301
#
# Poissons Ratio (x) = 0.37918 0.53280
# Poissons Ratio (y) = 0.21235 0.04886
# Poissons Ratio (z) = 0.21837 0.03576
#
# Static dielectric constant tensor:
#      x y z
#    x 2.003220 0.000000 -0.053250 
#    y 0.000000 2.055610 0.000000 
#    z -0.053250 0.000000 1.935880 
# 
# From -- ./inp_files/9968.got.cif
#   From: 2010.05.17/outbox.cif.g08.bks.cpg/sg9_5_cif.got.tgz:9968.got - 2010.06.03 20:04:27.
