data_PCOD9135379
_publ_section_title
;
Structure prediction by ZEFSAII (Michael W. Deem and Ramdas Pophale) SiO2 
 PCOD9135379
Probable space group: C C
;
_chemical_formula_sum "Si O2"
_cell_formula_units_Z 32
_cell_length_a 26.219837
_cell_length_b 7.712246
_cell_length_c 21.088888
_cell_angle_alpha 90.000000
_cell_angle_beta 160.132454
_cell_angle_gamma 90.000000
_cell_volume 1449.265122
_symmetry_space_group_name_H-M "C C"
_symmetry_group_IT_number 9
_symmetry_cell_setting 'monoclinic'
loop_
_space_group_symop_operation_xyz
x,y,z
x,-y,1/2+z
1/2+x,1/2+y,z
1/2+x,1/2-y,1/2+z
loop_
_atom_site_type_symbol
_atom_site_label
_atom_site_fract_x
_atom_site_fract_y
_atom_site_fract_z
Si Si1 0.242800 0.291566 0.751400
Si Si2 0.913322 0.725766 0.831628
Si Si3 0.848370 0.567745 0.166121
Si Si4 0.442755 0.601211 0.231208
Si Si5 0.679709 0.389674 0.682674
Si Si6 0.158458 0.798980 0.877064
Si Si7 0.118131 0.768693 0.466806
Si Si8 0.432466 0.390628 0.501187
O O1 0.301308 0.318399 0.748146
O O2 0.065214 0.329065 0.545582
O O3 0.248431 0.084041 0.768802
O O4 0.350001 0.422847 0.914865
O O5 0.835178 0.557951 0.711290
O O6 0.951781 0.837884 0.814731
O O7 0.021431 0.596331 0.355823
O O8 0.763886 0.468193 0.011855
O O9 0.765030 0.737548 0.095012
O O10 0.552716 0.712864 0.315055
O O11 0.509481 0.409385 0.305858
O O12 0.274571 0.639783 0.010529
O O13 0.646554 0.331431 0.571740
O O14 0.527813 0.388526 0.547011
O O15 0.800668 0.250553 0.847481
O O16 0.052572 0.837530 0.694499
#
# Coordination Sequence:
#
# PCOD9135379 Si02
#       8
#     4   4   4   4   4   4   4   4
#     4  12  23  43  65 100 136 173 219 274 338 401
#     4  11  20  41  65  96 125 166 212 276 343 389
#     4  10  22  37  63  89 129 159 211 274 325 394
#     4  10  20  39  68  84 128 158 212 273 324 391
#     4  12  25  42  68 100 132 173 225 274 338 396
#     4  10  23  44  58  92 122 175 219 255 325 397
#     4  11  20  38  59  98 119 156 209 274 335 378
#     4  12  27  44  66  95 137 184 223 270 324 404
#
# _framework density 22.080155999999999
#
# number of rings (size 3 to 8) (size 9 to 14) (size 15 to 20)
#    0.000    1.000    3.750    3.750    1.750    3.000 
#    6.750    0.000    0.000    0.000    0.000    0.000 
#    0.000    0.000    0.000    0.000    0.000    0.000 
#
# Total GULP energy -89368.708035 kJ/mol
# GULP energy per Si atom -5585.544252 kJ/mol
# Density = 2.202990 g / cm^3
# Si number density = 22.080156 Si / 1000 Ang^3
#
#
#
# Elastic Constant Matrix: (Units=GPa)
#
#
# Indices 1 2 3 4 5 6 
#
# 1 21.4375 2.4599 -14.4838 0.0000 17.9173 0.0000
# 2 2.4599 61.7406 37.7505 0.0000 -4.7985 0.0000
# 3 -14.4838 37.7505 102.1769 0.0000 -3.1416 0.0000
# 4 0.0000 0.0000 0.0000 40.7675 0.0000 12.4093
# 5 17.9173 -4.7985 -3.1416 0.0000 31.9469 0.0000
# 6 0.0000 0.0000 0.0000 12.4093 0.0000 22.9720
#
#
#
# Elastic Compliance Matrix: (Units=1/GPa)
#
#
# Indices 1 2 3 4 5 6 
#
# 1 0.128699 -0.026639 0.025821 0.000000 -0.073642 0.000000
# 2 -0.026639 0.026621 -0.013069 0.000000 0.017654 0.000000
# 3 0.025821 -0.013069 0.017824 0.000000 -0.014692 0.000000
# 4 0.000000 0.000000 0.000000 0.029356 0.000000 -0.015858
# 5 -0.073642 0.017654 -0.014692 0.000000 0.073811 0.000000
# 6 0.000000 0.000000 0.000000 -0.015858 0.000000 0.052098
#
#
# Mechanical properties :
#
#
# Convention : Reuss Voigt Hill
#
# Bulk Modulus (GPa) = 6.87898 26.31203 16.59551
# Shear Modulus (GPa) = 12.35668 29.77918 21.06793
#
# Velocity S-wave (km/s) = 2.36821 3.67643 3.09229
# Velocity P-wave (km/s) = 3.25578 5.47394 4.50356
#
# Compressibility (1/GPa) = 0.14537031
#
# Stress axis : x y z
#
# Youngs Moduli (GPa) = 7.77006 37.56421 56.10435
#
# Poissons Ratio (x) = 1.00069 -1.44869
# Poissons Ratio (y) = 0.20699 0.73322
# Poissons Ratio (z) = -0.20063 0.49092
#
# Static dielectric constant tensor:
#      x y z
#    x 1.812960 0.000000 0.020170 
#    y 0.000000 1.863530 0.000000 
#    z 0.020170 0.000000 1.808420 
# 
# From -- ./inp_files/34608.got.cif
#   From: 2010.05.17/outbox.cif.g08.bks.cpg/sg9_18_cif.got.tgz:34608.got - 2010.06.03 20:04:27.
