data_PCOD9135299
_publ_section_title
;
Structure prediction by ZEFSAII (Michael W. Deem and Ramdas Pophale) SiO2 
 PCOD9135299
Probable space group: C C
;
_chemical_formula_sum "Si O2"
_cell_formula_units_Z 32
_cell_length_a 8.778145
_cell_length_b 15.003216
_cell_length_c 14.935320
_cell_angle_alpha 90.000000
_cell_angle_beta 64.186681
_cell_angle_gamma 90.000000
_cell_volume 1770.716894
_symmetry_space_group_name_H-M "C C"
_symmetry_group_IT_number 9
_symmetry_cell_setting 'monoclinic'
loop_
_space_group_symop_operation_xyz
x,y,z
x,-y,1/2+z
1/2+x,1/2+y,z
1/2+x,1/2-y,1/2+z
loop_
_atom_site_type_symbol
_atom_site_label
_atom_site_fract_x
_atom_site_fract_y
_atom_site_fract_z
Si Si1 0.501080 0.487033 0.536310
Si Si2 0.048223 0.825738 0.945635
Si Si3 0.779432 0.087911 0.232396
Si Si4 0.867784 0.245358 0.657428
Si Si5 0.993173 0.068297 0.721009
Si Si6 0.898031 0.388041 0.798202
Si Si7 0.978470 0.248611 0.266375
Si Si8 0.235856 0.081440 0.829172
O O1 0.472146 0.575908 0.485223
O O2 0.331346 0.441769 0.618008
O O3 0.581060 0.523945 0.609840
O O4 0.619901 0.423308 0.448189
O O5 0.996823 0.789146 0.862419
O O6 0.250740 0.840288 0.893471
O O7 0.980993 0.762461 0.040489
O O8 0.584610 0.112012 0.290621
O O9 0.892900 0.171605 0.229902
O O10 0.841468 0.002794 0.274920
O O11 0.920876 0.162748 0.707484
O O12 0.895540 0.335614 0.705058
O O13 0.669989 0.234139 0.685493
O O14 0.113395 0.079581 0.774369
O O15 0.840002 0.489534 0.801595
O O16 0.861412 0.335422 0.295237
#
# Coordination Sequence:
#
# PCOD9135299 Si02
#       8
#     4   4   4   4   4   4   4   4
#     4   8  20  37  62  83 119 159 197 244 302 353
#     4   9  20  40  62  86 120 158 200 250 299 360
#     4  10  20  39  59  86 120 158 193 249 298 350
#     4  10  20  40  60  86 121 157 200 246 305 347
#     4   9  19  37  63  82 121 158 191 253 295 350
#     4  10  21  38  60  87 120 158 198 248 297 358
#     4  11  23  35  63  90 120 159 197 251 299 360
#     4  11  21  38  61  90 121 157 204 243 301 360
#
# _framework density 18.071776
#
# number of rings (size 3 to 8) (size 9 to 14) (size 15 to 20)
#    0.750    1.500    0.000    3.750    1.750    0.000 
#    6.750    3.750    8.250    0.000    0.000    0.000 
#    0.000    0.000    0.000    0.000    0.000    0.000 
#
# Total GULP energy -89141.592608 kJ/mol
# GULP energy per Si atom -5571.349538 kJ/mol
# Density = 1.803064 g / cm^3
# Si number density = 18.071776 Si / 1000 Ang^3
#
#
#
# Elastic Constant Matrix: (Units=GPa)
#
#
# Indices 1 2 3 4 5 6 
#
# 1 124.8803 28.5280 48.2457 0.0000 -9.8105 0.0000
# 2 28.5280 55.1279 37.6310 0.0000 -8.6450 0.0000
# 3 48.2457 37.6310 97.5148 0.0000 -11.7008 0.0000
# 4 0.0000 0.0000 0.0000 14.7739 0.0000 4.8284
# 5 -9.8105 -8.6450 -11.7008 0.0000 12.9022 0.0000
# 6 0.0000 0.0000 0.0000 4.8284 0.0000 30.9775
#
#
#
# Elastic Compliance Matrix: (Units=1/GPa)
#
#
# Indices 1 2 3 4 5 6 
#
# 1 0.010228 -0.002213 -0.003872 0.000000 0.002782 0.000000
# 2 -0.002213 0.026039 -0.007924 0.000000 0.008578 0.000000
# 3 -0.003872 -0.007924 0.015977 0.000000 0.006235 0.000000
# 4 0.000000 0.000000 0.000000 0.071320 0.000000 -0.011117
# 5 0.002782 0.008578 0.006235 0.000000 0.091024 0.000000
# 6 0.000000 0.000000 0.000000 -0.011117 0.000000 0.034014
#
#
# Mechanical properties :
#
#
# Convention : Reuss Voigt Hill
#
# Bulk Modulus (GPa) = 41.28074 56.25916 48.76995
# Shear Modulus (GPa) = 17.56254 22.60527 20.08391
#
# Velocity S-wave (km/s) = 3.12079 3.54059 3.33729
# Velocity P-wave (km/s) = 5.98982 6.92191 6.47267
#
# Compressibility (1/GPa) = 0.02422437
#
# Stress axis : x y z
#
# Youngs Moduli (GPa) = 97.77224 38.40347 62.59048
#
# Poissons Ratio (x) = 0.08499 0.24237
# Poissons Ratio (y) = 0.21639 0.49599
# Poissons Ratio (z) = 0.37861 0.30432
#
# Static dielectric constant tensor:
#      x y z
#    x 1.598040 0.000000 -0.008300 
#    y 0.000000 1.626010 0.000000 
#    z -0.008300 0.000000 1.635910 
# 
# From -- ./inp_files/23119.got.cif
#   From: 2010.05.17/outbox.cif.g08.bks.cpg/sg9_12_cif.got.tgz:23119.got - 2010.06.03 20:04:27.
