data_PCOD9135269
_publ_section_title
;
Structure prediction by ZEFSAII (Michael W. Deem and Ramdas Pophale) SiO2 
 PCOD9135269
Probable space group: C C
;
_chemical_formula_sum "Si O2"
_cell_formula_units_Z 20
_cell_length_a 17.333749
_cell_length_b 5.570719
_cell_length_c 10.063860
_cell_angle_alpha 90.000000
_cell_angle_beta 44.429210
_cell_angle_gamma 90.000000
_cell_volume 680.273323
_symmetry_space_group_name_H-M "C C"
_symmetry_group_IT_number 9
_symmetry_cell_setting 'monoclinic'
loop_
_space_group_symop_operation_xyz
x,y,z
x,-y,1/2+z
1/2+x,1/2+y,z
1/2+x,1/2-y,1/2+z
loop_
_atom_site_type_symbol
_atom_site_label
_atom_site_fract_x
_atom_site_fract_y
_atom_site_fract_z
Si Si1 0.550920 0.413144 0.022920
Si Si2 0.220771 0.605464 0.004803
Si Si3 0.567552 0.913229 0.913320
Si Si4 0.405331 0.586246 0.443355
Si Si5 0.824781 0.388864 0.328369
O O1 0.611457 0.649475 0.897320
O O2 0.498644 0.482361 0.228021
O O3 0.455250 0.390877 0.027054
O O4 0.752214 0.371202 0.914211
O O5 0.106167 0.650964 0.946119
O O6 0.103473 0.552519 0.217878
O O7 0.301839 0.582018 0.037855
O O8 0.262551 0.363187 0.882095
O O9 0.437390 0.899037 0.106381
O O10 0.367187 0.840215 0.427896
#
# Coordination Sequence:
#
# PCOD9135269 Si02
#       5
#     4   4   4   4   4
#     4  11  23  40  69  90 134 170 213 266 329 376
#     4  10  20  38  67  92 127 166 219 257 324 380
#     4  11  21  39  68  93 128 171 217 263 324 383
#     4   9  23  41  65  94 130 172 210 268 326 377
#     4   9  19  38  63  87 133 157 213 262 321 366
#
# _framework density 29.399946
#
# number of rings (size 3 to 8) (size 9 to 14) (size 15 to 20)
#    1.200    0.800    2.000    1.200    2.800    0.000 
#    0.000    6.000    0.000    0.000    0.000    0.000 
#    0.000    0.000    0.000    0.000    0.000    0.000 
#
# Total GULP energy -55961.567626 kJ/mol
# GULP energy per Si atom -5596.156763 kJ/mol
# Density = 2.933303 g / cm^3
# Si number density = 29.399946 Si / 1000 Ang^3
#
#
#
# Elastic Constant Matrix: (Units=GPa)
#
#
# Indices 1 2 3 4 5 6 
#
# 1 59.4664 51.5960 -8.0535 -0.0002 0.4864 -0.0002
# 2 51.5960 324.2215 90.3290 -0.0037 -24.4280 0.0023
# 3 -8.0535 90.3290 178.6201 -0.0007 -10.9005 0.0007
# 4 -0.0002 -0.0037 -0.0007 49.0583 0.0003 -7.5390
# 5 0.4864 -24.4280 -10.9005 0.0003 37.8308 0.0001
# 6 -0.0002 0.0023 0.0007 -7.5390 0.0001 82.1176
#
#
#
# Elastic Compliance Matrix: (Units=1/GPa)
#
#
# Indices 1 2 3 4 5 6 
#
# 1 0.021017 -0.004351 0.003013 0.000000 -0.002211 0.000000
# 2 -0.004351 0.004619 -0.002389 0.000000 0.002350 0.000000
# 3 0.003013 -0.002389 0.006968 0.000000 0.000427 0.000000
# 4 0.000000 0.000000 0.000000 0.020676 0.000000 0.001898
# 5 -0.002211 0.002350 0.000427 0.000000 0.028103 0.000000
# 6 0.000000 0.000000 0.000000 0.001898 0.000000 0.012352
#
#
# Mechanical properties :
#
#
# Convention : Reuss Voigt Hill
#
# Bulk Modulus (GPa) = 39.75882 92.22788 65.99335
# Shear Modulus (GPa) = 45.63221 62.36378 53.99799
#
# Velocity S-wave (km/s) = 3.94397 4.61067 4.29029
# Velocity P-wave (km/s) = 5.85599 7.73192 6.85840
#
# Compressibility (1/GPa) = 0.02515165
#
# Stress axis : x y z
#
# Youngs Moduli (GPa) = 47.58024 216.48570 143.50645
#
# Poissons Ratio (x) = 0.94184 -0.43235
# Poissons Ratio (y) = 0.20700 0.34279
# Poissons Ratio (z) = -0.14335 0.51712
#
# Static dielectric constant tensor:
#      x y z
#    x 2.625730 0.000000 0.040920 
#    y 0.000000 2.270890 0.000000 
#    z 0.040920 0.000000 2.217610 
# 
# From -- ./inp_files/8785.got.cif
#   From: 2010.05.17/outbox.cif.g08.bks.cpg/sg9_5_cif.got.tgz:8785.got - 2010.06.03 20:04:27.
