data_PCOD9135559
_publ_section_title
;
Structure prediction by ZEFSAII (Michael W. Deem and Ramdas Pophale) SiO2 
 PCOD9135559
Probable space group: C C
;
_chemical_formula_sum "Si O2"
_cell_formula_units_Z 28
_cell_length_a 8.130594
_cell_length_b 19.364339
_cell_length_c 14.221287
_cell_angle_alpha 90.000000
_cell_angle_beta 37.029599
_cell_angle_gamma 90.000000
_cell_volume 1348.417714
_symmetry_space_group_name_H-M "C C"
_symmetry_group_IT_number 9
_symmetry_cell_setting 'monoclinic'
loop_
_space_group_symop_operation_xyz
x,y,z
x,-y,1/2+z
1/2+x,1/2+y,z
1/2+x,1/2-y,1/2+z
loop_
_atom_site_type_symbol
_atom_site_label
_atom_site_fract_x
_atom_site_fract_y
_atom_site_fract_z
Si Si1 0.952190 0.430675 0.567910
Si Si2 0.570200 0.558407 0.746091
Si Si3 0.670889 0.720809 0.971259
Si Si4 0.524605 0.680239 0.235514
Si Si5 0.457725 0.843388 0.959394
Si Si6 0.041631 0.562571 0.251699
Si Si7 0.158942 0.936117 0.429856
O O1 0.738072 0.490574 0.639815
O O2 0.804566 0.359350 0.611226
O O3 0.988510 0.428752 0.664595
O O4 0.243758 0.442253 0.386429
O O5 0.712726 0.621646 0.627305
O O6 0.623317 0.562877 0.833679
O O7 0.491796 0.762887 0.974887
O O8 0.733907 0.642179 0.919484
O O9 0.950331 0.764540 0.848740
O O10 0.515847 0.720431 0.140549
O O11 0.257719 0.630476 0.359771
O O12 0.453591 0.871429 0.854677
O O13 0.872495 0.495144 0.358959
O O14 0.365463 0.550831 0.111272
#
# Coordination Sequence:
#
# PCOD9135559 Si02
#       7
#     4   4   4   4   4   4   4
#     4  10  22  41  61  96 133 168 214 272 318 386
#     4  10  21  37  64  92 129 168 211 266 325 375
#     4  10  21  41  67  88 127 172 217 257 336 390
#     4  10  22  41  66  87 127 172 218 255 327 390
#     4  10  22  39  67  95 119 174 215 268 316 399
#     4  10  22  40  64  97 127 167 217 267 321 379
#     4  10  20  41  65  91 128 171 210 265 321 389
#
# _framework density 20.765079
#
# number of rings (size 3 to 8) (size 9 to 14) (size 15 to 20)
#    0.857    1.143    1.429    1.714    2.000    2.286 
#    0.000    5.714    0.000    0.000    0.000    0.000 
#    0.000    0.000    0.000    0.000    0.000    0.000 
#
# Total GULP energy -78003.890146 kJ/mol
# GULP energy per Si atom -5571.706439 kJ/mol
# Density = 2.071782 g / cm^3
# Si number density = 20.765079 Si / 1000 Ang^3
#
#
#
# Elastic Constant Matrix: (Units=GPa)
#
#
# Indices 1 2 3 4 5 6 
#
# 1 49.4543 33.0676 42.7495 -0.0009 -8.7718 -0.0008
# 2 33.0676 98.2829 51.1019 0.0005 -11.1641 0.0009
# 3 42.7495 51.1019 154.3784 -0.0035 -12.1066 0.0050
# 4 -0.0009 0.0005 -0.0035 29.0415 0.0007 -5.9862
# 5 -8.7718 -11.1641 -12.1066 0.0007 30.8651 -0.0010
# 6 -0.0008 0.0009 0.0050 -5.9862 -0.0010 30.5120
#
#
#
# Elastic Compliance Matrix: (Units=1/GPa)
#
#
# Indices 1 2 3 4 5 6 
#
# 1 0.030547 -0.006757 -0.005915 0.000001 0.003917 0.000002
# 2 -0.006757 0.014049 -0.002612 -0.000001 0.002137 0.000000
# 3 -0.005915 -0.002612 0.009053 0.000001 0.000925 -0.000001
# 4 0.000001 -0.000001 0.000001 0.035885 0.000000 0.007040
# 5 0.003917 0.002137 0.000925 0.000000 0.034648 0.000001
# 6 0.000002 0.000000 -0.000001 0.007040 0.000001 0.034155
#
#
# Mechanical properties :
#
#
# Convention : Reuss Voigt Hill
#
# Bulk Modulus (GPa) = 43.32638 61.77262 52.54950
# Shear Modulus (GPa) = 25.43274 29.76348 27.59811
#
# Velocity S-wave (km/s) = 3.50349 3.79006 3.64959
# Velocity P-wave (km/s) = 6.10543 6.99754 6.56665
#
# Compressibility (1/GPa) = 0.02308063
#
# Stress axis : x y z
#
# Youngs Moduli (GPa) = 32.73686 71.18033 110.46598
#
# Poissons Ratio (x) = 0.48098 0.65339
# Poissons Ratio (y) = 0.22121 0.28850
# Poissons Ratio (z) = 0.19363 0.18590
#
# Static dielectric constant tensor:
#      x y z
#    x 1.791400 0.000000 0.013280 
#    y 0.000000 1.768690 0.000000 
#    z 0.013280 0.000000 1.744280 
# 
# From -- ./inp_files/5585.got.cif
#   From: 2010.05.17/outbox.cif.g08.bks.cpg/sg9_3_cif.got.tgz:5585.got - 2010.06.03 20:04:27.
