data_PCOD9135681
_publ_section_title
;
Structure prediction by ZEFSAII (Michael W. Deem and Ramdas Pophale) SiO2 
 PCOD9135681
Probable space group: C C
;
_chemical_formula_sum "Si O2"
_cell_formula_units_Z 32
_cell_length_a 11.101377
_cell_length_b 10.110025
_cell_length_c 12.837149
_cell_angle_alpha 90.000000
_cell_angle_beta 73.243743
_cell_angle_gamma 90.000000
_cell_volume 1379.604286
_symmetry_space_group_name_H-M "C C"
_symmetry_group_IT_number 9
_symmetry_cell_setting 'monoclinic'
loop_
_space_group_symop_operation_xyz
x,y,z
x,-y,1/2+z
1/2+x,1/2+y,z
1/2+x,1/2-y,1/2+z
loop_
_atom_site_type_symbol
_atom_site_label
_atom_site_fract_x
_atom_site_fract_y
_atom_site_fract_z
Si Si1 0.343310 0.649725 0.405700
Si Si2 0.050712 0.525165 0.284254
Si Si3 0.089555 0.639827 0.577684
Si Si4 0.808117 0.556143 0.965005
Si Si5 0.989496 0.229342 0.898183
Si Si6 0.101142 0.059276 0.404615
Si Si7 0.802416 0.095611 0.803491
Si Si8 0.252584 0.183125 0.178227
O O1 0.221950 0.588921 0.495155
O O2 0.302370 0.801569 0.406054
O O3 0.474570 0.645594 0.434918
O O4 0.361176 0.550972 0.303521
O O5 0.040920 0.469065 0.170706
O O6 0.068417 0.681350 0.296080
O O7 0.156350 0.438988 0.317767
O O8 0.922100 0.510845 0.378579
O O9 0.003426 0.696975 0.506602
O O10 0.136217 0.761436 0.638319
O O11 0.686096 0.464405 0.984433
O O12 0.827767 0.592484 0.079893
O O13 0.054872 0.087879 0.891220
O O14 0.852935 0.185000 0.886892
O O15 0.193859 0.112221 0.292065
O O16 0.831247 0.189872 0.698026
#
# Coordination Sequence:
#
# PCOD9135681 Si02
#       8
#     4   4   4   4   4   4   4   4
#     4  10  20  42  69  96 133 172 224 281 342 405
#     4  11  23  41  70  97 138 182 229 280 348 410
#     4  10  21  44  69  95 136 186 218 285 352 408
#     4  11  23  44  69  94 140 180 226 281 344 411
#     4  11  22  43  68  96 142 170 232 286 333 418
#     4  11  22  43  69  98 133 178 227 282 342 407
#     4  10  21  40  66  98 133 171 224 283 330 412
#     4  10  22  43  66  98 133 179 220 278 349 401
#
# _framework density 23.195056999999998
#
# number of rings (size 3 to 8) (size 9 to 14) (size 15 to 20)
#    0.000    1.500    3.750    2.250    0.000    2.000 
#   13.500   10.000    2.750    0.000    0.000    0.000 
#    0.000    0.000    0.000    0.000    0.000    0.000 
#
# Total GULP energy -89163.850068 kJ/mol
# GULP energy per Si atom -5572.740629 kJ/mol
# Density = 2.314226 g / cm^3
# Si number density = 23.195057 Si / 1000 Ang^3
#
#
#
# Elastic Constant Matrix: (Units=GPa)
#
#
# Indices 1 2 3 4 5 6 
#
# 1 113.3955 9.7590 17.4476 0.0000 27.0258 0.0000
# 2 9.7590 34.6231 12.9186 0.0000 17.6788 0.0000
# 3 17.4476 12.9186 56.9440 0.0000 19.9126 0.0000
# 4 0.0000 0.0000 0.0000 39.5563 0.0000 14.2429
# 5 27.0258 17.6788 19.9126 0.0000 37.0807 0.0000
# 6 0.0000 0.0000 0.0000 14.2429 0.0000 38.5838
#
#
#
# Elastic Compliance Matrix: (Units=1/GPa)
#
#
# Indices 1 2 3 4 5 6 
#
# 1 0.010743 0.001385 -0.000784 0.000000 -0.008069 0.000000
# 2 0.001385 0.038728 -0.002956 0.000000 -0.017886 0.000000
# 3 -0.000784 -0.002956 0.021890 0.000000 -0.009774 0.000000
# 4 0.000000 0.000000 0.000000 0.029156 0.000000 -0.010763
# 5 -0.008069 -0.017886 -0.009774 0.000000 0.046626 0.000000
# 6 0.000000 0.000000 0.000000 -0.010763 0.000000 0.029890
#
#
# Mechanical properties :
#
#
# Convention : Reuss Voigt Hill
#
# Bulk Modulus (GPa) = 15.00362 31.69032 23.34697
# Shear Modulus (GPa) = 24.51459 34.03332 29.27395
#
# Velocity S-wave (km/s) = 3.25451 3.83465 3.55643
# Velocity P-wave (km/s) = 4.53927 5.77046 5.19149
#
# Compressibility (1/GPa) = 0.06665060
#
# Stress axis : x y z
#
# Youngs Moduli (GPa) = 93.08097 25.82125 45.68317
#
# Poissons Ratio (x) = -0.03575 0.03582
# Poissons Ratio (y) = -0.12888 0.13502
# Poissons Ratio (z) = 0.07299 0.07632
#
# Static dielectric constant tensor:
#      x y z
#    x 1.941210 0.000000 0.045640 
#    y 0.000000 1.971380 0.000000 
#    z 0.045640 0.000000 1.906200 
# 
# From -- ./inp_files/16173.got.cif
#   From: 2010.05.17/outbox.cif.g08.bks.cpg/sg9_9_cif.got.tgz:16173.got - 2010.06.03 20:04:27.
