data_PCOD9135509
_publ_section_title
;
Structure prediction by ZEFSAII (Michael W. Deem and Ramdas Pophale) SiO2 
 PCOD9135509
Probable space group: C C
;
_chemical_formula_sum "Si O2"
_cell_formula_units_Z 32
_cell_length_a 5.325931
_cell_length_b 22.711395
_cell_length_c 10.431168
_cell_angle_alpha 90.000000
_cell_angle_beta 96.287279
_cell_angle_gamma 90.000000
_cell_volume 1254.157979
_symmetry_space_group_name_H-M "C C"
_symmetry_group_IT_number 9
_symmetry_cell_setting 'monoclinic'
loop_
_space_group_symop_operation_xyz
x,y,z
x,-y,1/2+z
1/2+x,1/2+y,z
1/2+x,1/2-y,1/2+z
loop_
_atom_site_type_symbol
_atom_site_label
_atom_site_fract_x
_atom_site_fract_y
_atom_site_fract_z
Si Si1 0.297620 0.350858 0.620410
Si Si2 0.292344 0.335938 0.204636
Si Si3 0.975453 0.585030 0.529061
Si Si4 0.141729 0.055186 0.762443
Si Si5 0.705917 0.427357 0.746786
Si Si6 0.530764 0.041557 0.019187
Si Si7 0.554256 0.222979 0.312075
Si Si8 0.088215 0.263832 0.408694
O O1 0.568562 0.370182 0.683540
O O2 0.136837 0.333973 0.737213
O O3 0.238565 0.295114 0.530756
O O4 0.226455 0.406175 0.529375
O O5 0.437127 0.393431 0.264816
O O6 0.480584 0.279624 0.215942
O O7 0.084719 0.311883 0.293045
O O8 0.154230 0.360083 0.070619
O O9 0.797719 0.573423 0.642984
O O10 0.811600 0.586002 0.392312
O O11 0.133649 0.524499 0.518872
O O12 0.329544 0.051891 0.894747
O O13 0.038292 0.987793 0.748189
O O14 0.904401 0.448333 0.651173
O O15 0.294425 0.216521 0.374540
O O16 0.802083 0.242963 0.405919
#
# Coordination Sequence:
#
# PCOD9135509 Si02
#       8
#     4   4   4   4   4   4   4   4
#     4  12  24  45  72  97 147 190 248 308 372 432
#     4  10  20  40  69  96 139 192 240 296 357 434
#     4  10  21  40  64 105 151 183 242 297 374 437
#     4  10  20  41  70 100 144 191 245 287 368 455
#     4  10  24  39  65 110 143 187 235 310 370 432
#     4  10  22  39  68 103 141 193 236 299 370 444
#     4  10  26  45  68 107 135 188 253 299 356 431
#     4  10  25  47  72 104 134 190 251 302 363 427
#
# _framework density 25.515129999999999
#
# number of rings (size 3 to 8) (size 9 to 14) (size 15 to 20)
#    0.750    1.000    0.000    3.750    3.500    1.000 
#    6.750    7.500    0.000    0.000    0.000    0.000 
#    0.000    0.000    0.000    0.000    0.000    0.000 
#
# Total GULP energy -89397.736448 kJ/mol
# GULP energy per Si atom -5587.358528 kJ/mol
# Density = 2.545706 g / cm^3
# Si number density = 25.515130 Si / 1000 Ang^3
#
#
#
# Elastic Constant Matrix: (Units=GPa)
#
#
# Indices 1 2 3 4 5 6 
#
# 1 66.8809 28.6081 22.2752 0.0000 17.0536 0.0000
# 2 28.6081 122.8795 39.1733 0.0000 12.7938 0.0000
# 3 22.2752 39.1733 120.3203 0.0000 19.9117 0.0000
# 4 0.0000 0.0000 0.0000 16.8204 0.0000 -6.0847
# 5 17.0536 12.7938 19.9117 0.0000 38.4346 0.0000
# 6 0.0000 0.0000 0.0000 -6.0847 0.0000 11.8322
#
#
#
# Elastic Compliance Matrix: (Units=1/GPa)
#
#
# Indices 1 2 3 4 5 6 
#
# 1 0.018391 -0.003198 -0.001301 0.000000 -0.006422 0.000000
# 2 -0.003198 0.009731 -0.002488 0.000000 -0.000531 0.000000
# 3 -0.001301 -0.002488 0.009986 0.000000 -0.003768 0.000000
# 4 0.000000 0.000000 0.000000 0.073039 0.000000 0.037560
# 5 -0.006422 -0.000531 -0.003768 0.000000 0.030996 0.000000
# 6 0.000000 0.000000 0.000000 0.037560 0.000000 0.103830
#
#
# Mechanical properties :
#
#
# Convention : Reuss Voigt Hill
#
# Bulk Modulus (GPa) = 41.43735 54.46600 47.95168
# Shear Modulus (GPa) = 18.65730 28.08572 23.37151
#
# Velocity S-wave (km/s) = 2.70705 3.32135 3.02981
# Velocity P-wave (km/s) = 5.10357 6.00844 5.57440
#
# Compressibility (1/GPa) = 0.02413282
#
# Stress axis : x y z
#
# Youngs Moduli (GPa) = 54.37552 102.76225 100.14432
#
# Poissons Ratio (x) = 0.32867 0.13026
# Poissons Ratio (y) = 0.17391 0.24918
# Poissons Ratio (z) = 0.07073 0.25570
#
# Static dielectric constant tensor:
#      x y z
#    x 2.031250 0.000000 -0.006400 
#    y 0.000000 2.037100 0.000000 
#    z -0.006400 0.000000 2.106280 
# 
# From -- ./inp_files/13818.got.cif
#   From: 2010.05.17/outbox.cif.g08.bks.cpg/sg9_7_cif.got.tgz:13818.got - 2010.06.03 20:04:27.
