data_PCOD9135048
_publ_section_title
;
Structure prediction by ZEFSAII (Michael W. Deem and Ramdas Pophale) SiO2 
 PCOD9135048
Probable space group: C C
;
_chemical_formula_sum "Si O2"
_cell_formula_units_Z 28
_cell_length_a 9.478034
_cell_length_b 26.105271
_cell_length_c 5.259965
_cell_angle_alpha 90.000000
_cell_angle_beta 106.892917
_cell_angle_gamma 90.000000
_cell_volume 1245.297061
_symmetry_space_group_name_H-M "C C"
_symmetry_group_IT_number 9
_symmetry_cell_setting 'monoclinic'
loop_
_space_group_symop_operation_xyz
x,y,z
x,-y,1/2+z
1/2+x,1/2+y,z
1/2+x,1/2-y,1/2+z
loop_
_atom_site_type_symbol
_atom_site_label
_atom_site_fract_x
_atom_site_fract_y
_atom_site_fract_z
Si Si1 0.375000 0.372619 0.520030
Si Si2 0.690357 0.524832 0.441776
Si Si3 0.497993 0.672336 0.604618
Si Si4 0.065213 0.323698 0.313541
Si Si5 0.273709 0.142028 0.466020
Si Si6 0.949800 0.717533 0.262970
Si Si7 0.352241 0.513500 0.848487
O O1 0.492479 0.359979 0.360870
O O2 0.225214 0.345533 0.356093
O O3 0.351776 0.432578 0.490735
O O4 0.416854 0.353583 0.822059
O O5 0.756374 0.491959 0.246055
O O6 0.706732 0.585360 0.395678
O O7 0.519304 0.506632 0.384438
O O8 0.665007 0.674583 0.589213
O O9 0.424873 0.726229 0.640998
O O10 0.049247 0.307211 0.595843
O O11 0.933476 0.363397 0.182895
O O12 0.028162 0.280231 0.081852
O O13 0.314100 0.178924 0.249201
O O14 0.283016 0.478783 0.033941
#
# Coordination Sequence:
#
# PCOD9135048 Si02
#       7
#     4   4   4   4   4   4   4
#     4  12  25  44  70 107 138 188 230 301 358 417
#     4  10  20  36  65  98 130 167 227 290 344 399
#     4  12  25  41  75  99 137 182 250 285 351 414
#     4  10  25  45  67  92 151 176 230 283 368 412
#     4  10  26  44  72  99 143 183 237 294 347 420
#     4  10  25  44  69  97 143 182 235 288 350 425
#     4  10  20  38  64  96 138 170 227 287 348 407
#
# _framework density 22.484594000000001
#
# number of rings (size 3 to 8) (size 9 to 14) (size 15 to 20)
#    0.857    0.571    0.000    6.000    6.000    1.143 
#    0.000    1.429    0.000    0.000    0.000    0.000 
#    0.000    0.000    0.000    0.000    0.000    0.000 
#
# Total GULP energy -78047.689780 kJ/mol
# GULP energy per Si atom -5574.834984 kJ/mol
# Density = 2.243342 g / cm^3
# Si number density = 22.484594 Si / 1000 Ang^3
#
#
#
# Elastic Constant Matrix: (Units=GPa)
#
#
# Indices 1 2 3 4 5 6 
#
# 1 64.4605 19.3517 22.4690 0.0000 -15.9170 0.0000
# 2 19.3517 86.7392 28.7253 0.0000 -15.6031 0.0000
# 3 22.4690 28.7253 142.5241 0.0000 -35.6850 0.0000
# 4 0.0000 0.0000 0.0000 34.3939 0.0000 3.2889
# 5 -15.9170 -15.6031 -35.6850 0.0000 24.2411 0.0000
# 6 0.0000 0.0000 0.0000 3.2889 0.0000 -16.0936
#
#
#
# Elastic Compliance Matrix: (Units=1/GPa)
#
#
# Indices 1 2 3 4 5 6 
#
# 1 0.018904 -0.002271 0.000347 0.000000 0.011463 0.000000
# 2 -0.002271 0.013374 -0.000880 0.000000 0.005822 0.000000
# 3 0.000347 -0.000880 0.011172 0.000000 0.016108 0.000000
# 4 0.000000 0.000000 0.000000 0.028518 0.000000 0.005828
# 5 0.011463 0.005822 0.016108 0.000000 0.076239 0.000000
# 6 0.000000 0.000000 0.000000 0.005828 0.000000 -0.060946
#
#
# Mechanical properties :
#
#
# Convention : Reuss Voigt Hill
#
# Bulk Modulus (GPa) = 26.42399 48.31288 37.36844
# Shear Modulus (GPa) = 47.40134 23.38681 35.39407
#
# Velocity S-wave (km/s) = 4.59646 3.22860 3.97186
# Velocity P-wave (km/s) = 6.32040 5.95250 6.13921
#
# Compressibility (1/GPa) = 0.03784440
#
# Stress axis : x y z
#
# Youngs Moduli (GPa) = 52.89763 74.77133 89.50959
#
# Poissons Ratio (x) = 0.16978 -0.03109
# Poissons Ratio (y) = 0.12011 0.07875
# Poissons Ratio (z) = -0.01838 0.06578
#
# Static dielectric constant tensor:
#      x y z
#    x 1.838820 0.000000 0.059620 
#    y 0.000000 1.894490 0.000000 
#    z 0.059620 0.000000 2.052260 
# 
# From -- ./inp_files/862.got.cif
#   From: 2010.05.17/outbox.cif.g08.bks.cpg/sg9_1_cif.got.tgz:862.got - 2010.06.03 20:04:27.
