data_PCOD9135045
_publ_section_title
;
Structure prediction by ZEFSAII (Michael W. Deem and Ramdas Pophale) SiO2 
 PCOD9135045
Probable space group: C C
;
_chemical_formula_sum "Si O2"
_cell_formula_units_Z 32
_cell_length_a 14.186422
_cell_length_b 15.828563
_cell_length_c 10.692597
_cell_angle_alpha 90.000000
_cell_angle_beta 31.478033
_cell_angle_gamma 90.000000
_cell_volume 1253.749672
_symmetry_space_group_name_H-M "C C"
_symmetry_group_IT_number 9
_symmetry_cell_setting 'monoclinic'
loop_
_space_group_symop_operation_xyz
x,y,z
x,-y,1/2+z
1/2+x,1/2+y,z
1/2+x,1/2-y,1/2+z
loop_
_atom_site_type_symbol
_atom_site_label
_atom_site_fract_x
_atom_site_fract_y
_atom_site_fract_z
Si Si1 0.001000 0.926847 0.747310
Si Si2 0.670812 0.649106 0.689640
Si Si3 0.999138 0.922760 0.041307
Si Si4 0.357289 0.107279 0.723152
Si Si5 0.131386 0.622671 0.598478
Si Si6 0.502794 0.069572 0.240511
Si Si7 0.413233 0.908721 0.582338
Si Si8 0.806937 0.173132 0.966512
O O1 0.209086 0.899669 0.502157
O O2 0.991065 0.999151 0.649638
O O3 0.954879 0.945584 0.946570
O O4 0.842266 0.863224 0.881672
O O5 0.736417 0.653528 0.756887
O O6 0.757995 0.729905 0.526341
O O7 0.463059 0.648203 0.888366
O O8 0.787978 0.569315 0.508474
O O9 0.879416 0.854567 0.249051
O O10 0.203218 0.889228 0.811842
O O11 0.530290 0.152832 0.588090
O O12 0.408920 0.013489 0.607165
O O13 0.095439 0.520765 0.628876
O O14 0.019648 0.636247 0.851139
O O15 0.510433 0.115671 0.099582
O O16 0.620840 0.123659 0.202235
#
# Coordination Sequence:
#
# PCOD9135045 Si02
#       8
#     4   4   4   4   4   4   4   4
#     4  11  24  38  66 106 143 176 221 287 357 417
#     4  12  25  43  66  97 133 185 239 291 325 409
#     4  11  23  40  65 105 141 177 226 285 353 408
#     4  10  24  38  60  99 142 174 224 283 353 399
#     4  11  21  38  63  99 140 181 203 280 357 429
#     4  11  22  38  60  99 131 173 223 281 335 410
#     4  10  20  36  64  94 140 169 213 281 356 414
#     4  12  25  43  68  95 134 183 241 288 328 410
#
# _framework density 25.523434999999999
#
# number of rings (size 3 to 8) (size 9 to 14) (size 15 to 20)
#    0.000    1.000    6.250    0.750    5.250    1.000 
#    0.000    0.000    0.000    3.000    0.000    0.000 
#    0.000    0.000    0.000    0.000    0.000    0.000 
#
# Total GULP energy -89327.709198 kJ/mol
# GULP energy per Si atom -5582.981825 kJ/mol
# Density = 2.546534 g / cm^3
# Si number density = 25.523435 Si / 1000 Ang^3
#
#
#
# Elastic Constant Matrix: (Units=GPa)
#
#
# Indices 1 2 3 4 5 6 
#
# 1 176.5947 6.0822 24.8178 -0.0020 -4.1837 0.0010
# 2 6.0822 30.2761 11.1325 -0.0011 -4.2120 0.0006
# 3 24.8178 11.1325 69.0561 -0.0037 -13.2172 0.0028
# 4 -0.0020 -0.0011 -0.0037 23.9001 0.0019 0.1156
# 5 -4.1837 -4.2120 -13.2172 0.0019 64.4060 -0.0012
# 6 0.0010 0.0006 0.0028 0.1156 -0.0012 11.4697
#
#
#
# Elastic Compliance Matrix: (Units=1/GPa)
#
#
# Indices 1 2 3 4 5 6 
#
# 1 0.005970 -0.000441 -0.002088 0.000000 -0.000069 0.000000
# 2 -0.000441 0.035230 -0.005293 0.000001 0.001189 0.000000
# 3 -0.002088 -0.005293 0.016646 0.000002 0.002934 -0.000003
# 4 0.000000 0.000001 0.000002 0.041843 -0.000001 -0.000422
# 5 -0.000069 0.001189 0.002934 -0.000001 0.016202 0.000001
# 6 0.000000 0.000000 -0.000003 -0.000422 0.000001 0.087190
#
#
# Mechanical properties :
#
#
# Convention : Reuss Voigt Hill
#
# Bulk Modulus (GPa) = 23.69594 39.99912 31.84753
# Shear Modulus (GPa) = 21.47841 35.54812 28.51326
#
# Velocity S-wave (km/s) = 2.90404 3.73602 3.34599
# Velocity P-wave (km/s) = 4.53307 5.85799 5.23759
#
# Compressibility (1/GPa) = 0.04220132
#
# Stress axis : x y z
#
# Youngs Moduli (GPa) = 167.51501 28.38512 60.07394
#
# Poissons Ratio (x) = 0.01253 0.12541
# Poissons Ratio (y) = 0.07393 0.31798
# Poissons Ratio (z) = 0.34970 0.15025
#
# Static dielectric constant tensor:
#      x y z
#    x 2.101530 0.000000 0.070100 
#    y 0.000000 2.041320 0.000000 
#    z 0.070100 0.000000 2.063770 
# 
# From -- ./inp_files/18541.got.cif
#   From: 2010.05.17/outbox.cif.g08.bks.cpg/sg9_10_cif.got.tgz:18541.got - 2010.06.03 20:04:27.
