data_PCOD9135757
_publ_section_title
;
Structure prediction by ZEFSAII (Michael W. Deem and Ramdas Pophale) SiO2 
 PCOD9135757
Probable space group: C C
;
_chemical_formula_sum "Si O2"
_cell_formula_units_Z 28
_cell_length_a 25.978472
_cell_length_b 8.083671
_cell_length_c 12.794626
_cell_angle_alpha 90.000000
_cell_angle_beta 154.768435
_cell_angle_gamma 90.000000
_cell_volume 1145.361157
_symmetry_space_group_name_H-M "C C"
_symmetry_group_IT_number 9
_symmetry_cell_setting 'monoclinic'
loop_
_space_group_symop_operation_xyz
x,y,z
x,-y,1/2+z
1/2+x,1/2+y,z
1/2+x,1/2-y,1/2+z
loop_
_atom_site_type_symbol
_atom_site_label
_atom_site_fract_x
_atom_site_fract_y
_atom_site_fract_z
Si Si1 0.395150 0.037833 0.782370
Si Si2 0.323447 0.627528 0.435329
Si Si3 0.784861 0.218819 0.599703
Si Si4 0.106611 0.405528 0.029162
Si Si5 0.510878 0.347318 0.106242
Si Si6 0.136385 0.861475 0.730510
Si Si7 0.176888 0.601449 0.984501
O O1 0.272220 0.069349 0.491074
O O2 0.364873 0.869389 0.791298
O O3 0.429526 0.204624 0.905191
O O4 0.511765 0.998685 0.927421
O O5 0.322596 0.709038 0.546788
O O6 0.245784 0.459561 0.307146
O O7 0.447591 0.611132 0.600557
O O8 0.232037 0.709814 0.181372
O O9 0.647414 0.278876 0.362104
O O10 0.777180 0.032817 0.630863
O O11 0.107261 0.216749 0.065187
O O12 0.081880 0.482155 0.869588
O O13 0.536036 0.507228 0.080300
O O14 0.135093 0.713293 0.813779
#
# Coordination Sequence:
#
# PCOD9135757 Si02
#       7
#     4   4   4   4   4   4   4
#     4  11  23  44  67  95 141 184 226 297 348 422
#     4  10  22  40  67 100 140 179 243 291 348 445
#     4  11  24  44  68  99 142 187 236 297 362 419
#     4  10  23  41  65 100 131 180 236 287 349 432
#     4  11  23  44  68 105 140 181 245 292 355 446
#     4  11  23  43  68  98 142 182 230 304 352 416
#     4  10  20  44  63  97 136 177 234 286 358 420
#
# _framework density 24.446439999999999
#
# number of rings (size 3 to 8) (size 9 to 14) (size 15 to 20)
#    0.857    0.571    4.286    0.000    4.000    1.143 
#    5.143    1.429    0.000    0.000    0.000    0.000 
#    0.000    0.000    0.000    0.000    0.000    0.000 
#
# Total GULP energy -78065.582978 kJ/mol
# GULP energy per Si atom -5576.113070 kJ/mol
# Density = 2.439080 g / cm^3
# Si number density = 24.446440 Si / 1000 Ang^3
#
#
#
# Elastic Constant Matrix: (Units=GPa)
#
#
# Indices 1 2 3 4 5 6 
#
# 1 105.2186 35.9803 34.0807 0.0000 31.2141 0.0000
# 2 35.9803 134.3855 28.1460 0.0000 3.1843 0.0000
# 3 34.0807 28.1460 93.1364 0.0000 20.6552 0.0000
# 4 0.0000 0.0000 0.0000 43.6657 0.0000 11.2678
# 5 31.2141 3.1843 20.6552 0.0000 46.4647 0.0000
# 6 0.0000 0.0000 0.0000 11.2678 0.0000 24.7557
#
#
#
# Elastic Compliance Matrix: (Units=1/GPa)
#
#
# Indices 1 2 3 4 5 6 
#
# 1 0.013622 -0.002971 -0.002332 0.000000 -0.007911 0.000000
# 2 -0.002971 0.008606 -0.002025 0.000000 0.002306 0.000000
# 3 -0.002332 -0.002025 0.013117 0.000000 -0.004125 0.000000
# 4 0.000000 0.000000 0.000000 0.025949 0.000000 -0.011811
# 5 -0.007911 0.002306 -0.004125 0.000000 0.028512 0.000000
# 6 0.000000 0.000000 0.000000 -0.011811 0.000000 0.045771
#
#
# Mechanical properties :
#
#
# Convention : Reuss Voigt Hill
#
# Bulk Modulus (GPa) = 48.33617 58.79494 53.56555
# Shear Modulus (GPa) = 31.82053 38.61278 35.21665
#
# Velocity S-wave (km/s) = 3.61174 3.97858 3.79959
# Velocity P-wave (km/s) = 6.09985 6.72371 6.41936
#
# Compressibility (1/GPa) = 0.02068844
#
# Stress axis : x y z
#
# Youngs Moduli (GPa) = 73.40868 116.19391 76.23507
#
# Poissons Ratio (x) = 0.34525 0.17781
# Poissons Ratio (y) = 0.21812 0.15438
# Poissons Ratio (z) = 0.17122 0.23530
#
# Static dielectric constant tensor:
#      x y z
#    x 1.974400 0.000000 -0.045250 
#    y 0.000000 2.078550 0.000000 
#    z -0.045250 0.000000 2.046730 
# 
# From -- ./inp_files/27951.got.cif
#   From: 2010.05.17/outbox.cif.g08.bks.cpg/sg9_14_cif.got.tgz:27951.got - 2010.06.03 20:04:27.
