data_PCOD9135034
_publ_section_title
;
Structure prediction by ZEFSAII (Michael W. Deem and Ramdas Pophale) SiO2 
 PCOD9135034
Probable space group: C C
;
_chemical_formula_sum "Si O2"
_cell_formula_units_Z 32
_cell_length_a 12.263145
_cell_length_b 11.697974
_cell_length_c 8.594041
_cell_angle_alpha 90.000000
_cell_angle_beta 89.710647
_cell_angle_gamma 90.000000
_cell_volume 1232.833418
_symmetry_space_group_name_H-M "C C"
_symmetry_group_IT_number 9
_symmetry_cell_setting 'monoclinic'
loop_
_space_group_symop_operation_xyz
x,y,z
x,-y,1/2+z
1/2+x,1/2+y,z
1/2+x,1/2-y,1/2+z
loop_
_atom_site_type_symbol
_atom_site_label
_atom_site_fract_x
_atom_site_fract_y
_atom_site_fract_z
Si Si1 0.088550 0.385364 0.203130
Si Si2 0.753098 0.075345 0.251127
Si Si3 0.767856 0.757733 0.046062
Si Si4 0.501418 0.248866 0.953365
Si Si5 0.476141 0.750114 0.935603
Si Si6 0.655379 0.383042 0.299812
Si Si7 0.478006 0.563027 0.196535
Si Si8 0.248854 0.788216 0.027559
O O1 0.145495 0.505734 0.215540
O O2 0.190212 0.294776 0.187715
O O3 0.023394 0.368054 0.362858
O O4 0.020126 0.346456 0.054657
O O5 0.751696 0.138515 0.418038
O O6 0.862570 0.998721 0.223664
O O7 0.761437 0.167975 0.115447
O O8 0.897127 0.744268 0.064891
O O9 0.717428 0.644880 0.961652
O O10 0.464655 0.333303 0.815754
O O11 0.621335 0.297125 0.988837
O O12 0.483318 0.626734 0.030188
O O13 0.351512 0.788580 0.912655
O O14 0.565750 0.722540 0.803549
O O15 0.580995 0.489556 0.249214
O O16 0.751838 0.376000 0.171992
#
# Coordination Sequence:
#
# PCOD9135034 Si02
#       8
#     4   4   4   4   4   4   4   4
#     4  10  20  36  63  79 116 148 186 237 280 328
#     4   9  20  35  59  85 109 145 196 231 276 333
#     4   9  21  40  57  83 116 151 185 233 286 331
#     4  10  22  37  58  86 115 148 189 232 281 336
#     4   9  21  40  57  83 116 151 185 233 286 331
#     4  10  20  36  63  79 116 148 186 237 280 328
#     4   9  20  35  59  85 109 145 196 231 276 333
#     4  10  22  37  58  86 115 148 189 232 281 336
#
# _framework density 25.956465999999999
#
# number of rings (size 3 to 8) (size 9 to 14) (size 15 to 20)
#    0.000    2.500    0.000    2.250    7.000    2.000 
#    0.000    1.250   16.500    0.000    0.000    0.000 
#    0.000    0.000    0.000    0.000    0.000    0.000 
#
# Total GULP energy -89200.881630 kJ/mol
# GULP energy per Si atom -5575.055102 kJ/mol
# Density = 2.589739 g / cm^3
# Si number density = 25.956466 Si / 1000 Ang^3
#
#
#
# Elastic Constant Matrix: (Units=GPa)
#
#
# Indices 1 2 3 4 5 6 
#
# 1 158.3893 4.8962 24.6452 0.0000 -8.7142 0.0000
# 2 4.8962 60.1569 3.7386 0.0000 -1.7853 0.0000
# 3 24.6452 3.7386 51.4116 0.0000 -21.3166 0.0000
# 4 0.0000 0.0000 0.0000 19.3993 0.0000 5.4255
# 5 -8.7142 -1.7853 -21.3166 0.0000 51.7493 0.0000
# 6 0.0000 0.0000 0.0000 5.4255 0.0000 32.4575
#
#
#
# Elastic Compliance Matrix: (Units=1/GPa)
#
#
# Indices 1 2 3 4 5 6 
#
# 1 0.006832 -0.000355 -0.003350 0.000000 -0.000241 0.000000
# 2 -0.000355 0.016717 -0.001002 0.000000 0.000104 0.000000
# 3 -0.003350 -0.001002 0.025182 0.000000 0.009774 0.000000
# 4 0.000000 0.000000 0.000000 0.054076 0.000000 -0.009039
# 5 -0.000241 0.000104 0.009774 0.000000 0.023313 0.000000
# 6 0.000000 0.000000 0.000000 -0.009039 0.000000 0.032320
#
#
# Mechanical properties :
#
#
# Convention : Reuss Voigt Hill
#
# Bulk Modulus (GPa) = 25.43353 37.39087 31.41220
# Shear Modulus (GPa) = 27.63011 36.49974 32.06492
#
# Velocity S-wave (km/s) = 3.26617 3.75399 3.51855
# Velocity P-wave (km/s) = 4.90343 5.76424 5.35117
#
# Compressibility (1/GPa) = 0.03931817
#
# Stress axis : x y z
#
# Youngs Moduli (GPa) = 146.36066 59.81768 39.71061
#
# Poissons Ratio (x) = 0.02124 0.13301
# Poissons Ratio (y) = 0.05197 0.03980
# Poissons Ratio (z) = 0.49024 0.05995
#
# Static dielectric constant tensor:
#      x y z
#    x 2.170620 0.000000 -0.002620 
#    y 0.000000 2.052070 0.000000 
#    z -0.002620 0.000000 2.111320 
# 
# From -- ./inp_files/16197.got.cif
#   From: 2010.05.17/outbox.cif.g08.bks.cpg/sg9_9_cif.got.tgz:16197.got - 2010.06.03 20:04:27.
