data_PCOD9135580
_publ_section_title
;
Structure prediction by ZEFSAII (Michael W. Deem and Ramdas Pophale) SiO2 
 PCOD9135580
Probable space group: C C
;
_chemical_formula_sum "Si O2"
_cell_formula_units_Z 32
_cell_length_a 25.309311
_cell_length_b 8.826391
_cell_length_c 14.832032
_cell_angle_alpha 90.000000
_cell_angle_beta 22.404941
_cell_angle_gamma 90.000000
_cell_volume 1262.874465
_symmetry_space_group_name_H-M "C C"
_symmetry_group_IT_number 9
_symmetry_cell_setting 'monoclinic'
loop_
_space_group_symop_operation_xyz
x,y,z
x,-y,1/2+z
1/2+x,1/2+y,z
1/2+x,1/2-y,1/2+z
loop_
_atom_site_type_symbol
_atom_site_label
_atom_site_fract_x
_atom_site_fract_y
_atom_site_fract_z
Si Si1 0.643300 0.458472 0.504790
Si Si2 0.657070 0.028835 0.848254
Si Si3 0.800260 0.767975 0.561872
Si Si4 0.894956 0.269319 0.440991
Si Si5 0.158685 0.015324 0.267388
Si Si6 0.366162 0.364706 0.267289
Si Si7 0.081257 0.309403 0.642510
Si Si8 0.926995 0.447607 0.575679
O O1 0.531617 0.325540 0.696649
O O2 0.656031 0.493698 0.379216
O O3 0.608312 0.627614 0.598794
O O4 0.801850 0.433657 0.286684
O O5 0.788172 0.138870 0.638372
O O6 0.715821 0.862407 0.767944
O O7 0.569240 0.107078 0.064455
O O8 0.573591 0.009161 0.886799
O O9 0.703743 0.648283 0.662412
O O10 0.864301 0.870827 0.379443
O O11 0.923173 0.685899 0.421895
O O12 0.787627 0.368331 0.546656
O O13 0.933668 0.373916 0.465493
O O14 0.997086 0.057488 0.508949
O O15 0.209470 0.397978 0.483747
O O16 0.388358 0.194259 0.199932
#
# Coordination Sequence:
#
# PCOD9135580 Si02
#       8
#     4   4   4   4   4   4   4   4
#     4  10  20  41  67  97 136 169 219 275 326 401
#     4  12  21  43  67  96 132 179 221 271 332 395
#     4  12  26  41  69  99 132 177 226 271 334 394
#     4  11  20  40  73  95 130 183 215 269 345 392
#     4  11  23  43  64 100 136 172 221 279 324 396
#     4  11  21  43  65  94 134 168 216 279 330 390
#     4  11  22  42  69  95 129 175 221 274 335 393
#     4  10  21  39  68  96 133 171 223 274 328 393
#
# _framework density 25.339017999999999
#
# number of rings (size 3 to 8) (size 9 to 14) (size 15 to 20)
#    0.000    1.000    8.750    0.000    0.000    6.000 
#    0.000    2.500    0.000    0.000    0.000    0.000 
#    0.000    0.000    0.000    0.000    0.000    0.000 
#
# Total GULP energy -89185.761563 kJ/mol
# GULP energy per Si atom -5574.110098 kJ/mol
# Density = 2.528135 g / cm^3
# Si number density = 25.339018 Si / 1000 Ang^3
#
#
#
# Elastic Constant Matrix: (Units=GPa)
#
#
# Indices 1 2 3 4 5 6 
#
# 1 58.0305 7.1455 34.1160 0.0000 -36.1187 0.0000
# 2 7.1455 105.9490 69.4720 0.0000 -3.0957 0.0000
# 3 34.1160 69.4720 155.1790 0.0000 -36.7919 0.0000
# 4 0.0000 0.0000 0.0000 57.0636 0.0000 0.4173
# 5 -36.1187 -3.0957 -36.7919 0.0000 47.5673 0.0000
# 6 0.0000 0.0000 0.0000 0.4173 0.0000 16.7666
#
#
#
# Elastic Compliance Matrix: (Units=1/GPa)
#
#
# Indices 1 2 3 4 5 6 
#
# 1 0.033036 -0.000717 -0.001231 0.000000 0.024085 0.000000
# 2 -0.000717 0.014252 -0.007509 0.000000 -0.005425 0.000000
# 3 -0.001231 -0.007509 0.011926 0.000000 0.007801 0.000000
# 4 0.000000 0.000000 0.000000 0.017528 0.000000 -0.000436
# 5 0.024085 -0.005425 0.007801 0.000000 0.044992 0.000000
# 6 0.000000 0.000000 0.000000 -0.000436 0.000000 0.059653
#
#
# Mechanical properties :
#
#
# Convention : Reuss Voigt Hill
#
# Bulk Modulus (GPa) = 24.81449 60.06950 42.44200
# Shear Modulus (GPa) = 23.39352 38.17449 30.78400
#
# Velocity S-wave (km/s) = 3.04175 3.88564 3.48930
# Velocity P-wave (km/s) = 4.70644 6.62486 5.74627
#
# Compressibility (1/GPa) = 0.04029903
#
# Stress axis : x y z
#
# Youngs Moduli (GPa) = 30.27046 70.16460 83.84898
#
# Poissons Ratio (x) = 0.05029 0.10326
# Poissons Ratio (y) = 0.02170 0.62964
# Poissons Ratio (z) = 0.03728 0.52688
#
# Static dielectric constant tensor:
#      x y z
#    x 2.079800 0.000000 -0.050700 
#    y 0.000000 2.094230 0.000000 
#    z -0.050700 0.000000 2.091800 
# 
# From -- ./inp_files/31843.got.cif
#   From: 2010.05.17/outbox.cif.g08.bks.cpg/sg9_16_cif.got.tgz:31843.got - 2010.06.03 20:04:27.
