data_PCOD9135337
_publ_section_title
;
Structure prediction by ZEFSAII (Michael W. Deem and Ramdas Pophale) SiO2 
 PCOD9135337
Probable space group: C C
;
_chemical_formula_sum "Si O2"
_cell_formula_units_Z 32
_cell_length_a 16.393586
_cell_length_b 6.865740
_cell_length_c 13.771462
_cell_angle_alpha 90.000000
_cell_angle_beta 122.715752
_cell_angle_gamma 90.000000
_cell_volume 1304.140475
_symmetry_space_group_name_H-M "C C"
_symmetry_group_IT_number 9
_symmetry_cell_setting 'monoclinic'
loop_
_space_group_symop_operation_xyz
x,y,z
x,-y,1/2+z
1/2+x,1/2+y,z
1/2+x,1/2-y,1/2+z
loop_
_atom_site_type_symbol
_atom_site_label
_atom_site_fract_x
_atom_site_fract_y
_atom_site_fract_z
Si Si1 0.768110 0.434780 0.699040
Si Si2 0.596693 0.062322 0.684315
Si Si3 0.439589 0.999887 0.203229
Si Si4 0.545370 0.087325 0.960386
Si Si5 0.182185 0.926406 0.969254
Si Si6 0.803344 0.192627 0.898421
Si Si7 0.161268 0.155705 0.788706
Si Si8 0.379388 0.279284 0.992315
O O1 0.847617 0.580513 0.704211
O O2 0.711408 0.402101 0.562322
O O3 0.829460 0.297645 0.812225
O O4 0.685862 0.524285 0.712965
O O5 0.497480 0.138402 0.666294
O O6 0.592799 0.062450 0.566948
O O7 0.598594 0.834312 0.714711
O O8 0.695016 0.128340 0.796077
O O9 0.514553 0.018285 0.341315
O O10 0.403277 0.184416 0.113995
O O11 0.623483 0.253485 0.982678
O O12 0.455409 0.185162 0.963539
O O13 0.274696 0.835807 0.968771
O O14 0.117352 0.026216 0.844873
O O15 0.871123 0.013966 0.974026
O O16 0.268946 0.220885 0.892626
#
# Coordination Sequence:
#
# PCOD9135337 Si02
#       8
#     4   4   4   4   4   4   4   4
#     4  11  22  40  65  94 130 175 218 270 340 392
#     4  10  22  39  63  97 130 170 222 271 328 399
#     4  11  22  40  65  98 132 175 213 278 339 385
#     4  11  22  39  67  94 134 175 215 273 336 392
#     4  11  22  41  66  95 130 177 219 270 339 397
#     4  10  24  42  66  99 128 175 227 272 328 402
#     4  10  20  39  64  91 132 175 219 272 328 395
#     4  10  22  42  64  94 136 170 227 278 322 396
#
# _framework density 24.537234000000002
#
# number of rings (size 3 to 8) (size 9 to 14) (size 15 to 20)
#    0.000    1.500    5.000    0.000    0.000    3.000 
#    0.000    3.750    0.000    0.000    0.000    0.000 
#    0.000    0.000    0.000    0.000    0.000    0.000 
#
# Total GULP energy -89070.674450 kJ/mol
# GULP energy per Si atom -5566.917153 kJ/mol
# Density = 2.448139 g / cm^3
# Si number density = 24.537234 Si / 1000 Ang^3
#
#
#
# Elastic Constant Matrix: (Units=GPa)
#
#
# Indices 1 2 3 4 5 6 
#
# 1 93.6905 18.0970 22.4507 0.0000 -10.9087 0.0000
# 2 18.0970 79.7330 45.0735 0.0000 -9.3882 0.0000
# 3 22.4507 45.0735 170.6025 0.0000 -29.2158 0.0000
# 4 0.0000 0.0000 0.0000 42.0013 0.0000 2.2341
# 5 -10.9087 -9.3882 -29.2158 0.0000 39.9412 0.0000
# 6 0.0000 0.0000 0.0000 2.2341 0.0000 14.9778
#
#
#
# Elastic Compliance Matrix: (Units=1/GPa)
#
#
# Indices 1 2 3 4 5 6 
#
# 1 0.011462 -0.002001 -0.000599 0.000000 0.002222 0.000000
# 2 -0.002001 0.015111 -0.003675 0.000000 0.000317 0.000000
# 3 -0.000599 -0.003675 0.007700 0.000000 0.004605 0.000000
# 4 0.000000 0.000000 0.000000 0.023999 0.000000 -0.003580
# 5 0.002222 0.000317 0.004605 0.000000 0.029087 0.000000
# 6 0.000000 0.000000 0.000000 -0.003580 0.000000 0.067300
#
#
# Mechanical properties :
#
#
# Convention : Reuss Voigt Hill
#
# Bulk Modulus (GPa) = 46.03447 57.25204 51.64325
# Shear Modulus (GPa) = 28.66165 36.61104 32.63634
#
# Velocity S-wave (km/s) = 3.42144 3.86691 3.65097
# Velocity P-wave (km/s) = 5.86601 6.58185 6.23421
#
# Compressibility (1/GPa) = 0.02172285
#
# Stress axis : x y z
#
# Youngs Moduli (GPa) = 87.24270 66.17831 129.87283
#
# Poissons Ratio (x) = 0.13244 0.07781
# Poissons Ratio (y) = 0.17460 0.47723
# Poissons Ratio (z) = 0.05227 0.24318
#
# Static dielectric constant tensor:
#      x y z
#    x 2.020400 0.000000 0.019000 
#    y 0.000000 2.034930 0.000000 
#    z 0.019000 0.000000 2.009260 
# 
# From -- ./inp_files/19078.got.cif
#   From: 2010.05.17/outbox.cif.g08.bks.cpg/sg9_10_cif.got.tgz:19078.got - 2010.06.03 20:04:27.
