data_PCOD9135886
_publ_section_title
;
Structure prediction by ZEFSAII (Michael W. Deem and Ramdas Pophale) SiO2 
 PCOD9135886
Probable space group: C C
;
_chemical_formula_sum "Si O2"
_cell_formula_units_Z 28
_cell_length_a 6.084607
_cell_length_b 21.502013
_cell_length_c 11.859528
_cell_angle_alpha 90.000000
_cell_angle_beta 123.031130
_cell_angle_gamma 90.000000
_cell_volume 1300.819785
_symmetry_space_group_name_H-M "C C"
_symmetry_group_IT_number 9
_symmetry_cell_setting 'monoclinic'
loop_
_space_group_symop_operation_xyz
x,y,z
x,-y,1/2+z
1/2+x,1/2+y,z
1/2+x,1/2-y,1/2+z
loop_
_atom_site_type_symbol
_atom_site_label
_atom_site_fract_x
_atom_site_fract_y
_atom_site_fract_z
Si Si1 0.688490 0.881271 0.002680
Si Si2 0.229391 0.767253 0.243842
Si Si3 0.241339 0.121087 0.065510
Si Si4 0.677306 0.599747 0.784078
Si Si5 0.852471 0.864263 0.799912
Si Si6 0.162909 0.749949 0.486268
Si Si7 0.719705 0.457049 0.773954
O O1 0.542411 0.815892 0.986068
O O2 0.876578 0.894687 0.158889
O O3 0.859489 0.870139 0.937031
O O4 0.484186 0.932528 0.907190
O O5 0.320317 0.839399 0.269632
O O6 0.418214 0.707429 0.282277
O O7 0.119648 0.760455 0.341692
O O8 0.976699 0.759217 0.093684
O O9 0.547932 0.130711 0.178744
O O10 0.096270 0.187833 0.035508
O O11 0.159087 0.071188 0.134035
O O12 0.207678 0.102435 0.926923
O O13 0.750857 0.530410 0.770198
O O14 0.000838 0.922750 0.788637
#
# Coordination Sequence:
#
# PCOD9135886 Si02
#       7
#     4   4   4   4   4   4   4
#     4   9  20  39  59  84 115 154 191 243 292 353
#     4   8  15  32  57  83 104 148 187 231 280 341
#     4   9  20  39  59  84 115 154 191 243 292 353
#     4  10  21  36  61  85 118 160 195 235 301 357
#     4   9  19  38  64  84 115 149 200 240 292 346
#     4   8  14  32  60  76 104 144 188 228 286 332
#     4  11  23  36  60  86 121 155 192 244 299 346
#
# _framework density 21.524887
#
# number of rings (size 3 to 8) (size 9 to 14) (size 15 to 20)
#    0.000    2.857    0.000    0.857    4.000    0.000 
#    0.000   10.000    0.000    3.429    0.000    0.000 
#    0.000    0.000    0.000    0.000    0.000    0.000 
#
# Total GULP energy -77952.008406 kJ/mol
# GULP energy per Si atom -5568.000600 kJ/mol
# Density = 2.147590 g / cm^3
# Si number density = 21.524887 Si / 1000 Ang^3
#
#
#
# Elastic Constant Matrix: (Units=GPa)
#
#
# Indices 1 2 3 4 5 6 
#
# 1 8.7029 -3.3213 -3.4445 0.0000 -1.4863 0.0000
# 2 -3.3213 121.4974 -22.9421 0.0000 -1.7718 0.0000
# 3 -3.4445 -22.9421 113.5721 0.0000 -2.6461 0.0000
# 4 0.0000 0.0000 0.0000 27.4792 0.0000 -1.7283
# 5 -1.4863 -1.7718 -2.6461 0.0000 14.6189 0.0000
# 6 0.0000 0.0000 0.0000 -1.7283 0.0000 29.1814
#
#
#
# Elastic Compliance Matrix: (Units=1/GPa)
#
#
# Indices 1 2 3 4 5 6 
#
# 1 0.120864 0.004425 0.004879 0.000000 0.013708 0.000000
# 2 0.004425 0.008746 0.001944 0.000000 0.001862 0.000000
# 3 0.004879 0.001944 0.009402 0.000000 0.002434 0.000000
# 4 0.000000 0.000000 0.000000 0.036527 0.000000 0.002163
# 5 0.013708 0.001862 0.002434 0.000000 0.070464 0.000000
# 6 0.000000 0.000000 0.000000 0.002163 0.000000 0.034397
#
#
# Mechanical properties :
#
#
# Convention : Reuss Voigt Hill
#
# Bulk Modulus (GPa) = 6.19158 20.48407 13.33783
# Shear Modulus (GPa) = 16.03899 32.48793 24.26346
#
# Velocity S-wave (km/s) = 2.73268 3.88921 3.36106
# Velocity P-wave (km/s) = 3.58322 5.45024 4.61219
#
# Compressibility (1/GPa) = 0.16150957
#
# Stress axis : x y z
#
# Youngs Moduli (GPa) = 8.27373 114.33941 106.35575
#
# Poissons Ratio (x) = -0.50598 -0.51890
# Poissons Ratio (y) = -0.03661 -0.20679
# Poissons Ratio (z) = -0.04037 -0.22231
#
# Static dielectric constant tensor:
#      x y z
#    x 1.791160 0.000000 -0.002380 
#    y 0.000000 1.727820 0.000000 
#    z -0.002380 0.000000 1.737860 
# 
# From -- ./inp_files/13265.got.cif
#   From: 2010.05.17/outbox.cif.g08.bks.cpg/sg9_7_cif.got.tgz:13265.got - 2010.06.03 20:04:27.
