data_PCOD9135398
_publ_section_title
;
Structure prediction by ZEFSAII (Michael W. Deem and Ramdas Pophale) SiO2 
 PCOD9135398
Probable space group: C C
;
_chemical_formula_sum "Si O2"
_cell_formula_units_Z 24
_cell_length_a 10.762089
_cell_length_b 10.563851
_cell_length_c 17.543903
_cell_angle_alpha 90.000000
_cell_angle_beta 27.416782
_cell_angle_gamma 90.000000
_cell_volume 918.410396
_symmetry_space_group_name_H-M "C C"
_symmetry_group_IT_number 9
_symmetry_cell_setting 'monoclinic'
loop_
_space_group_symop_operation_xyz
x,y,z
x,-y,1/2+z
1/2+x,1/2+y,z
1/2+x,1/2-y,1/2+z
loop_
_atom_site_type_symbol
_atom_site_label
_atom_site_fract_x
_atom_site_fract_y
_atom_site_fract_z
Si Si1 0.309400 0.741391 0.483250
Si Si2 0.221446 0.402229 0.175692
Si Si3 0.250230 0.378699 0.434934
Si Si4 0.376002 0.559694 0.231583
Si Si5 0.277282 0.214719 0.692530
Si Si6 0.486179 0.138686 0.235251
O O1 0.357200 0.642956 0.524039
O O2 0.566335 0.784866 0.297240
O O3 0.160823 0.871056 0.594062
O O4 0.078934 0.684288 0.553288
O O5 0.391278 0.469342 0.149225
O O6 0.251079 0.708834 0.127571
O O7 0.994194 0.502342 0.270319
O O8 0.247700 0.477827 0.368016
O O9 0.270479 0.239806 0.384312
O O10 0.033122 0.376931 0.620098
O O11 0.200395 0.678105 0.297247
O O12 0.049136 0.109063 0.811043
#
# Coordination Sequence:
#
# PCOD9135398 Si02
#       6
#     4   4   4   4   4   4
#     4  10  24  42  69  93 138 177 214 285 323 395
#     4  11  24  45  65 103 135 174 227 271 337 394
#     4  10  20  39  70  95 126 178 214 269 335 389
#     4   9  22  43  67  95 141 165 223 276 323 402
#     4   7  20  38  64  94 129 164 214 276 312 385
#     4   9  22  39  67  98 129 166 230 263 328 399
#
# _framework density 26.132107999999999
#
# number of rings (size 3 to 8) (size 9 to 14) (size 15 to 20)
#    2.000    0.667    0.000    0.000    7.000    1.333 
#    3.000    1.667    0.000    0.000    0.000    0.000 
#    0.000    0.000    0.000    0.000    0.000    0.000 
#
# Total GULP energy -66985.874188 kJ/mol
# GULP energy per Si atom -5582.156182 kJ/mol
# Density = 2.607263 g / cm^3
# Si number density = 26.132108 Si / 1000 Ang^3
#
#
#
# Elastic Constant Matrix: (Units=GPa)
#
#
# Indices 1 2 3 4 5 6 
#
# 1 94.0118 31.4196 18.8090 -0.0044 12.3281 0.0020
# 2 31.4196 97.8012 52.8950 -0.0044 30.0927 0.0019
# 3 18.8090 52.8950 96.7005 -0.0169 34.4466 0.0085
# 4 -0.0044 -0.0044 -0.0169 53.5413 0.0077 16.4818
# 5 12.3281 30.0927 34.4466 0.0077 38.4239 -0.0026
# 6 0.0020 0.0019 0.0085 16.4818 -0.0026 24.1281
#
#
#
# Elastic Compliance Matrix: (Units=1/GPa)
#
#
# Indices 1 2 3 4 5 6 
#
# 1 0.011951 -0.003492 -0.000033 0.000001 -0.001069 -0.000002
# 2 -0.003492 0.016639 -0.006140 0.000000 -0.006406 0.000000
# 3 -0.000033 -0.006140 0.017615 0.000011 -0.010972 -0.000014
# 4 0.000001 0.000000 0.000011 0.023650 -0.000016 -0.016156
# 5 -0.001069 -0.006406 -0.010972 -0.000016 0.041222 0.000020
# 6 -0.000002 0.000000 -0.000014 -0.016156 0.000020 0.052481
#
#
# Mechanical properties :
#
#
# Convention : Reuss Voigt Hill
#
# Bulk Modulus (GPa) = 37.21204 54.97342 46.09273
# Shear Modulus (GPa) = 26.06242 35.57797 30.82020
#
# Velocity S-wave (km/s) = 3.16148 3.69381 3.43796
# Velocity P-wave (km/s) = 5.25333 6.26695 5.78240
#
# Compressibility (1/GPa) = 0.02687302
#
# Stress axis : x y z
#
# Youngs Moduli (GPa) = 83.67483 60.10106 56.77061
#
# Poissons Ratio (x) = 0.20989 0.00189
# Poissons Ratio (y) = 0.29222 0.34858
# Poissons Ratio (z) = 0.00279 0.36902
#
# Static dielectric constant tensor:
#      x y z
#    x 2.104580 0.000000 -0.036680 
#    y 0.000000 2.053570 0.000000 
#    z -0.036680 0.000000 1.996510 
# 
# From -- ./inp_files/30599.got.cif
#   From: 2010.05.17/outbox.cif.g08.bks.cpg/sg9_16_cif.got.tgz:30599.got - 2010.06.03 20:04:27.
