data_PCOD9135389
_publ_section_title
;
Structure prediction by ZEFSAII (Michael W. Deem and Ramdas Pophale) SiO2 
 PCOD9135389
Probable space group: C C
;
_chemical_formula_sum "Si O2"
_cell_formula_units_Z 32
_cell_length_a 22.669720
_cell_length_b 8.240965
_cell_length_c 9.658007
_cell_angle_alpha 90.000000
_cell_angle_beta 59.196396
_cell_angle_gamma 90.000000
_cell_volume 1549.773904
_symmetry_space_group_name_H-M "C C"
_symmetry_group_IT_number 9
_symmetry_cell_setting 'monoclinic'
loop_
_space_group_symop_operation_xyz
x,y,z
x,-y,1/2+z
1/2+x,1/2+y,z
1/2+x,1/2-y,1/2+z
loop_
_atom_site_type_symbol
_atom_site_label
_atom_site_fract_x
_atom_site_fract_y
_atom_site_fract_z
Si Si1 0.975920 0.865435 0.307430
Si Si2 0.417758 0.560994 0.608334
Si Si3 0.695004 0.944007 0.152148
Si Si4 0.845750 0.635663 0.507273
Si Si5 0.670302 0.382214 0.815206
Si Si6 0.627667 0.303907 0.182312
Si Si7 0.825625 0.623960 0.220459
Si Si8 0.782894 0.887716 0.772764
O O1 0.977843 0.914231 0.145751
O O2 0.910389 0.748466 0.397490
O O3 0.045145 0.791937 0.282664
O O4 0.952704 0.019778 0.423106
O O5 0.366791 0.710951 0.664289
O O6 0.362073 0.423415 0.718224
O O7 0.652197 0.785698 0.254125
O O8 0.658603 0.121437 0.171535
O O9 0.749463 0.982159 0.208576
O O10 0.735678 0.891034 0.964574
O O11 0.816623 0.582479 0.393495
O O12 0.871456 0.498766 0.578619
O O13 0.789602 0.731293 0.666404
O O14 0.648233 0.548627 0.763212
O O15 0.753077 0.379156 0.730510
O O16 0.646051 0.362235 0.003759
#
# Coordination Sequence:
#
# PCOD9135389 Si02
#       8
#     4   4   4   4   4   4   4   4
#     4  10  23  45  62  91 128 181 220 266 322 409
#     4  10  20  39  69  89 127 165 215 276 331 387
#     4  12  24  43  67 101 139 175 218 280 341 407
#     4  10  24  38  66  96 135 170 219 282 338 404
#     4  12  26  42  72 101 134 180 220 285 343 402
#     4  12  27  48  65  99 140 185 232 266 332 409
#     4  11  21  40  63 104 132 163 221 290 348 391
#     4  11  21  41  66  99 129 167 217 275 351 389
#
# _framework density 20.648173
#
# number of rings (size 3 to 8) (size 9 to 14) (size 15 to 20)
#    0.000    1.000    2.500    5.250    5.250    1.000 
#    6.750    0.000    0.000    0.000    0.000    0.000 
#    0.000    0.000    0.000    0.000    0.000    0.000 
#
# Total GULP energy -89193.053342 kJ/mol
# GULP energy per Si atom -5574.565834 kJ/mol
# Density = 2.060118 g / cm^3
# Si number density = 20.648173 Si / 1000 Ang^3
#
#
#
# Elastic Constant Matrix: (Units=GPa)
#
#
# Indices 1 2 3 4 5 6 
#
# 1 194.3873 15.1991 120.4729 0.0000 31.5774 0.0000
# 2 15.1991 99.5530 16.3244 0.0000 14.9811 0.0000
# 3 120.4729 16.3244 190.9802 0.0000 46.4340 0.0000
# 4 0.0000 0.0000 0.0000 376.5505 0.0000 103.5481
# 5 31.5774 14.9811 46.4340 0.0000 31.5698 0.0000
# 6 0.0000 0.0000 0.0000 103.5481 0.0000 39.2215
#
#
#
# Elastic Compliance Matrix: (Units=1/GPa)
#
#
# Indices 1 2 3 4 5 6 
#
# 1 0.008475 -0.000337 -0.005130 0.000000 -0.000773 0.000000
# 2 -0.000337 0.010862 0.000709 0.000000 -0.005860 0.000000
# 3 -0.005130 0.000709 0.011279 0.000000 -0.011795 0.000000
# 4 0.000000 0.000000 0.000000 0.009692 0.000000 -0.025589
# 5 -0.000773 -0.005860 -0.011795 0.000000 0.052579 0.000000
# 6 0.000000 0.000000 0.000000 -0.025589 0.000000 0.093052
#
#
# Mechanical properties :
#
#
# Convention : Reuss Voigt Hill
#
# Bulk Modulus (GPa) = 47.39022 87.65703 67.52363
# Shear Modulus (GPa) = 24.69269 111.66330 68.17799
#
# Velocity S-wave (km/s) = 3.46190 7.36182 5.75244
# Velocity P-wave (km/s) = 6.24346 10.71479 8.76891
#
# Compressibility (1/GPa) = 0.02110140
#
# Stress axis : x y z
#
# Youngs Moduli (GPa) = 117.98834 92.06465 88.65741
#
# Poissons Ratio (x) = 0.03098 0.45479
# Poissons Ratio (y) = 0.03971 -0.06283
# Poissons Ratio (z) = 0.60525 -0.06524
#
# Static dielectric constant tensor:
#      x y z
#    x 1.718030 0.000000 -0.025200 
#    y 0.000000 0.166360 0.000000 
#    z -0.025200 0.000000 1.707570 
# 
# From -- ./inp_files/12062.got.cif
#   From: 2010.05.17/outbox.cif.g08.bks.cpg/sg9_7_cif.got.tgz:12062.got - 2010.06.03 20:04:27.
