data_PCOD9135761
_publ_section_title
;
Structure prediction by ZEFSAII (Michael W. Deem and Ramdas Pophale) SiO2 
 PCOD9135761
Probable space group: C C
;
_chemical_formula_sum "Si O2"
_cell_formula_units_Z 32
_cell_length_a 8.046075
_cell_length_b 17.244380
_cell_length_c 11.182662
_cell_angle_alpha 90.000000
_cell_angle_beta 107.301371
_cell_angle_gamma 90.000000
_cell_volume 1481.385884
_symmetry_space_group_name_H-M "C C"
_symmetry_group_IT_number 9
_symmetry_cell_setting 'monoclinic'
loop_
_space_group_symop_operation_xyz
x,y,z
x,-y,1/2+z
1/2+x,1/2+y,z
1/2+x,1/2-y,1/2+z
loop_
_atom_site_type_symbol
_atom_site_label
_atom_site_fract_x
_atom_site_fract_y
_atom_site_fract_z
Si Si1 0.607570 0.036345 0.992530
Si Si2 0.215707 0.890374 0.124618
Si Si3 0.966913 0.284187 0.060052
Si Si4 0.500518 0.820924 0.319076
Si Si5 0.315667 0.063877 0.130228
Si Si6 0.458372 0.613389 0.125202
Si Si7 0.463157 0.653559 0.389297
Si Si8 0.078450 0.631696 0.366605
O O1 0.582965 0.101318 0.885505
O O2 0.596402 0.949518 0.941693
O O3 0.448458 0.053088 0.049039
O O4 0.798557 0.054149 0.085917
O O5 0.294396 0.837634 0.247058
O O6 0.277034 0.976463 0.166512
O O7 0.322918 0.852229 0.036635
O O8 0.025703 0.884995 0.026979
O O9 0.057875 0.297977 0.954942
O O10 0.077713 0.302034 0.203842
O O11 0.895052 0.198963 0.071437
O O12 0.512295 0.744451 0.400428
O O13 0.120675 0.095585 0.073007
O O14 0.416981 0.118628 0.244293
O O15 0.527753 0.617762 0.277032
O O16 0.256142 0.644991 0.334178
#
# Coordination Sequence:
#
# PCOD9135761 Si02
#       8
#     4   4   4   4   4   4   4   4
#     4  12  23  45  67  95 137 172 227 279 335 409
#     4  10  20  44  64  95 135 178 215 277 343 388
#     4   9  21  43  63  96 131 177 214 276 338 389
#     4   9  22  40  69  94 132 180 219 279 343 394
#     4  12  25  42  68 104 131 183 226 276 346 404
#     4  11  25  43  67 101 132 176 230 275 338 398
#     4  11  23  40  70 100 134 180 227 279 335 408
#     4  12  23  43  70  97 140 176 228 279 340 404
#
# _framework density 21.601392000000001
#
# number of rings (size 3 to 8) (size 9 to 14) (size 15 to 20)
#    0.750    0.500    3.750    2.250    1.750    1.000 
#    0.000    1.250    0.000    0.000    0.000    0.000 
#    0.000    0.000    0.000    0.000    0.000    0.000 
#
# Total GULP energy -89144.256999 kJ/mol
# GULP energy per Si atom -5571.516062 kJ/mol
# Density = 2.155223 g / cm^3
# Si number density = 21.601392 Si / 1000 Ang^3
#
#
#
# Elastic Constant Matrix: (Units=GPa)
#
#
# Indices 1 2 3 4 5 6 
#
# 1 58.2980 -13.0826 -12.0322 0.0000 4.6058 0.0000
# 2 -13.0826 43.2060 -2.8502 0.0000 -0.5305 0.0000
# 3 -12.0322 -2.8502 37.5954 0.0000 9.4354 0.0000
# 4 0.0000 0.0000 0.0000 24.6093 0.0000 3.2182
# 5 4.6058 -0.5305 9.4354 0.0000 31.8730 0.0000
# 6 0.0000 0.0000 0.0000 3.2182 0.0000 24.9503
#
#
#
# Elastic Compliance Matrix: (Units=1/GPa)
#
#
# Indices 1 2 3 4 5 6 
#
# 1 0.020881 0.006821 0.008565 0.000000 -0.005440 0.000000
# 2 0.006821 0.025490 0.004598 0.000000 -0.001923 0.000000
# 3 0.008565 0.004598 0.032386 0.000000 -0.010749 0.000000
# 4 0.000000 0.000000 0.000000 0.041332 0.000000 -0.005331
# 5 -0.005440 -0.001923 -0.010749 0.000000 0.035310 0.000000
# 6 0.000000 0.000000 0.000000 -0.005331 0.000000 0.040767
#
#
# Mechanical properties :
#
#
# Convention : Reuss Voigt Hill
#
# Bulk Modulus (GPa) = 8.42272 9.24106 8.83189
# Shear Modulus (GPa) = 25.53957 27.42416 26.48186
#
# Velocity S-wave (km/s) = 3.44221 3.56695 3.50513
# Velocity P-wave (km/s) = 4.43914 4.60993 4.52534
#
# Compressibility (1/GPa) = 0.11872651
#
# Stress axis : x y z
#
# Youngs Moduli (GPa) = 47.88933 39.23103 30.87719
#
# Poissons Ratio (x) = -0.26760 -0.26447
# Poissons Ratio (y) = -0.32666 -0.14197
# Poissons Ratio (z) = -0.41018 -0.18038
#
# Static dielectric constant tensor:
#      x y z
#    x 1.861160 0.000000 0.055320 
#    y 0.000000 1.785360 0.000000 
#    z 0.055320 0.000000 1.821510 
# 
# From -- ./inp_files/15202.got.cif
#   From: 2010.05.17/outbox.cif.g08.bks.cpg/sg9_8_cif.got.tgz:15202.got - 2010.06.03 20:04:27.
