data_PCOD9135906
_publ_section_title
;
Structure prediction by ZEFSAII (Michael W. Deem and Ramdas Pophale) SiO2 
 PCOD9135906
Probable space group: C C
;
_chemical_formula_sum "Si O2"
_cell_formula_units_Z 24
_cell_length_a 7.755173
_cell_length_b 17.260813
_cell_length_c 8.623349
_cell_angle_alpha 90.000000
_cell_angle_beta 74.901805
_cell_angle_gamma 90.000000
_cell_volume 1114.480205
_symmetry_space_group_name_H-M "C C"
_symmetry_group_IT_number 9
_symmetry_cell_setting 'monoclinic'
loop_
_space_group_symop_operation_xyz
x,y,z
x,-y,1/2+z
1/2+x,1/2+y,z
1/2+x,1/2-y,1/2+z
loop_
_atom_site_type_symbol
_atom_site_label
_atom_site_fract_x
_atom_site_fract_y
_atom_site_fract_z
Si Si1 0.251110 0.814348 0.159290
Si Si2 0.545843 0.100550 0.449941
Si Si3 0.157205 0.553027 0.081323
Si Si4 0.959335 0.168610 0.982303
Si Si5 0.235802 0.263482 0.078366
Si Si6 0.524985 0.822922 0.383383
O O1 0.387636 0.827372 0.272615
O O2 0.063869 0.822240 0.293420
O O3 0.336262 0.878592 0.023584
O O4 0.306949 0.732494 0.066243
O O5 0.586713 0.073945 0.267441
O O6 0.660153 0.177408 0.466347
O O7 0.620964 0.035711 0.549346
O O8 0.358898 0.586545 0.019343
O O9 0.049382 0.601204 0.976855
O O10 0.112871 0.187420 0.075502
O O11 0.201388 0.297417 0.254320
O O12 0.439939 0.243986 0.006633
#
# Coordination Sequence:
#
# PCOD9135906 Si02
#       6
#     4   4   4   4   4   4
#     4   9  18  39  60  84 113 151 189 233 281 338
#     4  10  21  37  57  81 116 153 187 233 286 334
#     4  12  22  37  57  84 115 152 188 235 286 336
#     4   9  18  34  62  86 111 146 190 232 280 335
#     4   9  18  38  58  80 108 145 185 230 276 334
#     4   9  19  33  56  81 109 143 185 227 277 331
#
# _framework density 21.534704000000001
#
# number of rings (size 3 to 8) (size 9 to 14) (size 15 to 20)
#    0.000    2.667    0.000    6.000    0.000    4.000 
#    0.000    6.667    0.000    4.000    0.000    0.000 
#    0.000    0.000    0.000    0.000    0.000    0.000 
#
# Total GULP energy -66873.983335 kJ/mol
# GULP energy per Si atom -5572.831945 kJ/mol
# Density = 2.148569 g / cm^3
# Si number density = 21.534704 Si / 1000 Ang^3
#
#
#
# Elastic Constant Matrix: (Units=GPa)
#
#
# Indices 1 2 3 4 5 6 
#
# 1 71.3504 10.5450 30.6251 0.0000 -13.0245 0.0000
# 2 10.5450 69.4980 7.3978 0.0000 -10.8440 0.0000
# 3 30.6251 7.3978 106.3043 0.0000 -32.9401 0.0000
# 4 0.0000 0.0000 0.0000 30.7171 0.0000 1.6041
# 5 -13.0245 -10.8440 -32.9401 0.0000 39.3962 0.0000
# 6 0.0000 0.0000 0.0000 1.6041 0.0000 20.8517
#
#
#
# Elastic Compliance Matrix: (Units=1/GPa)
#
#
# Indices 1 2 3 4 5 6 
#
# 1 0.016318 -0.001811 -0.004127 0.000000 0.001446 0.000000
# 2 -0.001811 0.015244 0.000777 0.000000 0.004247 0.000000
# 3 -0.004127 0.000777 0.013747 0.000000 0.010344 0.000000
# 4 0.000000 0.000000 0.000000 0.032686 0.000000 -0.002514
# 5 0.001446 0.004247 0.010344 0.000000 0.035679 0.000000
# 6 0.000000 0.000000 0.000000 -0.002514 0.000000 0.048151
#
#
# Mechanical properties :
#
#
# Convention : Reuss Voigt Hill
#
# Bulk Modulus (GPa) = 28.58277 38.25429 33.41853
# Shear Modulus (GPa) = 27.20200 31.43199 29.31699
#
# Velocity S-wave (km/s) = 3.55797 3.82461 3.69370
# Velocity P-wave (km/s) = 5.49368 6.10787 5.80890
#
# Compressibility (1/GPa) = 0.03498612
#
# Stress axis : x y z
#
# Youngs Moduli (GPa) = 61.28071 65.60110 72.74302
#
# Poissons Ratio (x) = 0.11881 0.30022
# Poissons Ratio (y) = 0.11099 -0.05651
# Poissons Ratio (z) = 0.25292 -0.05096
#
# Static dielectric constant tensor:
#      x y z
#    x 1.860490 0.000000 -0.027530 
#    y 0.000000 1.799350 0.000000 
#    z -0.027530 0.000000 1.850700 
# 
# From -- ./inp_files/5149.got.cif
#   From: 2010.05.17/outbox.cif.g08.bks.cpg/sg9_3_cif.got.tgz:5149.got - 2010.06.03 20:04:27.
