data_PCOD9135545
_publ_section_title
;
Structure prediction by ZEFSAII (Michael W. Deem and Ramdas Pophale) SiO2 
 PCOD9135545
Probable space group: C C
;
_chemical_formula_sum "Si O2"
_cell_formula_units_Z 32
_cell_length_a 23.737298
_cell_length_b 7.211220
_cell_length_c 13.931197
_cell_angle_alpha 90.000000
_cell_angle_beta 28.600158
_cell_angle_gamma 90.000000
_cell_volume 1141.528340
_symmetry_space_group_name_H-M "C C"
_symmetry_group_IT_number 9
_symmetry_cell_setting 'monoclinic'
loop_
_space_group_symop_operation_xyz
x,y,z
x,-y,1/2+z
1/2+x,1/2+y,z
1/2+x,1/2-y,1/2+z
loop_
_atom_site_type_symbol
_atom_site_label
_atom_site_fract_x
_atom_site_fract_y
_atom_site_fract_z
Si Si1 0.415400 0.203375 0.619630
Si Si2 0.752768 0.047857 0.263628
Si Si3 0.023027 0.958856 0.608355
Si Si4 0.268581 0.487753 0.526784
Si Si5 0.421918 0.811191 0.526582
Si Si6 0.572361 0.583408 0.723901
Si Si7 0.062205 0.459276 0.675869
Si Si8 0.667567 0.374461 0.727825
O O1 0.291737 0.300393 0.783824
O O2 0.481251 0.276097 0.613375
O O3 0.485244 0.317270 0.430290
O O4 0.402952 0.984717 0.626196
O O5 0.761402 0.111768 0.140911
O O6 0.619684 0.018587 0.491623
O O7 0.825518 0.853248 0.166987
O O8 0.044358 0.920892 0.689550
O O9 0.134334 0.039892 0.380969
O O10 0.894455 0.060466 0.793847
O O11 0.161101 0.459803 0.614648
O O12 0.254414 0.704051 0.581416
O O13 0.540013 0.706099 0.384162
O O14 0.451574 0.932381 0.385391
O O15 0.559981 0.740159 0.662169
O O16 0.684259 0.530478 0.620583
#
# Coordination Sequence:
#
# PCOD9135545 Si02
#       8
#     4   4   4   4   4   4   4   4
#     4  10  21  38  68  94 128 168 222 266 324 405
#     4  12  21  45  67  92 140 170 211 290 322 395
#     4  11  19  39  67  90 128 183 207 273 348 374
#     4  11  22  38  66  95 128 174 222 266 336 396
#     4  10  21  42  65  94 131 176 216 267 337 392
#     4  10  20  41  64  91 134 174 216 274 338 389
#     4  10  23  41  66  97 134 172 224 280 329 401
#     4  10  21  40  61  91 135 167 218 280 318 396
#
# _framework density 28.032592999999999
#
# number of rings (size 3 to 8) (size 9 to 14) (size 15 to 20)
#    0.000    1.500    5.000    0.750    0.000    1.000 
#    2.250   21.250    0.000    0.000    0.000    0.000 
#    0.000    0.000    0.000    0.000    0.000    0.000 
#
# Total GULP energy -89286.231153 kJ/mol
# GULP energy per Si atom -5580.389447 kJ/mol
# Density = 2.796879 g / cm^3
# Si number density = 28.032593 Si / 1000 Ang^3
#
#
#
# Elastic Constant Matrix: (Units=GPa)
#
#
# Indices 1 2 3 4 5 6 
#
# 1 106.7481 15.4697 9.8609 -0.0002 18.4530 0.0000
# 2 15.4697 92.4975 8.2280 -0.0012 3.6443 0.0009
# 3 9.8609 8.2280 96.0188 -0.0007 19.8899 0.0005
# 4 -0.0002 -0.0012 -0.0007 36.6238 0.0005 -9.5518
# 5 18.4530 3.6443 19.8899 0.0005 27.6961 -0.0002
# 6 0.0000 0.0009 0.0005 -9.5518 -0.0002 37.0628
#
#
#
# Elastic Compliance Matrix: (Units=1/GPa)
#
#
# Indices 1 2 3 4 5 6 
#
# 1 0.010824 -0.001568 0.000557 0.000000 -0.007405 0.000000
# 2 -0.001568 0.011140 -0.000830 0.000000 0.000175 0.000000
# 3 0.000557 -0.000830 0.012315 0.000000 -0.009106 0.000000
# 4 0.000000 0.000000 0.000000 0.029272 -0.000001 0.007544
# 5 -0.007405 0.000175 -0.009106 -0.000001 0.047556 0.000000
# 6 0.000000 0.000000 0.000000 0.007544 0.000000 0.028925
#
#
# Mechanical properties :
#
#
# Convention : Reuss Voigt Hill
#
# Bulk Modulus (GPa) = 32.68340 40.26463 36.47401
# Shear Modulus (GPa) = 32.48583 37.72361 35.10472
#
# Velocity S-wave (km/s) = 3.40790 3.67237 3.54260
# Velocity P-wave (km/s) = 5.21243 5.69002 5.45645
#
# Compressibility (1/GPa) = 0.03059657
#
# Stress axis : x y z
#
# Youngs Moduli (GPa) = 92.38976 89.76445 81.20352
#
# Poissons Ratio (x) = 0.14075 -0.04521
# Poissons Ratio (y) = 0.14486 0.06738
# Poissons Ratio (z) = -0.05143 0.07449
#
# Static dielectric constant tensor:
#      x y z
#    x 2.191800 0.000000 0.037130 
#    y 0.000000 2.463450 0.000000 
#    z 0.037130 0.000000 2.340700 
# 
# From -- ./inp_files/27977.got.cif
#   From: 2010.05.17/outbox.cif.g08.bks.cpg/sg9_14_cif.got.tgz:27977.got - 2010.06.03 20:04:27.
