data_PCOD9135131
_publ_section_title
;
Structure prediction by ZEFSAII (Michael W. Deem and Ramdas Pophale) SiO2 
 PCOD9135131
Probable space group: C C
;
_chemical_formula_sum "Si O2"
_cell_formula_units_Z 32
_cell_length_a 9.487137
_cell_length_b 19.321964
_cell_length_c 12.468068
_cell_angle_alpha 90.000000
_cell_angle_beta 45.720679
_cell_angle_gamma 90.000000
_cell_volume 1636.308234
_symmetry_space_group_name_H-M "C C"
_symmetry_group_IT_number 9
_symmetry_cell_setting 'monoclinic'
loop_
_space_group_symop_operation_xyz
x,y,z
x,-y,1/2+z
1/2+x,1/2+y,z
1/2+x,1/2-y,1/2+z
loop_
_atom_site_type_symbol
_atom_site_label
_atom_site_fract_x
_atom_site_fract_y
_atom_site_fract_z
Si Si1 0.883130 0.507789 0.661020
Si Si2 0.083354 0.277253 0.607578
Si Si3 0.200931 0.372682 0.962288
Si Si4 0.852439 0.841658 0.104537
Si Si5 0.995315 0.006759 0.248550
Si Si6 0.211465 0.055669 0.453235
Si Si7 0.441311 0.177844 0.416812
Si Si8 0.143632 0.400941 0.409290
O O1 0.655768 0.514957 0.750754
O O2 0.867743 0.471463 0.784740
O O3 0.023772 0.574261 0.588674
O O4 0.968452 0.453584 0.528508
O O5 0.281193 0.235520 0.530691
O O6 0.126149 0.337498 0.500144
O O7 0.935728 0.223863 0.626191
O O8 0.000178 0.306659 0.762800
O O9 0.381631 0.422309 0.831527
O O10 0.117964 0.328491 0.907139
O O11 0.270713 0.330052 0.029026
O O12 0.680604 0.874617 0.269433
O O13 0.037694 0.895184 0.998426
O O14 0.836374 0.945802 0.332048
O O15 0.102194 0.004383 0.076617
O O16 0.328513 0.104340 0.474060
#
# Coordination Sequence:
#
# PCOD9135131 Si02
#       8
#     4   4   4   4   4   4   4   4
#     4  11  21  36  65  95 129 162 201 256 326 375
#     4  11  22  43  67  83 120 173 219 252 310 374
#     4  11  24  40  62  98 132 160 210 266 320 368
#     4  10  22  41  62  90 127 163 213 265 301 373
#     4  10  22  39  60  96 132 155 201 260 317 381
#     4  10  20  37  64  88 125 171 201 246 320 382
#     4  11  23  41  63  92 123 169 212 260 308 375
#     4  10  22  39  65  90 118 171 213 243 314 384
#
# _framework density 19.556217
#
# number of rings (size 3 to 8) (size 9 to 14) (size 15 to 20)
#    0.000    1.500    5.000    0.000    1.750    2.000 
#    2.250    0.000    0.000    0.000    0.000    0.000 
#    0.000    0.000    0.000    0.000    0.000    0.000 
#
# Total GULP energy -89284.804013 kJ/mol
# GULP energy per Si atom -5580.300251 kJ/mol
# Density = 1.951171 g / cm^3
# Si number density = 19.556217 Si / 1000 Ang^3
#
#
#
# Elastic Constant Matrix: (Units=GPa)
#
#
# Indices 1 2 3 4 5 6 
#
# 1 110.8765 19.2896 19.9428 0.0000 15.9453 0.0000
# 2 19.2896 51.2640 26.4198 0.0000 11.1519 0.0000
# 3 19.9428 26.4198 86.3853 0.0000 0.6765 0.0000
# 4 0.0000 0.0000 0.0000 17.7297 0.0000 9.7313
# 5 15.9453 11.1519 0.6765 0.0000 21.8339 0.0000
# 6 0.0000 0.0000 0.0000 9.7313 0.0000 12.5195
#
#
#
# Elastic Compliance Matrix: (Units=1/GPa)
#
#
# Indices 1 2 3 4 5 6 
#
# 1 0.010625 -0.001486 -0.001944 0.000000 -0.006940 0.000000
# 2 -0.001486 0.026736 -0.007737 0.000000 -0.012330 0.000000
# 3 -0.001944 -0.007737 0.014353 0.000000 0.004927 0.000000
# 4 0.000000 0.000000 0.000000 0.098371 0.000000 -0.076464
# 5 -0.006940 -0.012330 0.004927 0.000000 0.057014 0.000000
# 6 0.000000 0.000000 0.000000 -0.076464 0.000000 0.139311
#
#
# Mechanical properties :
#
#
# Convention : Reuss Voigt Hill
#
# Bulk Modulus (GPa) = 34.03822 42.20335 38.12079
# Shear Modulus (GPa) = 13.20871 22.60819 17.90845
#
# Velocity S-wave (km/s) = 2.60171 3.40378 3.02941
# Velocity P-wave (km/s) = 5.14473 6.08892 5.63663
#
# Compressibility (1/GPa) = 0.02937874
#
# Stress axis : x y z
#
# Youngs Moduli (GPa) = 94.11427 37.40276 69.67406
#
# Poissons Ratio (x) = 0.05560 0.13545
# Poissons Ratio (y) = 0.13990 0.53908
# Poissons Ratio (z) = 0.18296 0.28939
#
# Static dielectric constant tensor:
#      x y z
#    x 1.706620 0.000000 0.001030 
#    y 0.000000 1.678070 0.000000 
#    z 0.001030 0.000000 1.714750 
# 
# From -- ./inp_files/5605.got.cif
#   From: 2010.05.17/outbox.cif.g08.bks.cpg/sg9_3_cif.got.tgz:5605.got - 2010.06.03 20:04:27.
