data_PCOD9135397
_publ_section_title
;
Structure prediction by ZEFSAII (Michael W. Deem and Ramdas Pophale) SiO2 
 PCOD9135397
Probable space group: C C
;
_chemical_formula_sum "Si O2"
_cell_formula_units_Z 32
_cell_length_a 5.368691
_cell_length_b 18.461343
_cell_length_c 16.045032
_cell_angle_alpha 90.000000
_cell_angle_beta 104.072102
_cell_angle_gamma 90.000000
_cell_volume 1542.551871
_symmetry_space_group_name_H-M "C C"
_symmetry_group_IT_number 9
_symmetry_cell_setting 'monoclinic'
loop_
_space_group_symop_operation_xyz
x,y,z
x,-y,1/2+z
1/2+x,1/2+y,z
1/2+x,1/2-y,1/2+z
loop_
_atom_site_type_symbol
_atom_site_label
_atom_site_fract_x
_atom_site_fract_y
_atom_site_fract_z
Si Si1 0.894070 0.093111 0.225210
Si Si2 0.567913 0.310427 0.030477
Si Si3 0.771251 0.781926 0.841835
Si Si4 0.323296 0.113657 0.875605
Si Si5 0.621599 0.163440 0.630318
Si Si6 0.778196 0.311606 0.718198
Si Si7 0.045179 0.352658 0.566697
Si Si8 0.754372 0.943072 0.289651
O O1 0.841603 0.169257 0.268225
O O2 0.767510 0.098109 0.123809
O O3 0.192825 0.107031 0.237641
O O4 0.799018 0.026252 0.269086
O O5 0.364587 0.330788 0.086876
O O6 0.637621 0.224848 0.040064
O O7 0.845095 0.347527 0.063650
O O8 0.409903 0.318084 0.931923
O O9 0.841405 0.697530 0.846824
O O10 0.463623 0.785506 0.808034
O O11 0.535423 0.069882 0.840613
O O12 0.032888 0.087562 0.838784
O O13 0.391533 0.111931 0.978961
O O14 0.616454 0.239259 0.681597
O O15 0.670668 0.100192 0.700163
O O16 0.884617 0.330261 0.634712
#
# Coordination Sequence:
#
# PCOD9135397 Si02
#       8
#     4   4   4   4   4   4   4   4
#     4  11  24  43  66  97 138 178 223 268 345 404
#     4  10  22  39  69  99 126 164 231 278 331 386
#     4  10  23  41  69 100 129 178 225 289 328 403
#     4  11  25  45  70  98 132 175 231 275 335 402
#     4  11  21  42  63  96 129 172 219 277 328 401
#     4  10  20  39  70  93 133 172 227 274 333 399
#     4   9  22  40  67  97 124 173 221 276 325 401
#     4  12  27  43  66  96 139 180 217 275 341 406
#
# _framework density 20.744844000000001
#
# number of rings (size 3 to 8) (size 9 to 14) (size 15 to 20)
#    0.000    1.500    2.500    1.500    8.750    2.000 
#    4.500    0.000    0.000    0.000    0.000    0.000 
#    0.000    0.000    0.000    0.000    0.000    0.000 
#
# Total GULP energy -89119.693957 kJ/mol
# GULP energy per Si atom -5569.980872 kJ/mol
# Density = 2.069763 g / cm^3
# Si number density = 20.744844 Si / 1000 Ang^3
#
#
#
# Elastic Constant Matrix: (Units=GPa)
#
#
# Indices 1 2 3 4 5 6 
#
# 1 64.3604 22.2322 30.0111 0.0000 21.4579 0.0000
# 2 22.2322 60.9134 24.5251 0.0000 4.6211 0.0000
# 3 30.0111 24.5251 106.9433 0.0000 33.6796 0.0000
# 4 0.0000 0.0000 0.0000 14.5214 0.0000 0.7494
# 5 21.4579 4.6211 33.6796 0.0000 26.5542 0.0000
# 6 0.0000 0.0000 0.0000 0.7494 0.0000 21.1769
#
#
#
# Elastic Compliance Matrix: (Units=1/GPa)
#
#
# Indices 1 2 3 4 5 6 
#
# 1 0.024284 -0.007854 0.001225 0.000000 -0.019811 0.000000
# 2 -0.007854 0.020826 -0.005710 0.000000 0.009965 0.000000
# 3 0.001225 -0.005710 0.017176 0.000000 -0.021781 0.000000
# 4 0.000000 0.000000 0.000000 0.068990 0.000000 -0.002441
# 5 -0.019811 0.009965 -0.021781 0.000000 0.079560 0.000000
# 6 0.000000 0.000000 0.000000 -0.002441 0.000000 0.047308
#
#
# Mechanical properties :
#
#
# Convention : Reuss Voigt Hill
#
# Bulk Modulus (GPa) = 26.58923 42.86154 34.72539
# Shear Modulus (GPa) = 16.92866 22.81374 19.87120
#
# Velocity S-wave (km/s) = 2.85974 3.31982 3.09833
# Velocity P-wave (km/s) = 4.87332 5.94988 5.43831
#
# Compressibility (1/GPa) = 0.03760921
#
# Stress axis : x y z
#
# Youngs Moduli (GPa) = 41.17937 48.01621 58.22071
#
# Poissons Ratio (x) = 0.37710 -0.07134
# Poissons Ratio (y) = 0.32341 0.33246
# Poissons Ratio (z) = -0.05046 0.27419
#
# Static dielectric constant tensor:
#      x y z
#    x 2.275860 0.000000 0.006750 
#    y 0.000000 1.757830 0.000000 
#    z 0.006750 0.000000 1.720870 
# 
# From -- ./inp_files/21921.got.cif
#   From: 2010.05.17/outbox.cif.g08.bks.cpg/sg9_11_cif.got.tgz:21921.got - 2010.06.03 20:04:27.
