data_PCOD9135146
_publ_section_title
;
Structure prediction by ZEFSAII (Michael W. Deem and Ramdas Pophale) SiO2 
 PCOD9135146
Probable space group: C C
;
_chemical_formula_sum "Si O2"
_cell_formula_units_Z 20
_cell_length_a 12.857211
_cell_length_b 11.427888
_cell_length_c 5.315349
_cell_angle_alpha 90.000000
_cell_angle_beta 83.260218
_cell_angle_gamma 90.000000
_cell_volume 775.591211
_symmetry_space_group_name_H-M "C C"
_symmetry_group_IT_number 9
_symmetry_cell_setting 'monoclinic'
loop_
_space_group_symop_operation_xyz
x,y,z
x,-y,1/2+z
1/2+x,1/2+y,z
1/2+x,1/2-y,1/2+z
loop_
_atom_site_type_symbol
_atom_site_label
_atom_site_fract_x
_atom_site_fract_y
_atom_site_fract_z
Si Si1 0.801090 0.823219 0.970780
Si Si2 0.978784 0.542344 0.574882
Si Si3 0.028308 0.201541 0.249506
Si Si4 0.673811 0.134955 0.996692
Si Si5 0.712865 0.429545 0.466225
O O1 0.922110 0.850287 0.889846
O O2 0.734763 0.854199 0.740042
O O3 0.753280 0.877159 0.238974
O O4 0.785499 0.683386 0.998146
O O5 0.923966 0.513744 0.330963
O O6 0.086546 0.466727 0.528357
O O7 0.105561 0.750248 0.946159
O O8 0.998654 0.321426 0.108780
O O9 0.095013 0.119326 0.051209
O O10 0.723867 0.473481 0.179540
#
# Coordination Sequence:
#
# PCOD9135146 Si02
#       5
#     4   4   4   4   4
#     4  11  24  43  70  96 128 171 218 260 319 385
#     4  10  20  37  65  93 125 160 204 264 319 363
#     4  10  24  44  68  96 128 170 217 265 315 381
#     4  10  22  42  64  98 132 161 208 275 322 370
#     4  11  24  44  63  91 133 172 209 262 319 379
#
# _framework density 25.786784000000001
#
# number of rings (size 3 to 8) (size 9 to 14) (size 15 to 20)
#    0.000    1.600    0.000    6.000    0.000   12.800 
#    0.000   16.000    0.000    0.000    0.000    0.000 
#    0.000    0.000    0.000    0.000    0.000    0.000 
#
# Total GULP energy -56079.563140 kJ/mol
# GULP energy per Si atom -5607.956314 kJ/mol
# Density = 2.572809 g / cm^3
# Si number density = 25.786784 Si / 1000 Ang^3
#
#
#
# Elastic Constant Matrix: (Units=GPa)
#
#
# Indices 1 2 3 4 5 6 
#
# 1 137.0190 -1.0208 47.5194 0.0000 -24.2915 0.0000
# 2 -1.0208 71.1930 22.4431 0.0000 2.4907 0.0000
# 3 47.5194 22.4431 194.1178 0.0000 -8.8528 0.0000
# 4 0.0000 0.0000 0.0000 46.5010 0.0000 -7.5290
# 5 -24.2915 2.4907 -8.8528 0.0000 45.4568 0.0000
# 6 0.0000 0.0000 0.0000 -7.5290 0.0000 36.8328
#
#
#
# Elastic Compliance Matrix: (Units=1/GPa)
#
#
# Indices 1 2 3 4 5 6 
#
# 1 0.008758 0.000614 -0.002021 0.000000 0.004253 0.000000
# 2 0.000614 0.014679 -0.001886 0.000000 -0.000844 0.000000
# 3 -0.002021 -0.001886 0.005872 0.000000 0.000167 0.000000
# 4 0.000000 0.000000 0.000000 0.022241 0.000000 0.004546
# 5 0.004253 -0.000844 0.000167 0.000000 0.024350 0.000000
# 6 0.000000 0.000000 0.000000 0.004546 0.000000 0.028079
#
#
# Mechanical properties :
#
#
# Convention : Reuss Voigt Hill
#
# Bulk Modulus (GPa) = 44.00851 60.02367 52.01609
# Shear Modulus (GPa) = 42.32301 47.98399 45.15350
#
# Velocity S-wave (km/s) = 4.05565 4.31838 4.18907
# Velocity P-wave (km/s) = 6.24775 6.94204 6.60403
#
# Compressibility (1/GPa) = 0.02272288
#
# Stress axis : x y z
#
# Youngs Moduli (GPa) = 114.18604 68.12380 170.30362
#
# Poissons Ratio (x) = -0.04182 0.34416
# Poissons Ratio (y) = -0.07009 0.32117
# Poissons Ratio (z) = 0.23075 0.12847
#
# Static dielectric constant tensor:
#      x y z
#    x 2.060580 0.000000 -0.027640 
#    y 0.000000 2.028910 0.000000 
#    z -0.027640 0.000000 2.085740 
# 
# From -- ./inp_files/2305.got.cif
#   From: 2010.05.17/outbox.cif.g08.bks.cpg/sg9_2_cif.got.tgz:2305.got - 2010.06.03 20:04:27.
