data_PCOD9135697
_publ_section_title
;
Structure prediction by ZEFSAII (Michael W. Deem and Ramdas Pophale) SiO2 
 PCOD9135697
Probable space group: C C
;
_chemical_formula_sum "Si O2"
_cell_formula_units_Z 32
_cell_length_a 6.325115
_cell_length_b 22.050743
_cell_length_c 10.884396
_cell_angle_alpha 90.000000
_cell_angle_beta 116.043120
_cell_angle_gamma 90.000000
_cell_volume 1363.944221
_symmetry_space_group_name_H-M "C C"
_symmetry_group_IT_number 9
_symmetry_cell_setting 'monoclinic'
loop_
_space_group_symop_operation_xyz
x,y,z
x,-y,1/2+z
1/2+x,1/2+y,z
1/2+x,1/2-y,1/2+z
loop_
_atom_site_type_symbol
_atom_site_label
_atom_site_fract_x
_atom_site_fract_y
_atom_site_fract_z
Si Si1 0.834840 0.798406 0.675610
Si Si2 0.817905 0.683776 0.960034
Si Si3 0.773131 0.136123 0.411610
Si Si4 0.273091 0.889138 0.997958
Si Si5 0.874522 0.534756 0.296464
Si Si6 0.036649 0.099642 0.054020
Si Si7 0.532795 0.101303 0.808792
Si Si8 0.526127 0.780156 0.015691
O O1 0.566226 0.786213 0.562239
O O2 0.799155 0.813615 0.809703
O O3 0.937325 0.859951 0.641606
O O4 0.993900 0.748658 0.642863
O O5 0.752639 0.630062 0.036962
O O6 0.593999 0.727145 0.935830
O O7 0.886175 0.652091 0.848658
O O8 0.581938 0.084968 0.325329
O O9 0.717123 0.170436 0.523804
O O10 0.021691 0.105837 0.493338
O O11 0.469878 0.889791 0.151635
O O12 0.298476 0.822969 0.937420
O O13 0.294941 0.942913 0.909011
O O14 0.657525 0.541853 0.146873
O O15 0.953898 0.466251 0.322647
O O16 0.810420 0.100206 0.908567
#
# Coordination Sequence:
#
# PCOD9135697 Si02
#       8
#     4   4   4   4   4   4   4   4
#     4  10  20  42  71 100 136 185 239 287 356 438
#     4  10  22  45  68 100 137 189 233 291 361 422
#     4  11  23  43  72 101 144 188 236 297 369 422
#     4  11  26  49  66 109 145 183 246 297 360 429
#     4  11  25  45  73 102 140 193 240 298 358 432
#     4  10  22  46  69 101 137 185 238 284 357 434
#     4  11  28  43  72 105 143 187 243 302 355 426
#     4  10  24  41  71 104 144 186 235 302 358 437
#
# _framework density 23.461371
#
# number of rings (size 3 to 8) (size 9 to 14) (size 15 to 20)
#    0.000    1.500    2.500    0.750    5.250    2.000 
#    9.000    0.000    0.000    0.000    0.000    0.000 
#    0.000    0.000    0.000    0.000    0.000    0.000 
#
# Total GULP energy -89173.856513 kJ/mol
# GULP energy per Si atom -5573.366032 kJ/mol
# Density = 2.340797 g / cm^3
# Si number density = 23.461371 Si / 1000 Ang^3
#
#
#
# Elastic Constant Matrix: (Units=GPa)
#
#
# Indices 1 2 3 4 5 6 
#
# 1 130.0636 34.7697 49.2142 0.0000 -8.8935 0.0000
# 2 34.7697 90.0957 22.2944 0.0000 -3.4611 0.0000
# 3 49.2142 22.2944 103.0005 0.0000 -1.1122 0.0000
# 4 0.0000 0.0000 0.0000 17.8815 0.0000 -8.7333
# 5 -8.8935 -3.4611 -1.1122 0.0000 39.7823 0.0000
# 6 0.0000 0.0000 0.0000 -8.7333 0.0000 15.7861
#
#
#
# Elastic Compliance Matrix: (Units=1/GPa)
#
#
# Indices 1 2 3 4 5 6 
#
# 1 0.010170 -0.002804 -0.004232 0.000000 0.001911 0.000000
# 2 -0.002804 0.012537 -0.001369 0.000000 0.000426 0.000000
# 3 -0.004232 -0.001369 0.012019 0.000000 -0.000729 0.000000
# 4 0.000000 0.000000 0.000000 0.076628 0.000000 0.042393
# 5 0.001911 0.000426 -0.000729 0.000000 0.025581 0.000000
# 6 0.000000 0.000000 0.000000 0.042393 0.000000 0.086800
#
#
# Mechanical properties :
#
#
# Convention : Reuss Voigt Hill
#
# Bulk Modulus (GPa) = 55.81677 59.52403 57.67040
# Shear Modulus (GPa) = 20.28258 29.14873 24.71565
#
# Velocity S-wave (km/s) = 2.94344 3.52861 3.24923
# Velocity P-wave (km/s) = 5.94932 6.48287 6.22182
#
# Compressibility (1/GPa) = 0.01791576
#
# Stress axis : x y z
#
# Youngs Moduli (GPa) = 98.32726 79.76609 83.20102
#
# Poissons Ratio (x) = 0.22369 0.35208
# Poissons Ratio (y) = 0.27574 0.11391
# Poissons Ratio (z) = 0.41609 0.10920
#
# Static dielectric constant tensor:
#      x y z
#    x 1.917700 0.000000 0.030800 
#    y 0.000000 1.954610 0.000000 
#    z 0.030800 0.000000 1.927140 
# 
# From -- ./inp_files/13824.got.cif
#   From: 2010.05.17/outbox.cif.g08.bks.cpg/sg9_7_cif.got.tgz:13824.got - 2010.06.03 20:04:27.
