data_PCOD9135869
_publ_section_title
;
Structure prediction by ZEFSAII (Michael W. Deem and Ramdas Pophale) SiO2 
 PCOD9135869
Probable space group: C C
;
_chemical_formula_sum "Si O2"
_cell_formula_units_Z 32
_cell_length_a 13.075513
_cell_length_b 5.535152
_cell_length_c 22.644046
_cell_angle_alpha 90.000000
_cell_angle_beta 45.353075
_cell_angle_gamma 90.000000
_cell_volume 1165.969410
_symmetry_space_group_name_H-M "C C"
_symmetry_group_IT_number 9
_symmetry_cell_setting 'monoclinic'
loop_
_space_group_symop_operation_xyz
x,y,z
x,-y,1/2+z
1/2+x,1/2+y,z
1/2+x,1/2-y,1/2+z
loop_
_atom_site_type_symbol
_atom_site_label
_atom_site_fract_x
_atom_site_fract_y
_atom_site_fract_z
Si Si1 0.900520 0.499977 0.169120
Si Si2 0.752977 0.499965 0.062911
Si Si3 0.610742 0.499972 0.861970
Si Si4 0.089097 0.499968 0.941285
Si Si5 0.463206 0.500028 0.755762
Si Si6 0.523391 0.999973 0.249193
Si Si7 0.340335 0.500026 0.675689
Si Si8 0.774623 0.000031 0.483595
O O1 0.735641 0.500002 0.261523
O O2 0.914933 0.749970 0.128899
O O3 0.999762 0.499972 0.187503
O O4 0.914927 0.249984 0.128902
O O5 0.628083 0.499966 0.163358
O O6 0.917090 0.499965 0.017167
O O7 0.739050 0.749500 0.032328
O O8 0.739048 0.250431 0.032331
O O9 0.624673 0.749499 0.892553
O O10 0.448799 0.250036 0.795980
O O11 0.446630 0.499980 0.907715
O O12 0.624667 0.250429 0.892550
O O13 0.181861 0.499976 0.962440
O O14 0.363962 0.500020 0.737379
O O15 0.448793 0.750022 0.795983
O O16 0.681863 0.999975 0.212441
#
# Coordination Sequence:
#
# PCOD9135869 Si02
#       8
#     4   4   4   4   4   4   4   4
#     4  10  21  36  54  78 106 136 173 214 256 306
#     4  10  21  36  54  78 106 136 173 214 256 306
#     4  10  21  36  54  78 106 136 173 214 256 306
#     4  10  21  36  54  78 106 136 173 214 256 306
#     4  10  21  36  54  78 106 136 173 214 256 306
#     4  10  21  36  54  78 106 136 173 214 256 306
#     4  10  21  36  54  78 106 136 173 214 256 306
#     4  10  21  36  54  78 106 136 173 214 256 306
#
# _framework density 27.444973999999998
#
# number of rings (size 3 to 8) (size 9 to 14) (size 15 to 20)
#    0.000    2.000    0.000    3.000    0.000    4.000 
#    0.000    0.000    0.000    0.000    0.000    0.000 
#    0.000    0.000    0.000    0.000    0.000    0.000 
#
# Total GULP energy -89706.594383 kJ/mol
# GULP energy per Si atom -5606.662149 kJ/mol
# Density = 2.738251 g / cm^3
# Si number density = 27.444974 Si / 1000 Ang^3
#
#
#
# Elastic Constant Matrix: (Units=GPa)
#
#
# Indices 1 2 3 4 5 6 
#
# 1 229.9480 83.7216 68.0471 -0.0004 -28.9805 0.0008
# 2 83.7216 327.7786 57.1801 -0.0105 32.6190 0.0115
# 3 68.0471 57.1801 100.7607 -0.0011 -20.4557 0.0004
# 4 -0.0004 -0.0105 -0.0011 30.7662 -0.0027 8.0670
# 5 -28.9805 32.6190 -20.4557 -0.0027 52.1325 0.0001
# 6 0.0008 0.0115 0.0004 8.0670 0.0001 49.8145
#
#
#
# Elastic Compliance Matrix: (Units=1/GPa)
#
#
# Indices 1 2 3 4 5 6 
#
# 1 0.006043 -0.001403 -0.002635 0.000000 0.003203 0.000000
# 2 -0.001403 0.004254 -0.002353 0.000001 -0.004365 -0.000001
# 3 -0.002635 -0.002353 0.014169 0.000000 0.005567 0.000000
# 4 0.000000 0.000001 0.000000 0.033945 0.000001 -0.005497
# 5 0.003203 -0.004365 0.005567 0.000001 0.025878 0.000001
# 6 0.000000 -0.000001 0.000000 -0.005497 0.000001 0.020965
#
#
# Mechanical properties :
#
#
# Convention : Reuss Voigt Hill
#
# Bulk Modulus (GPa) = 85.57528 119.59832 102.58680
# Shear Modulus (GPa) = 41.00763 56.51186 48.75974
#
# Velocity S-wave (km/s) = 3.86965 4.54265 4.21959
# Velocity P-wave (km/s) = 7.15639 8.43720 7.82305
#
# Compressibility (1/GPa) = 0.01168562
#
# Stress axis : x y z
#
# Youngs Moduli (GPa) = 165.48522 235.07946 70.57542
#
# Poissons Ratio (x) = 0.32972 0.18595
# Poissons Ratio (y) = 0.23211 0.16605
# Poissons Ratio (z) = 0.43601 0.55311
#
# Static dielectric constant tensor:
#      x y z
#    x 2.084520 0.000000 -0.007680 
#    y 0.000000 2.147470 0.000000 
#    z -0.007680 0.000000 2.151340 
# 
# From -- ./inp_files/35159.got.cif
#   From: 2010.05.17/outbox.cif.g08.bks.cpg/sg9_18_cif.got.tgz:35159.got - 2010.06.03 20:04:27.
