data_PCOD9135805
_publ_section_title
;
Structure prediction by ZEFSAII (Michael W. Deem and Ramdas Pophale) SiO2 
 PCOD9135805
Probable space group: C C
;
_chemical_formula_sum "Si O2"
_cell_formula_units_Z 24
_cell_length_a 8.873763
_cell_length_b 10.915413
_cell_length_c 13.808242
_cell_angle_alpha 90.000000
_cell_angle_beta 137.769372
_cell_angle_gamma 90.000000
_cell_volume 898.940492
_symmetry_space_group_name_H-M "C C"
_symmetry_group_IT_number 9
_symmetry_cell_setting 'monoclinic'
loop_
_space_group_symop_operation_xyz
x,y,z
x,-y,1/2+z
1/2+x,1/2+y,z
1/2+x,1/2-y,1/2+z
loop_
_atom_site_type_symbol
_atom_site_label
_atom_site_fract_x
_atom_site_fract_y
_atom_site_fract_z
Si Si1 0.546420 0.176365 0.430080
Si Si2 0.737656 0.618543 0.651864
Si Si3 0.429438 0.515210 0.156903
Si Si4 0.380712 0.573946 0.347506
Si Si5 0.744206 0.168599 0.910921
Si Si6 0.402340 0.125984 0.144127
O O1 0.354934 0.214588 0.413683
O O2 0.443462 0.162804 0.275509
O O3 0.719840 0.287885 0.511754
O O4 0.697438 0.061664 0.533430
O O5 0.625368 0.557522 0.693649
O O6 0.525335 0.661304 0.486771
O O7 0.976370 0.677625 0.789451
O O8 0.812279 0.510386 0.612287
O O9 0.478235 0.532097 0.292046
O O10 0.372565 0.639517 0.071782
O O11 0.309171 0.452904 0.377034
O O12 0.142279 0.635813 0.208599
#
# Coordination Sequence:
#
# PCOD9135805 Si02
#       6
#     4   4   4   4   4   4
#     4  12  22  44  73 103 135 187 246 295 347 432
#     4  10  20  45  68 101 142 185 237 284 363 428
#     4  11  22  42  76 101 142 192 229 300 365 411
#     4  10  21  43  71 101 138 196 226 291 373 414
#     4  10  22  43  70 106 142 188 239 292 359 430
#     4  11  23  43  72  96 141 184 241 292 355 423
#
# _framework density 26.698097000000001
#
# number of rings (size 3 to 8) (size 9 to 14) (size 15 to 20)
#    0.000    1.333    8.333    1.000    0.000    2.667 
#    3.000    1.667    3.667    0.000    0.000    0.000 
#    0.000    0.000    0.000    0.000    0.000    0.000 
#
# Total GULP energy -67293.405274 kJ/mol
# GULP energy per Si atom -5607.783773 kJ/mol
# Density = 2.663733 g / cm^3
# Si number density = 26.698097 Si / 1000 Ang^3
#
#
#
# Elastic Constant Matrix: (Units=GPa)
#
#
# Indices 1 2 3 4 5 6 
#
# 1 179.3021 21.9088 79.5626 0.0001 12.8368 0.0000
# 2 21.9088 36.2150 10.8357 0.0001 5.1614 0.0000
# 3 79.5626 10.8357 123.5960 0.0003 4.4064 0.0002
# 4 0.0001 0.0001 0.0003 39.2900 0.0002 10.8118
# 5 12.8368 5.1614 4.4064 0.0002 62.2620 0.0001
# 6 0.0000 0.0000 0.0002 10.8118 0.0001 46.3015
#
#
#
# Elastic Compliance Matrix: (Units=1/GPa)
#
#
# Indices 1 2 3 4 5 6 
#
# 1 0.008283 -0.003362 -0.004999 0.000000 -0.001075 0.000000
# 2 -0.003362 0.030020 -0.000405 0.000000 -0.001767 0.000000
# 3 -0.004999 -0.000405 0.011335 0.000000 0.000262 0.000000
# 4 0.000000 0.000000 0.000000 0.027200 0.000000 -0.006351
# 5 -0.001075 -0.001767 0.000262 0.000000 0.016411 0.000000
# 6 0.000000 0.000000 0.000000 -0.006351 0.000000 0.023081
#
#
# Mechanical properties :
#
#
# Convention : Reuss Voigt Hill
#
# Bulk Modulus (GPa) = 31.14634 62.63638 46.89136
# Shear Modulus (GPa) = 34.58710 44.69110 39.63910
#
# Velocity S-wave (km/s) = 3.60320 4.09582 3.85738
# Velocity P-wave (km/s) = 5.38536 6.77345 6.11890
#
# Compressibility (1/GPa) = 0.03210650
#
# Stress axis : x y z
#
# Youngs Moduli (GPa) = 120.72554 33.31152 88.22167
#
# Poissons Ratio (x) = 0.11200 0.44103
# Poissons Ratio (y) = 0.40589 0.03569
# Poissons Ratio (z) = 0.60352 0.01348
#
# Static dielectric constant tensor:
#      x y z
#    x 2.089830 0.000000 0.056270 
#    y 0.000000 2.180570 0.000000 
#    z 0.056270 0.000000 2.038460 
# 
# From -- ./inp_files/23446.got.cif
#   From: 2010.05.17/outbox.cif.g08.bks.cpg/sg9_12_cif.got.tgz:23446.got - 2010.06.03 20:04:27.
