data_PCOD9135378
_publ_section_title
;
Structure prediction by ZEFSAII (Michael W. Deem and Ramdas Pophale) SiO2 
 PCOD9135378
Probable space group: C C
;
_chemical_formula_sum "Si O2"
_cell_formula_units_Z 24
_cell_length_a 20.731912
_cell_length_b 5.108552
_cell_length_c 8.422694
_cell_angle_alpha 90.000000
_cell_angle_beta 74.318270
_cell_angle_gamma 90.000000
_cell_volume 858.844124
_symmetry_space_group_name_H-M "C C"
_symmetry_group_IT_number 9
_symmetry_cell_setting 'monoclinic'
loop_
_space_group_symop_operation_xyz
x,y,z
x,-y,1/2+z
1/2+x,1/2+y,z
1/2+x,1/2-y,1/2+z
loop_
_atom_site_type_symbol
_atom_site_label
_atom_site_fract_x
_atom_site_fract_y
_atom_site_fract_z
Si Si1 0.790620 0.227582 0.718990
Si Si2 0.970015 0.161808 0.146185
Si Si3 0.180270 0.986950 0.118441
Si Si4 0.876109 0.171577 0.942958
Si Si5 0.163718 0.389778 0.860305
Si Si6 0.552864 0.751061 0.375255
O O1 0.752758 0.445255 0.642526
O O2 0.833728 0.328156 0.839418
O O3 0.831191 0.032497 0.575743
O O4 0.728284 0.070675 0.836699
O O5 0.007321 0.330177 0.255682
O O6 0.922646 0.993740 0.293398
O O7 0.924294 0.303476 0.043148
O O8 0.016191 0.951207 0.018739
O O9 0.116414 0.112417 0.250543
O O10 0.167502 0.686314 0.170017
O O11 0.176298 0.131107 0.954609
O O12 0.090316 0.508663 0.934053
#
# Coordination Sequence:
#
# PCOD9135378 Si02
#       6
#     4   4   4   4   4   4
#     4  10  20  39  68 103 143 182 234 294 365 430
#     4   9  19  39  72 107 146 188 234 299 357 434
#     4  11  24  40  66 100 141 193 235 300 357 429
#     4   9  18  37  71 106 141 189 231 301 351 446
#     4  11  25  41  66 101 149 192 237 300 359 429
#     4  10  22  42  69 103 142 188 239 296 361 428
#
# _framework density 27.944534000000001
#
# number of rings (size 3 to 8) (size 9 to 14) (size 15 to 20)
#    0.000    2.000    1.667    1.000    2.333    4.000 
#    0.000    3.333    0.000   70.000    0.000    0.000 
#    0.000    0.000    0.000    0.000    0.000    0.000 
#
# Total GULP energy -67156.529396 kJ/mol
# GULP energy per Si atom -5596.377450 kJ/mol
# Density = 2.788093 g / cm^3
# Si number density = 27.944534 Si / 1000 Ang^3
#
#
#
# Elastic Constant Matrix: (Units=GPa)
#
#
# Indices 1 2 3 4 5 6 
#
# 1 173.2196 27.4659 80.8952 0.0000 53.9210 0.0000
# 2 27.4659 41.0375 36.0150 0.0000 0.9770 0.0000
# 3 80.8952 36.0150 186.3542 0.0000 -3.0985 0.0000
# 4 0.0000 0.0000 0.0000 48.8055 0.0000 -12.9809
# 5 53.9210 0.9770 -3.0985 0.0000 93.1797 0.0000
# 6 0.0000 0.0000 0.0000 -12.9809 0.0000 15.3019
#
#
#
# Elastic Compliance Matrix: (Units=1/GPa)
#
#
# Indices 1 2 3 4 5 6 
#
# 1 0.009821 -0.003143 -0.003752 0.000000 -0.005775 0.000000
# 2 -0.003143 0.030374 -0.004483 0.000000 0.001351 0.000000
# 3 -0.003752 -0.004483 0.007903 0.000000 0.002481 0.000000
# 4 0.000000 0.000000 0.000000 0.026460 0.000000 0.022446
# 5 -0.005775 0.001351 0.002481 0.000000 0.014142 0.000000
# 6 0.000000 0.000000 0.000000 0.022446 0.000000 0.084393
#
#
# Mechanical properties :
#
#
# Convention : Reuss Voigt Hill
#
# Bulk Modulus (GPa) = 39.46134 76.59597 58.02866
# Shear Modulus (GPa) = 24.47432 48.53977 36.50704
#
# Velocity S-wave (km/s) = 2.96263 4.17226 3.61835
# Velocity P-wave (km/s) = 5.08477 7.11898 6.18606
#
# Compressibility (1/GPa) = 0.02534126
#
# Stress axis : x y z
#
# Youngs Moduli (GPa) = 101.81917 32.92299 126.54173
#
# Poissons Ratio (x) = 0.10348 0.47478
# Poissons Ratio (y) = 0.32002 0.56732
# Poissons Ratio (z) = 0.38202 0.14760
#
# Static dielectric constant tensor:
#      x y z
#    x 2.203650 0.000000 0.049670 
#    y 0.000000 2.282030 0.000000 
#    z 0.049670 0.000000 2.168820 
# 
# From -- ./inp_files/11125.got.cif
#   From: 2010.05.17/outbox.cif.g08.bks.cpg/sg9_6_cif.got.tgz:11125.got - 2010.06.03 20:04:27.
