data_PCOD9135074
_publ_section_title
;
Structure prediction by ZEFSAII (Michael W. Deem and Ramdas Pophale) SiO2 
 PCOD9135074
Probable space group: C C
;
_chemical_formula_sum "Si O2"
_cell_formula_units_Z 32
_cell_length_a 9.604203
_cell_length_b 13.870054
_cell_length_c 20.587393
_cell_angle_alpha 90.000000
_cell_angle_beta 141.442426
_cell_angle_gamma 90.000000
_cell_volume 1709.379431
_symmetry_space_group_name_H-M "C C"
_symmetry_group_IT_number 9
_symmetry_cell_setting 'monoclinic'
loop_
_space_group_symop_operation_xyz
x,y,z
x,-y,1/2+z
1/2+x,1/2+y,z
1/2+x,1/2-y,1/2+z
loop_
_atom_site_type_symbol
_atom_site_label
_atom_site_fract_x
_atom_site_fract_y
_atom_site_fract_z
Si Si1 0.897570 0.199506 0.995230
Si Si2 0.121161 0.526201 0.886418
Si Si3 0.475792 0.032975 0.979397
Si Si4 0.715581 0.767290 0.566117
Si Si5 0.523164 0.372583 0.328781
Si Si6 0.759866 0.154692 0.606528
Si Si7 0.282912 0.320445 0.962203
Si Si8 0.131224 0.665431 0.780094
O O1 0.858234 0.083912 0.983535
O O2 0.787043 0.226644 0.886174
O O3 0.753056 0.235627 0.002750
O O4 0.137774 0.247278 0.085128
O O5 0.166429 0.415250 0.891866
O O6 0.027044 0.584767 0.790554
O O7 0.985163 0.533872 0.903851
O O8 0.223081 0.050943 0.910397
O O9 0.630454 0.125412 0.054357
O O10 0.585077 0.934498 0.044291
O O11 0.520015 0.696725 0.515857
O O12 0.946293 0.732772 0.681454
O O13 0.454927 0.367192 0.228393
O O14 0.631909 0.271966 0.391376
O O15 0.297155 0.383455 0.288424
O O16 0.819630 0.166732 0.552825
#
# Coordination Sequence:
#
# PCOD9135074 Si02
#       8
#     4   4   4   4   4   4   4   4
#     4   9  19  37  56  81 121 147 194 243 293 352
#     4   8  19  39  55  83 113 156 185 244 295 346
#     4   9  22  39  58  85 122 149 207 247 289 355
#     4  10  20  37  60  85 114 157 192 249 297 355
#     4  11  22  39  61  88 120 159 202 249 298 359
#     4  11  21  39  61  90 116 165 193 247 306 351
#     4  10  21  39  60  88 121 149 204 250 292 358
#     4  10  20  37  59  82 117 156 197 237 304 350
#
# _framework density 18.720243
#
# number of rings (size 3 to 8) (size 9 to 14) (size 15 to 20)
#    0.750    1.500    2.500    0.000    1.750    2.000 
#    2.250    2.500    0.000    0.000    0.000    0.000 
#    0.000    0.000    0.000    0.000    0.000    0.000 
#
# Total GULP energy -89068.699431 kJ/mol
# GULP energy per Si atom -5566.793714 kJ/mol
# Density = 1.867764 g / cm^3
# Si number density = 18.720243 Si / 1000 Ang^3
#
#
#
# Elastic Constant Matrix: (Units=GPa)
#
#
# Indices 1 2 3 4 5 6 
#
# 1 30.0456 0.8846 9.6595 0.0000 -6.8088 0.0000
# 2 0.8846 41.3596 1.4573 0.0000 -6.3650 0.0000
# 3 9.6595 1.4573 60.3713 0.0000 -15.2458 0.0000
# 4 0.0000 0.0000 0.0000 3.4240 0.0000 -3.0596
# 5 -6.8088 -6.3650 -15.2458 0.0000 24.5958 0.0000
# 6 0.0000 0.0000 0.0000 -3.0596 0.0000 20.3012
#
#
#
# Elastic Compliance Matrix: (Units=1/GPa)
#
#
# Indices 1 2 3 4 5 6 
#
# 1 0.036271 0.000560 -0.003847 0.000000 0.007801 0.000000
# 2 0.000560 0.025267 0.001175 0.000000 0.007422 0.000000
# 3 -0.003847 0.001175 0.020107 0.000000 0.011702 0.000000
# 4 0.000000 0.000000 0.000000 0.337511 0.000000 0.050866
# 5 0.007801 0.007422 0.011702 0.000000 0.051991 0.000000
# 6 0.000000 0.000000 0.000000 0.050866 0.000000 0.056924
#
#
# Mechanical properties :
#
#
# Convention : Reuss Voigt Hill
#
# Bulk Modulus (GPa) = 12.91644 17.30882 15.11263
# Shear Modulus (GPa) = 8.95894 17.64919 13.30407
#
# Velocity S-wave (km/s) = 2.19000 3.07381 2.66875
# Velocity P-wave (km/s) = 3.64822 4.67588 4.19365
#
# Compressibility (1/GPa) = 0.07742069
#
# Stress axis : x y z
#
# Youngs Moduli (GPa) = 27.57035 39.57730 49.73515
#
# Poissons Ratio (x) = -0.02218 0.19132
# Poissons Ratio (y) = -0.01545 -0.05842
# Poissons Ratio (z) = 0.10606 -0.04649
#
# Static dielectric constant tensor:
#      x y z
#    x 1.656340 0.000000 -0.003150 
#    y 0.000000 1.644550 0.000000 
#    z -0.003150 0.000000 1.663470 
# 
# From -- ./inp_files/23179.got.cif
#   From: 2010.05.17/outbox.cif.g08.bks.cpg/sg9_12_cif.got.tgz:23179.got - 2010.06.03 20:04:27.
