data_PCOD9135983
_publ_section_title
;
Structure prediction by ZEFSAII (Michael W. Deem and Ramdas Pophale) SiO2 
 PCOD9135983
Probable space group: C C
;
_chemical_formula_sum "Si O2"
_cell_formula_units_Z 32
_cell_length_a 15.093564
_cell_length_b 9.720740
_cell_length_c 17.151975
_cell_angle_alpha 90.000000
_cell_angle_beta 144.617128
_cell_angle_gamma 90.000000
_cell_volume 1457.175741
_symmetry_space_group_name_H-M "C C"
_symmetry_group_IT_number 9
_symmetry_cell_setting 'monoclinic'
loop_
_space_group_symop_operation_xyz
x,y,z
x,-y,1/2+z
1/2+x,1/2+y,z
1/2+x,1/2-y,1/2+z
loop_
_atom_site_type_symbol
_atom_site_label
_atom_site_fract_x
_atom_site_fract_y
_atom_site_fract_z
Si Si1 0.033650 0.209880 0.159650
Si Si2 0.493252 0.011972 0.076850
Si Si3 0.284530 0.337311 0.752631
Si Si4 0.449947 0.607436 0.825646
Si Si5 0.667957 0.538362 0.388482
Si Si6 0.701704 0.346168 0.627940
Si Si7 0.934013 0.557846 0.861413
Si Si8 0.723077 0.203932 0.025386
O O1 0.151362 0.141666 0.303998
O O2 0.075844 0.153275 0.105936
O O3 0.043853 0.374449 0.158632
O O4 0.867306 0.174736 0.074140
O O5 0.620705 0.129345 0.172488
O O6 0.479703 0.979054 0.973832
O O7 0.324879 0.042910 0.988876
O O8 0.379820 0.478365 0.822436
O O9 0.366956 0.203216 0.844204
O O10 0.265902 0.304868 0.646919
O O11 0.518060 0.552815 0.792838
O O12 0.316988 0.718052 0.720160
O O13 0.602224 0.658960 0.978729
O O14 0.674292 0.641989 0.466563
O O15 0.810596 0.476712 0.722337
O O16 0.081366 0.599739 0.916337
#
# Coordination Sequence:
#
# PCOD9135983 Si02
#       8
#     4   4   4   4   4   4   4   4
#     4  11  21  39  68 104 134 178 236 295 341 417
#     4  10  23  40  68  99 139 177 238 291 344 409
#     4  11  22  43  70  99 141 182 233 282 355 419
#     4  12  26  46  69 103 141 189 235 285 355 420
#     4  11  22  44  70 104 135 181 242 289 345 423
#     4  12  27  43  70 104 145 184 232 292 358 418
#     4  11  22  42  69 102 140 187 223 290 357 419
#     4  10  21  37  72 101 131 176 241 288 335 419
#
# _framework density 21.960287999999998
#
# number of rings (size 3 to 8) (size 9 to 14) (size 15 to 20)
#    0.000    1.000    5.000    1.500    5.250    1.000 
#    2.250    1.250    0.000    0.000    0.000    0.000 
#    0.000    0.000    0.000    0.000    0.000    0.000 
#
# Total GULP energy -89414.246683 kJ/mol
# GULP energy per Si atom -5588.390418 kJ/mol
# Density = 2.191031 g / cm^3
# Si number density = 21.960288 Si / 1000 Ang^3
#
#
#
# Elastic Constant Matrix: (Units=GPa)
#
#
# Indices 1 2 3 4 5 6 
#
# 1 114.9818 36.8578 11.8518 0.0000 32.0484 0.0000
# 2 36.8578 92.3697 39.1879 0.0000 13.4044 0.0000
# 3 11.8518 39.1879 64.9475 0.0000 8.7105 0.0000
# 4 0.0000 0.0000 0.0000 32.9873 0.0000 5.3012
# 5 32.0484 13.4044 8.7105 0.0000 41.9196 0.0000
# 6 0.0000 0.0000 0.0000 5.3012 0.0000 34.4808
#
#
#
# Elastic Compliance Matrix: (Units=1/GPa)
#
#
# Indices 1 2 3 4 5 6 
#
# 1 0.012234 -0.004306 0.001477 0.000000 -0.008283 0.000000
# 2 -0.004306 0.016420 -0.009113 0.000000 -0.000065 0.000000
# 3 0.001477 -0.009113 0.020971 0.000000 -0.002572 0.000000
# 4 0.000000 0.000000 0.000000 0.031083 0.000000 -0.004779
# 5 -0.008283 -0.000065 -0.002572 0.000000 0.030743 0.000000
# 6 0.000000 0.000000 0.000000 -0.004779 0.000000 0.029736
#
#
# Mechanical properties :
#
#
# Convention : Reuss Voigt Hill
#
# Bulk Modulus (GPa) = 38.84997 49.78823 44.31910
# Shear Modulus (GPa) = 28.79332 34.17099 31.48215
#
# Velocity S-wave (km/s) = 3.62491 3.94894 3.79039
# Velocity P-wave (km/s) = 5.93712 6.59646 6.27546
#
# Compressibility (1/GPa) = 0.02574005
#
# Stress axis : x y z
#
# Youngs Moduli (GPa) = 81.74078 60.90194 47.68463
#
# Poissons Ratio (x) = 0.26225 -0.07041
# Poissons Ratio (y) = 0.35198 0.43454
# Poissons Ratio (z) = -0.12070 0.55499
#
# Static dielectric constant tensor:
#      x y z
#    x 1.809330 0.000000 -0.005080 
#    y 0.000000 1.832510 0.000000 
#    z -0.005080 0.000000 1.844010 
# 
# From -- ./inp_files/30613.got.cif
#   From: 2010.05.17/outbox.cif.g08.bks.cpg/sg9_16_cif.got.tgz:30613.got - 2010.06.03 20:04:27.
