data_PCOD9135749
_publ_section_title
;
Structure prediction by ZEFSAII (Michael W. Deem and Ramdas Pophale) SiO2 
 PCOD9135749
Probable space group: C C
;
_chemical_formula_sum "Si O2"
_cell_formula_units_Z 32
_cell_length_a 5.290704
_cell_length_b 24.507710
_cell_length_c 11.252064
_cell_angle_alpha 90.000000
_cell_angle_beta 69.686197
_cell_angle_gamma 90.000000
_cell_volume 1368.236232
_symmetry_space_group_name_H-M "C C"
_symmetry_group_IT_number 9
_symmetry_cell_setting 'monoclinic'
loop_
_space_group_symop_operation_xyz
x,y,z
x,-y,1/2+z
1/2+x,1/2+y,z
1/2+x,1/2-y,1/2+z
loop_
_atom_site_type_symbol
_atom_site_label
_atom_site_fract_x
_atom_site_fract_y
_atom_site_fract_z
Si Si1 0.186800 0.545384 0.037020
Si Si2 0.465468 0.669602 0.888336
Si Si3 0.742576 0.231692 0.330760
Si Si4 0.782616 0.252580 0.607245
Si Si5 0.580408 0.149082 0.171265
Si Si6 0.529449 0.923203 0.098880
Si Si7 0.301577 0.080244 0.890913
Si Si8 0.510848 0.357875 0.123697
O O1 0.074526 0.583062 0.165197
O O2 0.128472 0.481421 0.037968
O O3 0.507522 0.555615 0.971574
O O4 0.011409 0.569088 0.958357
O O5 0.753271 0.644806 0.880501
O O6 0.409715 0.636779 0.776899
O O7 0.477628 0.731955 0.851077
O O8 0.296682 0.662316 0.033292
O O9 0.989948 0.257507 0.214719
O O10 0.774270 0.242123 0.466349
O O11 0.676116 0.173400 0.281774
O O12 0.845062 0.312504 0.654333
O O13 0.005964 0.206845 0.603794
O O14 0.404464 0.939193 0.247463
O O15 0.294162 0.889553 0.070410
O O16 0.786803 0.884763 0.077127
#
# Coordination Sequence:
#
# PCOD9135749 Si02
#       8
#     4   4   4   4   4   4   4   4
#     4  11  24  43  69  97 140 172 240 280 351 411
#     4  10  20  43  71  95 136 175 240 275 339 424
#     4  12  24  42  67 102 143 185 225 289 357 418
#     4  12  25  42  68 102 143 180 233 284 356 421
#     4  11  24  42  67 103 132 187 221 294 349 420
#     4  11  23  44  69  99 132 182 235 286 345 403
#     4  10  21  40  70  98 124 188 229 290 330 415
#     4  11  23  42  71 100 134 183 231 290 343 418
#
# _framework density 23.387775999999999
#
# number of rings (size 3 to 8) (size 9 to 14) (size 15 to 20)
#    0.000    1.000    2.500    6.000    1.750    0.000 
#    2.250    1.250    0.000    0.000    0.000    0.000 
#    0.000    0.000    0.000    0.000    0.000    0.000 
#
# Total GULP energy -89205.402739 kJ/mol
# GULP energy per Si atom -5575.337671 kJ/mol
# Density = 2.333454 g / cm^3
# Si number density = 23.387776 Si / 1000 Ang^3
#
#
#
# Elastic Constant Matrix: (Units=GPa)
#
#
# Indices 1 2 3 4 5 6 
#
# 1 112.4355 14.0613 15.7738 0.0000 5.3288 0.0000
# 2 14.0613 51.9862 -13.3349 0.0000 0.3456 0.0000
# 3 15.7738 -13.3349 77.2270 0.0000 7.3029 0.0000
# 4 0.0000 0.0000 0.0000 22.9886 0.0000 -4.8564
# 5 5.3288 0.3456 7.3029 0.0000 27.4140 0.0000
# 6 0.0000 0.0000 0.0000 -4.8564 0.0000 36.1817
#
#
#
# Elastic Compliance Matrix: (Units=1/GPa)
#
#
# Indices 1 2 3 4 5 6 
#
# 1 0.009696 -0.003237 -0.002426 0.000000 -0.001198 0.000000
# 2 -0.003237 0.021247 0.004407 0.000000 -0.000813 0.000000
# 3 -0.002426 0.004407 0.014532 0.000000 -0.003455 0.000000
# 4 0.000000 0.000000 0.000000 0.044769 0.000000 0.006009
# 5 -0.001198 -0.000813 -0.003455 0.000000 0.037641 0.000000
# 6 0.000000 0.000000 0.000000 0.006009 0.000000 0.028445
#
#
# Mechanical properties :
#
#
# Convention : Reuss Voigt Hill
#
# Bulk Modulus (GPa) = 23.27603 30.51658 26.89631
# Shear Modulus (GPa) = 28.87441 32.32676 30.60059
#
# Velocity S-wave (km/s) = 3.51749 3.72184 3.62111
# Velocity P-wave (km/s) = 5.14498 5.61657 5.38594
#
# Compressibility (1/GPa) = 0.04296265
#
# Stress axis : x y z
#
# Youngs Moduli (GPa) = 103.13612 47.06505 68.81355
#
# Poissons Ratio (x) = 0.15235 0.16695
# Poissons Ratio (y) = 0.33384 -0.30325
# Poissons Ratio (z) = 0.25022 -0.20740
#
# Static dielectric constant tensor:
#      x y z
#    x 1.955260 0.000000 0.014110 
#    y 0.000000 2.070700 0.000000 
#    z 0.014110 0.000000 1.935700 
# 
# From -- ./inp_files/13810.got.cif
#   From: 2010.05.17/outbox.cif.g08.bks.cpg/sg9_7_cif.got.tgz:13810.got - 2010.06.03 20:04:27.
