data_PCOD9135290
_publ_section_title
;
Structure prediction by ZEFSAII (Michael W. Deem and Ramdas Pophale) SiO2 
 PCOD9135290
Probable space group: C C
;
_chemical_formula_sum "Si O2"
_cell_formula_units_Z 32
_cell_length_a 16.182634
_cell_length_b 5.927471
_cell_length_c 14.114201
_cell_angle_alpha 90.000000
_cell_angle_beta 86.617288
_cell_angle_gamma 90.000000
_cell_volume 1351.504844
_symmetry_space_group_name_H-M "C C"
_symmetry_group_IT_number 9
_symmetry_cell_setting 'monoclinic'
loop_
_space_group_symop_operation_xyz
x,y,z
x,-y,1/2+z
1/2+x,1/2+y,z
1/2+x,1/2-y,1/2+z
loop_
_atom_site_type_symbol
_atom_site_label
_atom_site_fract_x
_atom_site_fract_y
_atom_site_fract_z
Si Si1 0.283040 0.413872 0.506160
Si Si2 0.074131 0.787166 0.214186
Si Si3 0.499742 0.204622 0.723798
Si Si4 0.408228 0.036479 0.562749
Si Si5 0.193376 0.004913 0.829867
Si Si6 0.254273 0.208058 0.149920
Si Si7 0.639494 0.398143 0.019597
Si Si8 0.862876 0.703152 0.885171
O O1 0.349359 0.231642 0.529766
O O2 0.261986 0.551726 0.602050
O O3 0.197443 0.305934 0.481407
O O4 0.323751 0.566841 0.424425
O O5 0.075460 0.798423 0.099112
O O6 0.037978 0.543768 0.247956
O O7 0.163825 0.803810 0.257851
O O8 0.039040 0.044603 0.237341
O O9 0.481153 0.158780 0.614120
O O10 0.415167 0.220824 0.787672
O O11 0.347500 0.893942 0.637403
O O12 0.420193 0.886738 0.467887
O O13 0.213130 0.802210 0.755406
O O14 0.281366 0.054095 0.872302
O O15 0.124387 0.006438 0.918220
O O16 0.195693 0.066200 0.080628
#
# Coordination Sequence:
#
# PCOD9135290 Si02
#       8
#     4   4   4   4   4   4   4   4
#     4  10  20  38  72 107 136 174 239 312 348 414
#     4  11  31  47  70 104 151 200 233 284 367 440
#     4  12  29  51  70 102 153 198 233 292 358 443
#     4  10  22  41  68 103 142 181 237 297 359 415
#     4  11  21  45  72 106 137 181 245 308 353 427
#     4   9  19  37  63 107 134 171 230 300 362 406
#     4  10  22  43  67 101 142 181 237 292 362 420
#     4  11  24  42  76 112 133 180 252 303 359 413
#
# _framework density 23.677309000000001
#
# number of rings (size 3 to 8) (size 9 to 14) (size 15 to 20)
#    0.000    1.500    5.000    0.000    8.750    4.000 
#    0.000    0.000    0.000    0.000    0.000    0.000 
#    0.000    0.000    0.000    0.000    0.000    0.000 
#
# Total GULP energy -89147.126531 kJ/mol
# GULP energy per Si atom -5571.695408 kJ/mol
# Density = 2.362342 g / cm^3
# Si number density = 23.677309 Si / 1000 Ang^3
#
#
#
# Elastic Constant Matrix: (Units=GPa)
#
#
# Indices 1 2 3 4 5 6 
#
# 1 21.3798 15.6450 7.2719 0.0000 3.5531 0.0000
# 2 15.6450 100.6009 8.1310 0.0000 -3.7151 0.0000
# 3 7.2719 8.1310 105.7049 0.0000 -4.7993 0.0000
# 4 0.0000 0.0000 0.0000 9.8130 0.0000 -1.8055
# 5 3.5531 -3.7151 -4.7993 0.0000 40.8079 0.0000
# 6 0.0000 0.0000 0.0000 -1.8055 0.0000 16.7332
#
#
#
# Elastic Compliance Matrix: (Units=1/GPa)
#
#
# Indices 1 2 3 4 5 6 
#
# 1 0.055165 -0.008524 -0.003411 0.000000 -0.005980 0.000000
# 2 -0.008524 0.011347 -0.000207 0.000000 0.001751 0.000000
# 3 -0.003411 -0.000207 0.009776 0.000000 0.001428 0.000000
# 4 0.000000 0.000000 0.000000 0.103970 0.000000 0.011218
# 5 -0.005980 0.001751 0.001428 0.000000 0.025353 0.000000
# 6 0.000000 0.000000 0.000000 0.011218 0.000000 0.060972
#
#
# Mechanical properties :
#
#
# Convention : Reuss Voigt Hill
#
# Bulk Modulus (GPa) = 19.22935 32.19794 25.71365
# Shear Modulus (GPa) = 16.22318 26.58000 21.40159
#
# Velocity S-wave (km/s) = 2.62043 3.35415 3.00973
# Velocity P-wave (km/s) = 4.15868 5.35057 4.79183
#
# Compressibility (1/GPa) = 0.05200383
#
# Stress axis : x y z
#
# Youngs Moduli (GPa) = 18.12753 88.12676 102.29455
#
# Poissons Ratio (x) = 0.75120 0.34891
# Poissons Ratio (y) = 0.15452 0.02117
# Poissons Ratio (z) = 0.06183 0.01824
#
# Static dielectric constant tensor:
#      x y z
#    x 1.935750 0.000000 -0.002280 
#    y 0.000000 2.018770 0.000000 
#    z -0.002280 0.000000 1.929620 
# 
# From -- ./inp_files/26357.got.cif
#   From: 2010.05.17/outbox.cif.g08.bks.cpg/sg9_14_cif.got.tgz:26357.got - 2010.06.03 20:04:27.
