data_PCOD9135088
_publ_section_title
;
Structure prediction by ZEFSAII (Michael W. Deem and Ramdas Pophale) SiO2 
 PCOD9135088
Probable space group: C C
;
_chemical_formula_sum "Si O2"
_cell_formula_units_Z 32
_cell_length_a 12.304554
_cell_length_b 10.234638
_cell_length_c 21.641622
_cell_angle_alpha 90.000000
_cell_angle_beta 148.952340
_cell_angle_gamma 90.000000
_cell_volume 1405.620790
_symmetry_space_group_name_H-M "C C"
_symmetry_group_IT_number 9
_symmetry_cell_setting 'monoclinic'
loop_
_space_group_symop_operation_xyz
x,y,z
x,-y,1/2+z
1/2+x,1/2+y,z
1/2+x,1/2-y,1/2+z
loop_
_atom_site_type_symbol
_atom_site_label
_atom_site_fract_x
_atom_site_fract_y
_atom_site_fract_z
Si Si1 0.664610 0.395605 0.515080
Si Si2 0.388813 0.607157 0.254078
Si Si3 0.832197 0.600573 0.506539
Si Si4 0.778350 0.129402 0.513567
Si Si5 0.284494 0.333062 0.265138
Si Si6 0.256706 0.155997 0.758288
Si Si7 0.052951 0.553630 0.003000
Si Si8 0.430880 0.923963 0.767850
O O1 0.716044 0.529578 0.506408
O O2 0.752384 0.282633 0.513044
O O3 0.412632 0.367079 0.390649
O O4 0.803121 0.392358 0.643913
O O5 0.628690 0.658177 0.371952
O O6 0.368636 0.451919 0.261033
O O7 0.265403 0.692852 0.244389
O O8 0.258415 0.628086 0.128035
O O9 0.938669 0.508889 0.506469
O O10 0.032950 0.668852 0.635657
O O11 0.683206 0.090733 0.400419
O O12 0.021346 0.101156 0.643633
O O13 0.642713 0.054737 0.499662
O O14 0.353630 0.190655 0.276377
O O15 0.382524 0.135843 0.882642
O O16 0.371470 0.067144 0.762734
#
# Coordination Sequence:
#
# PCOD9135088 Si02
#       8
#     4   4   4   4   4   4   4   4
#     4  10  20  37  60  87 118 154 198 245 292 350
#     4  10  21  37  59  89 118 151 196 243 293 346
#     4  10  20  37  62  89 117 156 200 245 290 348
#     4  10  21  39  62  85 117 163 200 234 293 363
#     4   9  20  38  58  83 115 157 198 232 287 360
#     4  11  24  39  60  91 121 151 196 253 298 338
#     4  10  21  39  59  85 119 161 199 235 292 365
#     4  10  23  40  58  87 121 153 197 243 297 354
#
# _framework density 22.765740999999998
#
# number of rings (size 3 to 8) (size 9 to 14) (size 15 to 20)
#    0.000    2.000    0.000    3.750    0.000    8.000 
#    0.000    6.250    0.000    0.000    0.000    0.000 
#    0.000    0.000    0.000    0.000    0.000    0.000 
#
# Total GULP energy -89178.468842 kJ/mol
# GULP energy per Si atom -5573.654303 kJ/mol
# Density = 2.271392 g / cm^3
# Si number density = 22.765741 Si / 1000 Ang^3
#
#
#
# Elastic Constant Matrix: (Units=GPa)
#
#
# Indices 1 2 3 4 5 6 
#
# 1 23.4007 1.7137 36.8598 0.0000 -1.9230 0.0000
# 2 1.7137 51.6461 10.3060 0.0000 0.4108 0.0000
# 3 36.8598 10.3060 268.8906 -0.0001 -7.9583 0.0000
# 4 0.0000 0.0000 -0.0001 51.0146 0.0000 2.8658
# 5 -1.9230 0.4108 -7.9583 0.0000 36.4271 0.0000
# 6 0.0000 0.0000 0.0000 2.8658 0.0000 14.7532
#
#
#
# Elastic Compliance Matrix: (Units=1/GPa)
#
#
# Indices 1 2 3 4 5 6 
#
# 1 0.054565 -0.000338 -0.007430 0.000000 0.001261 0.000000
# 2 -0.000338 0.019519 -0.000713 0.000000 -0.000394 0.000000
# 3 -0.007430 -0.000713 0.004784 0.000000 0.000661 0.000000
# 4 0.000000 0.000000 0.000000 0.019819 0.000000 -0.003850
# 5 0.001261 -0.000394 0.000661 0.000000 0.027668 0.000000
# 6 0.000000 0.000000 0.000000 -0.003850 0.000000 0.068530
#
#
# Mechanical properties :
#
#
# Convention : Reuss Voigt Hill
#
# Bulk Modulus (GPa) = 16.15336 49.07736 32.61536
# Shear Modulus (GPa) = 21.50705 40.10949 30.80827
#
# Velocity S-wave (km/s) = 3.07695 4.20198 3.68268
# Velocity P-wave (km/s) = 4.44234 6.71911 5.69565
#
# Compressibility (1/GPa) = 0.06190661
#
# Stress axis : x y z
#
# Youngs Moduli (GPa) = 18.32679 51.23144 209.01513
#
# Poissons Ratio (x) = 0.01731 1.55288
# Poissons Ratio (y) = 0.00619 0.14912
# Poissons Ratio (z) = 0.13616 0.03655
#
# Static dielectric constant tensor:
#      x y z
#    x 1.844310 0.000000 0.015910 
#    y 0.000000 1.789840 0.000000 
#    z 0.015910 0.000000 2.012810 
# 
# From -- ./inp_files/33361.got.cif
#   From: 2010.05.17/outbox.cif.g08.bks.cpg/sg9_17_cif.got.tgz:33361.got - 2010.06.03 20:04:27.
