data_PCOD9135630
_publ_section_title
;
Structure prediction by ZEFSAII (Michael W. Deem and Ramdas Pophale) SiO2 
 PCOD9135630
Probable space group: C C
;
_chemical_formula_sum "Si O2"
_cell_formula_units_Z 32
_cell_length_a 6.025485
_cell_length_b 12.190746
_cell_length_c 17.071683
_cell_angle_alpha 90.000000
_cell_angle_beta 92.138549
_cell_angle_gamma 90.000000
_cell_volume 1253.129761
_symmetry_space_group_name_H-M "C C"
_symmetry_group_IT_number 9
_symmetry_cell_setting 'monoclinic'
loop_
_space_group_symop_operation_xyz
x,y,z
x,-y,1/2+z
1/2+x,1/2+y,z
1/2+x,1/2-y,1/2+z
loop_
_atom_site_type_symbol
_atom_site_label
_atom_site_fract_x
_atom_site_fract_y
_atom_site_fract_z
Si Si1 0.666310 0.587204 0.242990
Si Si2 0.506685 0.004657 0.854873
Si Si3 0.817921 0.132257 0.474589
Si Si4 0.079824 0.528430 0.602439
Si Si5 0.948548 0.734803 0.842902
Si Si6 0.681543 0.450455 0.487670
Si Si7 0.739554 0.357081 0.195295
Si Si8 0.409320 0.327973 0.600905
O O1 0.910702 0.568112 0.283007
O O2 0.547490 0.651779 0.311772
O O3 0.593709 0.464096 0.214204
O O4 0.608760 0.663419 0.167747
O O5 0.603205 0.126384 0.839963
O O6 0.665384 0.934179 0.910894
O O7 0.288730 0.041172 0.903004
O O8 0.680959 0.127695 0.552589
O O9 0.883278 0.242658 0.431707
O O10 0.032700 0.059390 0.492648
O O11 0.883101 0.470173 0.550620
O O12 0.971203 0.583210 0.675573
O O13 0.258801 0.434773 0.615180
O O14 0.759208 0.708561 0.776288
O O15 0.519453 0.353421 0.517475
O O16 0.742190 0.271613 0.122642
#
# Coordination Sequence:
#
# PCOD9135630 Si02
#       8
#     4   4   4   4   4   4   4   4
#     4  10  20  42  64  90 136 158 204 268 308 378
#     4  10  22  41  64  95 124 167 212 259 320 382
#     4  10  22  43  66  92 131 170 214 268 320 375
#     4  10  22  43  66  92 131 170 214 268 320 375
#     4  10  22  41  65  96 126 167 214 259 321 385
#     4  10  20  44  64  88 134 166 212 274 312 376
#     4  10  22  41  65  96 126 167 214 259 321 385
#     4  10  22  41  64  95 124 167 212 259 320 382
#
# _framework density 25.536062000000001
#
# number of rings (size 3 to 8) (size 9 to 14) (size 15 to 20)
#    0.000    2.000    2.500    0.000    1.750    4.000 
#   11.250    3.750    0.000    0.000    0.000    0.000 
#    0.000    0.000    0.000    0.000    0.000    0.000 
#
# Total GULP energy -89176.406055 kJ/mol
# GULP energy per Si atom -5573.525378 kJ/mol
# Density = 2.547794 g / cm^3
# Si number density = 25.536062 Si / 1000 Ang^3
#
#
#
# Elastic Constant Matrix: (Units=GPa)
#
#
# Indices 1 2 3 4 5 6 
#
# 1 55.2122 8.3906 15.2853 0.0000 12.5485 0.0000
# 2 8.3906 103.3304 -5.8628 0.0000 10.7954 0.0000
# 3 15.2853 -5.8628 68.2397 0.0000 3.6140 0.0000
# 4 0.0000 0.0000 0.0000 52.1933 0.0000 -8.5269
# 5 12.5485 10.7954 3.6140 0.0000 30.3864 0.0000
# 6 0.0000 0.0000 0.0000 -8.5269 0.0000 30.8871
#
#
#
# Elastic Compliance Matrix: (Units=1/GPa)
#
#
# Indices 1 2 3 4 5 6 
#
# 1 0.021308 -0.001162 -0.004457 0.000000 -0.007856 0.000000
# 2 -0.001162 0.010191 0.001310 0.000000 -0.003296 0.000000
# 3 -0.004457 0.001310 0.015792 0.000000 -0.000503 0.000000
# 4 0.000000 0.000000 0.000000 0.020064 0.000000 0.005539
# 5 -0.007856 -0.003296 -0.000503 0.000000 0.037385 0.000000
# 6 0.000000 0.000000 0.000000 0.005539 0.000000 0.033905
#
#
# Mechanical properties :
#
#
# Convention : Reuss Voigt Hill
#
# Bulk Modulus (GPa) = 25.85744 29.15648 27.50696
# Shear Modulus (GPa) = 31.22011 36.62465 33.92238
#
# Velocity S-wave (km/s) = 3.50035 3.79123 3.64869
# Velocity P-wave (km/s) = 5.14630 5.53237 5.34283
#
# Compressibility (1/GPa) = 0.03867359
#
# Stress axis : x y z
#
# Youngs Moduli (GPa) = 46.93072 98.12756 63.32426
#
# Poissons Ratio (x) = 0.11405 0.28221
# Poissons Ratio (y) = 0.05455 -0.08298
# Poissons Ratio (z) = 0.20915 -0.12859
#
# Static dielectric constant tensor:
#      x y z
#    x 2.018240 0.000000 -0.047190 
#    y 0.000000 2.118850 0.000000 
#    z -0.047190 0.000000 2.033270 
# 
# From -- ./inp_files/32081.got.cif
#   From: 2010.05.17/outbox.cif.g08.bks.cpg/sg9_17_cif.got.tgz:32081.got - 2010.06.03 20:04:27.
