data_PCOD9135833
_publ_section_title
;
Structure prediction by ZEFSAII (Michael W. Deem and Ramdas Pophale) SiO2 
 PCOD9135833
Probable space group: C C
;
_chemical_formula_sum "Si O2"
_cell_formula_units_Z 28
_cell_length_a 6.097842
_cell_length_b 21.556890
_cell_length_c 12.793201
_cell_angle_alpha 90.000000
_cell_angle_beta 44.490646
_cell_angle_gamma 90.000000
_cell_volume 1178.504199
_symmetry_space_group_name_H-M "C C"
_symmetry_group_IT_number 9
_symmetry_cell_setting 'monoclinic'
loop_
_space_group_symop_operation_xyz
x,y,z
x,-y,1/2+z
1/2+x,1/2+y,z
1/2+x,1/2-y,1/2+z
loop_
_atom_site_type_symbol
_atom_site_label
_atom_site_fract_x
_atom_site_fract_y
_atom_site_fract_z
Si Si1 0.363390 0.311200 0.404220
Si Si2 0.715502 0.108066 0.225410
Si Si3 0.447610 0.917893 0.474769
Si Si4 0.344731 0.018351 0.208883
Si Si5 0.346129 0.627430 0.403169
Si Si6 0.946074 0.386212 0.244258
Si Si7 0.895978 0.721789 0.214246
O O1 0.698342 0.329823 0.336574
O O2 0.381445 0.284336 0.283232
O O3 0.155023 0.372498 0.473506
O O4 0.134068 0.264000 0.540084
O O5 0.601606 0.047067 0.201417
O O6 0.626116 0.115517 0.377712
O O7 0.580372 0.169027 0.216865
O O8 0.090650 0.106043 0.091981
O O9 0.432724 0.977489 0.555674
O O10 0.565871 0.910514 0.316079
O O11 0.065546 0.066427 0.325434
O O12 0.272343 0.947900 0.260376
O O13 0.563209 0.688261 0.306847
O O14 0.189225 0.631130 0.570172
#
# Coordination Sequence:
#
# PCOD9135833 Si02
#       7
#     4   4   4   4   4   4   4
#     4  12  27  46  69 105 142 191 239 295 357 429
#     4  10  20  47  71  94 137 188 227 289 363 417
#     4  11  23  46  69  98 145 181 236 292 361 430
#     4  10  24  44  72  98 144 186 229 296 364 435
#     4  10  25  44  68 105 136 183 233 293 358 419
#     4  12  28  42  72 111 137 183 250 289 373 421
#     4  11  25  47  69  99 145 184 240 290 352 419
#
# _framework density 23.758931
#
# number of rings (size 3 to 8) (size 9 to 14) (size 15 to 20)
#    0.000    1.143    5.714    0.000   10.000    4.571 
#    0.000    0.000    0.000    0.000    0.000    0.000 
#    0.000    0.000    0.000    0.000    0.000    0.000 
#
# Total GULP energy -78142.383899 kJ/mol
# GULP energy per Si atom -5581.598850 kJ/mol
# Density = 2.370485 g / cm^3
# Si number density = 23.758931 Si / 1000 Ang^3
#
#
#
# Elastic Constant Matrix: (Units=GPa)
#
#
# Indices 1 2 3 4 5 6 
#
# 1 73.0859 -1.7237 31.0936 0.0000 16.1010 0.0000
# 2 -1.7237 50.7439 -7.5797 0.0000 -5.9541 0.0000
# 3 31.0936 -7.5797 139.5327 0.0000 28.1337 0.0000
# 4 0.0000 0.0000 0.0000 26.1963 0.0000 11.3891
# 5 16.1010 -5.9541 28.1337 0.0000 41.3420 0.0000
# 6 0.0000 0.0000 0.0000 11.3891 0.0000 11.3159
#
#
#
# Elastic Compliance Matrix: (Units=1/GPa)
#
#
# Indices 1 2 3 4 5 6 
#
# 1 0.015768 -0.000375 -0.002648 0.000000 -0.004393 0.000000
# 2 -0.000375 0.020096 0.000652 0.000000 0.002597 0.000000
# 3 -0.002648 0.000652 0.008769 0.000000 -0.004842 0.000000
# 4 0.000000 0.000000 0.000000 0.067873 0.000000 -0.068312
# 5 -0.004393 0.002597 -0.004842 0.000000 0.029568 0.000000
# 6 0.000000 0.000000 0.000000 -0.068312 0.000000 0.157126
#
#
# Mechanical properties :
#
#
# Convention : Reuss Voigt Hill
#
# Bulk Modulus (GPa) = 25.06988 34.10477 29.58732
# Shear Modulus (GPa) = 15.76090 31.87566 23.81828
#
# Velocity S-wave (km/s) = 2.57839 3.66680 3.16966
# Velocity P-wave (km/s) = 4.40894 5.68444 5.08683
#
# Compressibility (1/GPa) = 0.03988851
#
# Stress axis : x y z
#
# Youngs Moduli (GPa) = 63.41884 49.76088 114.04313
#
# Poissons Ratio (x) = 0.01868 0.30204
# Poissons Ratio (y) = 0.02381 -0.07432
# Poissons Ratio (z) = 0.16796 -0.03243
#
# Static dielectric constant tensor:
#      x y z
#    x 1.933370 0.000000 0.025200 
#    y 0.000000 1.852520 0.000000 
#    z 0.025200 0.000000 2.017370 
# 
# From -- ./inp_files/13704.got.cif
#   From: 2010.05.17/outbox.cif.g08.bks.cpg/sg9_7_cif.got.tgz:13704.got - 2010.06.03 20:04:27.
