data_PCOD9135272
_publ_section_title
;
Structure prediction by ZEFSAII (Michael W. Deem and Ramdas Pophale) SiO2 
 PCOD9135272
Probable space group: C C
;
_chemical_formula_sum "Si O2"
_cell_formula_units_Z 32
_cell_length_a 20.137876
_cell_length_b 16.751614
_cell_length_c 14.049274
_cell_angle_alpha 90.000000
_cell_angle_beta 18.637466
_cell_angle_gamma 90.000000
_cell_volume 1514.615595
_symmetry_space_group_name_H-M "C C"
_symmetry_group_IT_number 9
_symmetry_cell_setting 'monoclinic'
loop_
_space_group_symop_operation_xyz
x,y,z
x,-y,1/2+z
1/2+x,1/2+y,z
1/2+x,1/2-y,1/2+z
loop_
_atom_site_type_symbol
_atom_site_label
_atom_site_fract_x
_atom_site_fract_y
_atom_site_fract_z
Si Si1 0.497350 0.512522 0.270890
Si Si2 0.608015 0.218087 0.612162
Si Si3 0.748354 0.570158 0.604467
Si Si4 0.106400 0.304591 0.576356
Si Si5 0.996560 0.144767 0.670235
Si Si6 0.054295 0.849303 0.548515
Si Si7 0.375231 0.646606 0.550005
Si Si8 0.768587 0.399941 0.637690
O O1 0.637718 0.468356 0.161051
O O2 0.421310 0.439571 0.311651
O O3 0.601167 0.577939 0.058672
O O4 0.325962 0.569095 0.553486
O O5 0.812624 0.177156 0.376200
O O6 0.659374 0.267804 0.446194
O O7 0.503243 0.286152 0.820202
O O8 0.431010 0.150573 0.855102
O O9 0.828789 0.492010 0.551292
O O10 0.931508 0.630043 0.329766
O O11 0.607239 0.618706 0.871673
O O12 0.310018 0.321628 0.360627
O O13 0.181853 0.314028 0.364499
O O14 0.036661 0.214583 0.691030
O O15 0.213002 0.129778 0.319118
O O16 0.542893 0.610852 0.395731
#
# Coordination Sequence:
#
# PCOD9135272 Si02
#       8
#     4   4   4   4   4   4   4   4
#     4  10  23  44  67  93 142 175 222 287 334 394
#     4  11  21  40  72  99 130 178 228 278 341 403
#     4  11  25  46  64  99 142 179 219 285 344 402
#     4  11  24  40  68  98 137 173 225 272 339 401
#     4  11  22  42  64  98 133 175 219 279 332 406
#     4  11  25  44  70 104 138 179 231 284 340 410
#     4   9  20  40  64 101 126 170 222 279 328 395
#     4  10  20  38  67  94 132 167 220 278 326 399
#
# _framework density 21.127472000000001
#
# number of rings (size 3 to 8) (size 9 to 14) (size 15 to 20)
#    0.000    1.500    3.750    0.750    1.750    2.000 
#    6.750    0.000    0.000    0.000    0.000    0.000 
#    0.000    0.000    0.000    0.000    0.000    0.000 
#
# Total GULP energy -89146.964105 kJ/mol
# GULP energy per Si atom -5571.685257 kJ/mol
# Density = 2.107938 g / cm^3
# Si number density = 21.127472 Si / 1000 Ang^3
#
#
#
# Elastic Constant Matrix: (Units=GPa)
#
#
# Indices 1 2 3 4 5 6 
#
# 1 55.2220 20.3277 21.8736 0.0003 3.2659 0.0000
# 2 20.3277 153.1076 46.3844 0.0044 4.8933 0.0020
# 3 21.8736 46.3844 57.0926 0.0086 11.4131 0.0057
# 4 0.0003 0.0044 0.0086 31.6757 -0.0025 3.4464
# 5 3.2659 4.8933 11.4131 -0.0025 14.4550 -0.0037
# 6 0.0000 0.0020 0.0057 3.4464 -0.0037 37.2082
#
#
#
# Elastic Compliance Matrix: (Units=1/GPa)
#
#
# Indices 1 2 3 4 5 6 
#
# 1 0.021413 -0.000406 -0.008234 0.000002 0.001801 0.000001
# 2 -0.000406 0.008791 -0.007612 0.000001 0.003126 0.000001
# 3 -0.008234 -0.007612 0.030834 -0.000008 -0.019908 -0.000006
# 4 0.000002 0.000001 -0.000008 0.031891 0.000010 -0.002954
# 5 0.001801 0.003126 -0.019908 0.000010 0.083434 0.000010
# 6 0.000001 0.000001 -0.000006 -0.002954 0.000010 0.027149
#
#
# Mechanical properties :
#
#
# Convention : Reuss Voigt Hill
#
# Bulk Modulus (GPa) = 35.04481 49.17708 42.11095
# Shear Modulus (GPa) = 20.36421 28.45687 24.41054
#
# Velocity S-wave (km/s) = 3.10800 3.67401 3.40280
# Velocity P-wave (km/s) = 5.43165 6.42843 5.95095
#
# Compressibility (1/GPa) = 0.02853489
#
# Stress axis : x y z
#
# Youngs Moduli (GPa) = 46.70017 113.74783 32.43177
#
# Poissons Ratio (x) = 0.04618 0.26704
# Poissons Ratio (y) = 0.01896 0.24686
# Poissons Ratio (z) = 0.38453 0.86582
#
# Static dielectric constant tensor:
#      x y z
#    x 1.889160 0.000000 0.048790 
#    y 0.000000 1.755550 0.000000 
#    z 0.048790 0.000000 1.724140 
# 
# From -- ./inp_files/7438.got.cif
#   From: 2010.05.17/outbox.cif.g08.bks.cpg/sg9_4_cif.got.tgz:7438.got - 2010.06.03 20:04:27.
