data_PCOD9135174
_publ_section_title
;
Structure prediction by ZEFSAII (Michael W. Deem and Ramdas Pophale) SiO2 
 PCOD9135174
Probable space group: C C
;
_chemical_formula_sum "Si O2"
_cell_formula_units_Z 28
_cell_length_a 10.796169
_cell_length_b 19.264236
_cell_length_c 5.490084
_cell_angle_alpha 90.000000
_cell_angle_beta 126.067315
_cell_angle_gamma 90.000000
_cell_volume 922.968607
_symmetry_space_group_name_H-M "C C"
_symmetry_group_IT_number 9
_symmetry_cell_setting 'monoclinic'
loop_
_space_group_symop_operation_xyz
x,y,z
x,-y,1/2+z
1/2+x,1/2+y,z
1/2+x,1/2-y,1/2+z
loop_
_atom_site_type_symbol
_atom_site_label
_atom_site_fract_x
_atom_site_fract_y
_atom_site_fract_z
Si Si1 0.409680 0.521772 0.764630
Si Si2 0.234467 0.942980 0.202210
Si Si3 0.110926 0.815931 0.800975
Si Si4 0.559253 0.978227 0.139791
Si Si5 0.041666 0.673749 0.810912
Si Si6 0.427268 0.673749 0.593508
Si Si7 0.858008 0.315931 0.603445
O O1 0.355197 0.471565 0.481612
O O2 0.387732 0.594778 0.602459
O O3 0.583769 0.491091 0.019252
O O4 0.385164 0.991092 0.385169
O O5 0.259096 0.885459 0.443712
O O6 0.209838 0.885459 0.960707
O O7 0.161548 0.735863 0.900064
O O8 0.045955 0.814907 0.454835
O O9 0.991607 0.822514 0.892199
O O10 0.613737 0.971565 0.922809
O O11 0.581201 0.905222 0.301962
O O12 0.977326 0.677487 0.012221
O O13 0.922978 0.685093 0.449585
O O14 0.307386 0.735863 0.504357
#
# Coordination Sequence:
#
# PCOD9135174 Si02
#       7
#     4   4   4   4   4   4   4
#     4  12  22  32  52  79 112 135 170 217 268 307
#     4  12  22  34  54  90 100 142 164 240 246 318
#     4  10  22  32  54  66 115 135 180 198 273 299
#     4  12  22  32  52  79 112 135 170 217 268 307
#     4  10  20  38  44  75 105 152 160 213 253 336
#     4  10  20  38  44  75 105 152 160 213 253 336
#     4  10  22  32  54  66 115 135 180 198 273 299
#
# _framework density 30.336893
#
# number of rings (size 3 to 8) (size 9 to 14) (size 15 to 20)
#    0.000    1.143    5.714    0.857    0.000    1.143 
#    0.000    0.000    0.000    0.000    0.000    2.000 
#    0.000    0.000    0.000    0.000    0.000    0.000 
#
# Total GULP energy -78156.895818 kJ/mol
# GULP energy per Si atom -5582.635416 kJ/mol
# Density = 3.026784 g / cm^3
# Si number density = 30.336893 Si / 1000 Ang^3
#
#
#
# Elastic Constant Matrix: (Units=GPa)
#
#
# Indices 1 2 3 4 5 6 
#
# 1 143.9069 62.3683 78.7251 0.0000 -53.6311 0.0000
# 2 62.3683 229.8053 21.3025 0.0000 -5.6843 0.0000
# 3 78.7251 21.3025 219.9709 0.0000 -27.3435 0.0000
# 4 0.0000 0.0000 0.0000 39.3051 0.0000 -16.7043
# 5 -53.6311 -5.6843 -27.3435 0.0000 60.5994 0.0000
# 6 0.0000 0.0000 0.0000 -16.7043 0.0000 5.4057
#
#
#
# Elastic Compliance Matrix: (Units=1/GPa)
#
#
# Indices 1 2 3 4 5 6 
#
# 1 0.014275 -0.003288 -0.003452 0.000000 0.010768 0.000000
# 2 -0.003288 0.005151 0.000399 0.000000 -0.002247 0.000000
# 3 -0.003452 0.000399 0.005687 0.000000 -0.000452 0.000000
# 4 0.000000 0.000000 0.000000 -0.081212 0.000000 -0.250957
# 5 0.010768 -0.002247 -0.000452 0.000000 0.025617 0.000000
# 6 0.000000 0.000000 0.000000 -0.250957 0.000000 -0.590502
#
#
# Mechanical properties :
#
#
# Convention : Reuss Voigt Hill
#
# Bulk Modulus (GPa) = 80.44735 102.05275 91.25005
# Shear Modulus (GPa) = -8.27598 49.81453 20.76927
#
# Velocity S-wave (km/s) = -1.65347 4.05661 2.61936
# Velocity P-wave (km/s) = 4.78856 7.46018 6.26836
#
# Compressibility (1/GPa) = 0.01243049
#
# Stress axis : x y z
#
# Youngs Moduli (GPa) = 70.05126 194.12515 175.84712
#
# Poissons Ratio (x) = 0.63827 0.60704
# Poissons Ratio (y) = 0.23032 -0.07008
# Poissons Ratio (z) = 0.24182 -0.07737
#
# Static dielectric constant tensor:
#      x y z
#    x 3.114670 0.000000 0.158510 
#    y 0.000000 2.276570 0.000000 
#    z 0.158510 0.000000 2.384390 
# 
# From -- ./inp_files/3015.got.cif
#   From: 2010.05.17/outbox.cif.g08.bks.cpg/sg9_2_cif.got.tgz:3015.got - 2010.06.03 20:04:27.
