data_PCOD9135539
_publ_section_title
;
Structure prediction by ZEFSAII (Michael W. Deem and Ramdas Pophale) SiO2 
 PCOD9135539
Probable space group: C C
;
_chemical_formula_sum "Si O2"
_cell_formula_units_Z 32
_cell_length_a 9.892041
_cell_length_b 12.792076
_cell_length_c 24.055856
_cell_angle_alpha 90.000000
_cell_angle_beta 155.350852
_cell_angle_gamma 90.000000
_cell_volume 1269.541475
_symmetry_space_group_name_H-M "C C"
_symmetry_group_IT_number 9
_symmetry_cell_setting 'monoclinic'
loop_
_space_group_symop_operation_xyz
x,y,z
x,-y,1/2+z
1/2+x,1/2+y,z
1/2+x,1/2-y,1/2+z
loop_
_atom_site_type_symbol
_atom_site_label
_atom_site_fract_x
_atom_site_fract_y
_atom_site_fract_z
Si Si1 0.634400 0.996078 0.395600
Si Si2 0.587685 0.845137 0.235863
Si Si3 0.592198 0.629790 0.631625
Si Si4 0.326479 0.073434 0.122999
Si Si5 0.301633 0.706452 0.637068
Si Si6 0.880121 0.627027 0.902785
Si Si7 0.722450 0.670967 0.486324
Si Si8 0.771219 0.426287 0.485153
O O1 0.300852 0.967635 0.238436
O O2 0.569249 0.949126 0.432395
O O3 0.934907 0.940722 0.476220
O O4 0.818705 0.103137 0.482449
O O5 0.367510 0.800593 0.203463
O O6 0.970773 0.846401 0.378565
O O7 0.476453 0.966172 0.198125
O O8 0.463371 0.813531 0.128924
O O9 0.414102 0.680930 0.617126
O O10 0.380080 0.173335 0.180439
O O11 0.471215 0.091991 0.115923
O O12 0.493753 0.624471 0.747395
O O13 0.921312 0.698117 0.505527
O O14 0.933186 0.596293 0.986482
O O15 0.968693 0.740653 0.909657
O O16 0.652329 0.547585 0.450666
#
# Coordination Sequence:
#
# PCOD9135539 Si02
#       8
#     4   4   4   4   4   4   4   4
#     4  10  20  41  63  92 128 166 219 273 334 396
#     4  10  21  40  58  90 124 171 218 267 335 402
#     4  10  22  38  67  90 125 170 216 276 332 400
#     4  10  21  38  61  87 125 167 214 273 331 399
#     4  11  22  41  62  92 128 165 217 275 340 399
#     4  11  23  40  66  93 131 172 221 278 337 406
#     4  11  23  40  65  93 129 172 220 270 339 407
#     4  11  22  40  64  91 130 171 221 274 338 407
#
# _framework density 25.205950000000001
#
# number of rings (size 3 to 8) (size 9 to 14) (size 15 to 20)
#    0.000    1.500    3.750    1.500    1.750    0.000 
#    0.000    1.250    0.000    0.000    0.000    0.000 
#    0.000    0.000    0.000    0.000    0.000    0.000 
#
# Total GULP energy -89141.030325 kJ/mol
# GULP energy per Si atom -5571.314395 kJ/mol
# Density = 2.514858 g / cm^3
# Si number density = 25.205950 Si / 1000 Ang^3
#
#
#
# Elastic Constant Matrix: (Units=GPa)
#
#
# Indices 1 2 3 4 5 6 
#
# 1 184.5148 -6.1813 5.6096 0.0001 8.8764 -0.0004
# 2 -6.1813 33.3962 -7.4067 0.0010 5.9098 0.0001
# 3 5.6096 -7.4067 41.2536 0.0047 -3.2731 -0.0030
# 4 0.0001 0.0010 0.0047 13.0822 -0.0021 3.9102
# 5 8.8764 5.9098 -3.2731 -0.0021 23.7081 -0.0005
# 6 -0.0004 0.0001 -0.0030 3.9102 -0.0005 26.8592
#
#
#
# Elastic Compliance Matrix: (Units=1/GPa)
#
#
# Indices 1 2 3 4 5 6 
#
# 1 0.005608 0.001325 -0.000725 0.000000 -0.002530 0.000000
# 2 0.001325 0.032719 0.005063 -0.000006 -0.007953 0.000001
# 3 -0.000725 0.005063 0.025448 -0.000010 0.002523 0.000004
# 4 0.000000 -0.000006 -0.000010 0.079917 0.000007 -0.011634
# 5 -0.002530 -0.007953 0.002523 0.000007 0.045458 0.000000
# 6 0.000000 0.000001 0.000004 -0.011634 0.000000 0.038925
#
#
# Mechanical properties :
#
#
# Convention : Reuss Voigt Hill
#
# Bulk Modulus (GPa) = 13.31555 27.02309 20.16932
# Shear Modulus (GPa) = 20.67968 30.53942 25.60955
#
# Velocity S-wave (km/s) = 2.86742 3.48457 3.19095
# Velocity P-wave (km/s) = 4.03199 5.18979 4.64709
#
# Compressibility (1/GPa) = 0.07510018
#
# Stress axis : x y z
#
# Youngs Moduli (GPa) = 178.32438 30.56321 39.29559
#
# Poissons Ratio (x) = -0.04049 0.02851
# Poissons Ratio (y) = -0.23624 -0.19896
# Poissons Ratio (z) = 0.12936 -0.15475
#
# Static dielectric constant tensor:
#      x y z
#    x 2.044330 0.000000 0.028810 
#    y 0.000000 2.067490 0.000000 
#    z 0.028810 0.000000 2.115330 
# 
# From -- ./inp_files/14586.got.cif
#   From: 2010.05.17/outbox.cif.g08.bks.cpg/sg9_8_cif.got.tgz:14586.got - 2010.06.03 20:04:27.
