data_PCOD9135842
_publ_section_title
;
Structure prediction by ZEFSAII (Michael W. Deem and Ramdas Pophale) SiO2 
 PCOD9135842
Probable space group: C C
;
_chemical_formula_sum "Si O2"
_cell_formula_units_Z 32
_cell_length_a 13.434399
_cell_length_b 25.275930
_cell_length_c 5.201640
_cell_angle_alpha 90.000000
_cell_angle_beta 59.519956
_cell_angle_gamma 90.000000
_cell_volume 1522.211970
_symmetry_space_group_name_H-M "C C"
_symmetry_group_IT_number 9
_symmetry_cell_setting 'monoclinic'
loop_
_space_group_symop_operation_xyz
x,y,z
x,-y,1/2+z
1/2+x,1/2+y,z
1/2+x,1/2-y,1/2+z
loop_
_atom_site_type_symbol
_atom_site_label
_atom_site_fract_x
_atom_site_fract_y
_atom_site_fract_z
Si Si1 0.778370 0.667362 0.638810
Si Si2 0.534113 0.746749 0.536315
Si Si3 0.845960 0.212987 0.151390
Si Si4 0.384496 0.966636 0.487751
Si Si5 0.232696 0.324639 0.310524
Si Si6 0.986679 0.640086 0.056005
Si Si7 0.604193 0.531797 0.374008
Si Si8 0.634515 0.355342 0.804838
O O1 0.785815 0.728843 0.711914
O O2 0.906389 0.644075 0.415133
O O3 0.708756 0.657284 0.464351
O O4 0.715570 0.637469 0.951604
O O5 0.658688 0.770551 0.427862
O O6 0.472160 0.797638 0.483109
O O7 0.553727 0.694445 0.350876
O O8 0.472043 0.728918 0.879438
O O9 0.814186 0.185314 0.459842
O O10 0.799079 0.173794 0.990083
O O11 0.439196 0.908814 0.458100
O O12 0.417941 0.994683 0.179050
O O13 0.244737 0.036584 0.191274
O O14 0.124780 0.364674 0.416559
O O15 0.569437 0.496643 0.659448
O O16 0.563013 0.591773 0.445789
#
# Coordination Sequence:
#
# PCOD9135842 Si02
#       8
#     4   4   4   4   4   4   4   4
#     4  11  19  31  53  78 112 145 182 218 268 322
#     4   9  22  36  58  83 113 147 190 222 291 332
#     4  11  20  38  49  82 114 146 180 231 267 340
#     4  10  21  34  53  80 112 149 188 221 273 335
#     4  10  22  35  55  75 114 146 185 220 287 324
#     4   9  20  37  51  85 108 156 174 233 269 337
#     4  10  21  36  52  79 113 149 183 227 274 330
#     4  12  21  35  55  82 110 150 186 222 273 342
#
# _framework density 21.022041000000002
#
# number of rings (size 3 to 8) (size 9 to 14) (size 15 to 20)
#    0.750    1.000    3.750    0.750    3.500    4.000 
#    0.000    0.000    0.000    0.000    0.000    5.250 
#    0.000    0.000    0.000    0.000    0.000    0.000 
#
# Total GULP energy -89190.897448 kJ/mol
# GULP energy per Si atom -5574.431091 kJ/mol
# Density = 2.097419 g / cm^3
# Si number density = 21.022041 Si / 1000 Ang^3
#
#
#
# Elastic Constant Matrix: (Units=GPa)
#
#
# Indices 1 2 3 4 5 6 
#
# 1 53.7095 33.6644 48.6196 0.0000 26.3296 0.0000
# 2 33.6644 144.3366 15.8183 0.0000 25.7208 0.0000
# 3 48.6196 15.8183 100.4835 0.0000 10.4488 0.0000
# 4 0.0000 0.0000 0.0000 15.7885 0.0000 0.1772
# 5 26.3296 25.7208 10.4488 0.0000 34.0430 0.0000
# 6 0.0000 0.0000 0.0000 0.1772 0.0000 16.3839
#
#
#
# Elastic Compliance Matrix: (Units=1/GPa)
#
#
# Indices 1 2 3 4 5 6 
#
# 1 0.064227 -0.005411 -0.026325 0.000000 -0.037506 0.000000
# 2 -0.005411 0.008504 0.001562 0.000000 -0.002719 0.000000
# 3 -0.026325 0.001562 0.021123 0.000000 0.012696 0.000000
# 4 0.000000 0.000000 0.000000 0.063345 0.000000 -0.000685
# 5 -0.037506 -0.002719 0.012696 0.000000 0.056540 0.000000
# 6 0.000000 0.000000 0.000000 -0.000685 0.000000 0.061043
#
#
# Mechanical properties :
#
#
# Convention : Reuss Voigt Hill
#
# Bulk Modulus (GPa) = 29.84514 54.97046 42.40780
# Shear Modulus (GPa) = 14.43848 26.60491 20.52170
#
# Velocity S-wave (km/s) = 2.62358 3.56135 3.12781
# Velocity P-wave (km/s) = 4.83792 6.56633 5.76724
#
# Compressibility (1/GPa) = 0.03350629
#
# Stress axis : x y z
#
# Youngs Moduli (GPa) = 15.56989 117.59588 47.34178
#
# Poissons Ratio (x) = 0.63636 1.24625
# Poissons Ratio (y) = 0.08425 -0.07397
# Poissons Ratio (z) = 0.40987 -0.18373
#
# Static dielectric constant tensor:
#      x y z
#    x 1.784230 0.000000 -0.018310 
#    y 0.000000 1.800070 0.000000 
#    z -0.018310 0.000000 1.755960 
# 
# From -- ./inp_files/3082.got.cif
#   From: 2010.05.17/outbox.cif.g08.bks.cpg/sg9_2_cif.got.tgz:3082.got - 2010.06.03 20:04:27.
