data_PCOD9135451
_publ_section_title
;
Structure prediction by ZEFSAII (Michael W. Deem and Ramdas Pophale) SiO2 
 PCOD9135451
Probable space group: C C
;
_chemical_formula_sum "Si O2"
_cell_formula_units_Z 32
_cell_length_a 24.017296
_cell_length_b 7.179189
_cell_length_c 13.075254
_cell_angle_alpha 90.000000
_cell_angle_beta 136.807902
_cell_angle_gamma 90.000000
_cell_volume 1543.082616
_symmetry_space_group_name_H-M "C C"
_symmetry_group_IT_number 9
_symmetry_cell_setting 'monoclinic'
loop_
_space_group_symop_operation_xyz
x,y,z
x,-y,1/2+z
1/2+x,1/2+y,z
1/2+x,1/2-y,1/2+z
loop_
_atom_site_type_symbol
_atom_site_label
_atom_site_fract_x
_atom_site_fract_y
_atom_site_fract_z
Si Si1 0.386330 0.051517 0.533530
Si Si2 0.749492 0.825884 0.359041
Si Si3 0.637287 0.808476 0.379333
Si Si4 0.510567 0.091227 0.532920
Si Si5 0.417412 0.564108 0.811887
Si Si6 0.008586 0.297728 0.362557
Si Si7 0.296946 0.720309 0.499675
Si Si8 0.237644 0.630577 0.622226
O O1 0.339634 0.246513 0.469432
O O2 0.432501 0.014642 0.490177
O O3 0.450274 0.077749 0.711215
O O4 0.319055 0.894855 0.461992
O O5 0.752870 0.046659 0.387148
O O6 0.710644 0.793606 0.195517
O O7 0.708711 0.728095 0.403205
O O8 0.577771 0.878494 0.209503
O O9 0.578669 0.711526 0.383257
O O10 0.679310 0.971006 0.501661
O O11 0.478662 0.285328 0.442149
O O12 0.539104 0.942198 0.488347
O O13 0.459060 0.367130 0.849737
O O14 0.383229 0.641892 0.658036
O O15 0.330850 0.551465 0.756655
O O16 0.248965 0.768883 0.540714
#
# Coordination Sequence:
#
# PCOD9135451 Si02
#       8
#     4   4   4   4   4   4   4   4
#     4  11  20  36  65  97 116 155 219 263 294 374
#     4  11  20  40  63  89 126 164 204 257 313 372
#     4  10  23  40  59  90 130 168 200 254 318 375
#     4  11  23  38  64  94 121 162 211 260 314 372
#     4  10  20  40  65  89 118 164 205 256 309 367
#     4  11  21  39  61  89 129 164 204 253 317 369
#     4   9  20  35  61  95 117 155 206 263 308 353
#     4   9  19  40  64  85 123 166 207 256 311 370
#
# _framework density 20.737711000000001
#
# number of rings (size 3 to 8) (size 9 to 14) (size 15 to 20)
#    0.750    1.000    3.750    0.750    1.750    0.000 
#    0.000    7.500    0.000    0.000    0.000    0.000 
#    0.000    0.000    0.000    0.000    0.000    0.000 
#
# Total GULP energy -89072.491124 kJ/mol
# GULP energy per Si atom -5567.030695 kJ/mol
# Density = 2.069051 g / cm^3
# Si number density = 20.737711 Si / 1000 Ang^3
#
#
#
# Elastic Constant Matrix: (Units=GPa)
#
#
# Indices 1 2 3 4 5 6 
#
# 1 102.1022 14.3102 3.1078 0.0000 -14.7981 0.0000
# 2 14.3102 52.1404 4.9845 0.0000 -4.7442 0.0000
# 3 3.1078 4.9845 60.4715 0.0000 -5.8029 0.0000
# 4 0.0000 0.0000 0.0000 8.9603 0.0000 -6.5332
# 5 -14.7981 -4.7442 -5.8029 0.0000 26.9067 0.0000
# 6 0.0000 0.0000 0.0000 -6.5332 0.0000 22.2684
#
#
#
# Elastic Compliance Matrix: (Units=1/GPa)
#
#
# Indices 1 2 3 4 5 6 
#
# 1 0.010956 -0.002513 0.000184 0.000000 0.005622 0.000000
# 2 -0.002513 0.020169 -0.001353 0.000000 0.001882 0.000000
# 3 0.000184 -0.001353 0.016977 0.000000 0.003524 0.000000
# 4 0.000000 0.000000 0.000000 0.141973 0.000000 0.041652
# 5 0.005622 0.001882 0.003524 0.000000 0.041349 0.000000
# 6 0.000000 0.000000 0.000000 0.041652 0.000000 0.057127
#
#
# Mechanical properties :
#
#
# Convention : Reuss Voigt Hill
#
# Bulk Modulus (GPa) = 24.54726 28.83545 26.69136
# Shear Modulus (GPa) = 16.15543 24.44787 20.30165
#
# Velocity S-wave (km/s) = 2.79415 3.43725 3.13225
# Velocity P-wave (km/s) = 4.71937 5.44866 5.09707
#
# Compressibility (1/GPa) = 0.04073774
#
# Stress axis : x y z
#
# Youngs Moduli (GPa) = 91.27834 49.58045 58.90345
#
# Poissons Ratio (x) = 0.12459 -0.01081
# Poissons Ratio (y) = 0.22937 0.07968
# Poissons Ratio (z) = -0.01676 0.06707
#
# Static dielectric constant tensor:
#      x y z
#    x 1.826020 0.000000 0.009550 
#    y 0.000000 1.707560 0.000000 
#    z 0.009550 0.000000 1.744310 
# 
# From -- ./inp_files/27619.got.cif
#   From: 2010.05.17/outbox.cif.g08.bks.cpg/sg9_14_cif.got.tgz:27619.got - 2010.06.03 20:04:27.
