data_PCOD9135649
_publ_section_title
;
Structure prediction by ZEFSAII (Michael W. Deem and Ramdas Pophale) SiO2 
 PCOD9135649
Probable space group: C C
;
_chemical_formula_sum "Si O2"
_cell_formula_units_Z 32
_cell_length_a 14.910881
_cell_length_b 8.860564
_cell_length_c 14.683992
_cell_angle_alpha 90.000000
_cell_angle_beta 44.659000
_cell_angle_gamma 90.000000
_cell_volume 1363.620849
_symmetry_space_group_name_H-M "C C"
_symmetry_group_IT_number 9
_symmetry_cell_setting 'monoclinic'
loop_
_space_group_symop_operation_xyz
x,y,z
x,-y,1/2+z
1/2+x,1/2+y,z
1/2+x,1/2-y,1/2+z
loop_
_atom_site_type_symbol
_atom_site_label
_atom_site_fract_x
_atom_site_fract_y
_atom_site_fract_z
Si Si1 0.159680 0.486558 0.270370
Si Si2 0.671746 0.896281 0.066586
Si Si3 0.685997 0.332074 0.228507
Si Si4 0.441535 0.453469 0.334116
Si Si5 0.565500 0.149831 0.027063
Si Si6 0.209165 0.889870 0.409631
Si Si7 0.446010 0.546626 0.622156
Si Si8 0.298572 0.836573 0.948559
O O1 0.133455 0.386998 0.199643
O O2 0.127880 0.662692 0.278602
O O3 0.095582 0.413550 0.405278
O O4 0.311201 0.496494 0.179040
O O5 0.572324 0.008277 0.089183
O O6 0.685357 0.753311 0.991311
O O7 0.814550 0.971047 0.965823
O O8 0.574718 0.455759 0.290181
O O9 0.756825 0.357110 0.273202
O O10 0.771647 0.340554 0.075839
O O11 0.452728 0.504989 0.222384
O O12 0.412516 0.275388 0.346935
O O13 0.452926 0.270984 0.108367
O O14 0.680403 0.252552 0.984157
O O15 0.298688 0.001484 0.402251
O O16 0.070986 0.967810 0.491685
#
# Coordination Sequence:
#
# PCOD9135649 Si02
#       8
#     4   4   4   4   4   4   4   4
#     4  12  22  43  70  95 133 175 224 270 325 391
#     4  11  22  42  65  96 134 169 220 277 316 394
#     4  12  22  42  72  94 125 180 224 264 331 394
#     4  11  20  44  71  90 132 183 214 257 348 391
#     4  10  20  42  66  92 131 176 213 265 330 391
#     4  11  24  40  64 102 132 165 228 277 313 389
#     4  11  22  42  70  96 131 179 213 272 337 385
#     4  10  22  43  66  93 136 171 214 274 328 391
#
# _framework density 23.466932
#
# number of rings (size 3 to 8) (size 9 to 14) (size 15 to 20)
#    0.000    1.000    8.750    0.750    0.000    2.000 
#    4.500    3.750    0.000    0.000    0.000    0.000 
#    0.000    0.000    0.000    0.000    0.000    0.000 
#
# Total GULP energy -89412.262614 kJ/mol
# GULP energy per Si atom -5588.266413 kJ/mol
# Density = 2.341352 g / cm^3
# Si number density = 23.466932 Si / 1000 Ang^3
#
#
#
# Elastic Constant Matrix: (Units=GPa)
#
#
# Indices 1 2 3 4 5 6 
#
# 1 68.6997 20.2704 34.7314 0.0000 32.8339 0.0000
# 2 20.2704 69.9921 2.2362 0.0000 16.7792 0.0000
# 3 34.7314 2.2362 104.6171 0.0000 53.2554 0.0000
# 4 0.0000 0.0000 0.0000 24.2289 0.0000 20.1318
# 5 32.8339 16.7792 53.2554 0.0000 59.1369 0.0000
# 6 0.0000 0.0000 0.0000 20.1318 0.0000 -28.0254
#
#
#
# Elastic Compliance Matrix: (Units=1/GPa)
#
#
# Indices 1 2 3 4 5 6 
#
# 1 0.020991 -0.004086 -0.002841 0.000000 -0.007937 0.000000
# 2 -0.004086 0.016845 0.004200 0.000000 -0.006293 0.000000
# 3 -0.002841 0.004200 0.018863 0.000000 -0.016601 0.000000
# 4 0.000000 0.000000 0.000000 0.025846 0.000000 0.018566
# 5 -0.007937 -0.006293 -0.016601 0.000000 0.038052 0.000000
# 6 0.000000 0.000000 0.000000 0.018566 0.000000 -0.022345
#
#
# Mechanical properties :
#
#
# Convention : Reuss Voigt Hill
#
# Bulk Modulus (GPa) = 19.51403 39.75387 29.63395
# Shear Modulus (GPa) = 41.39455 23.47282 32.43369
#
# Velocity S-wave (km/s) = 4.20450 3.16611 3.72170
# Velocity P-wave (km/s) = 5.64836 5.50843 5.57884
#
# Compressibility (1/GPa) = 0.05124519
#
# Stress axis : x y z
#
# Youngs Moduli (GPa) = 47.63862 59.36437 53.01402
#
# Poissons Ratio (x) = 0.24255 0.15063
# Poissons Ratio (y) = 0.19464 -0.22266
# Poissons Ratio (z) = 0.13535 -0.24933
#
# Static dielectric constant tensor:
#      x y z
#    x 1.932770 0.000000 0.011020 
#    y 0.000000 1.917590 0.000000 
#    z 0.011020 0.000000 1.931270 
# 
# From -- ./inp_files/17910.got.cif
#   From: 2010.05.17/outbox.cif.g08.bks.cpg/sg9_9_cif.got.tgz:17910.got - 2010.06.03 20:04:27.
