data_PCOD9135352
_publ_section_title
;
Structure prediction by ZEFSAII (Michael W. Deem and Ramdas Pophale) SiO2 
 PCOD9135352
Probable space group: C C
;
_chemical_formula_sum "Si O2"
_cell_formula_units_Z 24
_cell_length_a 18.519108
_cell_length_b 8.914137
_cell_length_c 9.227683
_cell_angle_alpha 90.000000
_cell_angle_beta 39.230708
_cell_angle_gamma 90.000000
_cell_volume 963.417406
_symmetry_space_group_name_H-M "C C"
_symmetry_group_IT_number 9
_symmetry_cell_setting 'monoclinic'
loop_
_space_group_symop_operation_xyz
x,y,z
x,-y,1/2+z
1/2+x,1/2+y,z
1/2+x,1/2-y,1/2+z
loop_
_atom_site_type_symbol
_atom_site_label
_atom_site_fract_x
_atom_site_fract_y
_atom_site_fract_z
Si Si1 0.282370 0.264686 0.472100
Si Si2 0.901274 0.010610 0.587603
Si Si3 0.354826 0.158706 0.641506
Si Si4 0.070557 0.605431 0.488240
Si Si5 0.117126 0.154493 0.151690
Si Si6 0.698170 0.816005 0.313708
O O1 0.373001 0.390484 0.275017
O O2 0.343568 0.149668 0.484908
O O3 0.176935 0.335192 0.725789
O O4 0.226422 0.214152 0.407908
O O5 0.817728 0.096897 0.605612
O O6 0.029680 0.026958 0.335143
O O7 0.867397 0.838211 0.652639
O O8 0.461706 0.085949 0.554666
O O9 0.234465 0.110592 0.893662
O O10 0.055719 0.728089 0.637873
O O11 0.111370 0.448461 0.491642
O O12 0.152730 0.237574 0.243549
#
# Coordination Sequence:
#
# PCOD9135352 Si02
#       6
#     4   4   4   4   4   4
#     4   9  20  37  62  89 120 172 215 267 328 385
#     4  10  22  39  69  92 131 169 227 275 331 398
#     4  11  23  39  65  98 132 171 221 275 339 395
#     4  11  21  37  65  95 135 173 223 274 337 404
#     4  11  22  39  66  97 126 179 224 272 336 400
#     4  10  20  39  65  95 126 176 224 269 335 392
#
# _framework density 24.911321999999998
#
# number of rings (size 3 to 8) (size 9 to 14) (size 15 to 20)
#    1.000    0.667    3.333    3.000    4.667    0.000 
#    0.000    1.667   11.000    0.000    0.000    0.000 
#    0.000    0.000    0.000    0.000    0.000    0.000 
#
# Total GULP energy -67118.398915 kJ/mol
# GULP energy per Si atom -5593.199910 kJ/mol
# Density = 2.485462 g / cm^3
# Si number density = 24.911322 Si / 1000 Ang^3
#
#
#
# Elastic Constant Matrix: (Units=GPa)
#
#
# Indices 1 2 3 4 5 6 
#
# 1 158.6982 17.4306 45.4800 0.0000 5.0837 0.0000
# 2 17.4306 86.0823 36.1084 0.0000 -5.7857 0.0000
# 3 45.4800 36.1084 124.0848 0.0000 -10.0438 0.0000
# 4 0.0000 0.0000 0.0000 18.3849 0.0000 -9.6859
# 5 5.0837 -5.7857 -10.0438 0.0000 53.5816 0.0000
# 6 0.0000 0.0000 0.0000 -9.6859 0.0000 23.2161
#
#
#
# Elastic Compliance Matrix: (Units=1/GPa)
#
#
# Indices 1 2 3 4 5 6 
#
# 1 0.007128 -0.000442 -0.002582 0.000000 -0.001208 0.000000
# 2 -0.000442 0.013287 -0.003640 0.000000 0.000794 0.000000
# 3 -0.002582 -0.003640 0.010208 0.000000 0.001765 0.000000
# 4 0.000000 0.000000 0.000000 0.069716 0.000000 0.029086
# 5 -0.001208 0.000794 0.001765 0.000000 0.019194 0.000000
# 6 0.000000 0.000000 0.000000 0.029086 0.000000 0.055209
#
#
# Mechanical properties :
#
#
# Convention : Reuss Voigt Hill
#
# Bulk Modulus (GPa) = 57.82046 62.98925 60.40485
# Shear Modulus (GPa) = 25.79523 37.02627 31.41075
#
# Velocity S-wave (km/s) = 3.22138 3.85947 3.55477
# Velocity P-wave (km/s) = 6.09076 6.72316 6.41476
#
# Compressibility (1/GPa) = 0.01729492
#
# Stress axis : x y z
#
# Youngs Moduli (GPa) = 140.28346 75.26431 97.96659
#
# Poissons Ratio (x) = 0.03323 0.25295
# Poissons Ratio (y) = 0.06194 0.35662
# Poissons Ratio (z) = 0.36222 0.27398
#
# Static dielectric constant tensor:
#      x y z
#    x 1.986270 0.000000 0.023870 
#    y 0.000000 1.950630 0.000000 
#    z 0.023870 0.000000 1.957490 
# 
# From -- ./inp_files/10602.got.cif
#   From: 2010.05.17/outbox.cif.g08.bks.cpg/sg9_6_cif.got.tgz:10602.got - 2010.06.03 20:04:27.
