data_PCOD9135320
_publ_section_title
;
Structure prediction by ZEFSAII (Michael W. Deem and Ramdas Pophale) SiO2 
 PCOD9135320
Probable space group: C C
;
_chemical_formula_sum "Si O2"
_cell_formula_units_Z 32
_cell_length_a 12.659011
_cell_length_b 8.968230
_cell_length_c 25.044750
_cell_angle_alpha 90.000000
_cell_angle_beta 149.443838
_cell_angle_gamma 90.000000
_cell_volume 1445.486292
_symmetry_space_group_name_H-M "C C"
_symmetry_group_IT_number 9
_symmetry_cell_setting 'monoclinic'
loop_
_space_group_symop_operation_xyz
x,y,z
x,-y,1/2+z
1/2+x,1/2+y,z
1/2+x,1/2-y,1/2+z
loop_
_atom_site_type_symbol
_atom_site_label
_atom_site_fract_x
_atom_site_fract_y
_atom_site_fract_z
Si Si1 0.322550 0.681803 0.528770
Si Si2 0.603727 0.279271 0.789204
Si Si3 0.923024 0.829663 0.887936
Si Si4 0.236097 0.358692 0.458954
Si Si5 0.217059 0.871955 0.688913
Si Si6 0.173486 0.865564 0.099641
Si Si7 0.102336 0.920495 0.238527
Si Si8 0.923627 0.860460 0.342831
O O1 0.218441 0.537359 0.455422
O O2 0.533648 0.706100 0.586446
O O3 0.389006 0.628528 0.616866
O O4 0.160975 0.815396 0.457997
O O5 0.370910 0.233123 0.671280
O O6 0.604438 0.458473 0.786292
O O7 0.770723 0.209852 0.821028
O O8 0.659002 0.209525 0.870085
O O9 0.721083 0.728677 0.805946
O O10 0.894099 0.963491 0.833665
O O11 0.097007 0.716682 0.943015
O O12 0.013580 0.893740 0.982237
O O13 0.477731 0.325588 0.575393
O O14 0.354173 0.728083 0.759719
O O15 0.267222 0.978584 0.661462
O O16 0.214341 0.984966 0.738919
#
# Coordination Sequence:
#
# PCOD9135320 Si02
#       8
#     4   4   4   4   4   4   4   4
#     4  10  21  43  65  89 123 171 213 258 315 381
#     4  11  21  40  65  92 123 171 212 253 313 383
#     4  12  23  38  60  97 132 163 206 268 320 375
#     4  10  20  39  63  89 125 164 213 260 312 375
#     4   9  20  41  64  86 118 169 211 253 311 375
#     4  10  21  39  66  92 123 165 212 261 318 379
#     4   9  21  38  62  91 125 163 204 252 314 377
#     4  11  23  38  63  92 123 162 213 265 315 373
#
# _framework density 22.137877
#
# number of rings (size 3 to 8) (size 9 to 14) (size 15 to 20)
#    0.000    2.000    0.000    7.500    0.000    3.000 
#    0.000    6.250    0.000    0.000    0.000    0.000 
#    0.000    0.000    0.000    0.000    0.000    0.000 
#
# Total GULP energy -89393.066159 kJ/mol
# GULP energy per Si atom -5587.066635 kJ/mol
# Density = 2.208749 g / cm^3
# Si number density = 22.137877 Si / 1000 Ang^3
#
#
#
# Elastic Constant Matrix: (Units=GPa)
#
#
# Indices 1 2 3 4 5 6 
#
# 1 38.1464 1.2690 5.4327 0.0000 6.4213 0.0000
# 2 1.2690 101.7777 39.5674 0.0000 0.5143 0.0000
# 3 5.4327 39.5674 96.5708 0.0002 -7.7726 0.0000
# 4 0.0000 0.0000 0.0002 7.1649 0.0000 12.6841
# 5 6.4213 0.5143 -7.7726 0.0000 38.4793 0.0000
# 6 0.0000 0.0000 0.0000 12.6841 0.0000 24.7224
#
#
#
# Elastic Compliance Matrix: (Units=1/GPa)
#
#
# Indices 1 2 3 4 5 6 
#
# 1 0.027347 0.000522 -0.002155 0.000001 -0.005006 0.000000
# 2 0.000522 0.011746 -0.004942 0.000002 -0.001242 -0.000001
# 3 -0.002155 -0.004942 0.012743 -0.000004 0.003000 0.000002
# 4 0.000001 0.000002 -0.000004 1.521641 -0.000002 -0.780694
# 5 -0.005006 -0.001242 0.003000 -0.000002 0.027446 0.000001
# 6 0.000000 -0.000001 0.000002 -0.780694 0.000001 0.440992
#
#
# Mechanical properties :
#
#
# Convention : Reuss Voigt Hill
#
# Bulk Modulus (GPa) = 25.84938 36.55925 31.20432
# Shear Modulus (GPa) = 2.41784 26.75505 14.58645
#
# Velocity S-wave (km/s) = 1.04620 3.48021 2.56967
# Velocity P-wave (km/s) = 3.62785 5.71834 4.78856
#
# Compressibility (1/GPa) = 0.03868564
#
# Stress axis : x y z
#
# Youngs Moduli (GPa) = 36.56702 85.13224 78.47630
#
# Poissons Ratio (x) = -0.04446 0.16914
# Poissons Ratio (y) = -0.01910 0.38784
# Poissons Ratio (z) = 0.07881 0.42074
#
# Static dielectric constant tensor:
#      x y z
#    x 1.857820 0.000000 -0.025670 
#    y 0.000000 1.802600 0.000000 
#    z -0.025670 0.000000 1.829730 
# 
# From -- ./inp_files/36722.got.cif
#   From: 2010.05.17/outbox.cif.g08.bks.cpg/sg9_19_cif.got.tgz:36722.got - 2010.06.03 20:04:27.
