data_PCOD9135248
_publ_section_title
;
Structure prediction by ZEFSAII (Michael W. Deem and Ramdas Pophale) SiO2 
 PCOD9135248
Probable space group: C C
;
_chemical_formula_sum "Si O2"
_cell_formula_units_Z 32
_cell_length_a 16.557765
_cell_length_b 9.454393
_cell_length_c 23.065597
_cell_angle_alpha 90.000000
_cell_angle_beta 158.124399
_cell_angle_gamma 90.000000
_cell_volume 1345.347056
_symmetry_space_group_name_H-M "C C"
_symmetry_group_IT_number 9
_symmetry_cell_setting 'monoclinic'
loop_
_space_group_symop_operation_xyz
x,y,z
x,-y,1/2+z
1/2+x,1/2+y,z
1/2+x,1/2-y,1/2+z
loop_
_atom_site_type_symbol
_atom_site_label
_atom_site_fract_x
_atom_site_fract_y
_atom_site_fract_z
Si Si1 0.801340 0.952004 0.681850
Si Si2 0.000207 0.171892 0.676700
Si Si3 0.595584 0.669482 0.943735
Si Si4 0.445128 0.185992 0.701692
Si Si5 0.964265 0.723754 0.022804
Si Si6 0.091647 0.019184 0.540623
Si Si7 0.782805 0.127541 0.005648
Si Si8 0.958748 0.473995 0.861241
O O1 0.908347 0.832956 0.712317
O O2 0.672410 0.869753 0.645703
O O3 0.598923 0.025469 0.513071
O O4 0.985110 0.056860 0.827058
O O5 0.000432 0.226385 0.611540
O O6 0.850317 0.287724 0.610362
O O7 0.230850 0.152477 0.860530
O O8 0.902568 0.014830 0.603915
O O9 0.502096 0.821501 0.862915
O O10 0.519529 0.618541 0.957222
O O11 0.265136 0.079991 0.608015
O O12 0.401697 0.232589 0.606960
O O13 0.685583 0.132017 0.876603
O O14 0.946944 0.848830 0.962762
O O15 0.206889 0.989170 0.679484
O O16 0.561844 0.108412 0.896520
#
# Coordination Sequence:
#
# PCOD9135248 Si02
#       8
#     4   4   4   4   4   4   4   4
#     4  10  20  38  65  90 123 169 220 253 318 408
#     4  11  26  39  65  97 135 164 217 278 337 380
#     4  11  22  35  65  99 122 162 223 266 312 388
#     4   9  18  34  60  90 115 158 214 261 298 372
#     4  11  24  44  66  92 133 176 212 275 344 394
#     4  10  20  38  65  90 123 169 220 253 318 408
#     4   9  19  35  57  90 124 158 205 265 314 376
#     4   9  19  33  61  92 125 152 213 269 307 366
#
# _framework density 23.785684
#
# number of rings (size 3 to 8) (size 9 to 14) (size 15 to 20)
#    0.000    2.000    0.000    3.000   10.500    4.000 
#    0.000    0.000   11.000    0.000    0.000    0.000 
#    0.000    0.000    0.000    0.000    0.000    0.000 
#
# Total GULP energy -89174.206215 kJ/mol
# GULP energy per Si atom -5573.387888 kJ/mol
# Density = 2.373155 g / cm^3
# Si number density = 23.785684 Si / 1000 Ang^3
#
#
#
# Elastic Constant Matrix: (Units=GPa)
#
#
# Indices 1 2 3 4 5 6 
#
# 1 42.2053 6.3283 -3.4923 -0.0015 -5.2461 -0.0015
# 2 6.3283 63.9358 17.9469 -0.0087 4.6433 -0.0026
# 3 -3.4923 17.9469 80.3022 -0.0045 -8.0333 -0.0042
# 4 -0.0015 -0.0087 -0.0045 33.0349 -0.0014 -5.8102
# 5 -5.2461 4.6433 -8.0333 -0.0014 26.9890 -0.0013
# 6 -0.0015 -0.0026 -0.0042 -5.8102 -0.0013 24.0440
#
#
#
# Elastic Compliance Matrix: (Units=1/GPa)
#
#
# Indices 1 2 3 4 5 6 
#
# 1 0.025237 -0.003670 0.002548 0.000001 0.006295 0.000002
# 2 -0.003670 0.017674 -0.004623 0.000004 -0.005130 0.000002
# 3 0.002548 -0.004623 0.014147 0.000002 0.005501 0.000003
# 4 0.000001 0.000004 0.000002 0.031615 0.000002 0.007640
# 5 0.006295 -0.005130 0.005501 0.000002 0.040796 0.000003
# 6 0.000002 0.000002 0.000003 0.007640 0.000003 0.043437
#
#
# Mechanical properties :
#
#
# Convention : Reuss Voigt Hill
#
# Bulk Modulus (GPa) = 21.94534 25.33433 23.63983
# Shear Modulus (GPa) = 25.05182 27.85760 26.45471
#
# Velocity S-wave (km/s) = 3.24887 3.42598 3.33860
# Velocity P-wave (km/s) = 4.82907 5.13069 4.98216
#
# Compressibility (1/GPa) = 0.04556776
#
# Stress axis : x y z
#
# Youngs Moduli (GPa) = 39.62386 56.57968 70.68490
#
# Poissons Ratio (x) = 0.20766 -0.18008
# Poissons Ratio (y) = 0.14543 0.32677
# Poissons Ratio (z) = -0.10095 0.26156
#
# Static dielectric constant tensor:
#      x y z
#    x 1.986040 0.000000 0.014700 
#    y 0.000000 1.918220 0.000000 
#    z 0.014700 0.000000 1.996320 
# 
# From -- ./inp_files/36963.got.cif
#   From: 2010.05.17/outbox.cif.g08.bks.cpg/sg9_19_cif.got.tgz:36963.got - 2010.06.03 20:04:27.
