data_PCOD9135490
_publ_section_title
;
Structure prediction by ZEFSAII (Michael W. Deem and Ramdas Pophale) SiO2 
 PCOD9135490
Probable space group: C C
;
_chemical_formula_sum "Si O2"
_cell_formula_units_Z 24
_cell_length_a 13.544204
_cell_length_b 7.569048
_cell_length_c 22.182664
_cell_angle_alpha 90.000000
_cell_angle_beta 24.741946
_cell_angle_gamma 90.000000
_cell_volume 951.781360
_symmetry_space_group_name_H-M "C C"
_symmetry_group_IT_number 9
_symmetry_cell_setting 'monoclinic'
loop_
_space_group_symop_operation_xyz
x,y,z
x,-y,1/2+z
1/2+x,1/2+y,z
1/2+x,1/2-y,1/2+z
loop_
_atom_site_type_symbol
_atom_site_label
_atom_site_fract_x
_atom_site_fract_y
_atom_site_fract_z
Si Si1 0.387010 0.884783 0.912870
Si Si2 0.677691 0.359941 0.333654
Si Si3 0.285146 0.065242 0.097796
Si Si4 0.294692 0.477488 0.836654
Si Si5 0.965217 0.310251 0.666942
Si Si6 0.233723 0.520652 0.623685
O O1 0.565674 0.742136 0.840232
O O2 0.531749 0.994895 0.785105
O O3 0.152627 0.785491 0.019344
O O4 0.315039 0.992952 0.012529
O O5 0.832751 0.209512 0.280543
O O6 0.780680 0.542194 0.251183
O O7 0.479235 0.415373 0.492739
O O8 0.297575 0.275276 0.088531
O O9 0.011178 0.015384 0.264002
O O10 0.514019 0.986671 0.005538
O O11 0.335390 0.647693 0.771484
O O12 0.121711 0.425842 0.627066
#
# Coordination Sequence:
#
# PCOD9135490 Si02
#       6
#     4   4   4   4   4   4
#     4   9  23  41  65 100 142 175 245 292 346 430
#     4  10  20  41  69  94 137 180 225 294 357 417
#     4  10  20  40  68  96 140 180 228 298 352 398
#     4  10  20  40  68  94 132 184 222 288 350 414
#     4  10  20  41  69  94 137 180 225 294 357 417
#     4  11  21  43  67  98 134 189 235 284 356 432
#
# _framework density 25.215873999999999
#
# number of rings (size 3 to 8) (size 9 to 14) (size 15 to 20)
#    0.000    2.000    3.333    1.000    0.000    0.000 
#   15.000   13.333    0.000    0.000    0.000    0.000 
#    0.000    0.000    0.000    0.000    0.000    0.000 
#
# Total GULP energy -67024.920763 kJ/mol
# GULP energy per Si atom -5585.410064 kJ/mol
# Density = 2.515848 g / cm^3
# Si number density = 25.215874 Si / 1000 Ang^3
#
#
#
# Elastic Constant Matrix: (Units=GPa)
#
#
# Indices 1 2 3 4 5 6 
#
# 1 47.6347 10.8915 31.5684 -0.0010 -21.7090 0.0008
# 2 10.8915 174.1522 38.9597 -0.0009 -14.1828 -0.0001
# 3 31.5684 38.9597 117.7975 -0.0131 -27.4172 0.0018
# 4 -0.0010 -0.0009 -0.0131 47.7505 0.0015 -14.0743
# 5 -21.7090 -14.1828 -27.4172 0.0015 41.6143 -0.0003
# 6 0.0008 -0.0001 0.0018 -14.0743 -0.0003 31.2034
#
#
#
# Elastic Compliance Matrix: (Units=1/GPa)
#
#
# Indices 1 2 3 4 5 6 
#
# 1 0.030026 0.000306 -0.005289 -0.000002 0.012284 -0.000001
# 2 0.000306 0.006233 -0.001904 0.000000 0.001029 0.000000
# 3 -0.005289 -0.001904 0.011508 0.000003 0.004174 0.000001
# 4 -0.000002 0.000000 0.000003 0.024153 0.000000 0.010894
# 5 0.012284 0.001029 0.004174 0.000000 0.033539 0.000000
# 6 -0.000001 0.000000 0.000001 0.010894 0.000000 0.036962
#
#
# Mechanical properties :
#
#
# Convention : Reuss Voigt Hill
#
# Bulk Modulus (GPa) = 29.41791 55.82486 42.62138
# Shear Modulus (GPa) = 29.84628 41.32463 35.58546
#
# Velocity S-wave (km/s) = 3.44413 4.05264 3.76071
# Velocity P-wave (km/s) = 5.24478 6.63968 5.98302
#
# Compressibility (1/GPa) = 0.03399290
#
# Stress axis : x y z
#
# Youngs Moduli (GPa) = 33.30410 160.44413 86.89950
#
# Poissons Ratio (x) = -0.04904 0.45960
# Poissons Ratio (y) = -0.01018 0.16543
# Poissons Ratio (z) = 0.17614 0.30544
#
# Static dielectric constant tensor:
#      x y z
#    x 2.051820 0.000000 -0.078830 
#    y 0.000000 1.960940 0.000000 
#    z -0.078830 0.000000 2.072360 
# 
# From -- ./inp_files/19110.got.cif
#   From: 2010.05.17/outbox.cif.g08.bks.cpg/sg9_10_cif.got.tgz:19110.got - 2010.06.03 20:04:27.
