data_PCOD9135569
_publ_section_title
;
Structure prediction by ZEFSAII (Michael W. Deem and Ramdas Pophale) SiO2 
 PCOD9135569
Probable space group: C C
;
_chemical_formula_sum "Si O2"
_cell_formula_units_Z 24
_cell_length_a 13.419915
_cell_length_b 11.878759
_cell_length_c 7.604696
_cell_angle_alpha 90.000000
_cell_angle_beta 90.341693
_cell_angle_gamma 90.000000
_cell_volume 1212.257755
_symmetry_space_group_name_H-M "C C"
_symmetry_group_IT_number 9
_symmetry_cell_setting 'monoclinic'
loop_
_space_group_symop_operation_xyz
x,y,z
x,-y,1/2+z
1/2+x,1/2+y,z
1/2+x,1/2-y,1/2+z
loop_
_atom_site_type_symbol
_atom_site_label
_atom_site_fract_x
_atom_site_fract_y
_atom_site_fract_z
Si Si1 0.289890 0.764896 0.690890
Si Si2 0.779621 0.925403 0.892493
Si Si3 0.196718 0.646903 0.021750
Si Si4 0.600895 0.638945 0.025379
Si Si5 0.993418 0.002428 0.278134
Si Si6 0.512930 0.748804 0.703290
O O1 0.284693 0.660485 0.553701
O O2 0.252083 0.725162 0.881166
O O3 0.492636 0.615482 0.669565
O O4 0.404124 0.803543 0.703905
O O5 0.886182 0.986988 0.866886
O O6 0.753912 0.865670 0.708308
O O7 0.699987 0.022496 0.936833
O O8 0.208578 0.848512 0.608145
O O9 0.088599 0.695537 0.068584
O O10 0.519204 0.614759 0.174115
O O11 0.585613 0.527687 0.906725
O O12 0.566567 0.739812 0.896053
#
# Coordination Sequence:
#
# PCOD9135569 Si02
#       6
#     4   4   4   4   4   4
#     4  12  24  41  66  96 133 167 208 273 325 377
#     4  12  21  42  67  98 122 167 224 265 312 380
#     4  12  23  39  67  96 130 162 215 272 318 373
#     4  10  23  38  65  99 129 161 217 269 319 376
#     4  10  20  41  66  94 122 165 221 264 308 376
#     4  10  23  41  61 101 126 166 213 261 328 378
#
# _framework density 19.797768999999999
#
# number of rings (size 3 to 8) (size 9 to 14) (size 15 to 20)
#    1.000    0.000    5.000    3.000    4.667    0.000 
#    0.000    1.667    0.000    0.000    0.000    0.000 
#    0.000    0.000    0.000    0.000    0.000    0.000 
#
# Total GULP energy -66844.537202 kJ/mol
# GULP energy per Si atom -5570.378100 kJ/mol
# Density = 1.975271 g / cm^3
# Si number density = 19.797769 Si / 1000 Ang^3
#
#
#
# Elastic Constant Matrix: (Units=GPa)
#
#
# Indices 1 2 3 4 5 6 
#
# 1 153.2704 35.7075 66.0868 0.0000 -11.7616 0.0000
# 2 35.7075 35.2813 29.3096 0.0000 -13.6434 0.0000
# 3 66.0868 29.3096 118.9704 0.0000 -4.5417 0.0000
# 4 0.0000 0.0000 0.0000 30.9305 0.0000 -6.7133
# 5 -11.7616 -13.6434 -4.5417 0.0000 38.2351 0.0000
# 6 0.0000 0.0000 0.0000 -6.7133 0.0000 33.2006
#
#
#
# Elastic Compliance Matrix: (Units=1/GPa)
#
#
# Indices 1 2 3 4 5 6 
#
# 1 0.009699 -0.006639 -0.003746 0.000000 0.000170 0.000000
# 2 -0.006639 0.046317 -0.007202 0.000000 0.013629 0.000000
# 3 -0.003746 -0.007202 0.012174 0.000000 -0.002276 0.000000
# 4 0.000000 0.000000 0.000000 0.033815 0.000000 0.006837
# 5 0.000170 0.013629 -0.002276 0.000000 0.030799 0.000000
# 6 0.000000 0.000000 0.000000 0.006837 0.000000 0.031503
#
#
# Mechanical properties :
#
#
# Convention : Reuss Voigt Hill
#
# Bulk Modulus (GPa) = 30.28904 63.30332 46.79618
# Shear Modulus (GPa) = 23.75463 32.23444 27.99453
#
# Velocity S-wave (km/s) = 3.46766 4.03946 3.76443
# Velocity P-wave (km/s) = 5.60048 7.33489 6.52557
#
# Compressibility (1/GPa) = 0.03301525
#
# Stress axis : x y z
#
# Youngs Moduli (GPa) = 103.10116 21.59049 82.14454
#
# Poissons Ratio (x) = 0.14334 0.30769
# Poissons Ratio (y) = 0.68449 0.59164
# Poissons Ratio (z) = 0.38619 0.15550
#
# Static dielectric constant tensor:
#      x y z
#    x 1.682990 0.000000 0.026380 
#    y 0.000000 1.698040 0.000000 
#    z 0.026380 0.000000 1.818730 
# 
# From -- ./inp_files/6966.got.cif
#   From: 2010.05.17/outbox.cif.g08.bks.cpg/sg9_4_cif.got.tgz:6966.got - 2010.06.03 20:04:27.
