data_PCOD9135506
_publ_section_title
;
Structure prediction by ZEFSAII (Michael W. Deem and Ramdas Pophale) SiO2 
 PCOD9135506
Probable space group: C C
;
_chemical_formula_sum "Si O2"
_cell_formula_units_Z 32
_cell_length_a 25.560119
_cell_length_b 7.753780
_cell_length_c 13.600183
_cell_angle_alpha 90.000000
_cell_angle_beta 152.101025
_cell_angle_gamma 90.000000
_cell_volume 1261.209232
_symmetry_space_group_name_H-M "C C"
_symmetry_group_IT_number 9
_symmetry_cell_setting 'monoclinic'
loop_
_space_group_symop_operation_xyz
x,y,z
x,-y,1/2+z
1/2+x,1/2+y,z
1/2+x,1/2-y,1/2+z
loop_
_atom_site_type_symbol
_atom_site_label
_atom_site_fract_x
_atom_site_fract_y
_atom_site_fract_z
Si Si1 0.553040 0.823425 0.928530
Si Si2 0.227399 0.455146 0.470345
Si Si3 0.304395 0.216530 0.736550
Si Si4 0.893704 0.230936 0.821532
Si Si5 0.782522 0.364686 0.812588
Si Si6 0.720142 0.439847 0.399569
Si Si7 0.539715 0.758211 0.695547
Si Si8 0.685796 0.891773 0.706152
O O1 0.510613 0.740494 0.959387
O O2 0.489042 0.771300 0.722548
O O3 0.675710 0.750590 0.109639
O O4 0.570343 0.026561 0.975707
O O5 0.235131 0.262885 0.524373
O O6 0.333530 0.553503 0.693145
O O7 0.233469 0.472231 0.363933
O O8 0.120418 0.572698 0.321829
O O9 0.265157 0.363653 0.746788
O O10 0.270627 0.041604 0.732402
O O11 0.437475 0.218989 0.951312
O O12 0.885074 0.275243 0.922615
O O13 0.820939 0.370099 0.636102
O O14 0.771554 0.421921 0.907919
O O15 0.609945 0.414937 0.287125
O O16 0.683335 0.284461 0.262791
#
# Coordination Sequence:
#
# PCOD9135506 Si02
#       8
#     4   4   4   4   4   4   4   4
#     4  12  21  40  70  94 138 179 227 294 358 421
#     4  10  21  43  63  94 134 178 239 286 345 445
#     4  11  22  40  68  92 138 182 229 297 351 429
#     4  10  22  41  65  95 133 184 224 288 365 412
#     4  11  23  39  63 101 135 170 230 297 349 427
#     4   9  21  42  62  91 136 174 234 281 346 431
#     4  10  20  40  69  92 129 192 221 280 361 414
#     4   9  20  39  62  91 129 177 228 281 347 431
#
# _framework density 25.372475000000001
#
# number of rings (size 3 to 8) (size 9 to 14) (size 15 to 20)
#    0.000    2.000    3.750    2.250    5.250    1.000 
#    0.000    0.000    8.250    0.000    0.000    0.000 
#    0.000    0.000    0.000    0.000    0.000    0.000 
#
# Total GULP energy -89273.281241 kJ/mol
# GULP energy per Si atom -5579.580078 kJ/mol
# Density = 2.531473 g / cm^3
# Si number density = 25.372475 Si / 1000 Ang^3
#
#
#
# Elastic Constant Matrix: (Units=GPa)
#
#
# Indices 1 2 3 4 5 6 
#
# 1 165.9797 23.4357 29.4290 0.0000 -13.2610 0.0000
# 2 23.4357 39.8950 8.0410 0.0000 -2.9165 0.0000
# 3 29.4290 8.0410 45.2564 0.0000 3.0524 0.0000
# 4 0.0000 0.0000 0.0000 22.6608 0.0000 -17.5242
# 5 -13.2610 -2.9165 3.0524 0.0000 42.8001 0.0000
# 6 0.0000 0.0000 0.0000 -17.5242 0.0000 59.7320
#
#
#
# Elastic Compliance Matrix: (Units=1/GPa)
#
#
# Indices 1 2 3 4 5 6 
#
# 1 0.007471 -0.003320 -0.004431 0.000000 0.002405 0.000000
# 2 -0.003320 0.027663 -0.002828 0.000000 0.001058 0.000000
# 3 -0.004431 -0.002828 0.025709 0.000000 -0.003399 0.000000
# 4 0.000000 0.000000 0.000000 0.057079 0.000000 0.016746
# 5 0.002405 0.001058 -0.003399 0.000000 0.024424 0.000000
# 6 0.000000 0.000000 0.000000 0.016746 0.000000 0.021654
#
#
# Mechanical properties :
#
#
# Convention : Reuss Voigt Hill
#
# Bulk Modulus (GPa) = 25.19705 41.43805 33.31755
# Shear Modulus (GPa) = 25.20327 37.72026 31.46177
#
# Velocity S-wave (km/s) = 3.15513 3.85991 3.52518
# Velocity P-wave (km/s) = 4.81929 6.01935 5.45244
#
# Compressibility (1/GPa) = 0.03968719
#
# Stress axis : x y z
#
# Youngs Moduli (GPa) = 133.84526 36.14887 38.89679
#
# Poissons Ratio (x) = 0.12002 0.17234
# Poissons Ratio (y) = 0.44438 0.10998
# Poissons Ratio (z) = 0.59302 0.10221
#
# Static dielectric constant tensor:
#      x y z
#    x 2.091920 0.000000 -0.020080 
#    y 0.000000 2.081890 0.000000 
#    z -0.020080 0.000000 1.991680 
# 
# From -- ./inp_files/28020.got.cif
#   From: 2010.05.17/outbox.cif.g08.bks.cpg/sg9_15_cif.got.tgz:28020.got - 2010.06.03 20:04:27.
