data_PCOD9135734
_publ_section_title
;
Structure prediction by ZEFSAII (Michael W. Deem and Ramdas Pophale) SiO2 
 PCOD9135734
Probable space group: C C
;
_chemical_formula_sum "Si O2"
_cell_formula_units_Z 28
_cell_length_a 9.390073
_cell_length_b 10.244428
_cell_length_c 13.344313
_cell_angle_alpha 90.000000
_cell_angle_beta 113.758586
_cell_angle_gamma 90.000000
_cell_volume 1174.879078
_symmetry_space_group_name_H-M "C C"
_symmetry_group_IT_number 9
_symmetry_cell_setting 'monoclinic'
loop_
_space_group_symop_operation_xyz
x,y,z
x,-y,1/2+z
1/2+x,1/2+y,z
1/2+x,1/2-y,1/2+z
loop_
_atom_site_type_symbol
_atom_site_label
_atom_site_fract_x
_atom_site_fract_y
_atom_site_fract_z
Si Si1 0.522950 0.595079 0.846690
Si Si2 0.801178 0.945413 0.689944
Si Si3 0.327516 0.226020 0.868122
Si Si4 0.764492 0.382236 0.926625
Si Si5 0.943968 0.402752 0.591599
Si Si6 0.313402 0.594282 0.974010
Si Si7 0.991537 0.536155 0.332375
O O1 0.362435 0.586293 0.741092
O O2 0.647481 0.699487 0.846404
O O3 0.615078 0.460247 0.845377
O O4 0.461322 0.588954 0.942292
O O5 0.829634 0.842715 0.788425
O O6 0.618834 0.944549 0.615297
O O7 0.874859 0.918242 0.603598
O O8 0.402411 0.101760 0.830693
O O9 0.405238 0.216336 0.002752
O O10 0.731529 0.236107 0.947633
O O11 0.908010 0.373636 0.890403
O O12 0.826447 0.481208 0.028491
O O13 0.947731 0.405144 0.712357
O O14 0.174963 0.494247 0.902565
#
# Coordination Sequence:
#
# PCOD9135734 Si02
#       7
#     4   4   4   4   4   4   4
#     4  10  25  42  64 104 131 170 240 279 328 412
#     4  12  23  43  70  99 141 178 230 288 338 412
#     4  10  24  45  68 100 136 184 228 280 357 398
#     4  10  24  43  65  96 138 176 227 283 340 404
#     4  10  21  43  69  95 139 184 220 286 345 406
#     4  12  23  41  70 100 128 184 231 274 347 406
#     4  10  20  43  66  94 135 178 228 278 343 408
#
# _framework density 23.832238
#
# number of rings (size 3 to 8) (size 9 to 14) (size 15 to 20)
#    0.000    1.714    4.286    1.714    2.000    5.714 
#    0.000    1.429    0.000    0.000    0.000    0.000 
#    0.000    0.000    0.000    0.000    0.000    0.000 
#
# Total GULP energy -78078.997524 kJ/mol
# GULP energy per Si atom -5577.071252 kJ/mol
# Density = 2.377800 g / cm^3
# Si number density = 23.832238 Si / 1000 Ang^3
#
#
#
# Elastic Constant Matrix: (Units=GPa)
#
#
# Indices 1 2 3 4 5 6 
#
# 1 143.7796 27.3270 50.1149 0.0000 -9.7994 0.0000
# 2 27.3270 65.2059 44.7701 0.0000 -6.5444 0.0000
# 3 50.1149 44.7701 148.6249 0.0000 -16.5478 0.0000
# 4 0.0000 0.0000 0.0000 36.4518 0.0000 6.7786
# 5 -9.7994 -6.5444 -16.5478 0.0000 49.6357 0.0000
# 6 0.0000 0.0000 0.0000 6.7786 0.0000 34.6418
#
#
#
# Elastic Compliance Matrix: (Units=1/GPa)
#
#
# Indices 1 2 3 4 5 6 
#
# 1 0.008085 -0.001892 -0.002084 0.000000 0.000652 0.000000
# 2 -0.001892 0.019797 -0.005272 0.000000 0.000479 0.000000
# 3 -0.002084 -0.005272 0.009239 0.000000 0.001974 0.000000
# 4 0.000000 0.000000 0.000000 0.028469 0.000000 -0.005571
# 5 0.000652 0.000479 0.001974 0.000000 0.020997 0.000000
# 6 0.000000 0.000000 0.000000 -0.005571 0.000000 0.029957
#
#
# Mechanical properties :
#
#
# Convention : Reuss Voigt Hill
#
# Bulk Modulus (GPa) = 53.69132 66.89271 60.29202
# Shear Modulus (GPa) = 35.39858 39.83910 37.61884
#
# Velocity S-wave (km/s) = 3.85817 4.09301 3.97733
# Velocity P-wave (km/s) = 6.51345 7.10395 6.81510
#
# Compressibility (1/GPa) = 0.01862498
#
# Stress axis : x y z
#
# Youngs Moduli (GPa) = 123.67838 50.51295 108.23971
#
# Poissons Ratio (x) = 0.09559 0.22554
# Poissons Ratio (y) = 0.23405 0.57064
# Poissons Ratio (z) = 0.25771 0.26630
#
# Static dielectric constant tensor:
#      x y z
#    x 1.950550 0.000000 -0.016040 
#    y 0.000000 1.976620 0.000000 
#    z -0.016040 0.000000 1.949750 
# 
# From -- ./inp_files/22939.got.cif
#   From: 2010.05.17/outbox.cif.g08.bks.cpg/sg9_12_cif.got.tgz:22939.got - 2010.06.03 20:04:27.
