data_PCOD9135007
_publ_section_title
;
Structure prediction by ZEFSAII (Michael W. Deem and Ramdas Pophale) SiO2 
 PCOD9135007
Probable space group: C C
;
_chemical_formula_sum "Si O2"
_cell_formula_units_Z 32
_cell_length_a 8.826476
_cell_length_b 18.228631
_cell_length_c 9.415267
_cell_angle_alpha 90.000000
_cell_angle_beta 72.540218
_cell_angle_gamma 90.000000
_cell_volume 1445.072181
_symmetry_space_group_name_H-M "C C"
_symmetry_group_IT_number 9
_symmetry_cell_setting 'monoclinic'
loop_
_space_group_symop_operation_xyz
x,y,z
x,-y,1/2+z
1/2+x,1/2+y,z
1/2+x,1/2-y,1/2+z
loop_
_atom_site_type_symbol
_atom_site_label
_atom_site_fract_x
_atom_site_fract_y
_atom_site_fract_z
Si Si1 0.125000 0.791271 0.410350
Si Si2 0.370123 0.031628 0.490796
Si Si3 0.047091 0.029074 0.195033
Si Si4 0.934532 0.353904 0.188264
Si Si5 0.919017 0.683699 0.377204
Si Si6 0.548513 0.117745 0.935818
Si Si7 0.244793 0.179735 0.171443
Si Si8 0.384677 0.577271 0.969415
O O1 0.272602 0.839091 0.316379
O O2 0.169185 0.775572 0.562160
O O3 0.088221 0.723518 0.315552
O O4 0.978172 0.846045 0.438933
O O5 0.443244 0.065984 0.614281
O O6 0.404423 0.095769 0.368027
O O7 0.185087 0.017180 0.575199
O O8 0.452786 0.956933 0.430469
O O9 0.136979 0.105474 0.211311
O O10 0.973579 0.981351 0.342090
O O11 0.908627 0.047959 0.122250
O O12 0.064274 0.345776 0.275373
O O13 0.909053 0.306380 0.051371
O O14 0.778894 0.713009 0.317173
O O15 0.709076 0.094535 0.966332
O O16 0.425788 0.162154 0.069492
#
# Coordination Sequence:
#
# PCOD9135007 Si02
#       8
#     4   4   4   4   4   4   4   4
#     4  10  21  41  57  85 119 159 199 240 294 355
#     4   9  20  35  63  82 114 158 198 234 292 363
#     4  10  20  36  60  85 116 152 196 241 300 356
#     4   9  21  39  61  83 114 165 192 238 295 361
#     4  10  21  35  64  84 109 154 208 236 276 355
#     4  10  22  36  59  90 124 146 195 250 309 337
#     4   9  21  39  61  85 115 159 197 242 298 360
#     4  11  22  35  57  88 121 147 189 255 296 337
#
# _framework density 22.144223
#
# number of rings (size 3 to 8) (size 9 to 14) (size 15 to 20)
#    0.750    1.500    1.250    1.500    5.250    2.000 
#    0.000    2.500    0.000    0.000    0.000    0.000 
#    0.000    0.000    0.000    0.000    0.000    0.000 
#
# Total GULP energy -89089.592070 kJ/mol
# GULP energy per Si atom -5568.099504 kJ/mol
# Density = 2.209382 g / cm^3
# Si number density = 22.144223 Si / 1000 Ang^3
#
#
#
# Elastic Constant Matrix: (Units=GPa)
#
#
# Indices 1 2 3 4 5 6 
#
# 1 123.3283 17.2730 49.1486 0.0000 40.6500 0.0000
# 2 17.2730 40.7854 20.0568 0.0000 12.3645 0.0000
# 3 49.1486 20.0568 89.9195 0.0000 39.2888 0.0000
# 4 0.0000 0.0000 0.0000 26.8327 0.0000 8.5548
# 5 40.6500 12.3645 39.2888 0.0000 37.7545 0.0000
# 6 0.0000 0.0000 0.0000 8.5548 0.0000 23.7641
#
#
#
# Elastic Compliance Matrix: (Units=1/GPa)
#
#
# Indices 1 2 3 4 5 6 
#
# 1 0.012762 -0.001057 -0.001627 0.000000 -0.011701 0.000000
# 2 -0.001057 0.028113 -0.003975 0.000000 -0.003932 0.000000
# 3 -0.001627 -0.003975 0.021204 0.000000 -0.019012 0.000000
# 4 0.000000 0.000000 0.000000 0.042100 0.000000 -0.015155
# 5 -0.011701 -0.003932 -0.019012 0.000000 0.060158 0.000000
# 6 0.000000 0.000000 0.000000 -0.015155 0.000000 0.047536
#
#
# Mechanical properties :
#
#
# Convention : Reuss Voigt Hill
#
# Bulk Modulus (GPa) = 20.50814 47.44334 33.97574
# Shear Modulus (GPa) = 20.70872 28.84057 24.77464
#
# Velocity S-wave (km/s) = 3.06138 3.61279 3.34845
# Velocity P-wave (km/s) = 4.66662 6.23492 5.50688
#
# Compressibility (1/GPa) = 0.04876114
#
# Stress axis : x y z
#
# Youngs Moduli (GPa) = 78.35969 35.57065 47.16104
#
# Poissons Ratio (x) = 0.03761 0.07672
# Poissons Ratio (y) = 0.08285 0.18745
# Poissons Ratio (z) = 0.12748 0.14138
#
# Static dielectric constant tensor:
#      x y z
#    x 1.807930 0.000000 0.030840 
#    y 0.000000 1.841610 0.000000 
#    z 0.030840 0.000000 1.915920 
# 
# From -- ./inp_files/5749.got.cif
#   From: 2010.05.17/outbox.cif.g08.bks.cpg/sg9_3_cif.got.tgz:5749.got - 2010.06.03 20:04:27.
