data_PCOD9135019
_publ_section_title
;
Structure prediction by ZEFSAII (Michael W. Deem and Ramdas Pophale) SiO2 
 PCOD9135019
Probable space group: C C
;
_chemical_formula_sum "Si O2"
_cell_formula_units_Z 28
_cell_length_a 12.113677
_cell_length_b 13.718981
_cell_length_c 8.140119
_cell_angle_alpha 90.000000
_cell_angle_beta 70.645779
_cell_angle_gamma 90.000000
_cell_volume 1276.335546
_symmetry_space_group_name_H-M "C C"
_symmetry_group_IT_number 9
_symmetry_cell_setting 'monoclinic'
loop_
_space_group_symop_operation_xyz
x,y,z
x,-y,1/2+z
1/2+x,1/2+y,z
1/2+x,1/2-y,1/2+z
loop_
_atom_site_type_symbol
_atom_site_label
_atom_site_fract_x
_atom_site_fract_y
_atom_site_fract_z
Si Si1 0.022010 0.872340 0.264680
Si Si2 0.752760 0.135872 0.859785
Si Si3 0.645245 0.509172 0.419818
Si Si4 0.726495 0.684543 0.181330
Si Si5 0.106486 0.362427 0.117960
Si Si6 0.343102 0.152754 0.817274
Si Si7 0.676682 0.187996 0.241549
O O1 0.066171 0.761293 0.267723
O O2 0.888418 0.888272 0.281679
O O3 0.043846 0.934597 0.418425
O O4 0.104869 0.922130 0.087252
O O5 0.678112 0.097989 0.740307
O O6 0.749218 0.253138 0.832033
O O7 0.701065 0.125245 0.066800
O O8 0.677336 0.582010 0.256286
O O9 0.757721 0.439640 0.375936
O O10 0.628361 0.745688 0.131877
O O11 0.839715 0.689817 0.008086
O O12 0.969572 0.379514 0.197247
O O13 0.156297 0.378992 0.912138
O O14 0.283257 0.236830 0.735135
#
# Coordination Sequence:
#
# PCOD9135019 Si02
#       7
#     4   4   4   4   4   4   4
#     4  11  22  39  60  94 124 160 207 254 305 370
#     4  10  22  37  64  91 121 160 209 250 304 358
#     4  11  21  38  61  90 123 158 201 254 309 358
#     4   9  20  35  60  89 115 159 198 249 301 351
#     4   9  21  38  62  89 122 158 204 256 303 357
#     4  10  20  37  58  91 126 156 200 254 307 360
#     4  10  20  36  61  94 119 157 211 253 299 356
#
# _framework density 21.937805000000001
#
# number of rings (size 3 to 8) (size 9 to 14) (size 15 to 20)
#    0.857    1.143    2.857    0.857    4.000    0.000 
#    2.571    0.000    3.143    0.000    0.000    0.000 
#    0.000    0.000    0.000    0.000    0.000    0.000 
#
# Total GULP energy -78017.204074 kJ/mol
# GULP energy per Si atom -5572.657434 kJ/mol
# Density = 2.188787 g / cm^3
# Si number density = 21.937805 Si / 1000 Ang^3
#
#
#
# Elastic Constant Matrix: (Units=GPa)
#
#
# Indices 1 2 3 4 5 6 
#
# 1 120.0382 3.5301 41.0017 0.0000 -1.5178 0.0000
# 2 3.5301 38.4114 23.5611 0.0000 0.6484 0.0000
# 3 41.0017 23.5611 145.2442 0.0000 12.2395 0.0000
# 4 0.0000 0.0000 0.0000 7.0062 0.0000 3.8952
# 5 -1.5178 0.6484 12.2395 0.0000 18.1454 0.0000
# 6 0.0000 0.0000 0.0000 3.8952 0.0000 5.2578
#
#
#
# Elastic Compliance Matrix: (Units=1/GPa)
#
#
# Indices 1 2 3 4 5 6 
#
# 1 0.009375 0.000954 -0.003037 0.000000 0.002799 0.000000
# 2 0.000954 0.029095 -0.005204 0.000000 0.002550 0.000000
# 3 -0.003037 -0.005204 0.009110 0.000000 -0.006213 0.000000
# 4 0.000000 0.000000 0.000000 0.242688 0.000000 -0.179794
# 5 0.002799 0.002550 -0.006213 0.000000 0.059444 0.000000
# 6 0.000000 0.000000 0.000000 -0.179794 0.000000 0.323393
#
#
# Mechanical properties :
#
#
# Convention : Reuss Voigt Hill
#
# Bulk Modulus (GPa) = 30.29697 48.87550 39.58623
# Shear Modulus (GPa) = 7.15632 21.78861 14.47247
#
# Velocity S-wave (km/s) = 1.80809 3.15493 2.57126
# Velocity P-wave (km/s) = 4.26606 5.96648 5.18643
#
# Compressibility (1/GPa) = 0.03300660
#
# Stress axis : x y z
#
# Youngs Moduli (GPa) = 106.66139 34.36980 109.76820
#
# Poissons Ratio (x) = -0.03279 0.33340
# Poissons Ratio (y) = -0.10177 0.57124
# Poissons Ratio (z) = 0.32396 0.17886
#
# Static dielectric constant tensor:
#      x y z
#    x 1.806470 0.000000 0.055680 
#    y 0.000000 1.790800 0.000000 
#    z 0.055680 0.000000 1.917980 
# 
# From -- ./inp_files/7218.got.cif
#   From: 2010.05.17/outbox.cif.g08.bks.cpg/sg9_4_cif.got.tgz:7218.got - 2010.06.03 20:04:27.
