data_PCOD9135925
_publ_section_title
;
Structure prediction by ZEFSAII (Michael W. Deem and Ramdas Pophale) SiO2 
 PCOD9135925
Probable space group: C C
;
_chemical_formula_sum "Si O2"
_cell_formula_units_Z 32
_cell_length_a 5.269977
_cell_length_b 24.059118
_cell_length_c 11.043954
_cell_angle_alpha 90.000000
_cell_angle_beta 111.168738
_cell_angle_gamma 90.000000
_cell_volume 1305.784832
_symmetry_space_group_name_H-M "C C"
_symmetry_group_IT_number 9
_symmetry_cell_setting 'monoclinic'
loop_
_space_group_symop_operation_xyz
x,y,z
x,-y,1/2+z
1/2+x,1/2+y,z
1/2+x,1/2-y,1/2+z
loop_
_atom_site_type_symbol
_atom_site_label
_atom_site_fract_x
_atom_site_fract_y
_atom_site_fract_z
Si Si1 0.329220 0.432080 0.737600
Si Si2 0.698084 0.318437 0.605086
Si Si3 0.659969 0.667934 0.376860
Si Si4 0.972249 0.595050 0.583345
Si Si5 0.586753 0.218360 0.973028
Si Si6 0.431691 0.105634 0.968315
Si Si7 0.003710 0.036669 0.641673
Si Si8 0.536357 0.988369 0.886368
O O1 0.442738 0.382588 0.839891
O O2 0.194335 0.401540 0.600380
O O3 0.530230 0.480748 0.726064
O O4 0.088809 0.466542 0.761203
O O5 0.764435 0.330200 0.756371
O O6 0.408083 0.289094 0.545745
O O7 0.927510 0.282953 0.573770
O O8 0.701282 0.374928 0.523782
O O9 0.887624 0.654827 0.518028
O O10 0.529963 0.726716 0.388166
O O11 0.760646 0.571234 0.642529
O O12 0.284005 0.578991 0.665308
O O13 0.919402 0.558295 0.453778
O O14 0.480990 0.160286 0.895596
O O15 0.410898 0.047669 0.898136
O O16 0.848440 0.012542 0.495559
#
# Coordination Sequence:
#
# PCOD9135925 Si02
#       8
#     4   4   4   4   4   4   4   4
#     4  11  20  40  72  98 126 184 223 270 344 432
#     4  10  23  42  66  96 127 181 227 273 340 394
#     4  12  22  42  77  97 132 182 243 266 352 414
#     4  10  21  37  59  97 128 161 210 283 319 394
#     4  10  25  41  65 100 131 179 227 298 315 400
#     4   9  21  42  65  93 138 170 218 276 339 393
#     4   9  22  36  55  95 135 156 210 275 331 379
#     4   9  20  36  63 100 127 163 218 267 334 400
#
# _framework density 24.506333999999999
#
# number of rings (size 3 to 8) (size 9 to 14) (size 15 to 20)
#    1.500    0.500    2.500    0.750    1.750    6.000 
#    0.000    2.500    0.000    0.000    0.000    0.000 
#    0.000    0.000    0.000    0.000    0.000    0.000 
#
# Total GULP energy -89275.873190 kJ/mol
# GULP energy per Si atom -5579.742074 kJ/mol
# Density = 2.445056 g / cm^3
# Si number density = 24.506334 Si / 1000 Ang^3
#
#
#
# Elastic Constant Matrix: (Units=GPa)
#
#
# Indices 1 2 3 4 5 6 
#
# 1 147.6285 37.2079 11.1121 0.0000 -36.4183 0.0000
# 2 37.2079 158.8686 27.2232 0.0000 -23.6317 0.0000
# 3 11.1121 27.2232 40.9698 0.0000 -11.0800 0.0000
# 4 0.0000 0.0000 0.0000 41.8712 0.0000 3.6028
# 5 -36.4183 -23.6317 -11.0800 0.0000 31.6031 0.0000
# 6 0.0000 0.0000 0.0000 3.6028 0.0000 23.6548
#
#
#
# Elastic Compliance Matrix: (Units=1/GPa)
#
#
# Indices 1 2 3 4 5 6 
#
# 1 0.009551 -0.000786 0.000828 0.000000 0.010709 0.000000
# 2 -0.000786 0.007668 -0.003951 0.000000 0.003443 0.000000
# 3 0.000828 -0.003951 0.029019 0.000000 0.008174 0.000000
# 4 0.000000 0.000000 0.000000 0.024200 0.000000 -0.003686
# 5 0.010709 0.003443 0.008174 0.000000 0.049424 0.000000
# 6 0.000000 0.000000 0.000000 -0.003686 0.000000 0.042836
#
#
# Mechanical properties :
#
#
# Convention : Reuss Voigt Hill
#
# Bulk Modulus (GPa) = 26.02742 55.39483 40.71113
# Shear Modulus (GPa) = 27.27434 37.55407 32.41420
#
# Velocity S-wave (km/s) = 3.33971 3.91886 3.64082
# Velocity P-wave (km/s) = 5.05127 6.56735 5.85855
#
# Compressibility (1/GPa) = 0.03842101
#
# Stress axis : x y z
#
# Youngs Moduli (GPa) = 104.69714 130.41776 34.45977
#
# Poissons Ratio (x) = 0.10249 -0.02853
# Poissons Ratio (y) = 0.08227 0.13614
# Poissons Ratio (z) = -0.08667 0.51524
#
# Static dielectric constant tensor:
#      x y z
#    x 2.057020 0.000000 0.114460 
#    y 0.000000 1.927310 0.000000 
#    z 0.114460 0.000000 2.032280 
# 
# From -- ./inp_files/13860.got.cif
#   From: 2010.05.17/outbox.cif.g08.bks.cpg/sg9_7_cif.got.tgz:13860.got - 2010.06.03 20:04:27.
