data_PCOD9135405
_publ_section_title
;
Structure prediction by ZEFSAII (Michael W. Deem and Ramdas Pophale) SiO2 
 PCOD9135405
Probable space group: C C
;
_chemical_formula_sum "Si O2"
_cell_formula_units_Z 28
_cell_length_a 7.983305
_cell_length_b 26.588493
_cell_length_c 5.133411
_cell_angle_alpha 90.000000
_cell_angle_beta 85.041206
_cell_angle_gamma 90.000000
_cell_volume 1085.560219
_symmetry_space_group_name_H-M "C C"
_symmetry_group_IT_number 9
_symmetry_cell_setting 'monoclinic'
loop_
_space_group_symop_operation_xyz
x,y,z
x,-y,1/2+z
1/2+x,1/2+y,z
1/2+x,1/2-y,1/2+z
loop_
_atom_site_type_symbol
_atom_site_label
_atom_site_fract_x
_atom_site_fract_y
_atom_site_fract_z
Si Si1 0.680270 0.190739 0.313920
Si Si2 0.452021 0.471261 0.520588
Si Si3 0.631280 0.337247 0.882815
Si Si4 0.948922 0.634835 0.660808
Si Si5 0.964909 0.738462 0.976474
Si Si6 0.859419 0.468433 0.436966
Si Si7 0.920005 0.862876 0.414285
O O1 0.623128 0.142519 0.484149
O O2 0.804959 0.227667 0.441527
O O3 0.515060 0.222179 0.259587
O O4 0.773154 0.172874 0.038938
O O5 0.410189 0.514569 0.320229
O O6 0.654852 0.464335 0.465064
O O7 0.365930 0.420229 0.444126
O O8 0.800646 0.362456 0.964665
O O9 0.616994 0.276657 0.879662
O O10 0.497347 0.352298 0.124338
O O11 0.567705 0.355427 0.611458
O O12 0.930748 0.585135 0.834942
O O13 0.937338 0.686168 0.830411
O O14 0.906776 0.489775 0.713119
#
# Coordination Sequence:
#
# PCOD9135405 Si02
#       7
#     4   4   4   4   4   4   4
#     4  11  29  44  77 104 160 197 260 297 396 451
#     4  10  20  39  72 104 141 191 254 316 372 444
#     4  11  26  44  76 103 156 191 252 303 382 449
#     4  12  27  46  75 111 147 210 243 325 376 452
#     4  11  27  47  70 111 152 203 247 312 370 477
#     4  10  24  44  70 108 147 194 260 313 368 449
#     4  11  25  48  68 111 147 200 244 320 370 460
#
# _framework density 25.793133000000001
#
# number of rings (size 3 to 8) (size 9 to 14) (size 15 to 20)
#    0.000    1.143    2.857    0.857   18.000    0.000 
#    0.000    1.429    0.000    0.000    0.000    0.000 
#    0.000    0.000    0.000    0.000    0.000    0.000 
#
# Total GULP energy -78466.181130 kJ/mol
# GULP energy per Si atom -5604.727224 kJ/mol
# Density = 2.573443 g / cm^3
# Si number density = 25.793133 Si / 1000 Ang^3
#
#
#
# Elastic Constant Matrix: (Units=GPa)
#
#
# Indices 1 2 3 4 5 6 
#
# 1 83.3080 3.9417 12.1022 0.0000 6.4760 0.0000
# 2 3.9417 102.1895 -9.2228 0.0000 -3.0514 0.0000
# 3 12.1022 -9.2228 48.5925 0.0000 9.0861 0.0000
# 4 0.0000 0.0000 0.0000 50.1562 0.0000 -12.6425
# 5 6.4760 -3.0514 9.0861 0.0000 33.3725 0.0000
# 6 0.0000 0.0000 0.0000 -12.6425 0.0000 26.5977
#
#
#
# Elastic Compliance Matrix: (Units=1/GPa)
#
#
# Indices 1 2 3 4 5 6 
#
# 1 0.012607 -0.000806 -0.002973 0.000000 -0.001711 0.000000
# 2 -0.000806 0.010013 0.002003 0.000000 0.000527 0.000000
# 3 -0.002973 0.002003 0.022714 0.000000 -0.005424 0.000000
# 4 0.000000 0.000000 0.000000 0.022652 0.000000 0.010767
# 5 -0.001711 0.000527 -0.005424 0.000000 0.031822 0.000000
# 6 0.000000 0.000000 0.000000 0.010767 0.000000 0.042715
#
#
# Mechanical properties :
#
#
# Convention : Reuss Voigt Hill
#
# Bulk Modulus (GPa) = 23.93350 27.52580 25.72965
# Shear Modulus (GPa) = 31.24976 37.17653 34.21314
#
# Velocity S-wave (km/s) = 3.48451 3.80061 3.64599
# Velocity P-wave (km/s) = 5.04859 5.47306 5.26511
#
# Compressibility (1/GPa) = 0.04178244
#
# Stress axis : x y z
#
# Youngs Moduli (GPa) = 79.32347 99.86728 44.02566
#
# Poissons Ratio (x) = 0.08046 0.13088
# Poissons Ratio (y) = 0.06391 -0.08817
# Poissons Ratio (z) = 0.23581 -0.20000
#
# Static dielectric constant tensor:
#      x y z
#    x 2.077820 0.000000 -0.012770 
#    y 0.000000 1.990700 0.000000 
#    z -0.012770 0.000000 2.038000 
# 
# From -- ./inp_files/1061.got.cif
#   From: 2010.05.17/outbox.cif.g08.bks.cpg/sg9_1_cif.got.tgz:1061.got - 2010.06.03 20:04:27.
