data_PCOD9135305
_publ_section_title
;
Structure prediction by ZEFSAII (Michael W. Deem and Ramdas Pophale) SiO2 
 PCOD9135305
Probable space group: C C
;
_chemical_formula_sum "Si O2"
_cell_formula_units_Z 32
_cell_length_a 16.548407
_cell_length_b 10.386411
_cell_length_c 16.531792
_cell_angle_alpha 90.000000
_cell_angle_beta 27.905746
_cell_angle_gamma 90.000000
_cell_volume 1329.855937
_symmetry_space_group_name_H-M "C C"
_symmetry_group_IT_number 9
_symmetry_cell_setting 'monoclinic'
loop_
_space_group_symop_operation_xyz
x,y,z
x,-y,1/2+z
1/2+x,1/2+y,z
1/2+x,1/2-y,1/2+z
loop_
_atom_site_type_symbol
_atom_site_label
_atom_site_fract_x
_atom_site_fract_y
_atom_site_fract_z
Si Si1 0.567350 0.779153 0.998220
Si Si2 0.729892 0.149089 0.773887
Si Si3 0.257594 0.604186 0.573687
Si Si4 0.860426 0.169860 0.825728
Si Si5 0.509502 0.473067 0.455066
Si Si6 0.905703 0.115431 0.273854
Si Si7 0.881642 0.469817 0.654162
Si Si8 0.005273 0.425392 0.717771
O O1 0.562299 0.667723 0.936345
O O2 0.734422 0.863385 0.870860
O O3 0.535395 0.705709 0.111380
O O4 0.428377 0.882502 0.092330
O O5 0.732314 0.188868 0.676938
O O6 0.869984 0.033008 0.640481
O O7 0.817761 0.221412 0.772168
O O8 0.537194 0.110428 0.973508
O O9 0.396634 0.492024 0.474853
O O10 0.346287 0.660927 0.415556
O O11 0.075527 0.535046 0.714655
O O12 0.925918 0.291469 0.818289
O O13 0.963428 0.034779 0.728878
O O14 0.680140 0.122116 0.019739
O O15 0.685778 0.555189 0.299989
O O16 0.892748 0.476708 0.742626
#
# Coordination Sequence:
#
# PCOD9135305 Si02
#       8
#     4   4   4   4   4   4   4   4
#     4  12  19  38  68  94 125 174 228 278 327 406
#     4   9  20  42  63  91 138 161 212 287 323 383
#     4   9  21  44  58  95 140 167 207 290 341 378
#     4  10  20  39  61  91 125 176 221 265 321 413
#     4  10  22  37  68  95 127 170 221 274 338 397
#     4  11  21  40  63  97 133 171 217 288 340 394
#     4  11  21  40  68  99 121 178 240 257 331 424
#     4  10  22  40  65  88 131 177 218 269 329 401
#
# _framework density 24.062756
#
# number of rings (size 3 to 8) (size 9 to 14) (size 15 to 20)
#    0.750    1.000    6.250    0.000    1.750    0.000 
#    9.000    6.250    0.000    0.000    0.000    0.000 
#    0.000    0.000    0.000    0.000    0.000    0.000 
#
# Total GULP energy -89098.317612 kJ/mol
# GULP energy per Si atom -5568.644851 kJ/mol
# Density = 2.400799 g / cm^3
# Si number density = 24.062756 Si / 1000 Ang^3
#
#
#
# Elastic Constant Matrix: (Units=GPa)
#
#
# Indices 1 2 3 4 5 6 
#
# 1 96.7541 17.4851 23.0297 0.0003 1.6916 0.0000
# 2 17.4851 61.1445 18.9206 0.0008 -9.7481 -0.0001
# 3 23.0297 18.9206 69.6412 0.0005 -7.7867 -0.0001
# 4 0.0003 0.0008 0.0005 16.8076 -0.0001 -6.1111
# 5 1.6916 -9.7481 -7.7867 -0.0001 30.1247 0.0000
# 6 0.0000 -0.0001 -0.0001 -6.1111 0.0000 28.7803
#
#
#
# Elastic Compliance Matrix: (Units=1/GPa)
#
#
# Indices 1 2 3 4 5 6 
#
# 1 0.011669 -0.002666 -0.003403 0.000000 -0.002398 0.000000
# 2 -0.002666 0.019123 -0.003713 -0.000001 0.005378 0.000000
# 3 -0.003403 -0.003713 0.016868 0.000000 0.003350 0.000000
# 4 0.000000 -0.000001 0.000000 0.064475 0.000000 0.013690
# 5 -0.002398 0.005378 0.003350 0.000000 0.035936 0.000000
# 6 0.000000 0.000000 0.000000 0.013690 0.000000 0.037653
#
#
# Mechanical properties :
#
#
# Convention : Reuss Voigt Hill
#
# Bulk Modulus (GPa) = 35.59032 38.49007 37.04019
# Shear Modulus (GPa) = 23.29346 26.34949 24.82147
#
# Velocity S-wave (km/s) = 3.11469 3.31272 3.21523
# Velocity P-wave (km/s) = 5.26857 5.53738 5.40464
#
# Compressibility (1/GPa) = 0.02809753
#
# Stress axis : x y z
#
# Youngs Moduli (GPa) = 85.69625 52.29197 59.28493
#
# Poissons Ratio (x) = 0.13943 0.20172
# Poissons Ratio (y) = 0.22849 0.22010
# Poissons Ratio (z) = 0.29159 0.19413
#
# Static dielectric constant tensor:
#      x y z
#    x 2.011760 0.000000 -0.023570 
#    y 0.000000 2.063390 0.000000 
#    z -0.023570 0.000000 1.976930 
# 
# From -- ./inp_files/30987.got.cif
#   From: 2010.05.17/outbox.cif.g08.bks.cpg/sg9_16_cif.got.tgz:30987.got - 2010.06.03 20:04:27.
