data_PCOD9135047
_publ_section_title
;
Structure prediction by ZEFSAII (Michael W. Deem and Ramdas Pophale) SiO2 
 PCOD9135047
Probable space group: C C
;
_chemical_formula_sum "Si O2"
_cell_formula_units_Z 32
_cell_length_a 7.379175
_cell_length_b 16.008934
_cell_length_c 11.934072
_cell_angle_alpha 90.000000
_cell_angle_beta 68.965445
_cell_angle_gamma 90.000000
_cell_volume 1315.860900
_symmetry_space_group_name_H-M "C C"
_symmetry_group_IT_number 9
_symmetry_cell_setting 'monoclinic'
loop_
_space_group_symop_operation_xyz
x,y,z
x,-y,1/2+z
1/2+x,1/2+y,z
1/2+x,1/2-y,1/2+z
loop_
_atom_site_type_symbol
_atom_site_label
_atom_site_fract_x
_atom_site_fract_y
_atom_site_fract_z
Si Si1 0.710480 0.183982 0.660410
Si Si2 0.683305 0.842047 0.504329
Si Si3 0.708395 0.411767 0.103871
Si Si4 0.331500 0.858474 0.710862
Si Si5 0.025825 0.829225 0.933438
Si Si6 0.781943 0.249800 0.211442
Si Si7 0.071520 0.612451 0.380183
Si Si8 0.853682 0.040404 0.790289
O O1 0.840653 0.258239 0.685547
O O2 0.493538 0.218703 0.701756
O O3 0.742734 0.099672 0.723073
O O4 0.801069 0.175097 0.516009
O O5 0.475048 0.887353 0.579180
O O6 0.628332 0.760317 0.441055
O O7 0.775570 0.809055 0.601142
O O8 0.826007 0.904558 0.408944
O O9 0.682236 0.334032 0.192622
O O10 0.572689 0.477597 0.197348
O O11 0.601109 0.391982 0.012073
O O12 0.932249 0.409164 0.016276
O O13 0.106512 0.862175 0.798244
O O14 0.435605 0.892255 0.798783
O O15 0.663955 0.203444 0.334608
O O16 0.234718 0.543241 0.333242
#
# Coordination Sequence:
#
# PCOD9135047 Si02
#       8
#     4   4   4   4   4   4   4   4
#     4  10  20  36  65  97 125 166 225 273 315 393
#     4   9  18  34  62  86 120 169 211 259 329 381
#     4   9  21  40  66  92 127 173 217 267 328 395
#     4   9  17  37  62  86 120 168 215 253 322 385
#     4   8  15  32  61  88 113 162 216 259 303 379
#     4  10  22  40  66  95 129 172 232 268 317 390
#     4  10  22  43  67  92 130 173 217 276 334 401
#     4  11  21  42  67  92 132 173 217 273 348 386
#
# _framework density 24.318680000000001
#
# number of rings (size 3 to 8) (size 9 to 14) (size 15 to 20)
#    0.000    2.500    1.250    2.250    3.500    1.000 
#    9.000    0.000    0.000    0.000    0.000    0.000 
#    0.000    0.000    0.000    0.000    0.000    0.000 
#
# Total GULP energy -89124.515508 kJ/mol
# GULP energy per Si atom -5570.282219 kJ/mol
# Density = 2.426333 g / cm^3
# Si number density = 24.318680 Si / 1000 Ang^3
#
#
#
# Elastic Constant Matrix: (Units=GPa)
#
#
# Indices 1 2 3 4 5 6 
#
# 1 69.2237 8.7193 34.1484 0.0000 -23.5765 0.0000
# 2 8.7193 79.8908 49.5375 0.0000 -7.9538 0.0000
# 3 34.1484 49.5375 172.1549 0.0000 -42.2873 0.0000
# 4 0.0000 0.0000 0.0000 26.8079 0.0000 -0.5490
# 5 -23.5765 -7.9538 -42.2873 0.0000 57.0289 0.0000
# 6 0.0000 0.0000 0.0000 -0.5490 0.0000 12.0158
#
#
#
# Elastic Compliance Matrix: (Units=1/GPa)
#
#
# Indices 1 2 3 4 5 6 
#
# 1 0.017390 -0.000071 -0.002037 0.000000 0.005669 0.000000
# 2 -0.000071 0.015325 -0.004741 0.000000 -0.001408 0.000000
# 3 -0.002037 -0.004741 0.008813 0.000000 0.005032 0.000000
# 4 0.000000 0.000000 0.000000 0.037337 0.000000 0.001706
# 5 0.005669 -0.001408 0.005032 0.000000 0.023413 0.000000
# 6 0.000000 0.000000 0.000000 0.001706 0.000000 0.083302
#
#
# Mechanical properties :
#
#
# Convention : Reuss Voigt Hill
#
# Bulk Modulus (GPa) = 35.93170 56.23106 46.08138
# Shear Modulus (GPa) = 23.97452 34.42815 29.20134
#
# Velocity S-wave (km/s) = 3.14323 3.76667 3.46898
# Velocity P-wave (km/s) = 5.28967 6.48767 5.91906
#
# Compressibility (1/GPa) = 0.02783058
#
# Stress axis : x y z
#
# Youngs Moduli (GPa) = 57.50300 65.25440 113.46892
#
# Poissons Ratio (x) = 0.00462 0.23109
# Poissons Ratio (y) = 0.00407 0.53800
# Poissons Ratio (z) = 0.11711 0.30940
#
# Static dielectric constant tensor:
#      x y z
#    x 2.084290 0.000000 -0.020600 
#    y 0.000000 1.980620 0.000000 
#    z -0.020600 0.000000 2.012560 
# 
# From -- ./inp_files/23182.got.cif
#   From: 2010.05.17/outbox.cif.g08.bks.cpg/sg9_12_cif.got.tgz:23182.got - 2010.06.03 20:04:27.
