data_PCOD9135563
_publ_section_title
;
Structure prediction by ZEFSAII (Michael W. Deem and Ramdas Pophale) SiO2 
 PCOD9135563
Probable space group: C C
;
_chemical_formula_sum "Si O2"
_cell_formula_units_Z 32
_cell_length_a 30.416453
_cell_length_b 8.774818
_cell_length_c 9.792510
_cell_angle_alpha 90.000000
_cell_angle_beta 34.309749
_cell_angle_gamma 90.000000
_cell_volume 1473.204419
_symmetry_space_group_name_H-M "C C"
_symmetry_group_IT_number 9
_symmetry_cell_setting 'monoclinic'
loop_
_space_group_symop_operation_xyz
x,y,z
x,-y,1/2+z
1/2+x,1/2+y,z
1/2+x,1/2-y,1/2+z
loop_
_atom_site_type_symbol
_atom_site_label
_atom_site_fract_x
_atom_site_fract_y
_atom_site_fract_z
Si Si1 0.346210 0.158515 0.511890
Si Si2 0.909543 0.674759 0.859881
Si Si3 0.446337 0.668173 0.985064
Si Si4 0.113409 0.257923 0.490812
Si Si5 0.348702 0.358683 0.246606
Si Si6 0.568091 0.111715 0.584714
Si Si7 0.679237 0.223004 0.518997
Si Si8 0.189505 0.626681 0.043386
O O1 0.399060 0.236317 0.493021
O O2 0.369610 0.242273 0.312023
O O3 0.364644 0.981373 0.452728
O O4 0.255302 0.183702 0.781134
O O5 0.942234 0.739553 0.636138
O O6 0.978448 0.643963 0.790533
O O7 0.858140 0.799669 0.067802
O O8 0.398920 0.511400 0.128719
O O9 0.537276 0.653437 0.709428
O O10 0.081234 0.432771 0.582029
O O11 0.150619 0.237428 0.245595
O O12 0.177762 0.257859 0.447000
O O13 0.255035 0.363741 0.492118
O O14 0.607374 0.219949 0.597165
O O15 0.609834 0.136506 0.332577
O O16 0.703491 0.044603 0.454749
#
# Coordination Sequence:
#
# PCOD9135563 Si02
#       8
#     4   4   4   4   4   4   4   4
#     4  12  25  44  69 107 142 186 238 293 356 421
#     4  12  27  45  71 102 145 188 236 297 361 422
#     4  12  25  44  69 107 142 186 238 293 356 421
#     4  10  22  38  71 102 139 183 235 284 343 421
#     4  12  27  45  71 102 145 188 236 297 361 422
#     4  10  20  41  66 100 137 188 237 279 343 428
#     4  10  22  38  71 102 139 183 235 284 343 421
#     4  10  20  41  66 100 137 188 237 279 343 428
#
# _framework density 21.721359
#
# number of rings (size 3 to 8) (size 9 to 14) (size 15 to 20)
#    0.000    1.000    5.000    1.500    3.500    0.000 
#    0.000    2.500    0.000    0.000    0.000    0.000 
#    0.000    0.000    0.000    0.000    0.000    0.000 
#
# Total GULP energy -89389.151237 kJ/mol
# GULP energy per Si atom -5586.821952 kJ/mol
# Density = 2.167192 g / cm^3
# Si number density = 21.721359 Si / 1000 Ang^3
#
#
#
# Elastic Constant Matrix: (Units=GPa)
#
#
# Indices 1 2 3 4 5 6 
#
# 1 113.7217 33.2591 32.9024 0.0000 2.3679 0.0000
# 2 33.2591 69.6205 39.7099 0.0000 -3.5386 0.0000
# 3 32.9024 39.7099 104.6828 0.0000 5.4064 0.0000
# 4 0.0000 0.0000 0.0000 7.5147 0.0000 -0.4272
# 5 2.3679 -3.5386 5.4064 0.0000 39.0635 0.0000
# 6 0.0000 0.0000 0.0000 -0.4272 0.0000 18.4135
#
#
#
# Elastic Compliance Matrix: (Units=1/GPa)
#
#
# Indices 1 2 3 4 5 6 
#
# 1 0.010497 -0.004077 -0.001713 0.000000 -0.000768 0.000000
# 2 -0.004077 0.020187 -0.006530 0.000000 0.002980 0.000000
# 3 -0.001713 -0.006530 0.012684 0.000000 -0.002243 0.000000
# 4 0.000000 0.000000 0.000000 0.133248 0.000000 0.003092
# 5 -0.000768 0.002980 -0.002243 0.000000 0.026226 0.000000
# 6 0.000000 0.000000 0.000000 0.003092 0.000000 0.054380
#
#
# Mechanical properties :
#
#
# Convention : Reuss Voigt Hill
#
# Bulk Modulus (GPa) = 53.39503 55.52977 54.46240
# Shear Modulus (GPa) = 17.35473 25.14190 21.24832
#
# Velocity S-wave (km/s) = 2.82967 3.40586 3.13105
# Velocity P-wave (km/s) = 5.94233 6.40988 6.18053
#
# Compressibility (1/GPa) = 0.01872833
#
# Stress axis : x y z
#
# Youngs Moduli (GPa) = 95.26212 49.53620 78.83833
#
# Poissons Ratio (x) = 0.20194 0.13507
# Poissons Ratio (y) = 0.38835 0.51484
# Poissons Ratio (z) = 0.16321 0.32349
#
# Static dielectric constant tensor:
#      x y z
#    x 1.850120 0.000000 -0.039390 
#    y 0.000000 1.780950 0.000000 
#    z -0.039390 0.000000 1.786440 
# 
# From -- ./inp_files/12422.got.cif
#   From: 2010.05.17/outbox.cif.g08.bks.cpg/sg9_7_cif.got.tgz:12422.got - 2010.06.03 20:04:27.
