data_PCOD9135784
_publ_section_title
;
Structure prediction by ZEFSAII (Michael W. Deem and Ramdas Pophale) SiO2 
 PCOD9135784
Probable space group: C C
;
_chemical_formula_sum "Si O2"
_cell_formula_units_Z 28
_cell_length_a 11.375224
_cell_length_b 9.235870
_cell_length_c 19.560958
_cell_angle_alpha 90.000000
_cell_angle_beta 35.662293
_cell_angle_gamma 90.000000
_cell_volume 1198.122967
_symmetry_space_group_name_H-M "C C"
_symmetry_group_IT_number 9
_symmetry_cell_setting 'monoclinic'
loop_
_space_group_symop_operation_xyz
x,y,z
x,-y,1/2+z
1/2+x,1/2+y,z
1/2+x,1/2-y,1/2+z
loop_
_atom_site_type_symbol
_atom_site_label
_atom_site_fract_x
_atom_site_fract_y
_atom_site_fract_z
Si Si1 0.876670 0.972628 0.979340
Si Si2 0.074837 0.031047 0.084507
Si Si3 0.155066 0.529147 0.223826
Si Si4 0.079327 0.208837 0.950544
Si Si5 0.132163 0.823064 0.169067
Si Si6 0.974588 0.343096 0.426580
Si Si7 0.273514 0.491053 0.883910
O O1 0.728455 0.987416 0.985608
O O2 0.014404 0.116218 0.916201
O O3 0.001220 0.827437 0.909695
O O4 0.758703 0.962198 0.107095
O O5 0.100991 0.869085 0.103431
O O6 0.124931 0.083391 0.983910
O O7 0.238004 0.122168 0.050578
O O8 0.837636 0.065306 0.190979
O O9 0.053626 0.672779 0.239803
O O10 0.027396 0.423137 0.330759
O O11 0.250992 0.326566 0.869162
O O12 0.872975 0.300426 0.064984
O O13 0.997787 0.947435 0.266885
O O14 0.117764 0.409768 0.416419
#
# Coordination Sequence:
#
# PCOD9135784 Si02
#       7
#     4   4   4   4   4   4   4
#     4  10  26  46  69 107 143 189 246 298 370 431
#     4  10  20  44  70  98 146 184 237 298 361 420
#     4  10  26  47  70 110 147 187 252 305 361 431
#     4  10  24  46  70 102 149 187 238 313 346 438
#     4  10  22  40  74 103 138 195 233 294 367 427
#     4  12  24  45  77 104 145 195 240 307 363 442
#     4  12  24  44  72 106 138 193 244 289 374 429
#
# _framework density 23.369888
#
# number of rings (size 3 to 8) (size 9 to 14) (size 15 to 20)
#    0.000    1.714    4.286    0.000    2.000    8.000 
#    0.000    2.857    0.000    0.000    0.000    0.000 
#    0.000    0.000    0.000    0.000    0.000    0.000 
#
# Total GULP energy -77946.008985 kJ/mol
# GULP energy per Si atom -5567.572070 kJ/mol
# Density = 2.331670 g / cm^3
# Si number density = 23.369888 Si / 1000 Ang^3
#
#
#
# Elastic Constant Matrix: (Units=GPa)
#
#
# Indices 1 2 3 4 5 6 
#
# 1 149.1535 56.7225 46.2947 0.0000 20.4253 0.0000
# 2 56.7225 166.5601 52.5677 0.0000 9.7027 0.0000
# 3 46.2947 52.5677 72.8638 -0.0002 9.3051 0.0000
# 4 0.0000 0.0000 -0.0002 37.9449 0.0001 1.3107
# 5 20.4253 9.7027 9.3051 0.0001 30.3683 0.0000
# 6 0.0000 0.0000 0.0000 1.3107 0.0000 53.3770
#
#
#
# Elastic Compliance Matrix: (Units=1/GPa)
#
#
# Indices 1 2 3 4 5 6 
#
# 1 0.009191 -0.001564 -0.004148 0.000000 -0.004411 0.000000
# 2 -0.001564 0.008059 -0.004814 0.000000 -0.000048 0.000000
# 3 -0.004148 -0.004814 0.020065 0.000000 -0.001820 0.000000
# 4 0.000000 0.000000 0.000000 0.026376 0.000000 -0.000648
# 5 -0.004411 -0.000048 -0.001820 0.000000 0.036469 0.000000
# 6 0.000000 0.000000 0.000000 -0.000648 0.000000 0.018751
#
#
# Mechanical properties :
#
#
# Convention : Reuss Voigt Hill
#
# Bulk Modulus (GPa) = 61.49002 77.74967 69.61985
# Shear Modulus (GPa) = 34.39192 39.87087 37.13140
#
# Velocity S-wave (km/s) = 3.84035 4.13495 3.99037
# Velocity P-wave (km/s) = 6.78477 7.49256 7.14743
#
# Compressibility (1/GPa) = 0.01626280
#
# Stress axis : x y z
#
# Youngs Moduli (GPa) = 108.80575 124.09117 49.83742
#
# Poissons Ratio (x) = 0.19406 0.20672
# Poissons Ratio (y) = 0.17016 0.23993
# Poissons Ratio (z) = 0.45131 0.59739
#
# Static dielectric constant tensor:
#      x y z
#    x 1.915240 0.000000 -0.000880 
#    y 0.000000 1.910620 0.000000 
#    z -0.000880 0.000000 1.988330 
# 
# From -- ./inp_files/33104.got.cif
#   From: 2010.05.17/outbox.cif.g08.bks.cpg/sg9_17_cif.got.tgz:33104.got - 2010.06.03 20:04:27.
