data_PCOD9135348
_publ_section_title
;
Structure prediction by ZEFSAII (Michael W. Deem and Ramdas Pophale) SiO2 
 PCOD9135348
Probable space group: C C
;
_chemical_formula_sum "Si O2"
_cell_formula_units_Z 32
_cell_length_a 19.248779
_cell_length_b 13.574166
_cell_length_c 8.312455
_cell_angle_alpha 90.000000
_cell_angle_beta 138.665070
_cell_angle_gamma 90.000000
_cell_volume 1434.471331
_symmetry_space_group_name_H-M "C C"
_symmetry_group_IT_number 9
_symmetry_cell_setting 'monoclinic'
loop_
_space_group_symop_operation_xyz
x,y,z
x,-y,1/2+z
1/2+x,1/2+y,z
1/2+x,1/2-y,1/2+z
loop_
_atom_site_type_symbol
_atom_site_label
_atom_site_fract_x
_atom_site_fract_y
_atom_site_fract_z
Si Si1 0.063730 0.032031 0.737670
Si Si2 0.944277 0.838767 0.242303
Si Si3 0.965814 0.522628 0.422285
Si Si4 0.140574 0.852383 0.064921
Si Si5 0.517710 0.215834 0.649543
Si Si6 0.382664 0.146853 0.980048
Si Si7 0.323531 0.479776 0.831690
Si Si8 0.686758 0.905924 0.302007
O O1 0.117229 0.095798 0.693618
O O2 0.044346 0.095597 0.866561
O O3 0.942708 0.009007 0.475308
O O4 0.121035 0.933857 0.892056
O O5 0.947796 0.789279 0.421977
O O6 0.945212 0.747112 0.118985
O O7 0.844295 0.906046 0.019546
O O8 0.966408 0.607300 0.565077
O O9 0.917714 0.420458 0.393015
O O10 0.090733 0.517319 0.602444
O O11 0.906511 0.576507 0.174497
O O12 0.059150 0.765207 0.882807
O O13 0.261390 0.823428 0.265811
O O14 0.622029 0.193829 0.720078
O O15 0.248755 0.430377 0.572068
O O16 0.269603 0.578194 0.804646
#
# Coordination Sequence:
#
# PCOD9135348 Si02
#       8
#     4   4   4   4   4   4   4   4
#     4  10  24  39  65  91 126 169 206 259 311 366
#     4   9  22  41  59  92 127 159 209 262 311 368
#     4   9  22  38  63  91 123 159 204 260 314 360
#     4  12  22  41  66  89 128 167 211 251 314 380
#     4   9  22  38  63  92 126 158 205 264 309 371
#     4  11  21  42  62  89 126 164 208 255 311 378
#     4  10  21  40  63  90 124 163 210 253 317 365
#     4  10  20  39  65  92 122 163 207 260 315 364
#
# _framework density 22.307869
#
# number of rings (size 3 to 8) (size 9 to 14) (size 15 to 20)
#    1.500    0.500    0.000    3.750    1.750    1.000 
#    2.250    0.000    5.500    0.000    0.000    0.000 
#    0.000    0.000    0.000    0.000    0.000    0.000 
#
# Total GULP energy -89210.083416 kJ/mol
# GULP energy per Si atom -5575.630213 kJ/mol
# Density = 2.225710 g / cm^3
# Si number density = 22.307869 Si / 1000 Ang^3
#
#
#
# Elastic Constant Matrix: (Units=GPa)
#
#
# Indices 1 2 3 4 5 6 
#
# 1 46.5594 0.9749 -3.1936 0.0000 0.0136 0.0000
# 2 0.9749 61.9908 -9.5970 0.0000 1.5101 0.0000
# 3 -3.1936 -9.5970 81.6732 0.0000 2.3555 0.0000
# 4 0.0000 0.0000 0.0000 32.8295 0.0000 -0.2459
# 5 0.0136 1.5101 2.3555 0.0000 14.0760 0.0000
# 6 0.0000 0.0000 0.0000 -0.2459 0.0000 31.8661
#
#
#
# Elastic Compliance Matrix: (Units=1/GPa)
#
#
# Indices 1 2 3 4 5 6 
#
# 1 0.021539 -0.000208 0.000822 0.000000 -0.000136 0.000000
# 2 -0.000208 0.016494 0.001991 0.000000 -0.002102 0.000000
# 3 0.000822 0.001991 0.012577 0.000000 -0.002319 0.000000
# 4 0.000000 0.000000 0.000000 0.030462 0.000000 0.000235
# 5 -0.000136 -0.002102 -0.002319 0.000000 0.071657 0.000000
# 6 0.000000 0.000000 0.000000 0.000235 0.000000 0.031383
#
#
# Mechanical properties :
#
#
# Convention : Reuss Voigt Hill
#
# Bulk Modulus (GPa) = 17.91542 18.51020 18.21281
# Shear Modulus (GPa) = 25.31528 29.22361 27.26945
#
# Velocity S-wave (km/s) = 3.37235 3.62334 3.50010
# Velocity P-wave (km/s) = 4.81790 5.08138 4.95139
#
# Compressibility (1/GPa) = 0.05581785
#
# Stress axis : x y z
#
# Youngs Moduli (GPa) = 46.42810 60.62777 79.51122
#
# Poissons Ratio (x) = 0.01262 -0.06533
# Poissons Ratio (y) = 0.00967 -0.15828
# Poissons Ratio (z) = -0.03815 -0.12069
#
# Static dielectric constant tensor:
#      x y z
#    x 1.837420 0.000000 -0.038780 
#    y 0.000000 1.827760 0.000000 
#    z -0.038780 0.000000 1.830100 
# 
# From -- ./inp_files/11744.got.cif
#   From: 2010.05.17/outbox.cif.g08.bks.cpg/sg9_6_cif.got.tgz:11744.got - 2010.06.03 20:04:27.
