data_PCOD9135592
_publ_section_title
;
Structure prediction by ZEFSAII (Michael W. Deem and Ramdas Pophale) SiO2 
 PCOD9135592
Probable space group: C C
;
_chemical_formula_sum "Si O2"
_cell_formula_units_Z 28
_cell_length_a 18.420588
_cell_length_b 5.577258
_cell_length_c 14.151724
_cell_angle_alpha 90.000000
_cell_angle_beta 71.889457
_cell_angle_gamma 90.000000
_cell_volume 1381.868621
_symmetry_space_group_name_H-M "C C"
_symmetry_group_IT_number 9
_symmetry_cell_setting 'monoclinic'
loop_
_space_group_symop_operation_xyz
x,y,z
x,-y,1/2+z
1/2+x,1/2+y,z
1/2+x,1/2-y,1/2+z
loop_
_atom_site_type_symbol
_atom_site_label
_atom_site_fract_x
_atom_site_fract_y
_atom_site_fract_z
Si Si1 0.061860 0.470755 0.014540
Si Si2 0.414890 0.710550 0.278792
Si Si3 0.845577 0.247494 0.507900
Si Si4 0.537743 0.655106 0.685546
Si Si5 0.567324 0.042049 0.800958
Si Si6 0.167613 0.229968 0.106270
Si Si7 0.406244 0.757182 0.072071
O O1 0.030534 0.650462 0.106263
O O2 0.140832 0.379648 0.025724
O O3 0.998936 0.259115 0.033848
O O4 0.070908 0.587745 0.909393
O O5 0.358952 0.710699 0.390158
O O6 0.455425 0.461857 0.233977
O O7 0.490239 0.849913 0.286439
O O8 0.382179 0.796371 0.191554
O O9 0.757355 0.294767 0.567835
O O10 0.886106 0.497657 0.523345
O O11 0.874772 0.996373 0.544226
O O12 0.610902 0.496678 0.627763
O O13 0.560186 0.763789 0.778171
O O14 0.638757 0.136177 0.712421
#
# Coordination Sequence:
#
# PCOD9135592 Si02
#       7
#     4   4   4   4   4   4   4
#     4  11  21  41  72  99 128 187 233 284 339 424
#     4  11  23  41  69 104 134 181 232 289 338 421
#     4  12  29  45  69 104 145 183 222 299 357 403
#     4  10  20  41  69  96 141 172 241 284 340 415
#     4  10  21  39  69  97 129 179 230 284 342 409
#     4  10  25  43  62  99 137 175 228 288 343 420
#     4  12  25  44  72 101 138 181 238 278 349 418
#
# _framework density 20.262418
#
# number of rings (size 3 to 8) (size 9 to 14) (size 15 to 20)
#    0.000    1.143    5.714    1.714    4.000    3.429 
#    2.571    0.000    0.000    0.000    0.000    0.000 
#    0.000    0.000    0.000    0.000    0.000    0.000 
#
# Total GULP energy -78035.180430 kJ/mol
# GULP energy per Si atom -5573.941459 kJ/mol
# Density = 2.021630 g / cm^3
# Si number density = 20.262418 Si / 1000 Ang^3
#
#
#
# Elastic Constant Matrix: (Units=GPa)
#
#
# Indices 1 2 3 4 5 6 
#
# 1 40.5143 3.6084 14.7120 0.0000 -6.3531 0.0000
# 2 3.6084 59.0082 -0.1001 0.0000 10.3292 0.0000
# 3 14.7120 -0.1001 115.7044 0.0000 17.8909 0.0000
# 4 0.0000 0.0000 0.0000 13.2618 0.0000 4.0806
# 5 -6.3531 10.3292 17.8909 0.0000 43.2246 0.0000
# 6 0.0000 0.0000 0.0000 4.0806 0.0000 13.9339
#
#
#
# Elastic Compliance Matrix: (Units=1/GPa)
#
#
# Indices 1 2 3 4 5 6 
#
# 1 0.027623 -0.002856 -0.004539 0.000000 0.006621 0.000000
# 2 -0.002856 0.018037 0.001186 0.000000 -0.005221 0.000000
# 3 -0.004539 0.001186 0.010008 0.000000 -0.005093 0.000000
# 4 0.000000 0.000000 0.000000 0.082872 0.000000 -0.024270
# 5 0.006621 -0.005221 -0.005093 0.000000 0.027464 0.000000
# 6 0.000000 0.000000 0.000000 -0.024270 0.000000 0.078875
#
#
# Mechanical properties :
#
#
# Convention : Reuss Voigt Hill
#
# Bulk Modulus (GPa) = 23.12024 27.96304 25.54164
# Shear Modulus (GPa) = 18.40167 27.21783 22.80975
#
# Velocity S-wave (km/s) = 3.01685 3.66904 3.35881
# Velocity P-wave (km/s) = 4.85493 5.63733 5.26070
#
# Compressibility (1/GPa) = 0.04325215
#
# Stress axis : x y z
#
# Youngs Moduli (GPa) = 36.20125 55.44044 99.91665
#
# Poissons Ratio (x) = 0.15833 0.45348
# Poissons Ratio (y) = 0.10339 -0.11851
# Poissons Ratio (z) = 0.16430 -0.06575
#
# Static dielectric constant tensor:
#      x y z
#    x 1.698920 0.000000 0.031910 
#    y 0.000000 1.847190 0.000000 
#    z 0.031910 0.000000 1.713840 
# 
# From -- ./inp_files/26239.got.cif
#   From: 2010.05.17/outbox.cif.g08.bks.cpg/sg9_14_cif.got.tgz:26239.got - 2010.06.03 20:04:27.
