data_PCOD9135959
_publ_section_title
;
Structure prediction by ZEFSAII (Michael W. Deem and Ramdas Pophale) SiO2 
 PCOD9135959
Probable space group: C C
;
_chemical_formula_sum "Si O2"
_cell_formula_units_Z 28
_cell_length_a 8.526077
_cell_length_b 16.050877
_cell_length_c 12.013243
_cell_angle_alpha 90.000000
_cell_angle_beta 52.064362
_cell_angle_gamma 90.000000
_cell_volume 1296.645140
_symmetry_space_group_name_H-M "C C"
_symmetry_group_IT_number 9
_symmetry_cell_setting 'monoclinic'
loop_
_space_group_symop_operation_xyz
x,y,z
x,-y,1/2+z
1/2+x,1/2+y,z
1/2+x,1/2-y,1/2+z
loop_
_atom_site_type_symbol
_atom_site_label
_atom_site_fract_x
_atom_site_fract_y
_atom_site_fract_z
Si Si1 0.464010 0.961690 0.408470
Si Si2 0.061577 0.854702 0.596104
Si Si3 0.844703 0.206694 0.524999
Si Si4 0.818312 0.869712 0.481092
Si Si5 0.461886 0.554040 0.356924
Si Si6 0.234256 0.698026 0.806375
Si Si7 0.429516 0.959908 0.677691
O O1 0.255864 0.911908 0.493407
O O2 0.640854 0.894474 0.335884
O O3 0.457668 0.001826 0.538655
O O4 0.477424 0.004287 0.280653
O O5 0.154525 0.764232 0.582970
O O6 0.941363 0.902782 0.745321
O O7 0.929942 0.849527 0.544716
O O8 0.876180 0.212324 0.642228
O O9 0.830204 0.111397 0.495009
O O10 0.042335 0.243108 0.382837
O O11 0.842286 0.800131 0.376700
O O12 0.583633 0.884036 0.601088
O O13 0.904709 0.958215 0.398477
O O14 0.696532 0.561726 0.282243
#
# Coordination Sequence:
#
# PCOD9135959 Si02
#       7
#     4   4   4   4   4   4   4
#     4   9  19  38  61  91 137 165 220 268 337 392
#     4  10  22  42  63  96 135 168 219 277 332 403
#     4  11  22  45  69  88 132 187 222 263 353 409
#     4  11  24  40  70  99 134 166 230 289 321 394
#     4  11  23  41  71  96 129 185 217 275 342 398
#     4  10  23  41  67  94 134 179 218 275 339 409
#     4  10  21  37  63  98 133 172 220 281 328 401
#
# _framework density 21.594189
#
# number of rings (size 3 to 8) (size 9 to 14) (size 15 to 20)
#    0.000    1.714    2.857    1.714    6.000    0.000 
#    2.571    0.000    0.000    0.000    0.000    0.000 
#    0.000    0.000    0.000    0.000    0.000    0.000 
#
# Total GULP energy -78020.685998 kJ/mol
# GULP energy per Si atom -5572.906143 kJ/mol
# Density = 2.154504 g / cm^3
# Si number density = 21.594189 Si / 1000 Ang^3
#
#
#
# Elastic Constant Matrix: (Units=GPa)
#
#
# Indices 1 2 3 4 5 6 
#
# 1 96.6059 12.2274 19.5496 0.0000 33.9258 0.0000
# 2 12.2274 32.6278 12.9270 0.0000 -1.7134 0.0000
# 3 19.5496 12.9270 104.8451 0.0000 18.8593 0.0000
# 4 0.0000 0.0000 0.0000 20.4203 0.0000 14.8091
# 5 33.9258 -1.7134 18.8593 0.0000 40.7424 0.0000
# 6 0.0000 0.0000 0.0000 14.8091 0.0000 15.5027
#
#
#
# Elastic Compliance Matrix: (Units=1/GPa)
#
#
# Indices 1 2 3 4 5 6 
#
# 1 0.015977 -0.006843 0.000338 0.000000 -0.013748 0.000000
# 2 -0.006843 0.035614 -0.004810 0.000000 0.009423 0.000000
# 3 0.000338 -0.004810 0.011077 0.000000 -0.005611 0.000000
# 4 0.000000 0.000000 0.000000 0.159395 0.000000 -0.152265
# 5 -0.013748 0.009423 -0.005611 0.000000 0.038986 0.000000
# 6 0.000000 0.000000 0.000000 -0.152265 0.000000 0.209958
#
#
# Mechanical properties :
#
#
# Convention : Reuss Voigt Hill
#
# Bulk Modulus (GPa) = 24.97689 35.94299 30.45994
# Shear Modulus (GPa) = 9.86223 27.95806 18.91015
#
# Velocity S-wave (km/s) = 2.13939 3.60210 2.96244
# Velocity P-wave (km/s) = 4.20645 5.82933 5.08308
#
# Compressibility (1/GPa) = 0.04003701
#
# Stress axis : x y z
#
# Youngs Moduli (GPa) = 62.58910 28.07908 90.27506
#
# Poissons Ratio (x) = 0.19215 -0.03048
# Poissons Ratio (y) = 0.42831 0.43422
# Poissons Ratio (z) = -0.02113 0.13506
#
# Static dielectric constant tensor:
#      x y z
#    x 1.784940 0.000000 0.055130 
#    y 0.000000 1.794570 0.000000 
#    z 0.055130 0.000000 1.830410 
# 
# From -- ./inp_files/5248.got.cif
#   From: 2010.05.17/outbox.cif.g08.bks.cpg/sg9_3_cif.got.tgz:5248.got - 2010.06.03 20:04:27.
