data_PCOD9135693
_publ_section_title
;
Structure prediction by ZEFSAII (Michael W. Deem and Ramdas Pophale) SiO2 
 PCOD9135693
Probable space group: C C
;
_chemical_formula_sum "Si O2"
_cell_formula_units_Z 32
_cell_length_a 9.151691
_cell_length_b 7.197951
_cell_length_c 21.025545
_cell_angle_alpha 90.000000
_cell_angle_beta 66.230132
_cell_angle_gamma 90.000000
_cell_volume 1267.535436
_symmetry_space_group_name_H-M "C C"
_symmetry_group_IT_number 9
_symmetry_cell_setting 'monoclinic'
loop_
_space_group_symop_operation_xyz
x,y,z
x,-y,1/2+z
1/2+x,1/2+y,z
1/2+x,1/2-y,1/2+z
loop_
_atom_site_type_symbol
_atom_site_label
_atom_site_fract_x
_atom_site_fract_y
_atom_site_fract_z
Si Si1 0.517240 0.409395 0.176090
Si Si2 0.749467 0.760817 0.854707
Si Si3 0.932648 0.751984 0.482654
Si Si4 0.423910 0.671103 0.441241
Si Si5 0.617056 0.288125 0.567760
Si Si6 0.658541 0.781472 0.200931
Si Si7 0.581007 0.149027 0.264287
Si Si8 0.267435 0.830434 0.890484
O O1 0.569749 0.507804 0.101621
O O2 0.578163 0.576195 0.214365
O O3 0.338463 0.325337 0.194858
O O4 0.609552 0.237243 0.190559
O O5 0.583256 0.821591 0.916341
O O6 0.878191 0.859341 0.876033
O O7 0.728052 0.809594 0.785093
O O8 0.751975 0.541548 0.868803
O O9 0.792067 0.685410 0.461765
O O10 0.975746 0.708590 0.547860
O O11 0.930976 0.975644 0.476469
O O12 0.280872 0.783431 0.499240
O O13 0.597296 0.762087 0.408703
O O14 0.647715 0.175879 0.627330
O O15 0.558187 0.930339 0.258162
O O16 0.421481 0.236129 0.323655
#
# Coordination Sequence:
#
# PCOD9135693 Si02
#       8
#     4   4   4   4   4   4   4   4
#     4  10  25  46  72 109 146 202 251 314 386 455
#     4   9  22  39  62  99 138 181 240 298 377 454
#     4   9  19  41  63  95 139 183 237 303 372 450
#     4  10  20  42  70  98 140 187 238 314 383 451
#     4   9  21  44  71 100 147 190 247 314 375 462
#     4  10  25  45  74 108 147 200 256 309 385 460
#     4  11  25  46  71 104 150 190 249 307 381 470
#     4  10  23  39  67 105 137 187 238 309 385 454
#
# _framework density 25.245844000000002
#
# number of rings (size 3 to 8) (size 9 to 14) (size 15 to 20)
#    0.750    1.500    0.000    0.750    3.500    7.000 
#    0.000   16.250    0.000    0.000    0.000    0.000 
#    0.000    0.000    0.000    0.000    0.000    0.000 
#
# Total GULP energy -89227.518740 kJ/mol
# GULP energy per Si atom -5576.719921 kJ/mol
# Density = 2.518838 g / cm^3
# Si number density = 25.245844 Si / 1000 Ang^3
#
#
#
# Elastic Constant Matrix: (Units=GPa)
#
#
# Indices 1 2 3 4 5 6 
#
# 1 159.0968 11.5860 45.9356 0.0000 26.1674 0.0000
# 2 11.5860 95.1176 4.1894 0.0000 5.1109 0.0000
# 3 45.9356 4.1894 78.4312 0.0000 28.0437 0.0000
# 4 0.0000 0.0000 0.0000 40.2493 0.0000 12.0698
# 5 26.1674 5.1109 28.0437 0.0000 60.2193 0.0000
# 6 0.0000 0.0000 0.0000 12.0698 0.0000 23.6588
#
#
#
# Elastic Compliance Matrix: (Units=1/GPa)
#
#
# Indices 1 2 3 4 5 6 
#
# 1 0.007719 -0.000688 -0.003966 0.000000 -0.001449 0.000000
# 2 -0.000688 0.010628 0.000061 0.000000 -0.000632 0.000000
# 3 -0.003966 0.000061 0.017343 0.000000 -0.006358 0.000000
# 4 0.000000 0.000000 0.000000 0.029333 0.000000 -0.014964
# 5 -0.001449 -0.000632 -0.006358 0.000000 0.020250 0.000000
# 6 0.000000 0.000000 0.000000 -0.014964 0.000000 0.049902
#
#
# Mechanical properties :
#
#
# Convention : Reuss Voigt Hill
#
# Bulk Modulus (GPa) = 37.72929 50.67418 44.20174
# Shear Modulus (GPa) = 32.63802 42.88779 37.76290
#
# Velocity S-wave (km/s) = 3.59946 4.12613 3.87176
# Velocity P-wave (km/s) = 5.67909 6.54338 6.12649
#
# Compressibility (1/GPa) = 0.02650461
#
# Stress axis : x y z
#
# Youngs Moduli (GPa) = 129.55086 94.08825 57.65977
#
# Poissons Ratio (x) = 0.06470 0.22868
# Poissons Ratio (y) = 0.08909 -0.00351
# Poissons Ratio (z) = 0.51381 -0.00573
#
# Static dielectric constant tensor:
#      x y z
#    x 2.067400 0.000000 -0.035250 
#    y 0.000000 1.996500 0.000000 
#    z -0.035250 0.000000 2.014010 
# 
# From -- ./inp_files/34900.got.cif
#   From: 2010.05.17/outbox.cif.g08.bks.cpg/sg9_18_cif.got.tgz:34900.got - 2010.06.03 20:04:27.
