data_PCOD9135293
_publ_section_title
;
Structure prediction by ZEFSAII (Michael W. Deem and Ramdas Pophale) SiO2 
 PCOD9135293
Probable space group: C C
;
_chemical_formula_sum "Si O2"
_cell_formula_units_Z 32
_cell_length_a 13.733042
_cell_length_b 7.807792
_cell_length_c 22.800679
_cell_angle_alpha 90.000000
_cell_angle_beta 143.422450
_cell_angle_gamma 90.000000
_cell_volume 1456.879491
_symmetry_space_group_name_H-M "C C"
_symmetry_group_IT_number 9
_symmetry_cell_setting 'monoclinic'
loop_
_space_group_symop_operation_xyz
x,y,z
x,-y,1/2+z
1/2+x,1/2+y,z
1/2+x,1/2-y,1/2+z
loop_
_atom_site_type_symbol
_atom_site_label
_atom_site_fract_x
_atom_site_fract_y
_atom_site_fract_z
Si Si1 0.102940 0.006674 0.454820
Si Si2 0.109181 0.203912 0.346152
Si Si3 0.548279 0.972851 0.472767
Si Si4 0.468463 0.332854 0.493484
Si Si5 0.190833 0.848259 0.318325
Si Si6 0.169545 0.345157 0.920793
Si Si7 0.514883 0.506694 0.625104
Si Si8 0.353914 0.235023 0.632369
O O1 0.061892 0.154107 0.388960
O O2 0.270595 0.066913 0.566170
O O3 0.114338 0.130314 0.716518
O O4 0.970609 0.960518 0.439509
O O5 0.284372 0.298049 0.427410
O O6 0.134284 0.023370 0.324029
O O7 0.965966 0.297411 0.242375
O O8 0.535468 0.151533 0.502432
O O9 0.384808 0.868134 0.406110
O O10 0.568728 0.024298 0.413741
O O11 0.703020 0.865195 0.569822
O O12 0.581046 0.420076 0.597668
O O13 0.133130 0.836431 0.432975
O O14 0.145169 0.691583 0.339682
O O15 0.356682 0.391462 0.025659
O O16 0.460709 0.339958 0.636613
#
# Coordination Sequence:
#
# PCOD9135293 Si02
#       8
#     4   4   4   4   4   4   4   4
#     4  10  20  39  58  86 121 155 206 254 299 374
#     4   9  19  40  62  85 121 163 197 255 315 360
#     4   9  20  39  59  87 121 162 201 251 305 367
#     4  10  20  39  60  86 123 159 203 253 305 367
#     4   9  19  38  63  85 119 160 204 248 309 367
#     4   9  20  39  59  82 122 159 196 255 307 361
#     4  10  20  39  60  86 118 161 200 251 314 366
#     4  10  20  39  61  85 121 161 201 253 314 362
#
# _framework density 21.964753000000002
#
# number of rings (size 3 to 8) (size 9 to 14) (size 15 to 20)
#    0.000    2.500    1.250    0.000    1.750    0.000 
#   22.500    0.000    0.000    0.000    0.000    0.000 
#    0.000    0.000    0.000    0.000    0.000    0.000 
#
# Total GULP energy -89275.587158 kJ/mol
# GULP energy per Si atom -5579.724197 kJ/mol
# Density = 2.191476 g / cm^3
# Si number density = 21.964753 Si / 1000 Ang^3
#
#
#
# Elastic Constant Matrix: (Units=GPa)
#
#
# Indices 1 2 3 4 5 6 
#
# 1 85.0487 25.8789 17.0884 0.0000 -17.8566 0.0000
# 2 25.8789 80.3379 14.2262 0.0000 -12.3341 0.0000
# 3 17.0884 14.2262 70.6868 0.0000 -24.1988 0.0000
# 4 0.0000 0.0000 0.0000 24.5421 0.0000 -4.0306
# 5 -17.8566 -12.3341 -24.1988 0.0000 20.3279 0.0000
# 6 0.0000 0.0000 0.0000 -4.0306 0.0000 20.2341
#
#
#
# Elastic Compliance Matrix: (Units=1/GPa)
#
#
# Indices 1 2 3 4 5 6 
#
# 1 0.015184 -0.003126 0.001477 0.000000 0.013199 0.000000
# 2 -0.003126 0.014371 -0.000155 0.000000 0.005789 0.000000
# 3 0.001477 -0.000155 0.024023 0.000000 0.029801 0.000000
# 4 0.000000 0.000000 0.000000 0.042124 0.000000 0.008391
# 5 0.013199 0.005789 0.029801 0.000000 0.099777 0.000000
# 6 0.000000 0.000000 0.000000 0.008391 0.000000 0.051093
#
#
# Mechanical properties :
#
#
# Convention : Reuss Voigt Hill
#
# Bulk Modulus (GPa) = 20.01183 38.94005 29.47594
# Shear Modulus (GPa) = 18.73812 24.94614 21.84213
#
# Velocity S-wave (km/s) = 2.92396 3.37372 3.15686
# Velocity P-wave (km/s) = 4.53101 5.73959 5.17073
#
# Compressibility (1/GPa) = 0.04997044
#
# Stress axis : x y z
#
# Youngs Moduli (GPa) = 65.86002 69.58634 41.62668
#
# Poissons Ratio (x) = 0.21754 -0.06149
# Poissons Ratio (y) = 0.20589 0.00643
# Poissons Ratio (z) = -0.09729 0.01075
#
# Static dielectric constant tensor:
#      x y z
#    x 1.838620 0.000000 -0.046350 
#    y 0.000000 1.847250 0.000000 
#    z -0.046350 0.000000 1.789530 
# 
# From -- ./inp_files/35541.got.cif
#   From: 2010.05.17/outbox.cif.g08.bks.cpg/sg9_18_cif.got.tgz:35541.got - 2010.06.03 20:04:27.
