data_PCOD9135702
_publ_section_title
;
Structure prediction by ZEFSAII (Michael W. Deem and Ramdas Pophale) SiO2 
 PCOD9135702
Probable space group: C C
;
_chemical_formula_sum "Si O2"
_cell_formula_units_Z 32
_cell_length_a 11.427603
_cell_length_b 9.196512
_cell_length_c 13.920017
_cell_angle_alpha 90.000000
_cell_angle_beta 114.418864
_cell_angle_gamma 90.000000
_cell_volume 1332.050551
_symmetry_space_group_name_H-M "C C"
_symmetry_group_IT_number 9
_symmetry_cell_setting 'monoclinic'
loop_
_space_group_symop_operation_xyz
x,y,z
x,-y,1/2+z
1/2+x,1/2+y,z
1/2+x,1/2-y,1/2+z
loop_
_atom_site_type_symbol
_atom_site_label
_atom_site_fract_x
_atom_site_fract_y
_atom_site_fract_z
Si Si1 0.093920 0.161313 0.143090
Si Si2 0.162041 0.109804 0.369272
Si Si3 0.762828 0.202274 0.263850
Si Si4 0.068142 0.404472 0.991069
Si Si5 0.718428 0.592301 0.589442
Si Si6 0.029039 0.207822 0.798226
Si Si7 0.991883 0.275675 0.446942
Si Si8 0.344152 0.480369 0.129849
O O1 0.184078 0.152728 0.267773
O O2 0.171661 0.069529 0.090483
O O3 0.067142 0.317883 0.090800
O O4 0.960026 0.075440 0.121973
O O5 0.260279 0.112992 0.492744
O O6 0.057579 0.229169 0.368233
O O7 0.098097 0.948844 0.344293
O O8 0.792407 0.343206 0.205428
O O9 0.621625 0.205546 0.258283
O O10 0.852086 0.211314 0.387750
O O11 0.793715 0.070708 0.204611
O O12 0.015591 0.298257 0.890712
O O13 0.992870 0.555345 0.966301
O O14 0.217904 0.450102 0.024420
O O15 0.587302 0.690084 0.549196
O O16 0.904212 0.164674 0.695305
#
# Coordination Sequence:
#
# PCOD9135702 Si02
#       8
#     4   4   4   4   4   4   4   4
#     4  11  22  44  74 101 139 190 245 291 360 442
#     4   9  19  44  67  90 143 182 227 292 351 427
#     4  12  22  44  75  97 143 193 233 302 361 433
#     4  12  26  43  70 111 141 186 249 301 359 443
#     4  10  20  42  72  93 136 189 229 286 364 425
#     4  11  24  42  71 105 133 192 247 281 371 438
#     4  10  23  43  64 104 142 174 246 290 357 435
#     4  11  24  48  71 101 155 192 230 311 375 413
#
# _framework density 24.023111
#
# number of rings (size 3 to 8) (size 9 to 14) (size 15 to 20)
#    0.750    0.500    7.500    0.000    1.750    2.000 
#    4.500    0.000    0.000    0.000    0.000    0.000 
#    0.000    0.000    0.000    0.000    0.000    0.000 
#
# Total GULP energy -89318.745175 kJ/mol
# GULP energy per Si atom -5582.421573 kJ/mol
# Density = 2.396843 g / cm^3
# Si number density = 24.023111 Si / 1000 Ang^3
#
#
#
# Elastic Constant Matrix: (Units=GPa)
#
#
# Indices 1 2 3 4 5 6 
#
# 1 54.6634 22.0331 20.5291 0.0000 2.9386 0.0000
# 2 22.0331 95.6672 -0.8060 0.0000 -11.3496 0.0000
# 3 20.5291 -0.8060 63.0492 0.0000 -16.7301 0.0000
# 4 0.0000 0.0000 0.0000 35.5604 0.0000 -3.3979
# 5 2.9386 -11.3496 -16.7301 0.0000 31.6256 0.0000
# 6 0.0000 0.0000 0.0000 -3.3979 0.0000 26.4091
#
#
#
# Elastic Compliance Matrix: (Units=1/GPa)
#
#
# Indices 1 2 3 4 5 6 
#
# 1 0.026301 -0.007496 -0.011659 0.000000 -0.011302 0.000000
# 2 -0.007496 0.013157 0.004708 0.000000 0.007909 0.000000
# 3 -0.011659 0.004708 0.023792 0.000000 0.015359 0.000000
# 4 0.000000 0.000000 0.000000 0.028471 0.000000 0.003663
# 5 -0.011302 0.007909 0.015359 0.000000 0.043633 0.000000
# 6 0.000000 0.000000 0.000000 0.003663 0.000000 0.038337
#
#
# Mechanical properties :
#
#
# Convention : Reuss Voigt Hill
#
# Bulk Modulus (GPa) = 29.10667 32.98804 31.04735
# Shear Modulus (GPa) = 23.36020 30.16060 26.76040
#
# Velocity S-wave (km/s) = 3.12172 3.54712 3.34120
# Velocity P-wave (km/s) = 5.01358 5.52609 5.27606
#
# Compressibility (1/GPa) = 0.03435639
#
# Stress axis : x y z
#
# Youngs Moduli (GPa) = 38.02089 76.00321 42.03027
#
# Poissons Ratio (x) = 0.56976 0.49001
# Poissons Ratio (y) = 0.28502 -0.19786
# Poissons Ratio (z) = 0.44327 -0.35780
#
# Static dielectric constant tensor:
#      x y z
#    x 1.954680 0.000000 0.038010 
#    y 0.000000 1.888710 0.000000 
#    z 0.038010 0.000000 1.920090 
# 
# From -- ./inp_files/24397.got.cif
#   From: 2010.05.17/outbox.cif.g08.bks.cpg/sg9_13_cif.got.tgz:24397.got - 2010.06.03 20:04:27.
