data_PCOD9135264
_publ_section_title
;
Structure prediction by ZEFSAII (Michael W. Deem and Ramdas Pophale) SiO2 
 PCOD9135264
Probable space group: C C
;
_chemical_formula_sum "Si O2"
_cell_formula_units_Z 32
_cell_length_a 10.802198
_cell_length_b 9.185595
_cell_length_c 26.661972
_cell_angle_alpha 90.000000
_cell_angle_beta 148.846032
_cell_angle_gamma 90.000000
_cell_volume 1368.634383
_symmetry_space_group_name_H-M "C C"
_symmetry_group_IT_number 9
_symmetry_cell_setting 'monoclinic'
loop_
_space_group_symop_operation_xyz
x,y,z
x,-y,1/2+z
1/2+x,1/2+y,z
1/2+x,1/2-y,1/2+z
loop_
_atom_site_type_symbol
_atom_site_label
_atom_site_fract_x
_atom_site_fract_y
_atom_site_fract_z
Si Si1 0.989060 0.840759 0.983720
Si Si2 0.773984 0.354842 0.685942
Si Si3 0.424239 0.348858 0.651423
Si Si4 0.090812 0.122638 0.850657
Si Si5 0.633001 0.850812 0.058381
Si Si6 0.605969 0.646314 0.411043
Si Si7 0.600783 0.939488 0.356706
Si Si8 0.358038 0.907963 0.867408
O O1 0.792466 0.733410 0.939794
O O2 0.872213 0.000118 0.948096
O O3 0.007235 0.809350 0.930483
O O4 0.243180 0.786433 0.091519
O O5 0.526481 0.375247 0.630360
O O6 0.754792 0.292968 0.623429
O O7 0.893472 0.219067 0.756292
O O8 0.945925 0.490646 0.758021
O O9 0.290391 0.502107 0.616958
O O10 0.647115 0.323319 0.765786
O O11 0.996903 0.008464 0.858198
O O12 0.223898 0.024561 0.855708
O O13 0.393734 0.873895 0.009274
O O14 0.540819 0.833002 0.969333
O O15 0.567741 0.769391 0.355471
O O16 0.494827 0.011102 0.370474
#
# Coordination Sequence:
#
# PCOD9135264 Si02
#       8
#     4   4   4   4   4   4   4   4
#     4  11  21  41  69  96 136 175 222 280 333 395
#     4  10  22  39  71 101 129 180 228 273 336 404
#     4  11  20  38  70 100 133 175 231 274 329 407
#     4  10  20  40  69  96 130 182 215 268 344 392
#     4  11  21  38  70  97 130 182 218 269 350 394
#     4  11  21  41  66  99 134 174 217 277 336 399
#     4  10  23  41  67 104 133 174 226 282 336 398
#     4  10  20  38  66  97 131 178 215 275 336 389
#
# _framework density 23.380970000000001
#
# number of rings (size 3 to 8) (size 9 to 14) (size 15 to 20)
#    0.000    1.500    6.250    0.000    0.000    0.000 
#   13.500    2.500   19.250    0.000    0.000    0.000 
#    0.000    0.000    0.000    0.000    0.000    0.000 
#
# Total GULP energy -89359.662544 kJ/mol
# GULP energy per Si atom -5584.978909 kJ/mol
# Density = 2.332775 g / cm^3
# Si number density = 23.380970 Si / 1000 Ang^3
#
#
#
# Elastic Constant Matrix: (Units=GPa)
#
#
# Indices 1 2 3 4 5 6 
#
# 1 55.4592 22.5906 14.6755 0.0000 -2.9852 0.0000
# 2 22.5906 107.1900 43.7056 0.0000 -5.6140 0.0000
# 3 14.6755 43.7056 104.3291 0.0000 -14.6362 0.0000
# 4 0.0000 0.0000 0.0000 33.6863 0.0000 2.2081
# 5 -2.9852 -5.6140 -14.6362 0.0000 33.2441 0.0000
# 6 0.0000 0.0000 0.0000 2.2081 0.0000 34.3450
#
#
#
# Elastic Compliance Matrix: (Units=1/GPa)
#
#
# Indices 1 2 3 4 5 6 
#
# 1 0.019873 -0.003680 -0.001162 0.000000 0.000651 0.000000
# 2 -0.003680 0.011934 -0.004525 0.000000 -0.000307 0.000000
# 3 -0.001162 -0.004525 0.012281 0.000000 0.004538 0.000000
# 4 0.000000 0.000000 0.000000 0.029811 0.000000 -0.001917
# 5 0.000651 -0.000307 0.004538 0.000000 0.032085 0.000000
# 6 0.000000 0.000000 0.000000 -0.001917 0.000000 0.029240
#
#
# Mechanical properties :
#
#
# Convention : Reuss Voigt Hill
#
# Bulk Modulus (GPa) = 39.44331 47.65796 43.55063
# Shear Modulus (GPa) = 30.78651 32.65554 31.72102
#
# Velocity S-wave (km/s) = 3.63262 3.74126 3.68734
# Velocity P-wave (km/s) = 5.87376 6.25221 6.06594
#
# Compressibility (1/GPa) = 0.02535284
#
# Stress axis : x y z
#
# Youngs Moduli (GPa) = 50.31948 83.79673 81.42858
#
# Poissons Ratio (x) = 0.30839 0.09465
# Poissons Ratio (y) = 0.18519 0.36844
# Poissons Ratio (z) = 0.05849 0.37915
#
# Static dielectric constant tensor:
#      x y z
#    x 1.878920 0.000000 -0.016210 
#    y 0.000000 1.934970 0.000000 
#    z -0.016210 0.000000 1.934820 
# 
# From -- ./inp_files/37288.got.cif
#   From: 2010.05.17/outbox.cif.g08.bks.cpg/sg9_19_cif.got.tgz:37288.got - 2010.06.03 20:04:27.
