data_PCOD9135123
_publ_section_title
;
Structure prediction by ZEFSAII (Michael W. Deem and Ramdas Pophale) SiO2 
 PCOD9135123
Probable space group: C C
;
_chemical_formula_sum "Si O2"
_cell_formula_units_Z 32
_cell_length_a 29.080246
_cell_length_b 5.000941
_cell_length_c 16.860270
_cell_angle_alpha 90.000000
_cell_angle_beta 142.306481
_cell_angle_gamma 90.000000
_cell_volume 1499.223667
_symmetry_space_group_name_H-M "C C"
_symmetry_group_IT_number 9
_symmetry_cell_setting 'monoclinic'
loop_
_space_group_symop_operation_xyz
x,y,z
x,-y,1/2+z
1/2+x,1/2+y,z
1/2+x,1/2-y,1/2+z
loop_
_atom_site_type_symbol
_atom_site_label
_atom_site_fract_x
_atom_site_fract_y
_atom_site_fract_z
Si Si1 0.593070 0.892467 0.715230
Si Si2 0.890537 0.771261 0.405276
Si Si3 0.336206 0.903657 0.461535
Si Si4 0.260918 0.607528 0.935448
Si Si5 0.995061 0.544792 0.933750
Si Si6 0.963453 0.271256 0.745406
Si Si7 0.358927 0.544797 0.216928
Si Si8 0.517785 0.596348 0.189148
O O1 0.560231 0.858143 0.581129
O O2 0.578591 0.609542 0.736678
O O3 0.676994 0.999999 0.825338
O O4 0.547599 0.110247 0.707084
O O5 0.853112 0.517168 0.396931
O O6 0.956848 0.679091 0.436993
O O7 0.937770 0.940237 0.533899
O O8 0.836246 0.931188 0.271928
O O9 0.306389 0.610252 0.443596
O O10 0.416220 0.940235 0.616783
O O11 0.275400 0.109548 0.414004
O O12 0.293755 0.641849 0.069547
O O13 0.017743 0.431188 0.878753
O O14 0.926992 0.749992 0.825337
O O15 0.897143 0.179079 0.713691
O O16 0.000879 0.017165 0.753753
#
# Coordination Sequence:
#
# PCOD9135123 Si02
#       8
#     4   4   4   4   4   4   4   4
#     4  11  24  42  63  88 129 174 210 250 326 395
#     4  10  21  36  62  95 121 154 213 267 320 358
#     4  11  22  38  65  92 122 163 212 266 311 380
#     4  11  24  42  63  88 129 174 210 250 326 395
#     4  10  20  37  63  91 123 160 205 268 312 376
#     4  10  21  36  62  95 121 154 213 267 320 358
#     4  10  20  37  63  91 123 160 205 268 312 376
#     4  11  22  38  65  92 122 163 212 266 311 380
#
# _framework density 21.344380999999998
#
# number of rings (size 3 to 8) (size 9 to 14) (size 15 to 20)
#    0.000    1.500    2.500    3.750    3.500    0.000 
#    0.000    1.250    0.000    0.000    0.000    0.000 
#    0.000    0.000    0.000    0.000    0.000    0.000 
#
# Total GULP energy -89215.766631 kJ/mol
# GULP energy per Si atom -5575.985414 kJ/mol
# Density = 2.129580 g / cm^3
# Si number density = 21.344381 Si / 1000 Ang^3
#
#
#
# Elastic Constant Matrix: (Units=GPa)
#
#
# Indices 1 2 3 4 5 6 
#
# 1 73.4690 4.7562 26.6120 0.0000 -3.7795 0.0000
# 2 4.7562 69.4189 3.6529 0.0005 -8.5712 -0.0001
# 3 26.6120 3.6529 86.2949 0.0003 -6.2112 0.0002
# 4 0.0000 0.0005 0.0003 26.7812 0.0002 -3.0930
# 5 -3.7795 -8.5712 -6.2112 0.0002 39.6730 0.0001
# 6 0.0000 -0.0001 0.0002 -3.0930 0.0001 38.1238
#
#
#
# Elastic Compliance Matrix: (Units=1/GPa)
#
#
# Indices 1 2 3 4 5 6 
#
# 1 0.015380 -0.000737 -0.004670 0.000000 0.000575 0.000000
# 2 -0.000737 0.014849 -0.000177 0.000000 0.003110 0.000000
# 3 -0.004670 -0.000177 0.013149 0.000000 0.001575 0.000000
# 4 0.000000 0.000000 0.000000 0.037693 0.000000 0.003058
# 5 0.000575 0.003110 0.001575 0.000000 0.026179 0.000000
# 6 0.000000 0.000000 0.000000 0.003058 0.000000 0.026478
#
#
# Mechanical properties :
#
#
# Convention : Reuss Voigt Hill
#
# Bulk Modulus (GPa) = 31.04731 33.24720 32.14726
# Shear Modulus (GPa) = 32.12637 33.85972 32.99304
#
# Velocity S-wave (km/s) = 3.88383 3.98723 3.93587
# Velocity P-wave (km/s) = 5.88979 6.06693 5.97902
#
# Compressibility (1/GPa) = 0.03220891
#
# Stress axis : x y z
#
# Youngs Moduli (GPa) = 65.01866 67.34395 76.04934
#
# Poissons Ratio (x) = 0.04964 0.35518
# Poissons Ratio (y) = 0.04792 0.01349
# Poissons Ratio (z) = 0.30367 0.01195
#
# Static dielectric constant tensor:
#      x y z
#    x 1.801860 0.000000 -0.075160 
#    y 0.000000 1.915700 0.000000 
#    z -0.075160 0.000000 1.892350 
# 
# From -- ./inp_files/27017.got.cif
#   From: 2010.05.17/outbox.cif.g08.bks.cpg/sg9_14_cif.got.tgz:27017.got - 2010.06.03 20:04:27.
