data_PCOD9135979
_publ_section_title
;
Structure prediction by ZEFSAII (Michael W. Deem and Ramdas Pophale) SiO2 
 PCOD9135979
Probable space group: C C
;
_chemical_formula_sum "Si O2"
_cell_formula_units_Z 28
_cell_length_a 8.573382
_cell_length_b 16.789781
_cell_length_c 9.060026
_cell_angle_alpha 90.000000
_cell_angle_beta 69.509974
_cell_angle_gamma 90.000000
_cell_volume 1221.638004
_symmetry_space_group_name_H-M "C C"
_symmetry_group_IT_number 9
_symmetry_cell_setting 'monoclinic'
loop_
_space_group_symop_operation_xyz
x,y,z
x,-y,1/2+z
1/2+x,1/2+y,z
1/2+x,1/2-y,1/2+z
loop_
_atom_site_type_symbol
_atom_site_label
_atom_site_fract_x
_atom_site_fract_y
_atom_site_fract_z
Si Si1 0.182630 0.502702 0.012070
Si Si2 0.856022 0.316812 0.169156
Si Si3 0.954974 0.455974 0.336484
Si Si4 0.282917 0.124614 0.380193
Si Si5 0.005139 0.935329 0.778299
Si Si6 0.579522 0.224682 0.351538
Si Si7 0.492321 0.594997 0.942779
O O1 0.307201 0.557965 0.383923
O O2 0.121333 0.464131 0.182687
O O3 0.295070 0.579005 0.005654
O O4 0.021330 0.533160 0.979088
O O5 0.869087 0.376710 0.302403
O O6 0.771129 0.233314 0.241727
O O7 0.755271 0.351258 0.060524
O O8 0.035347 0.306993 0.030150
O O9 0.847449 0.534760 0.350060
O O10 0.116397 0.125816 0.337590
O O11 0.446732 0.179028 0.291781
O O12 0.042832 0.922254 0.594716
O O13 0.054931 0.024872 0.813754
O O14 0.530682 0.317480 0.377056
#
# Coordination Sequence:
#
# PCOD9135979 Si02
#       7
#     4   4   4   4   4   4   4
#     4  10  21  37  70 102 142 183 242 305 356 423
#     4  10  25  44  73 103 148 195 239 311 368 441
#     4  12  21  42  69 110 138 190 249 302 356 447
#     4  10  25  40  73 102 143 187 248 295 368 433
#     4  10  22  40  70 106 135 200 241 304 351 450
#     4  10  24  45  70 101 154 192 236 313 378 421
#     4  10  22  40  73 100 148 179 253 294 373 419
#
# _framework density 22.920048000000001
#
# number of rings (size 3 to 8) (size 9 to 14) (size 15 to 20)
#    1.714    0.000    2.857    0.857    6.000    2.286 
#    2.571    0.000    6.286    0.000    0.000    0.000 
#    0.000    0.000    0.000    0.000    0.000    0.000 
#
# Total GULP energy -77984.605906 kJ/mol
# GULP energy per Si atom -5570.328993 kJ/mol
# Density = 2.286788 g / cm^3
# Si number density = 22.920048 Si / 1000 Ang^3
#
#
#
# Elastic Constant Matrix: (Units=GPa)
#
#
# Indices 1 2 3 4 5 6 
#
# 1 80.1650 17.2457 12.4975 0.0000 14.5080 0.0000
# 2 17.2457 75.5549 4.6161 0.0000 6.7657 0.0000
# 3 12.4975 4.6161 69.0873 0.0000 -2.1126 0.0000
# 4 0.0000 0.0000 0.0000 38.4243 0.0000 -3.6559
# 5 14.5080 6.7657 -2.1126 0.0000 31.2097 0.0000
# 6 0.0000 0.0000 0.0000 -3.6559 0.0000 42.6646
#
#
#
# Elastic Compliance Matrix: (Units=1/GPa)
#
#
# Indices 1 2 3 4 5 6 
#
# 1 0.014608 -0.002598 -0.002665 0.000000 -0.006408 0.000000
# 2 -0.002598 0.014028 -0.000524 0.000000 -0.001869 0.000000
# 3 -0.002665 -0.000524 0.015064 0.000000 0.002372 0.000000
# 4 0.000000 0.000000 0.000000 0.026239 0.000000 0.002248
# 5 -0.006408 -0.001869 0.002372 0.000000 0.035586 0.000000
# 6 0.000000 0.000000 0.000000 0.002248 0.000000 0.023631
#
#
# Mechanical properties :
#
#
# Convention : Reuss Voigt Hill
#
# Bulk Modulus (GPa) = 31.12769 32.61397 31.87083
# Shear Modulus (GPa) = 33.01653 35.15625 34.08639
#
# Velocity S-wave (km/s) = 3.79952 3.92071 3.86059
# Velocity P-wave (km/s) = 5.73227 5.89544 5.81443
#
# Compressibility (1/GPa) = 0.03212573
#
# Stress axis : x y z
#
# Youngs Moduli (GPa) = 68.45436 71.28727 66.38298
#
# Poissons Ratio (x) = 0.18519 0.17691
# Poissons Ratio (y) = 0.17783 0.03482
# Poissons Ratio (z) = 0.18243 0.03739
#
# Static dielectric constant tensor:
#      x y z
#    x 1.996230 0.000000 -0.077550 
#    y 0.000000 1.835560 0.000000 
#    z -0.077550 0.000000 1.887490 
# 
# From -- ./inp_files/5341.got.cif
#   From: 2010.05.17/outbox.cif.g08.bks.cpg/sg9_3_cif.got.tgz:5341.got - 2010.06.03 20:04:27.
