data_PCOD9135764
_publ_section_title
;
Structure prediction by ZEFSAII (Michael W. Deem and Ramdas Pophale) SiO2 
 PCOD9135764
Probable space group: C C
;
_chemical_formula_sum "Si O2"
_cell_formula_units_Z 32
_cell_length_a 17.438612
_cell_length_b 7.462486
_cell_length_c 11.435063
_cell_angle_alpha 90.000000
_cell_angle_beta 128.289680
_cell_angle_gamma 90.000000
_cell_volume 1167.996901
_symmetry_space_group_name_H-M "C C"
_symmetry_group_IT_number 9
_symmetry_cell_setting 'monoclinic'
loop_
_space_group_symop_operation_xyz
x,y,z
x,-y,1/2+z
1/2+x,1/2+y,z
1/2+x,1/2-y,1/2+z
loop_
_atom_site_type_symbol
_atom_site_label
_atom_site_fract_x
_atom_site_fract_y
_atom_site_fract_z
Si Si1 0.311350 0.588419 0.101650
Si Si2 0.979142 0.727186 0.496829
Si Si3 0.478662 0.614896 0.408373
Si Si4 0.663369 0.840752 0.272945
Si Si5 0.225174 0.775485 0.574855
Si Si6 0.874620 0.392618 0.483138
Si Si7 0.711198 0.642297 0.667426
Si Si8 0.543495 0.865564 0.813161
O O1 0.424515 0.632595 0.231698
O O2 0.288501 0.376848 0.070996
O O3 0.251221 0.674001 0.152741
O O4 0.255261 0.680275 0.942391
O O5 0.068961 0.784063 0.665598
O O6 0.019935 0.600003 0.428290
O O7 0.903732 0.597107 0.485323
O O8 0.945175 0.914648 0.413294
O O9 0.426928 0.759067 0.441447
O O10 0.594781 0.635312 0.537088
O O11 0.706233 0.817307 0.183350
O O12 0.604669 0.005299 0.282774
O O13 0.121121 0.792803 0.409041
O O14 0.256750 0.976420 0.635427
O O15 0.759733 0.376584 0.342068
O O16 0.937576 0.348195 0.657553
#
# Coordination Sequence:
#
# PCOD9135764 Si02
#       8
#     4   4   4   4   4   4   4   4
#     4  10  24  42  63  97 129 170 215 272 330 379
#     4  10  20  44  65  91 134 166 215 268 325 387
#     4  11  23  42  65  92 130 171 217 273 323 389
#     4   9  19  38  66  94 125 170 210 259 326 383
#     4  10  20  44  65  91 134 166 215 268 325 387
#     4  10  24  42  63  97 129 170 215 272 330 379
#     4  11  23  42  65  92 130 171 217 273 323 389
#     4   9  19  38  66  94 125 170 210 259 326 383
#
# _framework density 27.397331999999999
#
# number of rings (size 3 to 8) (size 9 to 14) (size 15 to 20)
#    0.000    2.000    2.500    0.750    7.000    1.000 
#    9.000    0.000    0.000    0.000    0.000    0.000 
#    0.000    0.000    0.000    0.000    0.000    0.000 
#
# Total GULP energy -89221.473090 kJ/mol
# GULP energy per Si atom -5576.342068 kJ/mol
# Density = 2.733497 g / cm^3
# Si number density = 27.397332 Si / 1000 Ang^3
#
#
#
# Elastic Constant Matrix: (Units=GPa)
#
#
# Indices 1 2 3 4 5 6 
#
# 1 106.6383 34.1581 43.7998 0.0000 30.9164 0.0000
# 2 34.1581 94.5629 17.8817 0.0000 -7.9680 0.0000
# 3 43.7998 17.8817 226.8246 0.0000 74.7252 0.0000
# 4 0.0000 0.0000 0.0000 26.8894 0.0000 8.7296
# 5 30.9164 -7.9680 74.7252 0.0000 35.7793 0.0000
# 6 0.0000 0.0000 0.0000 8.7296 0.0000 24.2104
#
#
#
# Elastic Compliance Matrix: (Units=1/GPa)
#
#
# Indices 1 2 3 4 5 6 
#
# 1 0.025418 -0.017128 0.015817 0.000000 -0.058811 0.000000
# 2 -0.017128 0.024709 -0.017082 0.000000 0.055979 0.000000
# 3 0.015817 -0.017082 0.027109 0.000000 -0.074088 0.000000
# 4 0.000000 0.000000 0.000000 0.042120 0.000000 -0.015187
# 5 -0.058811 0.055979 -0.074088 0.000000 0.245965 0.000000
# 6 0.000000 0.000000 0.000000 -0.015187 0.000000 0.046781
#
#
# Mechanical properties :
#
#
# Convention : Reuss Voigt Hill
#
# Bulk Modulus (GPa) = 24.72270 68.85612 46.78941
# Shear Modulus (GPa) = 10.81384 39.52158 25.16771
#
# Velocity S-wave (km/s) = 1.98887 3.80219 3.03416
# Velocity P-wave (km/s) = 3.78385 6.66802 5.42126
#
# Compressibility (1/GPa) = 0.04044865
#
# Stress axis : x y z
#
# Youngs Moduli (GPa) = 39.34272 40.47119 36.88867
#
# Poissons Ratio (x) = 0.69318 -0.58346
# Poissons Ratio (y) = 0.67385 0.63014
# Poissons Ratio (z) = -0.62227 0.69134
#
# Static dielectric constant tensor:
#      x y z
#    x 2.247430 0.000000 -0.046410 
#    y 0.000000 2.043250 0.000000 
#    z -0.046410 0.000000 2.200210 
# 
# From -- ./inp_files/20119.got.cif
#   From: 2010.05.17/outbox.cif.g08.bks.cpg/sg9_11_cif.got.tgz:20119.got - 2010.06.03 20:04:27.
