data_PCOD9135153
_publ_section_title
;
Structure prediction by ZEFSAII (Michael W. Deem and Ramdas Pophale) SiO2 
 PCOD9135153
Probable space group: C C
;
_chemical_formula_sum "Si O2"
_cell_formula_units_Z 32
_cell_length_a 15.880498
_cell_length_b 20.418260
_cell_length_c 9.246396
_cell_angle_alpha 90.000000
_cell_angle_beta 32.787800
_cell_angle_gamma 90.000000
_cell_volume 1623.593218
_symmetry_space_group_name_H-M "C C"
_symmetry_group_IT_number 9
_symmetry_cell_setting 'monoclinic'
loop_
_space_group_symop_operation_xyz
x,y,z
x,-y,1/2+z
1/2+x,1/2+y,z
1/2+x,1/2-y,1/2+z
loop_
_atom_site_type_symbol
_atom_site_label
_atom_site_fract_x
_atom_site_fract_y
_atom_site_fract_z
Si Si1 0.170980 0.956773 0.358960
Si Si2 0.019060 0.059673 0.386932
Si Si3 0.663640 0.958539 0.443619
Si Si4 0.637149 0.345550 0.176200
Si Si5 0.487956 0.169979 0.135551
Si Si6 0.612197 0.200622 0.254791
Si Si7 0.523719 0.067560 0.454710
Si Si8 0.962299 0.813829 0.137305
O O1 0.072696 0.951815 0.646850
O O2 0.118550 0.903999 0.314700
O O3 0.138691 0.025195 0.325011
O O4 0.347953 0.942509 0.152359
O O5 0.845834 0.031157 0.657710
O O6 0.002887 0.135489 0.454013
O O7 0.601956 0.891590 0.455327
O O8 0.629057 0.949783 0.662969
O O9 0.564903 0.018077 0.522197
O O10 0.612070 0.276416 0.295927
O O11 0.528867 0.341594 0.192308
O O12 0.811602 0.349825 0.859797
O O13 0.488571 0.188351 0.305415
O O14 0.524327 0.240588 0.014483
O O15 0.571057 0.142554 0.423760
O O16 0.778091 0.191175 0.934792
#
# Coordination Sequence:
#
# PCOD9135153 Si02
#       8
#     4   4   4   4   4   4   4   4
#     4  12  25  40  59  92 126 157 201 254 302 355
#     4  12  25  40  59  92 126 157 201 254 302 355
#     4  11  22  41  61  85 119 161 202 243 295 362
#     4  10  20  37  66  91 116 158 206 247 299 362
#     4   9  18  38  65  87 114 160 209 239 293 360
#     4   9  18  38  65  87 114 160 209 239 293 360
#     4  11  22  41  61  85 119 161 202 243 295 362
#     4  10  20  37  66  91 116 158 206 247 299 362
#
# _framework density 19.709371000000001
#
# number of rings (size 3 to 8) (size 9 to 14) (size 15 to 20)
#    0.000    1.500    5.000    2.250    3.500    0.000 
#    0.000    2.500    0.000    0.000    0.000    0.000 
#    0.000    0.000    0.000    0.000    0.000    0.000 
#
# Total GULP energy -89246.789397 kJ/mol
# GULP energy per Si atom -5577.924337 kJ/mol
# Density = 1.966451 g / cm^3
# Si number density = 19.709371 Si / 1000 Ang^3
#
#
#
# Elastic Constant Matrix: (Units=GPa)
#
#
# Indices 1 2 3 4 5 6 
#
# 1 32.1081 -15.7001 -0.5704 0.0000 -2.3963 0.0004
# 2 -15.7001 73.5463 -20.4109 0.0002 4.8526 -0.0004
# 3 -0.5704 -20.4109 52.5499 -0.0003 -0.5883 0.0002
# 4 0.0000 0.0002 -0.0003 18.3779 0.0004 -0.6614
# 5 -2.3963 4.8526 -0.5883 0.0004 27.7074 -0.0005
# 6 0.0004 -0.0004 0.0002 -0.6614 -0.0005 31.3756
#
#
#
# Elastic Compliance Matrix: (Units=1/GPa)
#
#
# Indices 1 2 3 4 5 6 
#
# 1 0.035488 0.008494 0.003703 0.000000 0.001660 0.000000
# 2 0.008494 0.017454 0.006847 0.000000 -0.002177 0.000000
# 3 0.003703 0.006847 0.021725 0.000000 -0.000418 0.000000
# 4 0.000000 0.000000 0.000000 0.054455 -0.000001 0.001148
# 5 0.001660 -0.002177 -0.000418 -0.000001 0.036607 0.000001
# 6 0.000000 0.000000 0.000000 0.001148 0.000001 0.031896
#
#
# Mechanical properties :
#
#
# Convention : Reuss Voigt Hill
#
# Bulk Modulus (GPa) = 8.86892 9.42685 9.14788
# Shear Modulus (GPa) = 25.36507 28.48456 26.92481
#
# Velocity S-wave (km/s) = 3.59131 3.80574 3.70008
# Velocity P-wave (km/s) = 4.65900 4.90967 4.78598
#
# Compressibility (1/GPa) = 0.11275335
#
# Stress axis : x y z
#
# Youngs Moduli (GPa) = 28.17874 57.29379 46.03096
#
# Poissons Ratio (x) = -0.48664 -0.17044
# Poissons Ratio (y) = -0.23934 -0.31518
# Poissons Ratio (z) = -0.10434 -0.39229
#
# Static dielectric constant tensor:
#      x y z
#    x 1.682290 0.000000 -0.025880 
#    y 0.000000 1.781420 0.000000 
#    z -0.025880 0.000000 1.664540 
# 
# From -- ./inp_files/11042.got.cif
#   From: 2010.05.17/outbox.cif.g08.bks.cpg/sg9_6_cif.got.tgz:11042.got - 2010.06.03 20:04:27.
