data_PCOD9135781
_publ_section_title
;
Structure prediction by ZEFSAII (Michael W. Deem and Ramdas Pophale) SiO2 
 PCOD9135781
Probable space group: C C
;
_chemical_formula_sum "Si O2"
_cell_formula_units_Z 24
_cell_length_a 7.296623
_cell_length_b 11.433741
_cell_length_c 17.712806
_cell_angle_alpha 90.000000
_cell_angle_beta 137.180646
_cell_angle_gamma 90.000000
_cell_volume 1004.402853
_symmetry_space_group_name_H-M "C C"
_symmetry_group_IT_number 9
_symmetry_cell_setting 'monoclinic'
loop_
_space_group_symop_operation_xyz
x,y,z
x,-y,1/2+z
1/2+x,1/2+y,z
1/2+x,1/2-y,1/2+z
loop_
_atom_site_type_symbol
_atom_site_label
_atom_site_fract_x
_atom_site_fract_y
_atom_site_fract_z
Si Si1 0.662560 0.124757 0.849510
Si Si2 0.421850 0.020436 0.913914
Si Si3 0.043320 0.694935 0.552738
Si Si4 0.528340 0.289970 0.980615
Si Si5 0.580871 0.255933 0.160325
Si Si6 0.350509 0.456041 0.786489
O O1 0.594246 0.021731 0.889095
O O2 0.377128 0.190791 0.759122
O O3 0.894828 0.210041 0.952370
O O4 0.748411 0.071940 0.796067
O O5 0.435778 0.156522 0.940555
O O6 0.527357 0.931758 0.009123
O O7 0.110713 0.980894 0.814049
O O8 0.356310 0.723828 0.655886
O O9 0.852637 0.703978 0.567615
O O10 0.427089 0.373742 0.882660
O O11 0.465968 0.311277 0.048839
O O12 0.631252 0.116970 0.174115
#
# Coordination Sequence:
#
# PCOD9135781 Si02
#       6
#     4   4   4   4   4   4
#     4  11  24  43  67  99 135 172 221 272 326 390
#     4  10  20  44  70  92 140 172 212 282 324 380
#     4  10  23  44  66  99 134 170 221 274 325 388
#     4  10  23  44  66  99 134 170 221 274 325 388
#     4  12  24  42  66 100 130 176 222 262 336 392
#     4  11  24  43  67  99 135 172 221 272 326 390
#
# _framework density 23.894795999999999
#
# number of rings (size 3 to 8) (size 9 to 14) (size 15 to 20)
#    0.000    1.333    5.000    2.000    0.000   10.667 
#    3.000    0.000    0.000    0.000    0.000    0.000 
#    0.000    0.000    0.000    0.000    0.000    0.000 
#
# Total GULP energy -67019.738653 kJ/mol
# GULP energy per Si atom -5584.978221 kJ/mol
# Density = 2.384041 g / cm^3
# Si number density = 23.894796 Si / 1000 Ang^3
#
#
#
# Elastic Constant Matrix: (Units=GPa)
#
#
# Indices 1 2 3 4 5 6 
#
# 1 73.7741 26.5835 12.2811 0.0000 9.7672 0.0000
# 2 26.5835 92.0456 27.9589 0.0000 4.4588 0.0000
# 3 12.2811 27.9589 63.7906 0.0000 8.1167 0.0000
# 4 0.0000 0.0000 0.0000 28.0320 0.0000 0.9937
# 5 9.7672 4.4588 8.1167 0.0000 36.4511 0.0000
# 6 0.0000 0.0000 0.0000 0.9937 0.0000 45.5689
#
#
#
# Elastic Compliance Matrix: (Units=1/GPa)
#
#
# Indices 1 2 3 4 5 6 
#
# 1 0.015629 -0.004113 -0.000759 0.000000 -0.003516 0.000000
# 2 -0.004113 0.013619 -0.005254 0.000000 0.000606 0.000000
# 3 -0.000759 -0.005254 0.018543 0.000000 -0.003283 0.000000
# 4 0.000000 0.000000 0.000000 0.035701 0.000000 -0.000779
# 5 -0.003516 0.000606 -0.003283 0.000000 0.029033 0.000000
# 6 0.000000 0.000000 0.000000 -0.000779 0.000000 0.021962
#
#
# Mechanical properties :
#
#
# Convention : Reuss Voigt Hill
#
# Bulk Modulus (GPa) = 36.31305 40.36193 38.33749
# Shear Modulus (GPa) = 30.50310 32.86283 31.68297
#
# Velocity S-wave (km/s) = 3.57677 3.71255 3.64529
# Velocity P-wave (km/s) = 5.68223 5.94184 5.81349
#
# Compressibility (1/GPa) = 0.02753831
#
# Stress axis : x y z
#
# Youngs Moduli (GPa) = 63.98482 73.42878 53.92858
#
# Poissons Ratio (x) = 0.30200 0.04093
# Poissons Ratio (y) = 0.26316 0.28335
# Poissons Ratio (z) = 0.04856 0.38581
#
# Static dielectric constant tensor:
#      x y z
#    x 1.889250 0.000000 -0.034250 
#    y 0.000000 1.945190 0.000000 
#    z -0.034250 0.000000 1.945240 
# 
# From -- ./inp_files/35031.got.cif
#   From: 2010.05.17/outbox.cif.g08.bks.cpg/sg9_18_cif.got.tgz:35031.got - 2010.06.03 20:04:27.
