data_PCOD9135078
_publ_section_title
;
Structure prediction by ZEFSAII (Michael W. Deem and Ramdas Pophale) SiO2 
 PCOD9135078
Probable space group: C C
;
_chemical_formula_sum "Si O2"
_cell_formula_units_Z 32
_cell_length_a 29.106392
_cell_length_b 8.555002
_cell_length_c 9.270786
_cell_angle_alpha 90.000000
_cell_angle_beta 33.631929
_cell_angle_gamma 90.000000
_cell_volume 1278.561475
_symmetry_space_group_name_H-M "C C"
_symmetry_group_IT_number 9
_symmetry_cell_setting 'monoclinic'
loop_
_space_group_symop_operation_xyz
x,y,z
x,-y,1/2+z
1/2+x,1/2+y,z
1/2+x,1/2-y,1/2+z
loop_
_atom_site_type_symbol
_atom_site_label
_atom_site_fract_x
_atom_site_fract_y
_atom_site_fract_z
Si Si1 0.690750 0.281502 0.125000
Si Si2 0.180376 0.953410 0.442907
Si Si3 0.251961 0.317469 0.884755
Si Si4 0.031062 0.287803 0.415345
Si Si5 0.436287 0.665337 0.204596
Si Si6 0.260971 0.499867 0.098851
Si Si7 0.024828 0.412552 0.114201
Si Si8 0.442969 0.600742 0.870970
O O1 0.688520 0.417893 0.252767
O O2 0.605680 0.186456 0.358763
O O3 0.688920 0.372165 0.978580
O O4 0.760683 0.153149 0.991603
O O5 0.253652 0.857885 0.330104
O O6 0.102795 0.843737 0.700866
O O7 0.214600 0.363961 0.134278
O O8 0.214374 0.425899 0.856949
O O9 0.346025 0.374635 0.651006
O O10 0.013441 0.380467 0.313910
O O11 0.042405 0.414887 0.512150
O O12 0.958180 0.190382 0.680999
O O13 0.345745 0.583865 0.429438
O O14 0.446586 0.842105 0.229398
O O15 0.473309 0.570315 0.244911
O O16 0.478352 0.644542 0.936645
#
# Coordination Sequence:
#
# PCOD9135078 Si02
#       8
#     4   4   4   4   4   4   4   4
#     4  10  22  39  61  91 123 162 211 261 316 379
#     4  10  22  39  60  87 122 160 206 260 316 375
#     4   9  19  37  58  85 118 158 202 252 309 375
#     4  11  23  39  61  91 126 163 208 266 322 384
#     4  10  20  37  60  87 120 163 205 253 312 376
#     4   9  19  37  59  85 118 157 203 250 306 371
#     4  11  23  39  62  92 124 164 211 262 324 385
#     4  10  20  37  59  86 123 161 206 256 313 379
#
# _framework density 25.028129
#
# number of rings (size 3 to 8) (size 9 to 14) (size 15 to 20)
#    0.000    2.000    0.000    3.000    0.000    6.000 
#    0.000   15.000    0.000    0.000    0.000    0.000 
#    0.000    0.000    0.000    0.000    0.000    0.000 
#
# Total GULP energy -89145.452938 kJ/mol
# GULP energy per Si atom -5571.590809 kJ/mol
# Density = 2.497116 g / cm^3
# Si number density = 25.028129 Si / 1000 Ang^3
#
#
#
# Elastic Constant Matrix: (Units=GPa)
#
#
# Indices 1 2 3 4 5 6 
#
# 1 66.7738 20.8811 25.4580 0.0000 5.5122 0.0000
# 2 20.8811 45.9721 20.1021 0.0000 -6.6348 0.0000
# 3 25.4580 20.1021 58.6445 0.0000 16.5108 0.0000
# 4 0.0000 0.0000 0.0000 34.8824 0.0000 21.1776
# 5 5.5122 -6.6348 16.5108 0.0000 36.5759 0.0000
# 6 0.0000 0.0000 0.0000 21.1776 0.0000 43.0758
#
#
#
# Elastic Compliance Matrix: (Units=1/GPa)
#
#
# Indices 1 2 3 4 5 6 
#
# 1 0.019315 -0.006476 -0.005744 0.000000 -0.001493 0.000000
# 2 -0.006476 0.031286 -0.011210 0.000000 0.011712 0.000000
# 3 -0.005744 -0.011210 0.027170 0.000000 -0.013433 0.000000
# 4 0.000000 0.000000 0.000000 0.040865 0.000000 -0.020091
# 5 -0.001493 0.011712 -0.013433 0.000000 0.035753 0.000000
# 6 0.000000 0.000000 0.000000 -0.020091 0.000000 0.033092
#
#
# Mechanical properties :
#
#
# Convention : Reuss Voigt Hill
#
# Bulk Modulus (GPa) = 32.35325 33.80811 33.08068
# Shear Modulus (GPa) = 20.43771 29.90344 25.17058
#
# Velocity S-wave (km/s) = 2.86070 3.46033 3.17470
# Velocity P-wave (km/s) = 4.88532 5.43162 5.16570
#
# Compressibility (1/GPa) = 0.03090880
#
# Stress axis : x y z
#
# Youngs Moduli (GPa) = 51.77457 31.96318 36.80543
#
# Poissons Ratio (x) = 0.20701 0.21142
# Poissons Ratio (y) = 0.33532 0.41259
# Poissons Ratio (z) = 0.29741 0.35831
#
# Static dielectric constant tensor:
#      x y z
#    x 2.152970 0.000000 -0.039530 
#    y 0.000000 1.986670 0.000000 
#    z -0.039530 0.000000 2.041040 
# 
# From -- ./inp_files/12696.got.cif
#   From: 2010.05.17/outbox.cif.g08.bks.cpg/sg9_7_cif.got.tgz:12696.got - 2010.06.03 20:04:27.
