data_PCOD9135001
_publ_section_title
;
Structure prediction by ZEFSAII (Michael W. Deem and Ramdas Pophale) SiO2 
 PCOD9135001
Probable space group: C C
;
_chemical_formula_sum "Si O2"
_cell_formula_units_Z 28
_cell_length_a 15.781732
_cell_length_b 8.466434
_cell_length_c 11.989615
_cell_angle_alpha 90.000000
_cell_angle_beta 65.942138
_cell_angle_gamma 90.000000
_cell_volume 1462.834030
_symmetry_space_group_name_H-M "C C"
_symmetry_group_IT_number 9
_symmetry_cell_setting 'monoclinic'
loop_
_space_group_symop_operation_xyz
x,y,z
x,-y,1/2+z
1/2+x,1/2+y,z
1/2+x,1/2-y,1/2+z
loop_
_atom_site_type_symbol
_atom_site_label
_atom_site_fract_x
_atom_site_fract_y
_atom_site_fract_z
Si Si1 0.333280 0.324654 0.182770
Si Si2 0.648981 0.315424 0.341270
Si Si3 0.251687 0.020817 0.123335
Si Si4 0.667951 0.963251 0.672350
Si Si5 0.599440 0.736090 0.104920
Si Si6 0.466534 0.423702 0.524915
Si Si7 0.808415 0.769446 0.456944
O O1 0.317255 0.163641 0.123653
O O2 0.248566 0.442937 0.196267
O O3 0.424630 0.414649 0.092303
O O4 0.330142 0.290942 0.315787
O O5 0.733022 0.405590 0.238199
O O6 0.624446 0.170010 0.274130
O O7 0.662455 0.248951 0.458366
O O8 0.562277 0.433442 0.404786
O O9 0.153435 0.101542 0.144101
O O10 0.287188 0.910172 0.004715
O O11 0.719083 0.872366 0.543577
O O12 0.599476 0.098221 0.666750
O O13 0.500228 0.680108 0.112788
O O14 0.391952 0.335050 0.488652
#
# Coordination Sequence:
#
# PCOD9135001 Si02
#       7
#     4   4   4   4   4   4   4
#     4  10  20  37  60  83 118 157 188 240 291 349
#     4   9  19  35  58  85 117 148 192 245 280 344
#     4  10  20  36  59  84 112 157 204 224 284 352
#     4   9  18  36  61  83 110 154 198 226 290 353
#     4   9  19  35  57  84 110 147 194 240 278 344
#     4   9  22  36  56  84 120 148 191 238 303 330
#     4  10  20  37  55  83 117 153 187 241 286 350
#
# _framework density 19.140927000000001
#
# number of rings (size 3 to 8) (size 9 to 14) (size 15 to 20)
#    0.857    1.714    0.000    1.714    2.000    0.000 
#    2.571    4.286    0.000    0.000    0.000    0.000 
#    0.000    0.000    0.000    0.000    0.000    0.000 
#
# Total GULP energy -77979.410420 kJ/mol
# GULP energy per Si atom -5569.957887 kJ/mol
# Density = 1.909736 g / cm^3
# Si number density = 19.140927 Si / 1000 Ang^3
#
#
#
# Elastic Constant Matrix: (Units=GPa)
#
#
# Indices 1 2 3 4 5 6 
#
# 1 39.5922 31.8172 12.5371 0.0000 9.9325 0.0000
# 2 31.8172 121.8018 65.2149 0.0000 8.8109 0.0000
# 3 12.5371 65.2149 82.6227 0.0000 2.5922 0.0000
# 4 0.0000 0.0000 0.0000 32.8519 0.0000 1.2601
# 5 9.9325 8.8109 2.5922 0.0000 22.2201 0.0000
# 6 0.0000 0.0000 0.0000 1.2601 0.0000 18.4542
#
#
#
# Elastic Compliance Matrix: (Units=1/GPa)
#
#
# Indices 1 2 3 4 5 6 
#
# 1 0.035352 -0.009844 0.002789 0.000000 -0.012225 0.000000
# 2 -0.009844 0.017391 -0.012199 0.000000 -0.001073 0.000000
# 3 0.002789 -0.012199 0.021274 0.000000 0.001109 0.000000
# 4 0.000000 0.000000 0.000000 0.030520 0.000000 -0.002084
# 5 -0.012225 -0.001073 0.001109 0.000000 0.050765 0.000000
# 6 0.000000 0.000000 0.000000 -0.002084 0.000000 0.054330
#
#
# Mechanical properties :
#
#
# Convention : Reuss Voigt Hill
#
# Bulk Modulus (GPa) = 28.16206 51.46169 39.81188
# Shear Modulus (GPa) = 19.23255 23.66841 21.45048
#
# Velocity S-wave (km/s) = 3.17328 3.52025 3.35126
# Velocity P-wave (km/s) = 5.30765 6.59295 5.98490
#
# Compressibility (1/GPa) = 0.03550876
#
# Stress axis : x y z
#
# Youngs Moduli (GPa) = 28.28718 57.50169 47.00494
#
# Poissons Ratio (x) = 0.56602 -0.13109
# Poissons Ratio (y) = 0.27845 0.57343
# Poissons Ratio (z) = -0.07889 0.70149
#
# Static dielectric constant tensor:
#      x y z
#    x 1.672880 0.000000 0.008350 
#    y 0.000000 1.659200 0.000000 
#    z 0.008350 0.000000 1.661820 
# 
# From -- ./inp_files/17657.got.cif
#   From: 2010.05.17/outbox.cif.g08.bks.cpg/sg9_9_cif.got.tgz:17657.got - 2010.06.03 20:04:27.
