data_PCOD9135731
_publ_section_title
;
Structure prediction by ZEFSAII (Michael W. Deem and Ramdas Pophale) SiO2 
 PCOD9135731
Probable space group: C C
;
_chemical_formula_sum "Si O2"
_cell_formula_units_Z 32
_cell_length_a 12.963084
_cell_length_b 7.869368
_cell_length_c 23.781797
_cell_angle_alpha 90.000000
_cell_angle_beta 149.727740
_cell_angle_gamma 90.000000
_cell_volume 1222.975568
_symmetry_space_group_name_H-M "C C"
_symmetry_group_IT_number 9
_symmetry_cell_setting 'monoclinic'
loop_
_space_group_symop_operation_xyz
x,y,z
x,-y,1/2+z
1/2+x,1/2+y,z
1/2+x,1/2-y,1/2+z
loop_
_atom_site_type_symbol
_atom_site_label
_atom_site_fract_x
_atom_site_fract_y
_atom_site_fract_z
Si Si1 0.661500 0.270792 0.001680
Si Si2 0.175108 0.759122 0.546896
Si Si3 0.540637 0.930057 0.769482
Si Si4 0.505579 0.131782 0.578984
Si Si5 0.790005 0.981289 0.793028
Si Si6 0.540595 0.618491 0.665219
Si Si7 0.938204 0.438600 0.849948
Si Si8 0.918167 0.739704 0.994168
O O1 0.867543 0.289355 0.062996
O O2 0.615439 0.263495 0.046755
O O3 0.517874 0.423450 0.911314
O O4 0.554105 0.096923 0.931976
O O5 0.333418 0.911010 0.634658
O O6 0.358377 0.619837 0.624510
O O7 0.041296 0.736307 0.539287
O O8 0.035579 0.725061 0.426534
O O9 0.684153 0.052043 0.800094
O O10 0.467174 0.963604 0.797384
O O11 0.710147 0.780167 0.862139
O O12 0.727975 0.092345 0.710726
O O13 0.414372 0.950570 0.516239
O O14 0.665104 0.799668 0.725549
O O15 0.438969 0.629364 0.555716
O O16 0.700100 0.469925 0.749310
#
# Coordination Sequence:
#
# PCOD9135731 Si02
#       8
#     4   4   4   4   4   4   4   4
#     4  10  22  40  66  96 130 180 226 276 356 413
#     4  11  23  40  64 101 133 181 225 279 364 412
#     4  10  22  41  65  94 133 181 231 282 353 416
#     4  11  23  38  66  95 134 169 232 288 337 423
#     4   8  20  40  60  92 124 172 221 269 346 415
#     4   9  20  39  66  90 130 181 215 273 352 414
#     4  11  22  43  67  99 137 178 232 289 352 425
#     4  10  20  43  66  89 133 186 220 284 348 420
#
# _framework density 26.165689
#
# number of rings (size 3 to 8) (size 9 to 14) (size 15 to 20)
#    0.000    2.000    2.500    0.750    3.500    1.000 
#    0.000    3.750    0.000    0.000    0.000    0.000 
#    0.000    0.000    0.000    0.000    0.000    0.000 
#
# Total GULP energy -89394.146306 kJ/mol
# GULP energy per Si atom -5587.134144 kJ/mol
# Density = 2.610613 g / cm^3
# Si number density = 26.165689 Si / 1000 Ang^3
#
#
#
# Elastic Constant Matrix: (Units=GPa)
#
#
# Indices 1 2 3 4 5 6 
#
# 1 145.0000 10.5549 29.7982 0.0000 9.8110 0.0000
# 2 10.5549 77.3506 15.2292 0.0000 9.9800 0.0000
# 3 29.7982 15.2292 123.1369 -0.0001 -4.5913 0.0000
# 4 0.0000 0.0000 -0.0001 38.3278 0.0000 1.6055
# 5 9.8110 9.9800 -4.5913 0.0000 48.4663 0.0000
# 6 0.0000 0.0000 0.0000 1.6055 0.0000 28.7746
#
#
#
# Elastic Compliance Matrix: (Units=1/GPa)
#
#
# Indices 1 2 3 4 5 6 
#
# 1 0.007405 -0.000454 -0.001795 0.000000 -0.001576 0.000000
# 2 -0.000454 0.013696 -0.001692 0.000000 -0.002889 0.000000
# 3 -0.001795 -0.001692 0.008822 0.000000 0.001547 0.000000
# 4 0.000000 0.000000 0.000000 0.026152 0.000000 -0.001459
# 5 -0.001576 -0.002889 0.001547 0.000000 0.021693 0.000000
# 6 0.000000 0.000000 0.000000 -0.001459 0.000000 0.034834
#
#
# Mechanical properties :
#
#
# Convention : Reuss Voigt Hill
#
# Bulk Modulus (GPa) = 45.36635 50.73912 48.05273
# Shear Modulus (GPa) = 39.11434 42.44074 40.77754
#
# Velocity S-wave (km/s) = 3.87055 4.03178 3.95199
# Velocity P-wave (km/s) = 6.11152 6.41149 6.26330
#
# Compressibility (1/GPa) = 0.02204277
#
# Stress axis : x y z
#
# Youngs Moduli (GPa) = 135.04422 73.01478 113.34991
#
# Poissons Ratio (x) = 0.03314 0.20341
# Poissons Ratio (y) = 0.06129 0.19176
# Poissons Ratio (z) = 0.24235 0.12352
#
# Static dielectric constant tensor:
#      x y z
#    x 2.054280 0.000000 -0.006980 
#    y 0.000000 2.230740 0.000000 
#    z -0.006980 0.000000 2.076430 
# 
# From -- ./inp_files/35427.got.cif
#   From: 2010.05.17/outbox.cif.g08.bks.cpg/sg9_18_cif.got.tgz:35427.got - 2010.06.03 20:04:27.
