data_PCOD9135391
_publ_section_title
;
Structure prediction by ZEFSAII (Michael W. Deem and Ramdas Pophale) SiO2 
 PCOD9135391
Probable space group: C C
;
_chemical_formula_sum "Si O2"
_cell_formula_units_Z 28
_cell_length_a 11.569233
_cell_length_b 10.490665
_cell_length_c 13.102762
_cell_angle_alpha 90.000000
_cell_angle_beta 43.907754
_cell_angle_gamma 90.000000
_cell_volume 1102.850105
_symmetry_space_group_name_H-M "C C"
_symmetry_group_IT_number 9
_symmetry_cell_setting 'monoclinic'
loop_
_space_group_symop_operation_xyz
x,y,z
x,-y,1/2+z
1/2+x,1/2+y,z
1/2+x,1/2-y,1/2+z
loop_
_atom_site_type_symbol
_atom_site_label
_atom_site_fract_x
_atom_site_fract_y
_atom_site_fract_z
Si Si1 0.729920 0.634179 0.393880
Si Si2 0.571399 0.024436 0.865074
Si Si3 0.411776 0.760691 0.965849
Si Si4 0.694462 0.947794 0.582561
Si Si5 0.159406 0.149711 0.966181
Si Si6 0.444433 0.197472 0.095577
Si Si7 0.864765 0.904929 0.811092
O O1 0.858290 0.717292 0.381429
O O2 0.750338 0.484992 0.394681
O O3 0.543067 0.671556 0.544358
O O4 0.765479 0.684414 0.257872
O O5 0.619904 0.035616 0.716517
O O6 0.450487 0.905385 0.970006
O O7 0.743391 0.985076 0.811908
O O8 0.470417 0.145929 0.967009
O O9 0.556656 0.679499 0.926722
O O10 0.250244 0.682029 0.105351
O O11 0.850805 0.008125 0.422509
O O12 0.554638 0.904560 0.591455
O O13 0.274928 0.273289 0.899920
O O14 0.031441 0.129442 0.142477
#
# Coordination Sequence:
#
# PCOD9135391 Si02
#       7
#     4   4   4   4   4   4   4
#     4  11  25  43  69 100 139 181 235 288 351 420
#     4  10  20  39  69  95 135 175 231 286 349 418
#     4  10  22  40  68  98 132 182 234 274 354 420
#     4  10  20  39  69  95 135 175 231 286 349 418
#     4  11  25  43  69 100 139 181 235 288 351 420
#     4  10  24  41  66  98 140 176 227 297 346 417
#     4  10  24  41  66  98 140 176 227 297 346 417
#
# _framework density 25.388762
#
# number of rings (size 3 to 8) (size 9 to 14) (size 15 to 20)
#    0.000    1.714    2.857    0.000   12.000    0.000 
#    0.000    5.714    0.000    0.000    0.000    0.000 
#    0.000    0.000    0.000    0.000    0.000    0.000 
#
# Total GULP energy -78147.742695 kJ/mol
# GULP energy per Si atom -5581.981621 kJ/mol
# Density = 2.533098 g / cm^3
# Si number density = 25.388762 Si / 1000 Ang^3
#
#
#
# Elastic Constant Matrix: (Units=GPa)
#
#
# Indices 1 2 3 4 5 6 
#
# 1 42.8986 26.3887 25.9722 0.0000 7.1309 0.0000
# 2 26.3887 96.0934 47.5695 0.0000 -2.6859 0.0000
# 3 25.9722 47.5695 120.5424 0.0000 -11.5802 0.0000
# 4 0.0000 0.0000 0.0000 44.2119 0.0000 -1.5951
# 5 7.1309 -2.6859 -11.5802 0.0000 29.8201 0.0000
# 6 0.0000 0.0000 0.0000 -1.5951 0.0000 36.7686
#
#
#
# Elastic Compliance Matrix: (Units=1/GPa)
#
#
# Indices 1 2 3 4 5 6 
#
# 1 0.032300 -0.006489 -0.005398 0.000000 -0.010405 0.000000
# 2 -0.006489 0.014257 -0.004109 0.000000 0.001240 0.000000
# 3 -0.005398 -0.004109 0.011602 0.000000 0.005426 0.000000
# 4 0.000000 0.000000 0.000000 0.022654 0.000000 0.000983
# 5 -0.010405 0.001240 0.005426 0.000000 0.038241 0.000000
# 6 0.000000 0.000000 0.000000 0.000983 0.000000 0.027240
#
#
# Mechanical properties :
#
#
# Convention : Reuss Voigt Hill
#
# Bulk Modulus (GPa) = 38.21610 51.04391 44.63000
# Shear Modulus (GPa) = 26.73674 32.80039 29.76856
#
# Velocity S-wave (km/s) = 3.24866 3.59824 3.42791
# Velocity P-wave (km/s) = 5.39970 6.11651 5.76925
#
# Compressibility (1/GPa) = 0.02616698
#
# Stress axis : x y z
#
# Youngs Moduli (GPa) = 30.95968 70.13985 86.19309
#
# Poissons Ratio (x) = 0.45510 0.46531
# Poissons Ratio (y) = 0.20088 0.35418
# Poissons Ratio (z) = 0.16713 0.28822
#
# Static dielectric constant tensor:
#      x y z
#    x 2.059920 0.000000 0.026820 
#    y 0.000000 1.961330 0.000000 
#    z 0.026820 0.000000 2.079810 
# 
# From -- ./inp_files/8900.got.cif
#   From: 2010.05.17/outbox.cif.g08.bks.cpg/sg9_5_cif.got.tgz:8900.got - 2010.06.03 20:04:27.
