data_PCOD9135028
_publ_section_title
;
Structure prediction by ZEFSAII (Michael W. Deem and Ramdas Pophale) SiO2 
 PCOD9135028
Probable space group: C C
;
_chemical_formula_sum "Si O2"
_cell_formula_units_Z 32
_cell_length_a 10.636959
_cell_length_b 11.376213
_cell_length_c 11.333523
_cell_angle_alpha 90.000000
_cell_angle_beta 118.724458
_cell_angle_gamma 90.000000
_cell_volume 1202.681277
_symmetry_space_group_name_H-M "C C"
_symmetry_group_IT_number 9
_symmetry_cell_setting 'monoclinic'
loop_
_space_group_symop_operation_xyz
x,y,z
x,-y,1/2+z
1/2+x,1/2+y,z
1/2+x,1/2-y,1/2+z
loop_
_atom_site_type_symbol
_atom_site_label
_atom_site_fract_x
_atom_site_fract_y
_atom_site_fract_z
Si Si1 0.757040 0.966154 0.364120
Si Si2 0.677088 0.818481 0.994131
Si Si3 0.002367 0.099729 0.347642
Si Si4 0.335902 0.829694 0.370949
Si Si5 0.399557 0.803335 0.735317
Si Si6 0.782214 0.440061 0.117766
Si Si7 0.079616 0.389558 0.617501
Si Si8 0.349669 0.698129 0.087027
O O1 0.726722 0.056019 0.461476
O O2 0.898154 0.003985 0.357454
O O3 0.631727 0.001574 0.218736
O O4 0.785872 0.841202 0.434050
O O5 0.742327 0.723016 0.932406
O O6 0.505565 0.805036 0.896737
O O7 0.766860 0.786183 0.153075
O O8 0.939741 0.223235 0.372168
O O9 0.978835 0.118687 0.197168
O O10 0.156204 0.066704 0.465953
O O11 0.243060 0.889155 0.228775
O O12 0.452764 0.921492 0.472079
O O13 0.512245 0.793509 0.676161
O O14 0.339028 0.932729 0.676719
O O15 0.884320 0.334501 0.117497
O O16 0.216500 0.336254 0.613850
#
# Coordination Sequence:
#
# PCOD9135028 Si02
#       8
#     4   4   4   4   4   4   4   4
#     4   9  19  33  61  85 116 157 198 242 301 357
#     4   9  20  35  58  86 117 150 201 250 295 347
#     4   9  19  34  53  91 120 152 203 250 294 346
#     4   9  18  33  60  87 119 148 199 263 292 332
#     4  10  21  36  57  90 117 152 197 249 301 357
#     4  11  21  34  61  91 119 152 203 255 302 347
#     4   9  18  35  58  91 115 148 201 250 290 345
#     4  10  20  36  62  91 121 157 196 251 303 359
#
# _framework density 26.607216000000001
#
# number of rings (size 3 to 8) (size 9 to 14) (size 15 to 20)
#    0.000    2.500    1.250    2.250    7.000    1.000 
#    2.250    0.000    2.750    6.000    0.000    0.000 
#    0.000    0.000    0.000    0.000    0.000    0.000 
#
# Total GULP energy -89372.805395 kJ/mol
# GULP energy per Si atom -5585.800337 kJ/mol
# Density = 2.654666 g / cm^3
# Si number density = 26.607216 Si / 1000 Ang^3
#
#
#
# Elastic Constant Matrix: (Units=GPa)
#
#
# Indices 1 2 3 4 5 6 
#
# 1 36.5658 29.2842 24.7719 0.0000 13.5946 0.0000
# 2 29.2842 115.3510 39.8547 0.0000 14.0630 0.0000
# 3 24.7719 39.8547 168.3622 0.0000 39.3712 0.0000
# 4 0.0000 0.0000 0.0000 34.8319 0.0000 5.6499
# 5 13.5946 14.0630 39.3712 0.0000 38.8123 0.0000
# 6 0.0000 0.0000 0.0000 5.6499 0.0000 28.8925
#
#
#
# Elastic Compliance Matrix: (Units=1/GPa)
#
#
# Indices 1 2 3 4 5 6 
#
# 1 0.038181 -0.008050 -0.001661 0.000000 -0.008772 0.000000
# 2 -0.008050 0.011207 -0.001545 0.000000 0.000326 0.000000
# 3 -0.001661 -0.001545 0.008237 0.000000 -0.007214 0.000000
# 4 0.000000 0.000000 0.000000 0.029650 0.000000 -0.005798
# 5 -0.008772 0.000326 -0.007214 0.000000 0.036037 0.000000
# 6 0.000000 0.000000 0.000000 -0.005798 0.000000 0.035745
#
#
# Mechanical properties :
#
#
# Convention : Reuss Voigt Hill
#
# Bulk Modulus (GPa) = 28.47889 56.45564 42.46727
# Shear Modulus (GPa) = 25.87035 35.59857 30.73446
#
# Velocity S-wave (km/s) = 3.12156 3.66174 3.40239
# Velocity P-wave (km/s) = 4.87021 6.25636 5.60629
#
# Compressibility (1/GPa) = 0.03511372
#
# Stress axis : x y z
#
# Youngs Moduli (GPa) = 26.19084 89.23180 121.41059
#
# Poissons Ratio (x) = 0.71830 0.20166
# Poissons Ratio (y) = 0.21083 0.18754
# Poissons Ratio (z) = 0.04350 0.13783
#
# Static dielectric constant tensor:
#      x y z
#    x 2.131550 0.000000 -0.041630 
#    y 0.000000 2.098940 0.000000 
#    z -0.041630 0.000000 2.205520 
# 
# From -- ./inp_files/18067.got.cif
#   From: 2010.05.17/outbox.cif.g08.bks.cpg/sg9_10_cif.got.tgz:18067.got - 2010.06.03 20:04:27.
