data_PCOD9135795
_publ_section_title
;
Structure prediction by ZEFSAII (Michael W. Deem and Ramdas Pophale) SiO2 
 PCOD9135795
Probable space group: C C
;
_chemical_formula_sum "Si O2"
_cell_formula_units_Z 32
_cell_length_a 9.908271
_cell_length_b 12.576042
_cell_length_c 10.569805
_cell_angle_alpha 90.000000
_cell_angle_beta 85.040565
_cell_angle_gamma 90.000000
_cell_volume 1312.139012
_symmetry_space_group_name_H-M "C C"
_symmetry_group_IT_number 9
_symmetry_cell_setting 'monoclinic'
loop_
_space_group_symop_operation_xyz
x,y,z
x,-y,1/2+z
1/2+x,1/2+y,z
1/2+x,1/2-y,1/2+z
loop_
_atom_site_type_symbol
_atom_site_label
_atom_site_fract_x
_atom_site_fract_y
_atom_site_fract_z
Si Si1 0.183180 0.341266 0.441290
Si Si2 0.621832 0.606812 0.113963
Si Si3 0.650431 0.376091 0.051194
Si Si4 0.665180 0.775543 0.938068
Si Si5 0.853405 0.431158 0.763523
Si Si6 0.441379 0.691455 0.775341
Si Si7 0.327357 0.291878 0.672874
Si Si8 0.488559 0.978704 0.007343
O O1 0.145221 0.216015 0.444552
O O2 0.303381 0.362086 0.333009
O O3 0.243619 0.361180 0.577580
O O4 0.058426 0.417839 0.440716
O O5 0.699126 0.563414 0.231077
O O6 0.480484 0.666173 0.153417
O O7 0.626311 0.500631 0.028222
O O8 0.715632 0.698042 0.043290
O O9 0.875700 0.453790 0.909648
O O10 0.522548 0.356715 0.154204
O O11 0.544897 0.705104 0.884064
O O12 0.769701 0.799514 0.818223
O O13 0.595645 0.882189 0.994699
O O14 0.907228 0.312108 0.745569
O O15 0.939481 0.495460 0.652247
O O16 0.280916 0.174484 0.621774
#
# Coordination Sequence:
#
# PCOD9135795 Si02
#       8
#     4   4   4   4   4   4   4   4
#     4  10  20  44  74 108 149 202 247 325 393 456
#     4  12  25  45  73 111 156 204 261 324 404 461
#     4   9  22  43  71 104 154 189 257 323 376 469
#     4  10  22  45  75 103 149 196 258 322 390 469
#     4  11  27  46  72 109 153 204 258 319 391 472
#     4  10  20  46  69 104 145 193 252 319 383 457
#     4   9  22  46  75 110 155 203 255 325 398 466
#     4  11  24  49  79 107 153 203 258 325 395 466
#
# _framework density 24.387661000000001
#
# number of rings (size 3 to 8) (size 9 to 14) (size 15 to 20)
#    0.750    1.000    2.500    0.750    7.000    3.000 
#    4.500    0.000    0.000    0.000    0.000    0.000 
#    0.000    0.000    0.000    0.000    0.000    0.000 
#
# Total GULP energy -89325.528531 kJ/mol
# GULP energy per Si atom -5582.845533 kJ/mol
# Density = 2.433215 g / cm^3
# Si number density = 24.387661 Si / 1000 Ang^3
#
#
#
# Elastic Constant Matrix: (Units=GPa)
#
#
# Indices 1 2 3 4 5 6 
#
# 1 66.7851 37.5331 31.8143 0.0000 -20.1106 0.0000
# 2 37.5331 112.2141 18.3267 0.0000 -21.6169 0.0000
# 3 31.8143 18.3267 107.9127 0.0000 -27.7171 0.0000
# 4 0.0000 0.0000 0.0000 25.8209 0.0000 3.7011
# 5 -20.1106 -21.6169 -27.7171 0.0000 42.9872 0.0000
# 6 0.0000 0.0000 0.0000 3.7011 0.0000 27.9455
#
#
#
# Elastic Compliance Matrix: (Units=1/GPa)
#
#
# Indices 1 2 3 4 5 6 
#
# 1 0.021511 -0.005637 -0.004228 0.000000 0.004503 0.000000
# 2 -0.005637 0.011366 0.000626 0.000000 0.003482 0.000000
# 3 -0.004228 0.000626 0.011960 0.000000 0.006049 0.000000
# 4 0.000000 0.000000 0.000000 0.039478 0.000000 -0.005228
# 5 0.004503 0.003482 0.006049 0.000000 0.031020 0.000000
# 6 0.000000 0.000000 0.000000 -0.005228 0.000000 0.036476
#
#
# Mechanical properties :
#
#
# Convention : Reuss Voigt Hill
#
# Bulk Modulus (GPa) = 37.93754 51.36225 44.64990
# Shear Modulus (GPa) = 27.92102 32.63324 30.27713
#
# Velocity S-wave (km/s) = 3.38728 3.66198 3.52731
# Velocity P-wave (km/s) = 5.55770 6.24393 5.91078
#
# Compressibility (1/GPa) = 0.02635912
#
# Stress axis : x y z
#
# Youngs Moduli (GPa) = 46.48687 87.98524 83.60856
#
# Poissons Ratio (x) = 0.49599 0.35350
# Poissons Ratio (y) = 0.26205 -0.05234
# Poissons Ratio (z) = 0.19655 -0.05508
#
# Static dielectric constant tensor:
#      x y z
#    x 2.013300 0.000000 0.035020 
#    y 0.000000 1.944120 0.000000 
#    z 0.035020 0.000000 2.005290 
# 
# From -- ./inp_files/16571.got.cif
#   From: 2010.05.17/outbox.cif.g08.bks.cpg/sg9_9_cif.got.tgz:16571.got - 2010.06.03 20:04:27.
