data_PCOD9135372
_publ_section_title
;
Structure prediction by ZEFSAII (Michael W. Deem and Ramdas Pophale) SiO2 
 PCOD9135372
Probable space group: C C
;
_chemical_formula_sum "Si O2"
_cell_formula_units_Z 32
_cell_length_a 11.465175
_cell_length_b 6.896065
_cell_length_c 20.046559
_cell_angle_alpha 90.000000
_cell_angle_beta 46.287391
_cell_angle_gamma 90.000000
_cell_volume 1145.642403
_symmetry_space_group_name_H-M "C C"
_symmetry_group_IT_number 9
_symmetry_cell_setting 'monoclinic'
loop_
_space_group_symop_operation_xyz
x,y,z
x,-y,1/2+z
1/2+x,1/2+y,z
1/2+x,1/2-y,1/2+z
loop_
_atom_site_type_symbol
_atom_site_label
_atom_site_fract_x
_atom_site_fract_y
_atom_site_fract_z
Si Si1 0.853670 0.200753 0.608010
Si Si2 0.304143 0.577550 0.782169
Si Si3 0.330851 0.111776 0.664509
Si Si4 0.372097 0.846840 0.286883
Si Si5 0.470699 0.838231 0.387434
Si Si6 0.045905 0.126776 0.868075
Si Si7 0.223382 0.715627 0.950839
Si Si8 0.657698 0.814967 0.052091
O O1 0.826982 0.139679 0.696281
O O2 0.815953 0.432837 0.622627
O O3 0.733311 0.125278 0.596637
O O4 0.047111 0.185738 0.517915
O O5 0.400232 0.381298 0.759392
O O6 0.314010 0.715942 0.842907
O O7 0.111291 0.544705 0.865883
O O8 0.405231 0.033893 0.706788
O O9 0.159190 0.183164 0.758830
O O10 0.479316 0.256091 0.596546
O O11 0.471399 0.895514 0.310747
O O12 0.179706 0.858279 0.372837
O O13 0.512761 0.605901 0.374252
O O14 0.288389 0.847732 0.482893
O O15 0.879955 0.243588 0.937078
O O16 0.179076 0.499435 0.994930
#
# Coordination Sequence:
#
# PCOD9135372 Si02
#       8
#     4   4   4   4   4   4   4   4
#     4  11  22  40  70 101 131 187 228 274 341 405
#     4  12  21  40  72  98 129 182 230 270 347 396
#     4   9  21  37  62  94 133 168 220 279 331 394
#     4  10  22  41  62  99 126 175 225 273 332 402
#     4  11  20  41  68  90 131 181 216 273 337 399
#     4   9  20  42  63  88 139 172 212 282 335 391
#     4  10  22  42  66 101 139 178 223 286 333 407
#     4  10  20  39  67  97 132 173 232 275 328 406
#
# _framework density 27.931927999999999
#
# number of rings (size 3 to 8) (size 9 to 14) (size 15 to 20)
#    0.750    1.000    5.000    0.750    0.000    0.000 
#    9.000    5.000    0.000    0.000    0.000    0.000 
#    0.000    0.000    0.000    0.000    0.000    0.000 
#
# Total GULP energy -89093.695129 kJ/mol
# GULP energy per Si atom -5568.355946 kJ/mol
# Density = 2.786835 g / cm^3
# Si number density = 27.931928 Si / 1000 Ang^3
#
#
#
# Elastic Constant Matrix: (Units=GPa)
#
#
# Indices 1 2 3 4 5 6 
#
# 1 144.2094 22.0500 20.7345 0.0000 -12.3976 0.0000
# 2 22.0500 94.6527 20.7658 0.0000 -2.1903 0.0000
# 3 20.7345 20.7658 99.6445 0.0000 -0.1441 0.0000
# 4 0.0000 0.0000 0.0000 38.4748 0.0000 -1.7067
# 5 -12.3976 -2.1903 -0.1441 0.0000 74.0915 0.0000
# 6 0.0000 0.0000 0.0000 -1.7067 0.0000 29.5541
#
#
#
# Elastic Compliance Matrix: (Units=1/GPa)
#
#
# Indices 1 2 3 4 5 6 
#
# 1 0.007436 -0.001431 -0.001247 0.000000 0.001199 0.000000
# 2 -0.001431 0.011354 -0.002068 0.000000 0.000092 0.000000
# 3 -0.001247 -0.002068 0.010726 0.000000 -0.000249 0.000000
# 4 0.000000 0.000000 0.000000 0.026058 0.000000 0.001505
# 5 0.001199 0.000092 -0.000249 0.000000 0.013700 0.000000
# 6 0.000000 0.000000 0.000000 0.001505 0.000000 0.033923
#
#
# Mechanical properties :
#
#
# Convention : Reuss Voigt Hill
#
# Bulk Modulus (GPa) = 49.94311 51.73413 50.83862
# Shear Modulus (GPa) = 41.88886 46.75450 44.32168
#
# Velocity S-wave (km/s) = 3.87677 4.09574 3.98776
# Velocity P-wave (km/s) = 6.16102 6.39754 6.28039
#
# Compressibility (1/GPa) = 0.02002278
#
# Stress axis : x y z
#
# Youngs Moduli (GPa) = 134.48837 88.07354 93.23217
#
# Poissons Ratio (x) = 0.12601 0.11629
# Poissons Ratio (y) = 0.19242 0.19284
# Poissons Ratio (z) = 0.16775 0.18217
#
# Static dielectric constant tensor:
#      x y z
#    x 2.170630 0.000000 -0.079720 
#    y 0.000000 2.312080 0.000000 
#    z -0.079720 0.000000 2.522940 
# 
# From -- ./inp_files/33210.got.cif
#   From: 2010.05.17/outbox.cif.g08.bks.cpg/sg9_17_cif.got.tgz:33210.got - 2010.06.03 20:04:27.
