data_PCOD9135551
_publ_section_title
;
Structure prediction by ZEFSAII (Michael W. Deem and Ramdas Pophale) SiO2 
 PCOD9135551
Probable space group: C C
;
_chemical_formula_sum "Si O2"
_cell_formula_units_Z 32
_cell_length_a 7.678852
_cell_length_b 22.435027
_cell_length_c 14.265017
_cell_angle_alpha 90.000000
_cell_angle_beta 144.693523
_cell_angle_gamma 90.000000
_cell_volume 1420.317264
_symmetry_space_group_name_H-M "C C"
_symmetry_group_IT_number 9
_symmetry_cell_setting 'monoclinic'
loop_
_space_group_symop_operation_xyz
x,y,z
x,-y,1/2+z
1/2+x,1/2+y,z
1/2+x,1/2-y,1/2+z
loop_
_atom_site_type_symbol
_atom_site_label
_atom_site_fract_x
_atom_site_fract_y
_atom_site_fract_z
Si Si1 0.167910 0.187019 0.503580
Si Si2 0.826696 0.046063 0.789714
Si Si3 0.217898 0.234203 0.323332
Si Si4 0.746570 0.563450 0.444240
Si Si5 0.517012 0.986527 0.832767
Si Si6 0.615588 0.149225 0.366169
Si Si7 0.065459 0.150953 0.010819
Si Si8 0.903891 0.069133 0.101869
O O1 0.088532 0.210567 0.364911
O O2 0.455184 0.226672 0.659330
O O3 0.219930 0.116376 0.508448
O O4 0.910538 0.186468 0.469756
O O5 0.607629 0.054167 0.604668
O O6 0.097572 0.999975 0.899161
O O7 0.952805 0.109247 0.878204
O O8 0.629863 0.016716 0.787013
O O9 0.395597 0.183821 0.341712
O O10 0.478353 0.281764 0.458779
O O11 0.545290 0.581840 0.265190
O O12 0.658010 0.920386 0.910987
O O13 0.162305 0.973797 0.671320
O O14 0.598873 0.033154 0.950743
O O15 0.418258 0.144054 0.184386
O O16 0.900418 0.125990 0.032259
#
# Coordination Sequence:
#
# PCOD9135551 Si02
#       8
#     4   4   4   4   4   4   4   4
#     4  12  27  44  74 100 137 184 238 278 346 410
#     4  11  22  39  69  97 140 168 218 275 346 408
#     4  12  26  47  69  99 137 182 233 292 332 403
#     4  12  23  40  63 107 129 174 222 280 340 410
#     4  10  20  41  64  94 130 178 211 274 341 408
#     4  11  24  45  73  98 137 183 236 284 342 403
#     4  10  22  45  66  92 135 183 213 283 344 400
#     4  10  22  37  66  93 135 170 215 272 343 400
#
# _framework density 22.530177999999999
#
# number of rings (size 3 to 8) (size 9 to 14) (size 15 to 20)
#    0.000    1.000    3.750    4.500    1.750    0.000 
#    0.000    0.000    2.750    0.000    0.000    0.000 
#    0.000    0.000    0.000    0.000    0.000    0.000 
#
# Total GULP energy -89276.721251 kJ/mol
# GULP energy per Si atom -5579.795078 kJ/mol
# Density = 2.247890 g / cm^3
# Si number density = 22.530178 Si / 1000 Ang^3
#
#
#
# Elastic Constant Matrix: (Units=GPa)
#
#
# Indices 1 2 3 4 5 6 
#
# 1 44.4072 8.4767 -0.3509 0.0000 -3.5359 0.0000
# 2 8.4767 106.3708 11.3447 0.0000 -1.8501 0.0000
# 3 -0.3509 11.3447 76.1917 0.0000 -11.5852 0.0000
# 4 0.0000 0.0000 0.0000 45.5777 0.0000 2.2592
# 5 -3.5359 -1.8501 -11.5852 0.0000 25.1831 0.0000
# 6 0.0000 0.0000 0.0000 2.2592 0.0000 29.1348
#
#
#
# Elastic Compliance Matrix: (Units=1/GPa)
#
#
# Indices 1 2 3 4 5 6 
#
# 1 0.023168 -0.001883 0.000925 0.000000 0.003540 0.000000
# 2 -0.001883 0.009706 -0.001490 0.000000 -0.000237 0.000000
# 3 0.000925 -0.001490 0.014358 0.000000 0.006626 0.000000
# 4 0.000000 0.000000 0.000000 0.022025 0.000000 -0.001708
# 5 0.003540 -0.000237 0.006626 0.000000 0.043237 0.000000
# 6 0.000000 0.000000 0.000000 -0.001708 0.000000 0.034456
#
#
# Mechanical properties :
#
#
# Convention : Reuss Voigt Hill
#
# Bulk Modulus (GPa) = 23.62037 29.54565 26.58301
# Shear Modulus (GPa) = 30.12818 33.81238 31.97028
#
# Velocity S-wave (km/s) = 3.66079 3.87817 3.77105
# Velocity P-wave (km/s) = 5.32684 5.76158 5.54847
#
# Compressibility (1/GPa) = 0.04233634
#
# Stress axis : x y z
#
# Youngs Moduli (GPa) = 43.16373 103.02967 69.64578
#
# Poissons Ratio (x) = 0.19404 -0.06445
# Poissons Ratio (y) = 0.08129 0.10376
# Poissons Ratio (z) = -0.03995 0.15350
#
# Static dielectric constant tensor:
#      x y z
#    x 1.885550 0.000000 -0.041250 
#    y 0.000000 1.830880 0.000000 
#    z -0.041250 0.000000 1.854750 
# 
# From -- ./inp_files/23805.got.cif
#   From: 2010.05.17/outbox.cif.g08.bks.cpg/sg9_12_cif.got.tgz:23805.got - 2010.06.03 20:04:27.
