data_PCOD9135528
_publ_section_title
;
Structure prediction by ZEFSAII (Michael W. Deem and Ramdas Pophale) SiO2 
 PCOD9135528
Probable space group: C C
;
_chemical_formula_sum "Si O2"
_cell_formula_units_Z 32
_cell_length_a 14.567474
_cell_length_b 8.984341
_cell_length_c 23.149979
_cell_angle_alpha 90.000000
_cell_angle_beta 150.316387
_cell_angle_gamma 90.000000
_cell_volume 1500.412499
_symmetry_space_group_name_H-M "C C"
_symmetry_group_IT_number 9
_symmetry_cell_setting 'monoclinic'
loop_
_space_group_symop_operation_xyz
x,y,z
x,-y,1/2+z
1/2+x,1/2+y,z
1/2+x,1/2-y,1/2+z
loop_
_atom_site_type_symbol
_atom_site_label
_atom_site_fract_x
_atom_site_fract_y
_atom_site_fract_z
Si Si1 0.095850 0.779151 0.132610
Si Si2 0.112454 0.089933 0.940344
Si Si3 0.783610 0.849939 0.472823
Si Si4 0.941030 0.867368 0.769716
Si Si5 0.025026 0.537648 0.187263
Si Si6 0.342244 0.711360 0.882192
Si Si7 0.197866 0.332441 0.890833
Si Si8 0.561848 0.542433 0.211658
O O1 0.270832 0.745502 0.187243
O O2 0.064301 0.625839 0.149952
O O3 0.094461 0.905280 0.183814
O O4 0.915798 0.814769 0.995474
O O5 0.154643 0.199217 0.910077
O O6 0.016521 0.183810 0.937548
O O7 0.303537 0.011790 0.064877
O O8 0.956945 0.978590 0.832035
O O9 0.625849 0.729521 0.378824
O O10 0.902268 0.826651 0.479842
O O11 0.919737 0.849381 0.600472
O O12 0.687271 0.011363 0.418791
O O13 0.966606 0.960193 0.723707
O O14 0.168669 0.402007 0.274896
O O15 0.072849 0.649497 0.266374
O O16 0.256747 0.874891 0.827929
#
# Coordination Sequence:
#
# PCOD9135528 Si02
#       8
#     4   4   4   4   4   4   4   4
#     4  10  21  39  64  90 126 167 212 266 326 388
#     4  11  22  37  65  91 123 166 213 263 326 386
#     4   9  21  41  57  89 125 163 210 261 321 389
#     4  11  22  39  64  95 124 172 215 262 335 385
#     4  10  20  41  60  89 126 164 209 269 314 392
#     4  10  21  39  60  90 122 162 210 261 322 384
#     4   9  21  39  61  88 127 162 210 263 323 387
#     4  10  22  41  61  88 135 160 211 275 313 393
#
# _framework density 21.327468
#
# number of rings (size 3 to 8) (size 9 to 14) (size 15 to 20)
#    0.000    2.000    1.250    1.500    1.750    2.000 
#   20.250    0.000    2.750    0.000    0.000    0.000 
#    0.000    0.000    0.000    0.000    0.000    0.000 
#
# Total GULP energy -89135.141062 kJ/mol
# GULP energy per Si atom -5570.946316 kJ/mol
# Density = 2.127893 g / cm^3
# Si number density = 21.327468 Si / 1000 Ang^3
#
#
#
# Elastic Constant Matrix: (Units=GPa)
#
#
# Indices 1 2 3 4 5 6 
#
# 1 86.5280 1.8189 35.2511 -0.0001 13.7043 0.0000
# 2 1.8189 27.7795 -0.2962 -0.0004 4.0842 -0.0001
# 3 35.2511 -0.2962 79.9013 -0.0001 -7.6731 0.0000
# 4 -0.0001 -0.0004 -0.0001 25.6019 -0.0001 0.1661
# 5 13.7043 4.0842 -7.6731 -0.0001 30.6706 0.0000
# 6 0.0000 -0.0001 0.0000 0.1661 0.0000 19.6870
#
#
#
# Elastic Compliance Matrix: (Units=1/GPa)
#
#
# Indices 1 2 3 4 5 6 
#
# 1 0.016336 0.000220 -0.008105 0.000000 -0.009356 0.000000
# 2 0.000220 0.036729 -0.000451 0.000001 -0.005102 0.000000
# 3 -0.008105 -0.000451 0.016848 0.000000 0.007896 0.000000
# 4 0.000000 0.000001 0.000000 0.039062 0.000000 -0.000329
# 5 -0.009356 -0.005102 0.007896 0.000000 0.039440 0.000000
# 6 0.000000 0.000000 0.000000 -0.000329 0.000000 0.050798
#
#
# Mechanical properties :
#
#
# Convention : Reuss Voigt Hill
#
# Bulk Modulus (GPa) = 18.78266 29.75072 24.26669
# Shear Modulus (GPa) = 21.40130 25.68757 23.54443
#
# Velocity S-wave (km/s) = 3.17118 3.47426 3.32618
# Velocity P-wave (km/s) = 4.71534 5.48396 5.11411
#
# Compressibility (1/GPa) = 0.05324059
#
# Stress axis : x y z
#
# Youngs Moduli (GPa) = 61.21428 27.22666 59.35491
#
# Poissons Ratio (x) = -0.00598 0.48106
# Poissons Ratio (y) = -0.01344 0.02675
# Poissons Ratio (z) = 0.49613 0.01227
#
# Static dielectric constant tensor:
#      x y z
#    x 1.801700 0.000000 -0.009760 
#    y 0.000000 1.864510 0.000000 
#    z -0.009760 0.000000 1.761940 
# 
# From -- ./inp_files/17763.got.cif
#   From: 2010.05.17/outbox.cif.g08.bks.cpg/sg9_9_cif.got.tgz:17763.got - 2010.06.03 20:04:27.
