data_PCOD9135288
_publ_section_title
;
Structure prediction by ZEFSAII (Michael W. Deem and Ramdas Pophale) SiO2 
 PCOD9135288
Probable space group: C C
;
_chemical_formula_sum "Si O2"
_cell_formula_units_Z 28
_cell_length_a 12.550828
_cell_length_b 14.883385
_cell_length_c 10.233272
_cell_angle_alpha 90.000000
_cell_angle_beta 35.726949
_cell_angle_gamma 90.000000
_cell_volume 1116.205801
_symmetry_space_group_name_H-M "C C"
_symmetry_group_IT_number 9
_symmetry_cell_setting 'monoclinic'
loop_
_space_group_symop_operation_xyz
x,y,z
x,-y,1/2+z
1/2+x,1/2+y,z
1/2+x,1/2-y,1/2+z
loop_
_atom_site_type_symbol
_atom_site_label
_atom_site_fract_x
_atom_site_fract_y
_atom_site_fract_z
Si Si1 0.867640 0.028522 0.706320
Si Si2 0.125724 0.555878 0.617230
Si Si3 0.167605 0.610421 0.213299
Si Si4 0.977178 0.210346 0.001640
Si Si5 0.788691 0.657502 0.862267
Si Si6 0.684375 0.634600 0.270849
Si Si7 0.591083 0.834827 0.407133
O O1 0.743882 0.118294 0.842307
O O2 0.055088 0.056897 0.455167
O O3 0.745061 0.962380 0.740281
O O4 0.833496 0.973752 0.873209
O O5 0.053729 0.459368 0.740100
O O6 0.141599 0.632156 0.710700
O O7 0.967466 0.594671 0.681501
O O8 0.047863 0.695895 0.373175
O O9 0.361667 0.662242 0.004410
O O10 0.859225 0.242683 0.247085
O O11 0.132492 0.146972 0.908442
O O12 0.712496 0.644778 0.085303
O O13 0.597793 0.728519 0.403805
O O14 0.887079 0.629564 0.128500
#
# Coordination Sequence:
#
# PCOD9135288 Si02
#       7
#     4   4   4   4   4   4   4
#     4  11  23  41  65  97 140 176 225 292 349 412
#     4  10  22  42  66  93 140 181 219 287 357 402
#     4  10  23  43  65  96 138 180 230 295 345 419
#     4  10  21  40  72 101 134 179 243 286 355 410
#     4  10  20  38  72 101 131 179 233 294 340 420
#     4  11  21  38  66 103 131 172 229 289 349 408
#     4  10  22  40  66  95 136 175 227 285 341 415
#
# _framework density 25.084980000000002
#
# number of rings (size 3 to 8) (size 9 to 14) (size 15 to 20)
#    0.000    1.714    2.857    1.714    2.000    2.286 
#   10.286    2.857    0.000    0.000    0.000    0.000 
#    0.000    0.000    0.000    0.000    0.000    0.000 
#
# Total GULP energy -77981.235023 kJ/mol
# GULP energy per Si atom -5570.088216 kJ/mol
# Density = 2.502789 g / cm^3
# Si number density = 25.084980 Si / 1000 Ang^3
#
#
#
# Elastic Constant Matrix: (Units=GPa)
#
#
# Indices 1 2 3 4 5 6 
#
# 1 87.1104 31.6383 18.9596 -0.0020 -20.0063 0.0013
# 2 31.6383 141.3982 27.5634 -0.0015 -7.8969 0.0012
# 3 18.9596 27.5634 103.6001 -0.0031 -19.4920 0.0024
# 4 -0.0020 -0.0015 -0.0031 55.6278 0.0020 -7.9136
# 5 -20.0063 -7.8969 -19.4920 0.0020 17.9268 -0.0013
# 6 0.0013 0.0012 0.0024 -7.9136 -0.0013 44.0673
#
#
#
# Elastic Compliance Matrix: (Units=1/GPa)
#
#
# Indices 1 2 3 4 5 6 
#
# 1 0.016511 -0.002902 0.001228 0.000000 0.018484 0.000000
# 2 -0.002902 0.007998 -0.001940 0.000000 -0.001825 0.000000
# 3 0.001228 -0.001940 0.012623 0.000000 0.014241 0.000000
# 4 0.000000 0.000000 0.000000 0.018448 -0.000002 0.003313
# 5 0.018484 -0.001825 0.014241 -0.000002 0.091091 0.000001
# 6 0.000000 0.000000 0.000000 0.003313 0.000001 0.023287
#
#
# Mechanical properties :
#
#
# Convention : Reuss Voigt Hill
#
# Bulk Modulus (GPa) = 33.43927 54.27015 43.85471
# Shear Modulus (GPa) = 26.71582 40.45420 33.58501
#
# Velocity S-wave (km/s) = 3.26699 4.02018 3.66300
# Velocity P-wave (km/s) = 5.25265 6.57500 5.95067
#
# Compressibility (1/GPa) = 0.02990496
#
# Stress axis : x y z
#
# Youngs Moduli (GPa) = 60.56456 125.03508 79.21779
#
# Poissons Ratio (x) = 0.36279 -0.09727
# Poissons Ratio (y) = 0.17573 0.15369
# Poissons Ratio (z) = -0.07437 0.24258
#
# Static dielectric constant tensor:
#      x y z
#    x 2.186050 0.000000 0.178130 
#    y 0.000000 1.980510 0.000000 
#    z 0.178130 0.000000 2.214960 
# 
# From -- ./inp_files/18430.got.cif
#   From: 2010.05.17/outbox.cif.g08.bks.cpg/sg9_10_cif.got.tgz:18430.got - 2010.06.03 20:04:27.
