data_PCOD9135385
_publ_section_title
;
Structure prediction by ZEFSAII (Michael W. Deem and Ramdas Pophale) SiO2 
 PCOD9135385
Probable space group: C C
;
_chemical_formula_sum "Si O2"
_cell_formula_units_Z 32
_cell_length_a 10.688014
_cell_length_b 9.046789
_cell_length_c 19.643592
_cell_angle_alpha 90.000000
_cell_angle_beta 135.933080
_cell_angle_gamma 90.000000
_cell_volume 1321.016699
_symmetry_space_group_name_H-M "C C"
_symmetry_group_IT_number 9
_symmetry_cell_setting 'monoclinic'
loop_
_space_group_symop_operation_xyz
x,y,z
x,-y,1/2+z
1/2+x,1/2+y,z
1/2+x,1/2-y,1/2+z
loop_
_atom_site_type_symbol
_atom_site_label
_atom_site_fract_x
_atom_site_fract_y
_atom_site_fract_z
Si Si1 0.693070 0.504565 0.120540
Si Si2 0.998266 0.715242 0.033658
Si Si3 0.651316 0.166003 0.368426
Si Si4 0.318905 0.690684 0.690487
Si Si5 0.992905 0.728780 0.782855
Si Si6 0.636978 0.516537 0.253072
Si Si7 0.064175 0.554318 0.934201
Si Si8 0.681783 0.071015 0.223557
O O1 0.559892 0.381696 0.036655
O O2 0.725594 0.675062 0.110957
O O3 0.874653 0.402423 0.201302
O O4 0.611195 0.525933 0.162957
O O5 0.030709 0.663945 0.123154
O O6 0.792573 0.704006 0.931775
O O7 0.109011 0.607465 0.026786
O O8 0.445829 0.213894 0.289734
O O9 0.677209 0.087472 0.304023
O O10 0.674550 0.081646 0.448765
O O11 0.477403 0.593257 0.716713
O O12 0.196134 0.586575 0.690487
O O13 0.106646 0.668330 0.890181
O O14 0.855221 0.839121 0.766038
O O15 0.105114 0.826299 0.775450
O O16 0.847100 0.469768 0.344216
#
# Coordination Sequence:
#
# PCOD9135385 Si02
#       8
#     4   4   4   4   4   4   4   4
#     4  10  22  40  66 102 131 180 223 283 352 415
#     4  11  24  46  70 100 150 180 235 294 353 415
#     4  12  23  43  74 102 141 184 232 293 350 418
#     4  11  21  41  74  99 132 182 232 283 345 418
#     4   9  18  39  67  94 129 173 224 277 340 406
#     4  10  20  39  68  96 131 171 227 279 340 406
#     4  11  22  39  69 102 133 181 231 287 346 408
#     4  10  24  43  72 103 137 187 234 288 352 418
#
# _framework density 24.223766000000001
#
# number of rings (size 3 to 8) (size 9 to 14) (size 15 to 20)
#    0.000    1.500    5.000    1.500    1.750    4.000 
#    0.000    7.500    0.000    0.000    0.000    0.000 
#    0.000    0.000    0.000    0.000    0.000    0.000 
#
# Total GULP energy -89132.037350 kJ/mol
# GULP energy per Si atom -5570.752334 kJ/mol
# Density = 2.416863 g / cm^3
# Si number density = 24.223766 Si / 1000 Ang^3
#
#
#
# Elastic Constant Matrix: (Units=GPa)
#
#
# Indices 1 2 3 4 5 6 
#
# 1 84.5946 39.3098 15.2416 0.0000 -21.6698 0.0000
# 2 39.3098 108.3719 -2.8240 0.0000 -13.0258 0.0000
# 3 15.2416 -2.8240 51.1889 0.0000 -13.0227 0.0000
# 4 0.0000 0.0000 0.0000 23.7359 0.0000 -12.1981
# 5 -21.6698 -13.0258 -13.0227 0.0000 24.9569 0.0000
# 6 0.0000 0.0000 0.0000 -12.1981 0.0000 51.2852
#
#
#
# Elastic Compliance Matrix: (Units=1/GPa)
#
#
# Indices 1 2 3 4 5 6 
#
# 1 0.017525 -0.005082 -0.002654 0.000000 0.011179 0.000000
# 2 -0.005082 0.011525 0.002948 0.000000 0.003141 0.000000
# 3 -0.002654 0.002948 0.023400 0.000000 0.011444 0.000000
# 4 0.000000 0.000000 0.000000 0.047997 0.000000 0.011416
# 5 0.011179 0.003141 0.011444 0.000000 0.057386 0.000000
# 6 0.000000 0.000000 0.000000 0.011416 0.000000 0.022214
#
#
# Mechanical properties :
#
#
# Convention : Reuss Voigt Hill
#
# Bulk Modulus (GPa) = 23.32481 38.62335 30.97408
# Shear Modulus (GPa) = 24.51998 32.82413 28.67206
#
# Velocity S-wave (km/s) = 3.18501 3.68508 3.44413
# Velocity P-wave (km/s) = 4.81409 5.83827 5.35074
#
# Compressibility (1/GPa) = 0.04287280
#
# Stress axis : x y z
#
# Youngs Moduli (GPa) = 57.06293 86.76552 42.73511
#
# Poissons Ratio (x) = 0.44096 0.11344
# Poissons Ratio (y) = 0.29001 -0.12599
# Poissons Ratio (z) = 0.15147 -0.25580
#
# Static dielectric constant tensor:
#      x y z
#    x 1.919280 0.000000 0.031840 
#    y 0.000000 2.138920 0.000000 
#    z 0.031840 0.000000 1.937340 
# 
# From -- ./inp_files/33170.got.cif
#   From: 2010.05.17/outbox.cif.g08.bks.cpg/sg9_17_cif.got.tgz:33170.got - 2010.06.03 20:04:27.
