data_PCOD9135122
_publ_section_title
;
Structure prediction by ZEFSAII (Michael W. Deem and Ramdas Pophale) SiO2 
 PCOD9135122
Probable space group: C C
;
_chemical_formula_sum "Si O2"
_cell_formula_units_Z 32
_cell_length_a 10.112910
_cell_length_b 11.660729
_cell_length_c 19.691286
_cell_angle_alpha 90.000000
_cell_angle_beta 36.099091
_cell_angle_gamma 90.000000
_cell_volume 1368.127363
_symmetry_space_group_name_H-M "C C"
_symmetry_group_IT_number 9
_symmetry_cell_setting 'monoclinic'
loop_
_space_group_symop_operation_xyz
x,y,z
x,-y,1/2+z
1/2+x,1/2+y,z
1/2+x,1/2-y,1/2+z
loop_
_atom_site_type_symbol
_atom_site_label
_atom_site_fract_x
_atom_site_fract_y
_atom_site_fract_z
Si Si1 0.116020 0.792085 0.174780
Si Si2 0.783567 0.152726 0.534648
Si Si3 0.875901 0.520897 0.520295
Si Si4 0.636422 0.166281 0.856414
Si Si5 0.007184 0.635100 0.331999
Si Si6 0.939512 0.600549 0.793519
Si Si7 0.017488 0.862933 0.611516
Si Si8 0.942753 0.908221 0.492506
O O1 0.289445 0.895352 0.113783
O O2 0.000611 0.752282 0.293242
O O3 0.255567 0.689868 0.081074
O O4 0.892937 0.825744 0.227080
O O5 0.638429 0.144250 0.663546
O O6 0.618147 0.235123 0.558941
O O7 0.018472 0.222494 0.438492
O O8 0.848312 0.020054 0.493644
O O9 0.686236 0.425051 0.591223
O O10 0.097741 0.444120 0.421386
O O11 0.873876 0.603473 0.454570
O O12 0.492087 0.144229 0.847721
O O13 0.954051 0.536600 0.298468
O O14 0.268948 0.631607 0.243201
O O15 0.692982 0.630082 0.865991
O O16 0.001195 0.932939 0.547828
#
# Coordination Sequence:
#
# PCOD9135122 Si02
#       8
#     4   4   4   4   4   4   4   4
#     4  11  23  36  65  96 130 165 225 278 341 408
#     4  11  22  37  71  93 129 169 226 281 332 396
#     4  10  20  38  62  87 122 171 215 269 326 398
#     4  10  23  39  65  98 126 170 228 279 333 415
#     4  10  20  37  63  91 122 169 215 275 321 407
#     4  11  20  40  67  95 124 174 232 270 338 409
#     4  10  20  39  63  91 124 164 226 267 327 395
#     4  11  22  40  64  99 127 174 223 277 338 404
#
# _framework density 23.389634999999998
#
# number of rings (size 3 to 8) (size 9 to 14) (size 15 to 20)
#    0.000    1.500    6.250    2.250    1.750    0.000 
#    0.000    0.000   22.000    0.000    0.000    0.000 
#    0.000    0.000    0.000    0.000    0.000    0.000 
#
# Total GULP energy -89122.584950 kJ/mol
# GULP energy per Si atom -5570.161559 kJ/mol
# Density = 2.333640 g / cm^3
# Si number density = 23.389635 Si / 1000 Ang^3
#
#
#
# Elastic Constant Matrix: (Units=GPa)
#
#
# Indices 1 2 3 4 5 6 
#
# 1 25.5723 14.1753 17.8753 -0.0001 -20.8224 0.0001
# 2 14.1753 88.5814 33.0261 -0.0004 -21.0639 0.0001
# 3 17.8753 33.0261 112.5741 -0.0011 -37.3479 0.0004
# 4 -0.0001 -0.0004 -0.0011 50.0195 0.0002 0.5881
# 5 -20.8224 -21.0639 -37.3479 0.0002 37.0581 -0.0001
# 6 0.0001 0.0001 0.0004 0.5881 -0.0001 25.0683
#
#
#
# Elastic Compliance Matrix: (Units=1/GPa)
#
#
# Indices 1 2 3 4 5 6 
#
# 1 0.073333 -0.002776 0.003481 0.000000 0.043135 0.000000
# 2 -0.002776 0.013483 -0.002238 0.000000 0.003849 0.000000
# 3 0.003481 -0.002238 0.013842 0.000000 0.014634 0.000000
# 4 0.000000 0.000000 0.000000 0.019998 0.000000 -0.000469
# 5 0.043135 0.003849 0.014634 0.000000 0.068157 0.000000
# 6 0.000000 0.000000 0.000000 -0.000469 0.000000 0.039902
#
#
# Mechanical properties :
#
#
# Convention : Reuss Voigt Hill
#
# Bulk Modulus (GPa) = 10.24680 39.65347 24.95014
# Shear Modulus (GPa) = 18.91710 33.20594 26.06152
#
# Velocity S-wave (km/s) = 2.84699 3.77196 3.34164
# Velocity P-wave (km/s) = 3.89841 5.99671 5.05757
#
# Compressibility (1/GPa) = 0.09759140
#
# Stress axis : x y z
#
# Youngs Moduli (GPa) = 13.63641 74.16876 72.24478
#
# Poissons Ratio (x) = 0.20587 -0.25145
# Poissons Ratio (y) = 0.03785 0.16168
# Poissons Ratio (z) = -0.04746 0.16598
#
# Static dielectric constant tensor:
#      x y z
#    x 1.931820 0.000000 -0.002930 
#    y 0.000000 1.970410 0.000000 
#    z -0.002930 0.000000 1.937260 
# 
# From -- ./inp_files/35417.got.cif
#   From: 2010.05.17/outbox.cif.g08.bks.cpg/sg9_18_cif.got.tgz:35417.got - 2010.06.03 20:04:27.
