data_PCOD9135736
_publ_section_title
;
Structure prediction by ZEFSAII (Michael W. Deem and Ramdas Pophale) SiO2 
 PCOD9135736
Probable space group: C C
;
_chemical_formula_sum "Si O2"
_cell_formula_units_Z 32
_cell_length_a 6.848661
_cell_length_b 13.533642
_cell_length_c 12.074108
_cell_angle_alpha 90.000000
_cell_angle_beta 93.454228
_cell_angle_gamma 90.000000
_cell_volume 1117.083631
_symmetry_space_group_name_H-M "C C"
_symmetry_group_IT_number 9
_symmetry_cell_setting 'monoclinic'
loop_
_space_group_symop_operation_xyz
x,y,z
x,-y,1/2+z
1/2+x,1/2+y,z
1/2+x,1/2-y,1/2+z
loop_
_atom_site_type_symbol
_atom_site_label
_atom_site_fract_x
_atom_site_fract_y
_atom_site_fract_z
Si Si1 0.994090 0.827052 0.951660
Si Si2 0.124433 0.855182 0.703750
Si Si3 0.422028 0.816949 0.051854
Si Si4 0.654928 0.077727 0.737392
Si Si5 0.597323 0.863785 0.691919
Si Si6 0.448343 0.889035 0.461849
Si Si7 0.551801 0.471693 0.505200
Si Si8 0.993334 0.791093 0.333872
O O1 0.066235 0.837624 0.827678
O O2 0.875087 0.726411 0.965519
O O3 0.916247 0.934518 0.978949
O O4 0.187194 0.822931 0.036584
O O5 0.012328 0.774456 0.625194
O O6 0.055388 0.952604 0.636165
O O7 0.359735 0.861686 0.700351
O O8 0.526819 0.903893 0.123088
O O9 0.466761 0.796309 0.924046
O O10 0.527895 0.099506 0.842472
O O11 0.825982 0.159916 0.748962
O O12 0.692458 0.960677 0.747073
O O13 0.615339 0.882416 0.560982
O O14 0.646860 0.761010 0.755173
O O15 0.284632 0.970832 0.480285
O O16 0.503018 0.384526 0.417504
#
# Coordination Sequence:
#
# PCOD9135736 Si02
#       8
#     4   4   4   4   4   4   4   4
#     4  12  22  44  72 100 141 188 238 288 356 431
#     4  10  20  43  66  98 138 185 226 284 363 420
#     4  11  19  39  73  91 129 190 225 282 345 425
#     4  12  24  43  73 102 140 190 241 283 366 435
#     4  11  23  41  70 100 144 179 235 300 350 417
#     4  11  24  43  67 109 132 178 247 290 344 430
#     4  10  26  42  69 101 147 184 233 294 363 416
#     4  11  24  47  66 101 143 190 233 293 361 424
#
# _framework density 28.646021999999999
#
# number of rings (size 3 to 8) (size 9 to 14) (size 15 to 20)
#    0.000    1.000    5.000    2.250    1.750    3.000 
#    2.250    1.250    0.000    0.000    0.000    0.000 
#    0.000    0.000    0.000    0.000    0.000    0.000 
#
# Total GULP energy -89419.280972 kJ/mol
# GULP energy per Si atom -5588.705061 kJ/mol
# Density = 2.858082 g / cm^3
# Si number density = 28.646022 Si / 1000 Ang^3
#
#
#
# Elastic Constant Matrix: (Units=GPa)
#
#
# Indices 1 2 3 4 5 6 
#
# 1 114.2144 15.8768 39.9377 0.0000 11.1669 0.0000
# 2 15.8768 143.3188 47.6141 0.0000 -7.3909 0.0000
# 3 39.9377 47.6141 188.0952 0.0000 22.0532 0.0000
# 4 0.0000 0.0000 0.0000 50.2730 0.0000 5.1883
# 5 11.1669 -7.3909 22.0532 0.0000 53.8990 0.0000
# 6 0.0000 0.0000 0.0000 5.1883 0.0000 30.7223
#
#
#
# Elastic Compliance Matrix: (Units=1/GPa)
#
#
# Indices 1 2 3 4 5 6 
#
# 1 0.009571 -0.000554 -0.001734 0.000000 -0.001349 0.000000
# 2 -0.000554 0.007845 -0.002109 0.000000 0.002054 0.000000
# 3 -0.001734 -0.002109 0.006523 0.000000 -0.002599 0.000000
# 4 0.000000 0.000000 0.000000 0.020244 0.000000 -0.003419
# 5 -0.001349 0.002054 -0.002599 0.000000 0.020178 0.000000
# 6 0.000000 0.000000 0.000000 -0.003419 0.000000 0.033127
#
#
# Mechanical properties :
#
#
# Convention : Reuss Voigt Hill
#
# Bulk Modulus (GPa) = 66.02456 72.49839 69.26147
# Shear Modulus (GPa) = 44.91145 49.79219 47.35182
#
# Velocity S-wave (km/s) = 3.96385 4.17368 4.07012
# Velocity P-wave (km/s) = 6.63686 6.97061 6.80578
#
# Compressibility (1/GPa) = 0.01514588
#
# Stress axis : x y z
#
# Youngs Moduli (GPa) = 104.48648 127.46289 153.29904
#
# Poissons Ratio (x) = 0.07059 0.26577
# Poissons Ratio (y) = 0.05787 0.32333
# Poissons Ratio (z) = 0.18115 0.26884
#
# Static dielectric constant tensor:
#      x y z
#    x 2.350940 0.000000 0.052000 
#    y 0.000000 2.406180 0.000000 
#    z 0.052000 0.000000 2.167880 
# 
# From -- ./inp_files/14604.got.cif
#   From: 2010.05.17/outbox.cif.g08.bks.cpg/sg9_8_cif.got.tgz:14604.got - 2010.06.03 20:04:27.
