data_PCOD9135946
_publ_section_title
;
Structure prediction by ZEFSAII (Michael W. Deem and Ramdas Pophale) SiO2 
 PCOD9135946
Probable space group: C C
;
_chemical_formula_sum "Si O2"
_cell_formula_units_Z 28
_cell_length_a 9.653414
_cell_length_b 5.488582
_cell_length_c 23.471004
_cell_angle_alpha 90.000000
_cell_angle_beta 120.923470
_cell_angle_gamma 90.000000
_cell_volume 1066.808276
_symmetry_space_group_name_H-M "C C"
_symmetry_group_IT_number 9
_symmetry_cell_setting 'monoclinic'
loop_
_space_group_symop_operation_xyz
x,y,z
x,-y,1/2+z
1/2+x,1/2+y,z
1/2+x,1/2-y,1/2+z
loop_
_atom_site_type_symbol
_atom_site_label
_atom_site_fract_x
_atom_site_fract_y
_atom_site_fract_z
Si Si1 0.502230 0.967584 0.438450
Si Si2 0.043672 0.033663 0.909778
Si Si3 0.119156 0.138513 0.299665
Si Si4 0.878435 0.471553 0.538329
Si Si5 0.301281 0.545188 0.688207
Si Si6 0.828608 0.028285 0.065618
Si Si7 0.603777 0.134219 0.250606
O O1 0.463778 0.199787 0.391654
O O2 0.439490 0.015491 0.487988
O O3 0.696059 0.950011 0.487343
O O4 0.445489 0.703419 0.407521
O O5 0.111142 0.963810 0.862148
O O6 0.183395 0.055699 0.987927
O O7 0.160052 0.424171 0.306345
O O8 0.183611 0.904046 0.277070
O O9 0.938257 0.148081 0.235118
O O10 0.932580 0.210369 0.573734
O O11 0.913248 0.711500 0.581779
O O12 0.255458 0.511734 0.612754
O O13 0.413089 0.790975 0.714867
O O14 0.163770 0.492281 0.704995
#
# Coordination Sequence:
#
# PCOD9135946 Si02
#       7
#     4   4   4   4   4   4   4
#     4  10  21  37  62  87 120 160 200 259 315 380
#     4  10  21  40  59  91 119 155 210 253 316 386
#     4  10  24  40  64  93 129 169 216 270 329 396
#     4  10  22  39  59  90 117 164 199 261 315 379
#     4  10  26  42  65  96 130 173 219 272 333 399
#     4  10  23  37  60  86 125 153 215 249 320 382
#     4  10  25  41  65  93 130 166 221 262 336 390
#
# _framework density 26.246514999999999
#
# number of rings (size 3 to 8) (size 9 to 14) (size 15 to 20)
#    0.857    1.143    0.000    1.714    6.000    2.286 
#    0.000    0.000    0.000    0.000    0.000    0.000 
#    0.000    0.000    0.000    0.000    0.000    0.000 
#
# Total GULP energy -78110.818326 kJ/mol
# GULP energy per Si atom -5579.344166 kJ/mol
# Density = 2.618678 g / cm^3
# Si number density = 26.246515 Si / 1000 Ang^3
#
#
#
# Elastic Constant Matrix: (Units=GPa)
#
#
# Indices 1 2 3 4 5 6 
#
# 1 61.7125 60.9385 27.4054 0.0000 -16.3549 0.0000
# 2 60.9385 260.6865 55.8349 0.0000 -11.3679 0.0000
# 3 27.4054 55.8349 87.3392 0.0000 -10.3850 0.0000
# 4 0.0000 0.0000 0.0000 40.6995 0.0000 -7.4270
# 5 -16.3549 -11.3679 -10.3850 0.0000 57.0512 0.0000
# 6 0.0000 0.0000 0.0000 -7.4270 0.0000 39.5416
#
#
#
# Elastic Compliance Matrix: (Units=1/GPa)
#
#
# Indices 1 2 3 4 5 6 
#
# 1 0.023770 -0.004478 -0.003978 0.000000 0.005198 0.000000
# 2 -0.004478 0.005296 -0.002052 0.000000 -0.000602 0.000000
# 3 -0.003978 -0.002052 0.014131 0.000000 0.001023 0.000000
# 4 0.000000 0.000000 0.000000 0.025442 0.000000 0.004779
# 5 0.005198 -0.000602 0.001023 0.000000 0.019084 0.000000
# 6 0.000000 0.000000 0.000000 0.004779 0.000000 0.026187
#
#
# Mechanical properties :
#
#
# Convention : Reuss Voigt Hill
#
# Bulk Modulus (GPa) = 45.08266 77.56618 61.32442
# Shear Modulus (GPa) = 35.13179 45.16243 40.14711
#
# Velocity S-wave (km/s) = 3.66256 4.15263 3.91527
# Velocity P-wave (km/s) = 5.92450 7.25325 6.62229
#
# Compressibility (1/GPa) = 0.02218148
#
# Stress axis : x y z
#
# Youngs Moduli (GPa) = 42.07007 188.81909 70.76432
#
# Poissons Ratio (x) = 0.84550 0.28149
# Poissons Ratio (y) = 0.18838 0.14522
# Poissons Ratio (z) = 0.16735 0.38750
#
# Static dielectric constant tensor:
#      x y z
#    x 2.150430 0.000000 0.089430 
#    y 0.000000 2.100070 0.000000 
#    z 0.089430 0.000000 2.040900 
# 
# From -- ./inp_files/32899.got.cif
#   From: 2010.05.17/outbox.cif.g08.bks.cpg/sg9_17_cif.got.tgz:32899.got - 2010.06.03 20:04:27.
