data_PCOD9135706
_publ_section_title
;
Structure prediction by ZEFSAII (Michael W. Deem and Ramdas Pophale) SiO2 
 PCOD9135706
Probable space group: C C
;
_chemical_formula_sum "Si O2"
_cell_formula_units_Z 32
_cell_length_a 21.192003
_cell_length_b 4.953817
_cell_length_c 25.691684
_cell_angle_alpha 90.000000
_cell_angle_beta 148.953661
_cell_angle_gamma 90.000000
_cell_volume 1391.002486
_symmetry_space_group_name_H-M "C C"
_symmetry_group_IT_number 9
_symmetry_cell_setting 'monoclinic'
loop_
_space_group_symop_operation_xyz
x,y,z
x,-y,1/2+z
1/2+x,1/2+y,z
1/2+x,1/2-y,1/2+z
loop_
_atom_site_type_symbol
_atom_site_label
_atom_site_fract_x
_atom_site_fract_y
_atom_site_fract_z
Si Si1 0.257620 0.172232 0.069070
Si Si2 0.741482 0.555134 0.841390
Si Si3 0.986269 0.469375 0.776339
Si Si4 0.023779 0.024067 0.362656
Si Si5 0.007723 0.560123 0.531081
Si Si6 0.140953 0.702345 0.032106
Si Si7 0.246578 0.443369 0.414686
Si Si8 0.011768 0.941937 0.105164
O O1 0.401978 0.133571 0.169524
O O2 0.208361 0.471043 0.045354
O O3 0.223276 0.971432 0.093563
O O4 0.171488 0.030967 0.965178
O O5 0.751546 0.862490 0.867588
O O6 0.624827 0.517465 0.722963
O O7 0.729520 0.360481 0.883006
O O8 0.872386 0.467582 0.910687
O O9 0.969820 0.775676 0.782290
O O10 0.128290 0.463297 0.861790
O O11 0.966072 0.264419 0.810274
O O12 0.022879 0.175952 0.417470
O O13 0.103990 0.444602 0.558394
O O14 0.008351 0.362417 0.581488
O O15 0.026493 0.859647 0.565793
O O16 0.378463 0.484121 0.534534
#
# Coordination Sequence:
#
# PCOD9135706 Si02
#       8
#     4   4   4   4   4   4   4   4
#     4  10  22  39  57  83 125 156 199 247 283 350
#     4  10  21  41  58  89 116 148 196 244 297 360
#     4  12  22  39  62  88 117 168 195 242 302 352
#     4  10  22  39  58  85 123 153 206 242 287 354
#     4  10  21  39  61  85 120 148 195 243 297 347
#     4  10  20  43  57  84 126 158 187 261 289 338
#     4  10  23  37  61  86 121 148 193 248 292 349
#     4  10  21  39  62  88 114 151 193 245 295 366
#
# _framework density 23.004991
#
# number of rings (size 3 to 8) (size 9 to 14) (size 15 to 20)
#    0.750    1.000    1.250    3.000    0.000    2.000 
#    6.750    0.000    0.000    0.000    0.000    0.000 
#    0.000    0.000    0.000    0.000    0.000    0.000 
#
# Total GULP energy -89213.050598 kJ/mol
# GULP energy per Si atom -5575.815662 kJ/mol
# Density = 2.295263 g / cm^3
# Si number density = 23.004991 Si / 1000 Ang^3
#
#
#
# Elastic Constant Matrix: (Units=GPa)
#
#
# Indices 1 2 3 4 5 6 
#
# 1 21.6942 3.3218 -10.6933 0.0027 4.8245 -0.0154
# 2 3.3218 115.7114 16.1893 0.0021 4.2240 -0.0247
# 3 -10.6933 16.1893 129.9299 0.0022 5.5966 0.0094
# 4 0.0027 0.0021 0.0022 27.8394 0.0007 -5.1980
# 5 4.8245 4.2240 5.5966 0.0007 10.3423 0.0020
# 6 -0.0154 -0.0247 0.0094 -5.1980 0.0020 13.2921
#
#
#
# Elastic Compliance Matrix: (Units=1/GPa)
#
#
# Indices 1 2 3 4 5 6 
#
# 1 0.055621 -0.001389 0.005983 0.000007 -0.028617 0.000065
# 2 -0.001389 0.008927 -0.001124 0.000003 -0.002390 0.000017
# 3 0.005983 -0.001124 0.008631 -0.000001 -0.007002 -0.000001
# 4 0.000007 0.000003 -0.000001 0.038750 -0.000009 0.015154
# 5 -0.028617 -0.002390 -0.007002 -0.000009 0.114804 -0.000054
# 6 0.000065 0.000017 -0.000001 0.015154 -0.000054 0.081159
#
#
# Mechanical properties :
#
#
# Convention : Reuss Voigt Hill
#
# Bulk Modulus (GPa) = 12.48137 31.66344 22.07240
# Shear Modulus (GPa) = 15.25989 27.52929 21.39459
#
# Velocity S-wave (km/s) = 2.57831 3.46304 3.05290
# Velocity P-wave (km/s) = 3.78165 5.45745 4.69493
#
# Compressibility (1/GPa) = 0.08011943
#
# Stress axis : x y z
#
# Youngs Moduli (GPa) = 17.97871 112.02568 115.86779
#
# Poissons Ratio (x) = 0.15563 -0.69328
# Poissons Ratio (y) = 0.02498 0.13019
# Poissons Ratio (z) = -0.10757 0.12588
#
# Static dielectric constant tensor:
#      x y z
#    x 1.923290 -0.000010 0.019530 
#    y -0.000010 1.832020 0.000000 
#    z 0.019530 0.000000 1.905370 
# 
# From -- ./inp_files/20495.got.cif
#   From: 2010.05.17/outbox.cif.g08.bks.cpg/sg9_11_cif.got.tgz:20495.got - 2010.06.03 20:04:27.
