data_PCOD9135809
_publ_section_title
;
Structure prediction by ZEFSAII (Michael W. Deem and Ramdas Pophale) SiO2 
 PCOD9135809
Probable space group: C C
;
_chemical_formula_sum "Si O2"
_cell_formula_units_Z 32
_cell_length_a 8.612580
_cell_length_b 18.598444
_cell_length_c 11.495159
_cell_angle_alpha 90.000000
_cell_angle_beta 54.719162
_cell_angle_gamma 90.000000
_cell_volume 1503.110981
_symmetry_space_group_name_H-M "C C"
_symmetry_group_IT_number 9
_symmetry_cell_setting 'monoclinic'
loop_
_space_group_symop_operation_xyz
x,y,z
x,-y,1/2+z
1/2+x,1/2+y,z
1/2+x,1/2-y,1/2+z
loop_
_atom_site_type_symbol
_atom_site_label
_atom_site_fract_x
_atom_site_fract_y
_atom_site_fract_z
Si Si1 0.196190 0.578393 0.479980
Si Si2 0.780084 0.668438 0.280665
Si Si3 0.658149 0.922048 0.577066
Si Si4 0.904158 0.807881 0.326791
Si Si5 0.130059 0.815243 0.591342
Si Si6 0.959966 0.889378 0.070117
Si Si7 0.705922 0.221792 0.350256
Si Si8 0.949080 0.045702 0.157971
O O1 0.102239 0.499821 0.544401
O O2 0.268141 0.607271 0.574299
O O3 0.115397 0.646285 0.439253
O O4 0.374836 0.557941 0.320392
O O5 0.773340 0.739019 0.362857
O O6 0.722608 0.689762 0.176244
O O7 0.623868 0.618556 0.405300
O O8 0.980134 0.627386 0.188060
O O9 0.794725 0.873516 0.435833
O O10 0.780026 0.938556 0.639647
O O11 0.960902 0.831835 0.172555
O O12 0.074230 0.773010 0.328701
O O13 0.239500 0.767290 0.452260
O O14 0.906114 0.793416 0.699870
O O15 0.117874 0.898675 0.560492
O O16 0.996979 0.964023 0.118297
#
# Coordination Sequence:
#
# PCOD9135809 Si02
#       8
#     4   4   4   4   4   4   4   4
#     4  10  21  46  70  95 135 188 224 280 350 404
#     4  12  25  41  66 101 138 172 230 288 340 407
#     4  11  24  44  69 100 138 181 229 285 344 412
#     4  12  25  42  69 101 134 180 230 280 348 413
#     4  11  24  45  66  99 133 178 224 283 345 404
#     4  11  23  42  70  98 134 179 228 277 348 409
#     4  11  24  45  71  99 134 180 229 283 343 414
#     4  10  20  45  69  91 134 184 222 276 346 407
#
# _framework density 21.289182
#
# number of rings (size 3 to 8) (size 9 to 14) (size 15 to 20)
#    0.000    1.000    5.000    3.000    3.500    0.000 
#    6.750    0.000    0.000    0.000    0.000    0.000 
#    0.000    0.000    0.000    0.000    0.000    0.000 
#
# Total GULP energy -89284.234510 kJ/mol
# GULP energy per Si atom -5580.264657 kJ/mol
# Density = 2.124073 g / cm^3
# Si number density = 21.289182 Si / 1000 Ang^3
#
#
#
# Elastic Constant Matrix: (Units=GPa)
#
#
# Indices 1 2 3 4 5 6 
#
# 1 45.1421 10.9119 8.6481 0.0000 10.7119 0.0000
# 2 10.9119 96.7612 20.0192 0.0000 4.1585 0.0000
# 3 8.6481 20.0192 69.6155 0.0000 16.3213 0.0000
# 4 0.0000 0.0000 0.0000 20.3914 0.0000 12.5073
# 5 10.7119 4.1585 16.3213 0.0000 24.5477 0.0000
# 6 0.0000 0.0000 0.0000 12.5073 0.0000 27.0999
#
#
#
# Elastic Compliance Matrix: (Units=1/GPa)
#
#
# Indices 1 2 3 4 5 6 
#
# 1 0.025249 -0.002400 0.000049 0.000000 -0.010644 0.000000
# 2 -0.002400 0.011218 -0.003232 0.000000 0.001295 0.000000
# 3 0.000049 -0.003232 0.017965 0.000000 -0.011418 0.000000
# 4 0.000000 0.000000 0.000000 0.068405 0.000000 -0.031570
# 5 -0.010644 0.001295 -0.011418 0.000000 0.052754 0.000000
# 6 0.000000 0.000000 0.000000 -0.031570 0.000000 0.051471
#
#
# Mechanical properties :
#
#
# Convention : Reuss Voigt Hill
#
# Bulk Modulus (GPa) = 23.11244 32.29746 27.70495
# Shear Modulus (GPa) = 19.79030 25.87044 22.83037
#
# Velocity S-wave (km/s) = 3.05223 3.48974 3.27829
# Velocity P-wave (km/s) = 4.82716 5.60727 5.23178
#
# Compressibility (1/GPa) = 0.04326674
#
# Stress axis : x y z
#
# Youngs Moduli (GPa) = 39.60593 89.14008 55.66411
#
# Poissons Ratio (x) = 0.21394 -0.00273
# Poissons Ratio (y) = 0.09506 0.17988
# Poissons Ratio (z) = -0.00194 0.28807
#
# Static dielectric constant tensor:
#      x y z
#    x 1.786270 0.000000 0.007370 
#    y 0.000000 1.828490 0.000000 
#    z 0.007370 0.000000 1.732100 
# 
# From -- ./inp_files/15054.got.cif
#   From: 2010.05.17/outbox.cif.g08.bks.cpg/sg9_8_cif.got.tgz:15054.got - 2010.06.03 20:04:27.
