data_PCOD9135629
_publ_section_title
;
Structure prediction by ZEFSAII (Michael W. Deem and Ramdas Pophale) SiO2 
 PCOD9135629
Probable space group: C C
;
_chemical_formula_sum "Si O2"
_cell_formula_units_Z 32
_cell_length_a 13.063209
_cell_length_b 8.054500
_cell_length_c 16.966535
_cell_angle_alpha 90.000000
_cell_angle_beta 52.560784
_cell_angle_gamma 90.000000
_cell_volume 1417.429343
_symmetry_space_group_name_H-M "C C"
_symmetry_group_IT_number 9
_symmetry_cell_setting 'monoclinic'
loop_
_space_group_symop_operation_xyz
x,y,z
x,-y,1/2+z
1/2+x,1/2+y,z
1/2+x,1/2-y,1/2+z
loop_
_atom_site_type_symbol
_atom_site_label
_atom_site_fract_x
_atom_site_fract_y
_atom_site_fract_z
Si Si1 0.062020 0.588946 0.328200
Si Si2 0.177203 0.250333 0.087431
Si Si3 0.123620 0.205370 0.289239
Si Si4 0.408532 0.117899 0.137139
Si Si5 0.003588 0.074177 0.491426
Si Si6 0.268933 0.070689 0.466478
Si Si7 0.671111 0.126207 0.115301
Si Si8 0.487969 0.784740 0.029360
O O1 0.104156 0.398255 0.319357
O O2 0.148628 0.662878 0.218047
O O3 0.062587 0.675193 0.413049
O O4 0.913653 0.591021 0.368026
O O5 0.111803 0.193867 0.200157
O O6 0.224345 0.438697 0.078483
O O7 0.078524 0.267643 0.062366
O O8 0.267652 0.102715 0.014914
O O9 0.269664 0.151125 0.239133
O O10 0.025705 0.102075 0.388432
O O11 0.527930 0.117720 0.141688
O O12 0.437049 0.269529 0.064103
O O13 0.405230 0.945057 0.091009
O O14 0.148969 0.067020 0.461926
O O15 0.935579 0.900477 0.543146
O O16 0.242257 0.227135 0.536047
#
# Coordination Sequence:
#
# PCOD9135629 Si02
#       8
#     4   4   4   4   4   4   4   4
#     4  11  22  39  64  95 125 160 218 251 309 377
#     4   9  21  38  60  87 126 164 199 251 315 360
#     4  11  22  39  67  91 126 167 209 255 313 372
#     4  10  20  42  64  88 130 163 203 264 314 364
#     4  10  22  40  65  92 123 167 210 252 314 369
#     4  10  21  41  64  88 128 162 202 262 312 364
#     4   9  21  39  62  91 122 164 208 256 309 368
#     4  10  21  40  60  90 126 161 205 257 308 366
#
# _framework density 22.576080999999999
#
# number of rings (size 3 to 8) (size 9 to 14) (size 15 to 20)
#    0.000    2.000    1.250    1.500    1.750    2.000 
#    2.250    0.000   11.000    0.000    0.000    0.000 
#    0.000    0.000    0.000    0.000    0.000    0.000 
#
# Total GULP energy -89425.202739 kJ/mol
# GULP energy per Si atom -5589.075171 kJ/mol
# Density = 2.252470 g / cm^3
# Si number density = 22.576081 Si / 1000 Ang^3
#
#
#
# Elastic Constant Matrix: (Units=GPa)
#
#
# Indices 1 2 3 4 5 6 
#
# 1 72.4539 28.6262 8.2605 0.0000 8.7592 0.0000
# 2 28.6262 135.2266 56.9636 0.0000 -8.6829 0.0000
# 3 8.2605 56.9636 110.5270 0.0000 -4.4435 0.0000
# 4 0.0000 0.0000 0.0000 18.2904 0.0000 -4.4325
# 5 8.7592 -8.6829 -4.4435 0.0000 35.4092 0.0000
# 6 0.0000 0.0000 0.0000 -4.4325 0.0000 38.6903
#
#
#
# Elastic Compliance Matrix: (Units=1/GPa)
#
#
# Indices 1 2 3 4 5 6 
#
# 1 0.015867 -0.003943 0.000653 0.000000 -0.004810 0.000000
# 2 -0.003943 0.010530 -0.005015 0.000000 0.002928 0.000000
# 3 0.000653 -0.005015 0.011586 0.000000 0.000063 0.000000
# 4 0.000000 0.000000 0.000000 0.056235 0.000000 0.006443
# 5 -0.004810 0.002928 0.000063 0.000000 0.030157 0.000000
# 6 0.000000 0.000000 0.000000 0.006443 0.000000 0.026584
#
#
# Mechanical properties :
#
#
# Convention : Reuss Voigt Hill
#
# Bulk Modulus (GPa) = 46.78703 56.21202 51.49952
# Shear Modulus (GPa) = 28.62181 33.43512 31.02847
#
# Velocity S-wave (km/s) = 3.56447 3.85255 3.71131
# Velocity P-wave (km/s) = 6.14083 6.68898 6.42076
#
# Compressibility (1/GPa) = 0.02137345
#
# Stress axis : x y z
#
# Youngs Moduli (GPa) = 63.02532 94.96682 86.31315
#
# Poissons Ratio (x) = 0.37442 -0.05634
# Poissons Ratio (y) = 0.24848 0.43282
# Poissons Ratio (z) = -0.04114 0.47622
#
# Static dielectric constant tensor:
#      x y z
#    x 1.901880 0.000000 -0.003470 
#    y 0.000000 1.824160 0.000000 
#    z -0.003470 0.000000 1.779690 
# 
# From -- ./inp_files/17773.got.cif
#   From: 2010.05.17/outbox.cif.g08.bks.cpg/sg9_9_cif.got.tgz:17773.got - 2010.06.03 20:04:27.
