data_PCOD9135330
_publ_section_title
;
Structure prediction by ZEFSAII (Michael W. Deem and Ramdas Pophale) SiO2 
 PCOD9135330
Probable space group: C C
;
_chemical_formula_sum "Si O2"
_cell_formula_units_Z 32
_cell_length_a 8.588341
_cell_length_b 11.420502
_cell_length_c 21.639636
_cell_angle_alpha 90.000000
_cell_angle_beta 35.580320
_cell_angle_gamma 90.000000
_cell_volume 1234.953841
_symmetry_space_group_name_H-M "C C"
_symmetry_group_IT_number 9
_symmetry_cell_setting 'monoclinic'
loop_
_space_group_symop_operation_xyz
x,y,z
x,-y,1/2+z
1/2+x,1/2+y,z
1/2+x,1/2-y,1/2+z
loop_
_atom_site_type_symbol
_atom_site_label
_atom_site_fract_x
_atom_site_fract_y
_atom_site_fract_z
Si Si1 0.398420 0.558411 0.120400
Si Si2 0.775767 0.183944 0.900078
Si Si3 0.550896 0.468849 0.756516
Si Si4 0.713449 0.623782 0.597951
Si Si5 0.938122 0.409390 0.293904
Si Si6 0.866842 0.849787 0.499220
Si Si7 0.886641 0.767147 0.716040
Si Si8 0.682464 0.729713 0.305108
O O1 0.608892 0.461842 0.076819
O O2 0.121106 0.520783 0.242794
O O3 0.487536 0.683278 0.118817
O O4 0.319404 0.575608 0.075548
O O5 0.669793 0.168435 0.004147
O O6 0.075603 0.235469 0.810373
O O7 0.638354 0.263748 0.892674
O O8 0.822204 0.056382 0.854898
O O9 0.748621 0.546912 0.648900
O O10 0.430810 0.373809 0.748781
O O11 0.668134 0.394294 0.775309
O O12 0.469915 0.711528 0.695870
O O13 0.924579 0.715910 0.503144
O O14 0.985628 0.321453 0.335371
O O15 0.623590 0.418079 0.390019
O O16 0.030858 0.341709 0.201901
#
# Coordination Sequence:
#
# PCOD9135330 Si02
#       8
#     4   4   4   4   4   4   4   4
#     4  10  20  39  64  88 124 167 205 255 316 370
#     4  10  21  35  57  90 122 154 200 252 305 368
#     4   9  18  37  62  84 112 159 204 249 312 366
#     4   9  20  37  57  87 122 155 205 262 306 361
#     4   9  21  40  64  92 123 163 212 258 309 371
#     4  11  23  38  60  95 129 165 212 260 311 370
#     4   9  19  37  62  87 114 155 205 256 309 366
#     4   9  18  39  64  85 118 160 203 256 312 368
#
# _framework density 25.911898999999998
#
# number of rings (size 3 to 8) (size 9 to 14) (size 15 to 20)
#    0.000    2.500    0.000    2.250    0.000    7.000 
#    0.000   12.500    0.000    4.500    0.000    0.000 
#    0.000    0.000    0.000    0.000    0.000    0.000 
#
# Total GULP energy -89374.339064 kJ/mol
# GULP energy per Si atom -5585.896192 kJ/mol
# Density = 2.585292 g / cm^3
# Si number density = 25.911899 Si / 1000 Ang^3
#
#
#
# Elastic Constant Matrix: (Units=GPa)
#
#
# Indices 1 2 3 4 5 6 
#
# 1 117.4508 41.9959 44.3298 0.0053 46.8470 0.0007
# 2 41.9959 115.3881 26.6100 -0.0040 25.2252 0.0023
# 3 44.3298 26.6100 57.4523 0.0145 36.1220 -0.0040
# 4 0.0053 -0.0040 0.0145 20.6542 -0.0099 9.7925
# 5 46.8470 25.2252 36.1220 -0.0099 52.8221 0.0010
# 6 0.0007 0.0023 -0.0040 9.7925 0.0010 47.1586
#
#
#
# Elastic Compliance Matrix: (Units=1/GPa)
#
#
# Indices 1 2 3 4 5 6 
#
# 1 0.014554 -0.002329 -0.004798 -0.000005 -0.008515 0.000001
# 2 -0.002329 0.010307 -0.002071 0.000004 -0.001440 -0.000001
# 3 -0.004798 -0.002071 0.032927 -0.000036 -0.017273 0.000011
# 4 -0.000005 0.000004 -0.000036 0.053703 0.000037 -0.011152
# 5 -0.008515 -0.001440 -0.017273 0.000037 0.038982 -0.000010
# 6 0.000001 -0.000001 0.000011 -0.011152 -0.000010 0.023521
#
#
# Mechanical properties :
#
#
# Convention : Reuss Voigt Hill
#
# Bulk Modulus (GPa) = 25.38635 57.35138 41.36887
# Shear Modulus (GPa) = 24.32856 35.95069 30.13963
#
# Velocity S-wave (km/s) = 3.06746 3.72885 3.41421
# Velocity P-wave (km/s) = 4.72908 6.38125 5.61625
#
# Compressibility (1/GPa) = 0.03939124
#
# Stress axis : x y z
#
# Youngs Moduli (GPa) = 68.70990 97.02588 30.37053
#
# Poissons Ratio (x) = 0.22599 0.14570
# Poissons Ratio (y) = 0.16004 0.06290
# Poissons Ratio (z) = 0.32964 0.20096
#
# Static dielectric constant tensor:
#      x y z
#    x 2.084640 0.000010 0.006960 
#    y 0.000010 2.022890 -0.000010 
#    z 0.006960 -0.000010 2.155380 
# 
# From -- ./inp_files/32602.got.cif
#   From: 2010.05.17/outbox.cif.g08.bks.cpg/sg9_17_cif.got.tgz:32602.got - 2010.06.03 20:04:27.
