data_PCOD9135207
_publ_section_title
;
Structure prediction by ZEFSAII (Michael W. Deem and Ramdas Pophale) SiO2 
 PCOD9135207
Probable space group: C C
;
_chemical_formula_sum "Si O2"
_cell_formula_units_Z 24
_cell_length_a 8.293637
_cell_length_b 15.561218
_cell_length_c 9.053791
_cell_angle_alpha 90.000000
_cell_angle_beta 81.803763
_cell_angle_gamma 90.000000
_cell_volume 1156.538792
_symmetry_space_group_name_H-M "C C"
_symmetry_group_IT_number 9
_symmetry_cell_setting 'monoclinic'
loop_
_space_group_symop_operation_xyz
x,y,z
x,-y,1/2+z
1/2+x,1/2+y,z
1/2+x,1/2-y,1/2+z
loop_
_atom_site_type_symbol
_atom_site_label
_atom_site_fract_x
_atom_site_fract_y
_atom_site_fract_z
Si Si1 0.263300 0.091122 0.532690
Si Si2 0.108266 0.327655 0.658061
Si Si3 0.450932 0.264512 0.590069
Si Si4 0.977861 0.844177 0.279886
Si Si5 0.112235 0.652265 0.810312
Si Si6 0.907205 0.487392 0.755424
O O1 0.373441 0.177181 0.528491
O O2 0.260523 0.057173 0.365980
O O3 0.109427 0.109186 0.658558
O O4 0.353137 0.012241 0.599692
O O5 0.291897 0.307237 0.685209
O O6 0.105830 0.320379 0.481307
O O7 0.987285 0.254070 0.726179
O O8 0.049773 0.418097 0.725591
O O9 0.510240 0.329840 0.452592
O O10 0.573235 0.228014 0.697860
O O11 0.798378 0.879426 0.271172
O O12 0.981270 0.576808 0.804673
#
# Coordination Sequence:
#
# PCOD9135207 Si02
#       6
#     4   4   4   4   4   4
#     4  10  21  38  60  86 121 165 198 252 304 359
#     4  10  20  38  62  86 120 159 207 254 298 367
#     4   9  20  39  63  84 117 159 206 253 299 360
#     4  10  21  40  61  89 123 155 211 252 299 366
#     4  10  22  39  62  92 120 163 203 252 311 359
#     4  11  20  40  60  85 125 165 201 249 307 363
#
# _framework density 20.751573
#
# number of rings (size 3 to 8) (size 9 to 14) (size 15 to 20)
#    0.000    2.000    3.333    0.000    0.000    4.000 
#    6.000    0.000    0.000    0.000    0.000    0.000 
#    0.000    0.000    0.000    0.000    0.000    0.000 
#
# Total GULP energy -66811.344083 kJ/mol
# GULP energy per Si atom -5567.612007 kJ/mol
# Density = 2.070434 g / cm^3
# Si number density = 20.751573 Si / 1000 Ang^3
#
#
#
# Elastic Constant Matrix: (Units=GPa)
#
#
# Indices 1 2 3 4 5 6 
#
# 1 45.3975 5.2907 26.7522 0.0000 -8.4994 0.0000
# 2 5.2907 46.4513 1.1874 0.0000 -8.4287 0.0000
# 3 26.7522 1.1874 62.0824 0.0000 -15.1225 0.0000
# 4 0.0000 0.0000 0.0000 8.7282 0.0000 -13.1406
# 5 -8.4994 -8.4287 -15.1225 0.0000 25.5406 0.0000
# 6 0.0000 0.0000 0.0000 -13.1406 0.0000 23.2797
#
#
#
# Elastic Compliance Matrix: (Units=1/GPa)
#
#
# Indices 1 2 3 4 5 6 
#
# 1 0.030018 -0.002795 -0.012472 0.000000 0.001682 0.000000
# 2 -0.002795 0.023303 0.002811 0.000000 0.008424 0.000000
# 3 -0.012472 0.002811 0.024122 0.000000 0.011060 0.000000
# 4 0.000000 0.000000 0.000000 0.762851 0.000000 0.430602
# 5 0.001682 0.008424 0.011060 0.000000 0.049042 0.000000
# 6 0.000000 0.000000 0.000000 0.430602 0.000000 0.286015
#
#
# Mechanical properties :
#
#
# Convention : Reuss Voigt Hill
#
# Bulk Modulus (GPa) = 19.03633 24.48797 21.76215
# Shear Modulus (GPa) = 4.10586 19.55643 11.83115
#
# Velocity S-wave (km/s) = 1.40814 3.07320 2.39034
# Velocity P-wave (km/s) = 3.44052 4.94154 4.25770
#
# Compressibility (1/GPa) = 0.05253114
#
# Stress axis : x y z
#
# Youngs Moduli (GPa) = 33.31354 42.91286 41.45560
#
# Poissons Ratio (x) = 0.11993 0.51703
# Poissons Ratio (y) = 0.09311 -0.11652
# Poissons Ratio (z) = 0.41548 -0.12062
#
# Static dielectric constant tensor:
#      x y z
#    x 1.755870 0.000000 -0.010400 
#    y 0.000000 1.725580 0.000000 
#    z -0.010400 0.000000 1.788610 
# 
# From -- ./inp_files/4861.got.cif
#   From: 2010.05.17/outbox.cif.g08.bks.cpg/sg9_3_cif.got.tgz:4861.got - 2010.06.03 20:04:27.
