data_PCOD9135374
_publ_section_title
;
Structure prediction by ZEFSAII (Michael W. Deem and Ramdas Pophale) SiO2 
 PCOD9135374
Probable space group: C C
;
_chemical_formula_sum "Si O2"
_cell_formula_units_Z 32
_cell_length_a 11.530410
_cell_length_b 12.477295
_cell_length_c 16.974753
_cell_angle_alpha 90.000000
_cell_angle_beta 149.872846
_cell_angle_gamma 90.000000
_cell_volume 1225.755254
_symmetry_space_group_name_H-M "C C"
_symmetry_group_IT_number 9
_symmetry_cell_setting 'monoclinic'
loop_
_space_group_symop_operation_xyz
x,y,z
x,-y,1/2+z
1/2+x,1/2+y,z
1/2+x,1/2-y,1/2+z
loop_
_atom_site_type_symbol
_atom_site_label
_atom_site_fract_x
_atom_site_fract_y
_atom_site_fract_z
Si Si1 0.007110 0.797449 0.505610
Si Si2 0.062789 0.023340 0.719238
Si Si3 0.119619 0.230517 0.472171
Si Si4 0.808661 0.771134 0.053851
Si Si5 0.881403 0.416396 0.015627
Si Si6 0.146811 0.361086 0.649707
Si Si7 0.875375 0.575331 0.282573
Si Si8 0.653191 0.917972 0.372059
O O1 0.188888 0.810141 0.543036
O O2 0.164085 0.842559 0.668059
O O3 0.951998 0.675789 0.493924
O O4 0.792294 0.877537 0.377410
O O5 0.845670 0.976498 0.542386
O O6 0.133541 0.961794 0.839500
O O7 0.293051 0.011622 0.800042
O O8 0.993417 0.144897 0.697747
O O9 0.171418 0.307675 0.576995
O O10 0.879834 0.164478 0.336315
O O11 0.320521 0.149559 0.559590
O O12 0.090830 0.310749 0.381653
O O13 0.940225 0.709782 0.064213
O O14 0.589875 0.844713 0.906706
O O15 0.059177 0.516064 0.110305
O O16 0.939834 0.498567 0.247479
#
# Coordination Sequence:
#
# PCOD9135374 Si02
#       8
#     4   4   4   4   4   4   4   4
#     4  10  23  41  67 103 133 179 247 292 360 442
#     4  10  20  40  74  99 132 194 248 287 369 445
#     4  11  26  48  74 107 148 193 253 303 366 454
#     4  11  24  40  66 102 136 187 238 288 364 444
#     4  11  24  45  73 104 141 193 242 305 371 435
#     4  12  27  47  72 107 149 196 239 309 376 437
#     4  10  20  39  67  97 137 178 234 303 351 435
#     4   9  20  42  69 101 132 188 239 299 363 436
#
# _framework density 26.106354
#
# number of rings (size 3 to 8) (size 9 to 14) (size 15 to 20)
#    0.000    1.500    1.250    3.000    7.000    0.000 
#    9.000    0.000    0.000    0.000    0.000    0.000 
#    0.000    0.000    0.000    0.000    0.000    0.000 
#
# Total GULP energy -89268.832469 kJ/mol
# GULP energy per Si atom -5579.302029 kJ/mol
# Density = 2.604694 g / cm^3
# Si number density = 26.106354 Si / 1000 Ang^3
#
#
#
# Elastic Constant Matrix: (Units=GPa)
#
#
# Indices 1 2 3 4 5 6 
#
# 1 108.1074 46.7960 6.2732 -0.0001 19.8118 0.0000
# 2 46.7960 141.4025 59.2788 0.0046 10.4638 0.0005
# 3 6.2732 59.2788 98.1678 0.0122 18.8018 0.0009
# 4 -0.0001 0.0046 0.0122 36.1548 -0.0003 5.5115
# 5 19.8118 10.4638 18.8018 -0.0003 28.2327 -0.0005
# 6 0.0000 0.0005 0.0009 5.5115 -0.0005 47.6471
#
#
#
# Elastic Compliance Matrix: (Units=1/GPa)
#
#
# Indices 1 2 3 4 5 6 
#
# 1 0.013232 -0.005475 0.004413 -0.000001 -0.010195 0.000000
# 2 -0.005475 0.011737 -0.007611 0.000001 0.004560 0.000000
# 3 0.004413 -0.007611 0.016681 -0.000005 -0.011385 0.000000
# 4 -0.000001 0.000001 -0.000005 0.028155 0.000004 -0.003257
# 5 -0.010195 0.004560 -0.011385 0.000004 0.048466 0.000000
# 6 0.000000 0.000000 0.000000 -0.003257 0.000000 0.021364
#
#
# Mechanical properties :
#
#
# Convention : Reuss Voigt Hill
#
# Bulk Modulus (GPa) = 41.14411 63.59707 52.37059
# Shear Modulus (GPa) = 30.28793 38.09559 34.19176
#
# Velocity S-wave (km/s) = 3.40983 3.82415 3.62292
# Velocity P-wave (km/s) = 5.59437 6.62665 6.13227
#
# Compressibility (1/GPa) = 0.02430482
#
# Stress axis : x y z
#
# Youngs Moduli (GPa) = 75.57376 85.20075 59.94847
#
# Poissons Ratio (x) = 0.46644 -0.26455
# Poissons Ratio (y) = 0.41374 0.45626
# Poissons Ratio (z) = -0.33350 0.64846
#
# Static dielectric constant tensor:
#      x y z
#    x 2.179030 0.000000 -0.148140 
#    y 0.000000 2.140910 0.000000 
#    z -0.148140 0.000000 2.221730 
# 
# From -- ./inp_files/33355.got.cif
#   From: 2010.05.17/outbox.cif.g08.bks.cpg/sg9_17_cif.got.tgz:33355.got - 2010.06.03 20:04:27.
