data_PCOD9135106
_publ_section_title
;
Structure prediction by ZEFSAII (Michael W. Deem and Ramdas Pophale) SiO2 
 PCOD9135106
Probable space group: C C
;
_chemical_formula_sum "Si O2"
_cell_formula_units_Z 20
_cell_length_a 6.619320
_cell_length_b 19.084291
_cell_length_c 5.448271
_cell_angle_alpha 90.000000
_cell_angle_beta 77.665704
_cell_angle_gamma 90.000000
_cell_volume 672.366657
_symmetry_space_group_name_H-M "C C"
_symmetry_group_IT_number 9
_symmetry_cell_setting 'monoclinic'
loop_
_space_group_symop_operation_xyz
x,y,z
x,-y,1/2+z
1/2+x,1/2+y,z
1/2+x,1/2-y,1/2+z
loop_
_atom_site_type_symbol
_atom_site_label
_atom_site_fract_x
_atom_site_fract_y
_atom_site_fract_z
Si Si1 0.409550 0.752544 0.454740
Si Si2 0.149743 0.031288 0.013010
Si Si3 0.678872 0.873306 0.823605
Si Si4 0.592945 0.088545 0.849036
Si Si5 0.700835 0.343079 0.861028
O O1 0.294846 0.701128 0.291875
O O2 0.495204 0.831526 0.386338
O O3 0.539853 0.694205 0.581525
O O4 0.219331 0.774277 0.684357
O O5 0.115579 0.097884 0.201985
O O6 0.093616 0.972719 0.236490
O O7 0.401013 0.035938 0.916686
O O8 0.720390 0.915863 0.566454
O O9 0.427357 0.861870 0.893295
O O10 0.712575 0.914950 0.064944
#
# Coordination Sequence:
#
# PCOD9135106 Si02
#       5
#     4   4   4   4   4
#     4  10  20  37  61  95 132 154 202 261 323 373
#     4  10  20  40  63  86 123 168 215 251 297 374
#     4  10  21  37  57  90 131 156 199 251 316 374
#     4  10  22  35  60  93 118 163 206 246 313 369
#     4  10  23  37  65  98 122 169 206 257 323 374
#
# _framework density 29.745673
#
# number of rings (size 3 to 8) (size 9 to 14) (size 15 to 20)
#    0.000    2.400    2.000    2.400    5.600    0.000 
#    0.000    0.000    0.000   16.800    0.000    0.000 
#    0.000    0.000    0.000    0.000    0.000    0.000 
#
# Total GULP energy -55796.527157 kJ/mol
# GULP energy per Si atom -5579.652716 kJ/mol
# Density = 2.967797 g / cm^3
# Si number density = 29.745673 Si / 1000 Ang^3
#
#
#
# Elastic Constant Matrix: (Units=GPa)
#
#
# Indices 1 2 3 4 5 6 
#
# 1 114.9368 41.6414 29.0283 0.0000 14.5885 0.0000
# 2 41.6414 119.1285 19.5730 0.0000 -8.2746 0.0000
# 3 29.0283 19.5730 210.3430 0.0000 36.0500 0.0000
# 4 0.0000 0.0000 0.0000 61.9740 0.0000 -16.1558
# 5 14.5885 -8.2746 36.0500 0.0000 44.8603 0.0000
# 6 0.0000 0.0000 0.0000 -16.1558 0.0000 48.4226
#
#
#
# Elastic Compliance Matrix: (Units=1/GPa)
#
#
# Indices 1 2 3 4 5 6 
#
# 1 0.010733 -0.003945 -0.000454 0.000000 -0.003854 0.000000
# 2 -0.003945 0.010236 -0.001104 0.000000 0.004058 0.000000
# 3 -0.000454 -0.001104 0.005716 0.000000 -0.004650 0.000000
# 4 0.000000 0.000000 0.000000 0.017673 0.000000 0.005896
# 5 -0.003854 0.004058 -0.004650 0.000000 0.028030 0.000000
# 6 0.000000 0.000000 0.000000 0.005896 0.000000 0.022619
#
#
# Mechanical properties :
#
#
# Convention : Reuss Voigt Hill
#
# Bulk Modulus (GPa) = 63.76887 69.43263 66.60075
# Shear Modulus (GPa) = 44.94817 54.66242 49.80529
#
# Velocity S-wave (km/s) = 3.89148 4.29144 4.09635
# Velocity P-wave (km/s) = 6.45570 6.92446 6.69418
#
# Compressibility (1/GPa) = 0.01568163
#
# Stress axis : x y z
#
# Youngs Moduli (GPa) = 93.16715 97.69013 174.93715
#
# Poissons Ratio (x) = 0.38539 0.07937
# Poissons Ratio (y) = 0.36754 0.19306
# Poissons Ratio (z) = 0.04227 0.10781
#
# Static dielectric constant tensor:
#      x y z
#    x 2.585610 0.000000 -0.124440 
#    y 0.000000 2.064650 0.000000 
#    z -0.124440 0.000000 2.496810 
# 
# From -- ./inp_files/648.got.cif
#   From: 2010.05.17/outbox.cif.g08.bks.cpg/sg9_1_cif.got.tgz:648.got - 2010.06.03 20:04:27.
