data_PCOD9135720
_publ_section_title
;
Structure prediction by ZEFSAII (Michael W. Deem and Ramdas Pophale) SiO2 
 PCOD9135720
Probable space group: C C
;
_chemical_formula_sum "Si O2"
_cell_formula_units_Z 20
_cell_length_a 7.459370
_cell_length_b 11.708545
_cell_length_c 11.684556
_cell_angle_alpha 90.000000
_cell_angle_beta 125.498447
_cell_angle_gamma 90.000000
_cell_volume 830.829145
_symmetry_space_group_name_H-M "C C"
_symmetry_group_IT_number 9
_symmetry_cell_setting 'monoclinic'
loop_
_space_group_symop_operation_xyz
x,y,z
x,-y,1/2+z
1/2+x,1/2+y,z
1/2+x,1/2-y,1/2+z
loop_
_atom_site_type_symbol
_atom_site_label
_atom_site_fract_x
_atom_site_fract_y
_atom_site_fract_z
Si Si1 0.473630 0.628821 0.522830
Si Si2 0.060668 0.502788 0.353915
Si Si3 0.756728 0.606194 0.412674
Si Si4 0.087938 0.251792 0.777516
Si Si5 0.624617 0.797581 0.206188
O O1 0.298336 0.533918 0.497097
O O2 0.606063 0.579052 0.464980
O O3 0.316942 0.735062 0.427938
O O4 0.615082 0.678080 0.269326
O O5 0.020834 0.612908 0.254764
O O6 0.079088 0.394248 0.282457
O O7 0.879751 0.509266 0.386177
O O8 0.622237 0.685785 0.673102
O O9 0.953571 0.685189 0.538896
O O10 0.876722 0.192848 0.756542
#
# Coordination Sequence:
#
# PCOD9135720 Si02
#       5
#     4   4   4   4   4
#     4  10  20  43  63  95 132 174 219 278 340 391
#     4   9  23  41  64  98 130 176 229 267 343 408
#     4  11  23  43  67  98 132 180 221 284 340 397
#     4   9  19  41  66  91 137 174 217 283 335 393
#     4  11  21  46  68  94 139 174 228 282 334 407
#
# _framework density 24.072337999999998
#
# number of rings (size 3 to 8) (size 9 to 14) (size 15 to 20)
#    1.200    0.800    2.000    1.200    0.000    1.600 
#   18.000    0.000    0.000    0.000    0.000    0.000 
#    0.000    0.000    0.000    0.000    0.000    0.000 
#
# Total GULP energy -55827.097715 kJ/mol
# GULP energy per Si atom -5582.709772 kJ/mol
# Density = 2.401755 g / cm^3
# Si number density = 24.072338 Si / 1000 Ang^3
#
#
#
# Elastic Constant Matrix: (Units=GPa)
#
#
# Indices 1 2 3 4 5 6 
#
# 1 132.9830 36.5809 6.5899 0.0000 -14.4333 0.0000
# 2 36.5809 50.5314 6.2205 0.0000 -1.6507 0.0000
# 3 6.5899 6.2205 37.2119 0.0000 20.8807 0.0000
# 4 0.0000 0.0000 0.0000 34.0395 0.0000 -7.7403
# 5 -14.4333 -1.6507 20.8807 0.0000 46.4952 0.0000
# 6 0.0000 0.0000 0.0000 -7.7403 0.0000 25.7586
#
#
#
# Elastic Compliance Matrix: (Units=1/GPa)
#
#
# Indices 1 2 3 4 5 6 
#
# 1 0.009971 -0.006711 -0.003004 0.000000 0.004206 0.000000
# 2 -0.006711 0.025038 -0.003111 0.000000 0.000202 0.000000
# 3 -0.003004 -0.003111 0.038115 0.000000 -0.018160 0.000000
# 4 0.000000 0.000000 0.000000 0.031532 0.000000 0.009475
# 5 0.004206 0.000202 -0.018160 0.000000 0.030976 0.000000
# 6 0.000000 0.000000 0.000000 0.009475 0.000000 0.041669
#
#
# Mechanical properties :
#
#
# Convention : Reuss Voigt Hill
#
# Bulk Modulus (GPa) = 21.06481 35.50097 28.28289
# Shear Modulus (GPa) = 22.85421 32.68100 27.76760
#
# Velocity S-wave (km/s) = 3.08457 3.68858 3.40002
# Velocity P-wave (km/s) = 4.63203 5.73764 5.21422
#
# Compressibility (1/GPa) = 0.04747253
#
# Stress axis : x y z
#
# Youngs Moduli (GPa) = 100.28815 39.93992 26.23606
#
# Poissons Ratio (x) = 0.26805 0.07882
# Poissons Ratio (y) = 0.67306 0.08161
# Poissons Ratio (z) = 0.30128 0.12423
#
# Static dielectric constant tensor:
#      x y z
#    x 1.961150 0.000000 0.012780 
#    y 0.000000 1.902550 0.000000 
#    z 0.012780 0.000000 1.932430 
# 
# From -- ./inp_files/12834.got.cif
#   From: 2010.05.17/outbox.cif.g08.bks.cpg/sg9_7_cif.got.tgz:12834.got - 2010.06.03 20:04:27.
