data_PCOD9135623
_publ_section_title
;
Structure prediction by ZEFSAII (Michael W. Deem and Ramdas Pophale) SiO2 
 PCOD9135623
Probable space group: C C
;
_chemical_formula_sum "Si O2"
_cell_formula_units_Z 28
_cell_length_a 11.847153
_cell_length_b 7.159904
_cell_length_c 23.929629
_cell_angle_alpha 90.000000
_cell_angle_beta 147.382804
_cell_angle_gamma 90.000000
_cell_volume 1094.119970
_symmetry_space_group_name_H-M "C C"
_symmetry_group_IT_number 9
_symmetry_cell_setting 'monoclinic'
loop_
_space_group_symop_operation_xyz
x,y,z
x,-y,1/2+z
1/2+x,1/2+y,z
1/2+x,1/2-y,1/2+z
loop_
_atom_site_type_symbol
_atom_site_label
_atom_site_fract_x
_atom_site_fract_y
_atom_site_fract_z
Si Si1 0.236270 0.049184 0.631910
Si Si2 0.090767 0.734998 0.286723
Si Si3 0.328310 0.342203 0.360593
Si Si4 0.380509 0.177676 0.808994
Si Si5 0.306653 0.582251 0.963295
Si Si6 0.484334 0.823999 0.129926
Si Si7 0.676291 0.549438 0.937632
O O1 0.350013 0.842039 0.682613
O O2 0.990410 0.051453 0.519589
O O3 0.282937 0.161307 0.707567
O O4 0.337897 0.152807 0.622294
O O5 0.205759 0.534030 0.327343
O O6 0.202364 0.843339 0.281594
O O7 0.144184 0.845699 0.365581
O O8 0.301327 0.256654 0.411639
O O9 0.569265 0.338894 0.444391
O O10 0.207911 0.298358 0.252527
O O11 0.573890 0.032196 0.885527
O O12 0.516270 0.368679 0.872831
O O13 0.420419 0.650379 0.066781
O O14 0.408000 0.991854 0.056496
#
# Coordination Sequence:
#
# PCOD9135623 Si02
#       7
#     4   4   4   4   4   4   4
#     4  11  22  44  67  95 136 177 222 272 340 395
#     4  10  22  43  66  96 134 171 221 277 333 394
#     4  10  20  42  63  92 133 169 218 278 328 394
#     4  10  23  43  66  97 133 171 223 282 328 395
#     4  11  21  40  69  98 128 179 224 268 338 395
#     4  10  21  38  66  94 126 177 217 264 337 391
#     4  10  21  42  65  92 132 170 219 275 330 392
#
# _framework density 25.591345
#
# number of rings (size 3 to 8) (size 9 to 14) (size 15 to 20)
#    0.000    1.714    4.286    0.857    0.000    1.143 
#   12.857    4.286    0.000    0.000    0.000    0.000 
#    0.000    0.000    0.000    0.000    0.000    0.000 
#
# Total GULP energy -77945.255719 kJ/mol
# GULP energy per Si atom -5567.518266 kJ/mol
# Density = 2.553310 g / cm^3
# Si number density = 25.591345 Si / 1000 Ang^3
#
#
#
# Elastic Constant Matrix: (Units=GPa)
#
#
# Indices 1 2 3 4 5 6 
#
# 1 128.6490 17.0461 23.9348 0.0000 -22.9270 0.0000
# 2 17.0461 44.7665 4.4567 0.0000 -2.7471 0.0000
# 3 23.9348 4.4567 161.9467 0.0000 -11.5248 0.0000
# 4 0.0000 0.0000 0.0000 41.5019 0.0000 -5.9094
# 5 -22.9270 -2.7471 -11.5248 0.0000 56.9873 0.0000
# 6 0.0000 0.0000 0.0000 -5.9094 0.0000 22.6134
#
#
#
# Elastic Compliance Matrix: (Units=1/GPa)
#
#
# Indices 1 2 3 4 5 6 
#
# 1 0.008951 -0.003109 -0.001006 0.000000 0.003248 0.000000
# 2 -0.003109 0.023532 -0.000199 0.000000 -0.000157 0.000000
# 3 -0.001006 -0.000199 0.006392 0.000000 0.000878 0.000000
# 4 0.000000 0.000000 0.000000 0.025027 0.000000 0.006540
# 5 0.003248 -0.000157 0.000878 0.000000 0.019024 0.000000
# 6 0.000000 0.000000 0.000000 0.006540 0.000000 0.045931
#
#
# Mechanical properties :
#
#
# Convention : Reuss Voigt Hill
#
# Bulk Modulus (GPa) = 33.06226 47.35972 40.21099
# Shear Modulus (GPa) = 33.88291 43.54883 38.71587
#
# Velocity S-wave (km/s) = 3.64263 4.12964 3.89376
# Velocity P-wave (km/s) = 5.53525 6.42534 5.99683
#
# Compressibility (1/GPa) = 0.03024596
#
# Stress axis : x y z
#
# Youngs Moduli (GPa) = 111.71911 42.49510 156.45618
#
# Poissons Ratio (x) = 0.13211 0.15743
# Poissons Ratio (y) = 0.34732 0.03118
# Poissons Ratio (z) = 0.11241 0.00847
#
# Static dielectric constant tensor:
#      x y z
#    x 2.158260 0.000000 -0.088690 
#    y 0.000000 2.462710 0.000000 
#    z -0.088690 0.000000 2.176350 
# 
# From -- ./inp_files/33231.got.cif
#   From: 2010.05.17/outbox.cif.g08.bks.cpg/sg9_17_cif.got.tgz:33231.got - 2010.06.03 20:04:27.
