data_PCOD9135712
_publ_section_title
;
Structure prediction by ZEFSAII (Michael W. Deem and Ramdas Pophale) SiO2 
 PCOD9135712
Probable space group: C C
;
_chemical_formula_sum "Si O2"
_cell_formula_units_Z 24
_cell_length_a 5.004477
_cell_length_b 17.115714
_cell_length_c 13.192144
_cell_angle_alpha 90.000000
_cell_angle_beta 105.952571
_cell_angle_gamma 90.000000
_cell_volume 1086.459807
_symmetry_space_group_name_H-M "C C"
_symmetry_group_IT_number 9
_symmetry_cell_setting 'monoclinic'
loop_
_space_group_symop_operation_xyz
x,y,z
x,-y,1/2+z
1/2+x,1/2+y,z
1/2+x,1/2-y,1/2+z
loop_
_atom_site_type_symbol
_atom_site_label
_atom_site_fract_x
_atom_site_fract_y
_atom_site_fract_z
Si Si1 0.515520 0.791158 0.961550
Si Si2 0.860687 0.888049 0.676493
Si Si3 0.069578 0.144171 0.567835
Si Si4 0.202702 0.240544 0.779634
Si Si5 0.394582 0.849738 0.480222
Si Si6 0.829429 0.475345 0.617712
O O1 0.478733 0.770963 0.839090
O O2 0.696081 0.714594 0.013174
O O3 0.749452 0.858777 0.999204
O O4 0.251470 0.813167 0.999794
O O5 0.852362 0.818604 0.756058
O O6 0.696405 0.852134 0.562213
O O7 0.650458 0.960063 0.679622
O O8 0.152737 0.922862 0.676759
O O9 0.085954 0.193338 0.673033
O O10 0.212414 0.061446 0.602558
O O11 0.386813 0.179359 0.864536
O O12 0.286183 0.934812 0.502126
#
# Coordination Sequence:
#
# PCOD9135712 Si02
#       6
#     4   4   4   4   4   4
#     4  10  24  39  65  92 122 167 219 258 298 385
#     4  10  20  43  58  89 125 164 208 258 309 370
#     4  12  22  44  63  94 130 164 207 266 320 368
#     4  10  21  42  65  94 118 175 213 253 310 379
#     4   8  21  40  60  92 122 165 205 262 296 375
#     4  10  22  40  63  85 135 159 196 271 319 359
#
# _framework density 22.090094000000001
#
# number of rings (size 3 to 8) (size 9 to 14) (size 15 to 20)
#    2.000    0.000    1.667    2.000    0.000    2.667 
#   12.000    0.000    0.000    0.000    0.000    0.000 
#    0.000    0.000    0.000    0.000    0.000    0.000 
#
# Total GULP energy -66839.223923 kJ/mol
# GULP energy per Si atom -5569.935327 kJ/mol
# Density = 2.203982 g / cm^3
# Si number density = 22.090094 Si / 1000 Ang^3
#
#
#
# Elastic Constant Matrix: (Units=GPa)
#
#
# Indices 1 2 3 4 5 6 
#
# 1 73.7485 -15.0141 27.3473 0.0000 -12.2419 0.0000
# 2 -15.0141 94.0429 37.9713 0.0000 0.6373 0.0000
# 3 27.3473 37.9713 131.3232 0.0000 -11.2370 0.0000
# 4 0.0000 0.0000 0.0000 19.6865 0.0000 -5.2268
# 5 -12.2419 0.6373 -11.2370 0.0000 18.4871 0.0000
# 6 0.0000 0.0000 0.0000 -5.2268 0.0000 23.2795
#
#
#
# Elastic Compliance Matrix: (Units=1/GPa)
#
#
# Indices 1 2 3 4 5 6 
#
# 1 0.017472 0.004405 -0.004151 0.000000 0.008895 0.000000
# 2 0.004405 0.013276 -0.004795 0.000000 -0.000455 0.000000
# 3 -0.004151 -0.004795 0.010174 0.000000 0.003600 0.000000
# 4 0.000000 0.000000 0.000000 0.054016 0.000000 0.012128
# 5 0.008895 -0.000455 0.003600 0.000000 0.062186 0.000000
# 6 0.000000 0.000000 0.000000 0.012128 0.000000 0.045679
#
#
# Mechanical properties :
#
#
# Convention : Reuss Voigt Hill
#
# Bulk Modulus (GPa) = 31.40678 44.41374 37.91026
# Shear Modulus (GPa) = 22.47210 28.87797 25.67503
#
# Velocity S-wave (km/s) = 3.19296 3.61956 3.41293
# Velocity P-wave (km/s) = 5.27653 6.13332 5.72099
#
# Compressibility (1/GPa) = 0.03184026
#
# Stress axis : x y z
#
# Youngs Moduli (GPa) = 57.23356 75.32460 98.29205
#
# Poissons Ratio (x) = -0.33183 0.40803
# Poissons Ratio (y) = -0.25213 0.47131
# Poissons Ratio (z) = 0.23759 0.36118
#
# Static dielectric constant tensor:
#      x y z
#    x 1.841570 0.000000 -0.008200 
#    y 0.000000 1.838210 0.000000 
#    z -0.008200 0.000000 1.841740 
# 
# From -- ./inp_files/21640.got.cif
#   From: 2010.05.17/outbox.cif.g08.bks.cpg/sg9_11_cif.got.tgz:21640.got - 2010.06.03 20:04:27.
