data_PCOD9135197
_publ_section_title
;
Structure prediction by ZEFSAII (Michael W. Deem and Ramdas Pophale) SiO2 
 PCOD9135197
Probable space group: C C
;
_chemical_formula_sum "Si O2"
_cell_formula_units_Z 24
_cell_length_a 7.400009
_cell_length_b 28.702650
_cell_length_c 8.458166
_cell_angle_alpha 90.000000
_cell_angle_beta 144.093034
_cell_angle_gamma 90.000000
_cell_volume 1053.602685
_symmetry_space_group_name_H-M "C C"
_symmetry_group_IT_number 9
_symmetry_cell_setting 'monoclinic'
loop_
_space_group_symop_operation_xyz
x,y,z
x,-y,1/2+z
1/2+x,1/2+y,z
1/2+x,1/2-y,1/2+z
loop_
_atom_site_type_symbol
_atom_site_label
_atom_site_fract_x
_atom_site_fract_y
_atom_site_fract_z
Si Si1 0.411850 0.857303 0.767480
Si Si2 0.639662 0.720319 0.284018
Si Si3 0.804695 0.910323 0.269479
Si Si4 0.301170 0.719490 0.376752
Si Si5 0.964033 0.994700 0.573213
Si Si6 0.344337 0.045138 0.634940
O O1 0.323411 0.823410 0.849834
O O2 0.617549 0.825973 0.798777
O O3 0.086716 0.875089 0.473084
O O4 0.609012 0.899645 0.976826
O O5 0.474679 0.711220 0.334056
O O6 0.877222 0.762635 0.478499
O O7 0.556050 0.910368 0.240067
O O8 0.947940 0.961314 0.404033
O O9 0.556191 0.738665 0.677974
O O10 0.605518 0.993280 0.363995
O O11 0.111767 0.042531 0.616461
O O12 0.164416 0.968533 0.847479
#
# Coordination Sequence:
#
# PCOD9135197 Si02
#       6
#     4   4   4   4   4   4
#     4  12  20  37  58  84 120 150 182 244 298 333
#     4  10  21  37  58  83 112 152 197 231 275 348
#     4  10  22  35  58  82 120 144 188 236 294 345
#     4  10  21  37  58  83 112 152 197 231 275 348
#     4  10  20  38  61  82 113 151 195 241 288 348
#     4  10  20  38  61  82 113 151 195 241 288 348
#
# _framework density 22.778981999999999
#
# number of rings (size 3 to 8) (size 9 to 14) (size 15 to 20)
#    1.000    0.667    1.667    4.000    0.000    0.000 
#    0.000    5.000    0.000    0.000    0.000    0.000 
#    0.000    0.000    0.000    0.000    0.000    0.000 
#
# Total GULP energy -66932.363938 kJ/mol
# GULP energy per Si atom -5577.696995 kJ/mol
# Density = 2.272714 g / cm^3
# Si number density = 22.778982 Si / 1000 Ang^3
#
#
#
# Elastic Constant Matrix: (Units=GPa)
#
#
# Indices 1 2 3 4 5 6 
#
# 1 46.4465 17.1579 22.1107 0.0000 19.5562 0.0000
# 2 17.1579 44.7581 2.3664 0.0000 8.0819 0.0000
# 3 22.1107 2.3664 128.6548 0.0000 6.5964 0.0000
# 4 0.0000 0.0000 0.0000 10.4672 0.0000 -38.9489
# 5 19.5562 8.0819 6.5964 0.0000 21.9011 0.0000
# 6 0.0000 0.0000 0.0000 -38.9489 0.0000 -97.3113
#
#
#
# Elastic Compliance Matrix: (Units=1/GPa)
#
#
# Indices 1 2 3 4 5 6 
#
# 1 0.040754 -0.009707 -0.005224 0.000000 -0.031235 0.000000
# 2 -0.009707 0.026249 0.001257 0.000000 -0.001398 0.000000
# 3 -0.005224 0.001257 0.008564 0.000000 0.001621 0.000000
# 4 0.000000 0.000000 0.000000 0.038378 0.000000 -0.015361
# 5 -0.031235 -0.001398 0.001621 0.000000 0.073578 0.000000
# 6 0.000000 0.000000 0.000000 -0.015361 0.000000 -0.004128
#
#
# Mechanical properties :
#
#
# Convention : Reuss Voigt Hill
#
# Bulk Modulus (GPa) = 20.73803 33.68104 27.20953
# Shear Modulus (GPa) = 22.04421 -1.10696 10.46862
#
# Velocity S-wave (km/s) = 3.11423 -0.69786 2.14609
# Velocity P-wave (km/s) = 4.69628 3.76414 4.25581
#
# Compressibility (1/GPa) = 0.04822059
#
# Stress axis : x y z
#
# Youngs Moduli (GPa) = 24.53725 38.09629 116.76383
#
# Poissons Ratio (x) = 0.36979 0.60998
# Poissons Ratio (y) = 0.23818 -0.14678
# Poissons Ratio (z) = 0.12818 -0.04789
#
# Static dielectric constant tensor:
#      x y z
#    x 1.873910 0.000000 -0.003270 
#    y 0.000000 2.009020 0.000000 
#    z -0.003270 0.000000 1.812890 
# 
# From -- ./inp_files/928.got.cif
#   From: 2010.05.17/outbox.cif.g08.bks.cpg/sg9_1_cif.got.tgz:928.got - 2010.06.03 20:04:27.
