data_PCOD9135717
_publ_section_title
;
Structure prediction by ZEFSAII (Michael W. Deem and Ramdas Pophale) SiO2 
 PCOD9135717
Probable space group: C C
;
_chemical_formula_sum "Si O2"
_cell_formula_units_Z 28
_cell_length_a 6.451193
_cell_length_b 17.238347
_cell_length_c 9.632322
_cell_angle_alpha 90.000000
_cell_angle_beta 71.083065
_cell_angle_gamma 90.000000
_cell_volume 1013.334892
_symmetry_space_group_name_H-M "C C"
_symmetry_group_IT_number 9
_symmetry_cell_setting 'monoclinic'
loop_
_space_group_symop_operation_xyz
x,y,z
x,-y,1/2+z
1/2+x,1/2+y,z
1/2+x,1/2-y,1/2+z
loop_
_atom_site_type_symbol
_atom_site_label
_atom_site_fract_x
_atom_site_fract_y
_atom_site_fract_z
Si Si1 0.995410 0.609791 0.082990
Si Si2 0.680060 0.550969 0.936672
Si Si3 0.342094 0.746317 0.036121
Si Si4 0.784409 0.984286 0.711090
Si Si5 0.108129 0.223013 0.253784
Si Si6 0.986582 0.826582 0.261455
Si Si7 0.926732 0.090071 0.458025
O O1 0.798065 0.662449 0.176518
O O2 0.201118 0.668239 0.041067
O O3 0.074128 0.543873 0.171716
O O4 0.909530 0.576252 0.953835
O O5 0.584642 0.601127 0.829308
O O6 0.650469 0.460639 0.907522
O O7 0.499787 0.558711 0.099976
O O8 0.476358 0.742816 0.146436
O O9 0.162790 0.812574 0.100787
O O10 0.510020 0.744901 0.871885
O O11 0.785403 0.958049 0.871144
O O12 0.836301 0.069809 0.633281
O O13 0.242242 0.298366 0.270925
O O14 0.955105 0.176683 0.395967
#
# Coordination Sequence:
#
# PCOD9135717 Si02
#       7
#     4   4   4   4   4   4   4
#     4  11  18  40  68  88 119 189 217 255 344 429
#     4  10  22  40  67  90 132 172 226 271 343 410
#     4  11  23  41  66  94 133 176 223 268 341 410
#     4  10  21  38  67  88 131 174 223 268 349 404
#     4  11  22  40  70  90 135 173 228 267 345 405
#     4  11  24  40  67  97 128 179 222 274 333 404
#     4  10  20  43  61  93 132 169 217 281 321 408
#
# _framework density 27.631535
#
# number of rings (size 3 to 8) (size 9 to 14) (size 15 to 20)
#    0.857    0.571    5.714    0.000    2.000    2.286 
#    0.000    0.000    0.000    0.000    0.000    0.000 
#    0.000    0.000    0.000    0.000    0.000    0.000 
#
# Total GULP energy -78138.715669 kJ/mol
# GULP energy per Si atom -5581.336834 kJ/mol
# Density = 2.756864 g / cm^3
# Si number density = 27.631535 Si / 1000 Ang^3
#
#
#
# Elastic Constant Matrix: (Units=GPa)
#
#
# Indices 1 2 3 4 5 6 
#
# 1 138.9122 36.3398 23.4365 0.0000 41.9219 0.0000
# 2 36.3398 118.1311 9.9957 0.0000 13.5485 0.0000
# 3 23.4365 9.9957 92.2976 0.0000 40.3362 0.0000
# 4 0.0000 0.0000 0.0000 33.1576 0.0000 -1.7126
# 5 41.9219 13.5485 40.3362 0.0000 66.5091 0.0000
# 6 0.0000 0.0000 0.0000 -1.7126 0.0000 36.8303
#
#
#
# Elastic Compliance Matrix: (Units=1/GPa)
#
#
# Indices 1 2 3 4 5 6 
#
# 1 0.009460 -0.002285 0.000337 0.000000 -0.005702 0.000000
# 2 -0.002285 0.009223 -0.000309 0.000000 -0.000251 0.000000
# 3 0.000337 -0.000309 0.014760 0.000000 -0.009101 0.000000
# 4 0.000000 0.000000 0.000000 0.030232 0.000000 0.001406
# 5 -0.005702 -0.000251 -0.009101 0.000000 0.024200 0.000000
# 6 0.000000 0.000000 0.000000 0.001406 0.000000 0.027217
#
#
# Mechanical properties :
#
#
# Convention : Reuss Voigt Hill
#
# Bulk Modulus (GPa) = 34.56587 54.32054 44.44320
# Shear Modulus (GPa) = 38.68519 45.93733 42.31126
#
# Velocity S-wave (km/s) = 3.74577 4.08180 3.91739
# Velocity P-wave (km/s) = 5.58967 6.47428 6.04817
#
# Compressibility (1/GPa) = 0.02893027
#
# Stress axis : x y z
#
# Youngs Moduli (GPa) = 105.70318 108.42477 67.75203
#
# Poissons Ratio (x) = 0.24773 -0.02284
# Poissons Ratio (y) = 0.24151 0.02092
# Poissons Ratio (z) = -0.03564 0.03348
#
# Static dielectric constant tensor:
#      x y z
#    x 2.179620 0.000000 -0.037980 
#    y 0.000000 2.192420 0.000000 
#    z -0.037980 0.000000 2.348320 
# 
# From -- ./inp_files/13332.got.cif
#   From: 2010.05.17/outbox.cif.g08.bks.cpg/sg9_7_cif.got.tgz:13332.got - 2010.06.03 20:04:27.
