data_PCOD9135221
_publ_section_title
;
Structure prediction by ZEFSAII (Michael W. Deem and Ramdas Pophale) SiO2 
 PCOD9135221
Probable space group: C C
;
_chemical_formula_sum "Si O2"
_cell_formula_units_Z 24
_cell_length_a 7.574806
_cell_length_b 7.066078
_cell_length_c 28.000662
_cell_angle_alpha 90.000000
_cell_angle_beta 142.896114
_cell_angle_gamma 90.000000
_cell_volume 904.116237
_symmetry_space_group_name_H-M "C C"
_symmetry_group_IT_number 9
_symmetry_cell_setting 'monoclinic'
loop_
_space_group_symop_operation_xyz
x,y,z
x,-y,1/2+z
1/2+x,1/2+y,z
1/2+x,1/2-y,1/2+z
loop_
_atom_site_type_symbol
_atom_site_label
_atom_site_fract_x
_atom_site_fract_y
_atom_site_fract_z
Si Si1 0.855740 0.216371 0.834710
Si Si2 0.222063 0.185008 0.666753
Si Si3 0.775700 0.146353 0.002341
Si Si4 0.686456 0.731992 0.006578
Si Si5 0.297086 0.252432 0.160926
Si Si6 0.718153 0.813913 0.830118
O O1 0.517087 0.266350 0.753145
O O2 0.020326 0.213319 0.920811
O O3 0.029575 0.356142 0.837053
O O4 0.840979 0.986585 0.824904
O O5 0.035620 0.301765 0.587518
O O6 0.995963 0.169543 0.661671
O O7 0.293797 0.978716 0.661320
O O8 0.953146 0.285323 0.076384
O O9 0.493617 0.214559 0.913046
O O10 0.679966 0.960907 0.010235
O O11 0.510363 0.624490 0.009782
O O12 0.474035 0.298727 0.247088
#
# Coordination Sequence:
#
# PCOD9135221 Si02
#       6
#     4   4   4   4   4   4
#     4  11  23  39  60  92 130 169 212 264 320 381
#     4   9  20  39  62  90 127 167 212 262 318 379
#     4  10  20  38  63  90 124 168 214 264 318 380
#     4  10  20  38  63  90 124 168 214 264 318 380
#     4   9  20  39  62  90 127 167 212 262 318 379
#     4  11  23  39  60  92 130 169 212 264 320 381
#
# _framework density 26.545258
#
# number of rings (size 3 to 8) (size 9 to 14) (size 15 to 20)
#    0.000    2.000    0.000    3.000    0.000    4.000 
#    0.000    8.333    0.000    0.000    0.000    0.000 
#    0.000    0.000    0.000    0.000    0.000    0.000 
#
# Total GULP energy -66927.946720 kJ/mol
# GULP energy per Si atom -5577.328893 kJ/mol
# Density = 2.648484 g / cm^3
# Si number density = 26.545258 Si / 1000 Ang^3
#
#
#
# Elastic Constant Matrix: (Units=GPa)
#
#
# Indices 1 2 3 4 5 6 
#
# 1 88.2495 2.9033 23.1041 0.0000 -14.2198 0.0000
# 2 2.9033 101.4442 16.0829 0.0000 6.1926 0.0000
# 3 23.1041 16.0829 311.4434 0.0000 27.9563 0.0000
# 4 0.0000 0.0000 0.0000 27.9339 0.0000 -4.5614
# 5 -14.2198 6.1926 27.9563 0.0000 71.6134 0.0000
# 6 0.0000 0.0000 0.0000 -4.5614 0.0000 22.3746
#
#
#
# Elastic Compliance Matrix: (Units=1/GPa)
#
#
# Indices 1 2 3 4 5 6 
#
# 1 0.012105 -0.000342 -0.001139 0.000000 0.002878 0.000000
# 2 -0.000342 0.009981 -0.000421 0.000000 -0.000766 0.000000
# 3 -0.001139 -0.000421 0.003455 0.000000 -0.001538 0.000000
# 4 0.000000 0.000000 0.000000 0.037032 0.000000 0.007549
# 5 0.002878 -0.000766 -0.001538 0.000000 0.015202 0.000000
# 6 0.000000 0.000000 0.000000 0.007549 0.000000 0.046233
#
#
# Mechanical properties :
#
#
# Convention : Reuss Voigt Hill
#
# Bulk Modulus (GPa) = 46.00296 65.03531 55.51914
# Shear Modulus (GPa) = 37.02173 54.98749 46.00461
#
# Velocity S-wave (km/s) = 3.73857 4.55627 4.16752
# Velocity P-wave (km/s) = 6.00029 7.22720 6.64214
#
# Compressibility (1/GPa) = 0.02173773
#
# Stress axis : x y z
#
# Youngs Moduli (GPa) = 82.61389 100.19043 289.42062
#
# Poissons Ratio (x) = 0.03422 0.32954
# Poissons Ratio (y) = 0.02822 0.12193
# Poissons Ratio (z) = 0.09407 0.04221
#
# Static dielectric constant tensor:
#      x y z
#    x 2.036670 0.000000 -0.012080 
#    y 0.000000 2.152720 0.000000 
#    z -0.012080 0.000000 2.200410 
# 
# From -- ./inp_files/37165.got.cif
#   From: 2010.05.17/outbox.cif.g08.bks.cpg/sg9_19_cif.got.tgz:37165.got - 2010.06.03 20:04:27.
