data_PCOD9135148
_publ_section_title
;
Structure prediction by ZEFSAII (Michael W. Deem and Ramdas Pophale) SiO2 
 PCOD9135148
Probable space group: C C
;
_chemical_formula_sum "Si O2"
_cell_formula_units_Z 28
_cell_length_a 29.028464
_cell_length_b 9.719188
_cell_length_c 7.392534
_cell_angle_alpha 90.000000
_cell_angle_beta 33.679287
_cell_angle_gamma 90.000000
_cell_volume 1156.599744
_symmetry_space_group_name_H-M "C C"
_symmetry_group_IT_number 9
_symmetry_cell_setting 'monoclinic'
loop_
_space_group_symop_operation_xyz
x,y,z
x,-y,1/2+z
1/2+x,1/2+y,z
1/2+x,1/2-y,1/2+z
loop_
_atom_site_type_symbol
_atom_site_label
_atom_site_fract_x
_atom_site_fract_y
_atom_site_fract_z
Si Si1 0.740790 0.187073 0.527440
Si Si2 0.425577 0.350999 0.281665
Si Si3 0.212242 0.016553 0.211793
Si Si4 0.710393 0.907518 0.535139
Si Si5 0.616419 0.337866 0.322582
Si Si6 0.850695 0.716990 0.201488
Si Si7 0.965182 0.163273 0.044664
O O1 0.719822 0.345052 0.566726
O O2 0.730567 0.141163 0.767260
O O3 0.690839 0.067150 0.592351
O O4 0.834615 0.162642 0.164618
O O5 0.419613 0.248850 0.130182
O O6 0.435508 0.505705 0.174797
O O7 0.480856 0.320112 0.278834
O O8 0.124040 0.937819 0.467837
O O9 0.195978 0.090648 0.459391
O O10 0.293077 0.915791 0.937354
O O11 0.634034 0.812751 0.839026
O O12 0.787163 0.848564 0.403164
O O13 0.545292 0.326033 0.409998
O O14 0.898391 0.730130 0.852627
#
# Coordination Sequence:
#
# PCOD9135148 Si02
#       7
#     4   4   4   4   4   4   4
#     4  11  19  37  66  98 125 169 227 282 328 400
#     4  12  21  35  66  98 127 172 225 278 335 404
#     4  10  23  41  66  97 134 173 224 287 344 399
#     4  10  20  37  65  94 125 168 227 275 329 399
#     4  10  23  41  62  94 135 176 220 284 340 403
#     4  11  22  40  66 100 129 170 229 281 334 403
#     4  12  22  39  67  97 139 176 228 275 338 414
#
# _framework density 24.208893
#
# number of rings (size 3 to 8) (size 9 to 14) (size 15 to 20)
#    0.000    1.143    4.286    2.571    0.000    1.143 
#    0.000    0.000    9.429    0.000    0.000    0.000 
#    0.000    0.000    0.000    0.000    0.000    0.000 
#
# Total GULP energy -78062.150846 kJ/mol
# GULP energy per Si atom -5575.867918 kJ/mol
# Density = 2.415379 g / cm^3
# Si number density = 24.208893 Si / 1000 Ang^3
#
#
#
# Elastic Constant Matrix: (Units=GPa)
#
#
# Indices 1 2 3 4 5 6 
#
# 1 118.7732 13.6929 9.6002 0.0000 7.1177 0.0000
# 2 13.6929 139.0810 26.0061 0.0000 4.4174 0.0000
# 3 9.6002 26.0061 43.8335 0.0000 6.3535 0.0000
# 4 0.0000 0.0000 0.0000 22.2917 0.0000 2.9585
# 5 7.1177 4.4174 6.3535 0.0000 33.4186 0.0000
# 6 0.0000 0.0000 0.0000 2.9585 0.0000 29.5695
#
#
#
# Elastic Compliance Matrix: (Units=1/GPa)
#
#
# Indices 1 2 3 4 5 6 
#
# 1 0.008684 -0.000554 -0.001353 0.000000 -0.001519 0.000000
# 2 -0.000554 0.008123 -0.004689 0.000000 -0.000064 0.000000
# 3 -0.001353 -0.004689 0.026490 0.000000 -0.004128 0.000000
# 4 0.000000 0.000000 0.000000 0.045463 0.000000 -0.004549
# 5 -0.001519 -0.000064 -0.004128 0.000000 0.031040 0.000000
# 6 0.000000 0.000000 0.000000 -0.004549 0.000000 0.034274
#
#
# Mechanical properties :
#
#
# Convention : Reuss Voigt Hill
#
# Bulk Modulus (GPa) = 33.21631 44.47624 38.84628
# Shear Modulus (GPa) = 28.20051 33.88184 31.04118
#
# Velocity S-wave (km/s) = 3.41674 3.74513 3.58470
# Velocity P-wave (km/s) = 5.41442 6.09205 5.76320
#
# Compressibility (1/GPa) = 0.03010569
#
# Stress axis : x y z
#
# Youngs Moduli (GPa) = 115.15899 123.10166 37.74975
#
# Poissons Ratio (x) = 0.06816 0.05108
# Poissons Ratio (y) = 0.06376 0.17701
# Poissons Ratio (z) = 0.15583 0.57721
#
# Static dielectric constant tensor:
#      x y z
#    x 2.146160 0.000000 0.117020 
#    y 0.000000 2.099540 0.000000 
#    z 0.117020 0.000000 2.077510 
# 
# From -- ./inp_files/11204.got.cif
#   From: 2010.05.17/outbox.cif.g08.bks.cpg/sg9_6_cif.got.tgz:11204.got - 2010.06.03 20:04:27.
