data_PCOD9135135
_publ_section_title
;
Structure prediction by ZEFSAII (Michael W. Deem and Ramdas Pophale) SiO2 
 PCOD9135135
Probable space group: C C
;
_chemical_formula_sum "Si O2"
_cell_formula_units_Z 32
_cell_length_a 21.754687
_cell_length_b 9.467618
_cell_length_c 8.360945
_cell_angle_alpha 90.000000
_cell_angle_beta 118.870726
_cell_angle_gamma 90.000000
_cell_volume 1508.029730
_symmetry_space_group_name_H-M "C C"
_symmetry_group_IT_number 9
_symmetry_cell_setting 'monoclinic'
loop_
_space_group_symop_operation_xyz
x,y,z
x,-y,1/2+z
1/2+x,1/2+y,z
1/2+x,1/2-y,1/2+z
loop_
_atom_site_type_symbol
_atom_site_label
_atom_site_fract_x
_atom_site_fract_y
_atom_site_fract_z
Si Si1 0.001890 0.919099 0.646450
Si Si2 0.701914 0.782031 0.754893
Si Si3 0.861681 0.775798 0.957066
Si Si4 0.361553 0.436028 0.297864
Si Si5 0.701311 0.069477 0.600603
Si Si6 0.058750 0.331656 0.055655
Si Si7 0.993593 0.419111 0.637361
Si Si8 0.557500 0.673818 0.553437
O O1 0.051273 0.831154 0.589382
O O2 0.923485 0.884111 0.490664
O O3 0.020788 0.082379 0.644983
O O4 0.021770 0.876348 0.847791
O O5 0.641282 0.667033 0.660951
O O6 0.694390 0.900131 0.606763
O O7 0.781108 0.725940 0.853657
O O8 0.692736 0.865784 0.912538
O O9 0.871228 0.867118 0.134475
O O10 0.915828 0.645898 0.018087
O O11 0.868337 0.893076 0.823887
O O12 0.282090 0.401347 0.252105
O O13 0.640052 0.130220 0.634888
O O14 0.014779 0.419510 0.133155
O O15 0.020890 0.371931 0.843606
O O16 0.039852 0.335923 0.564909
#
# Coordination Sequence:
#
# PCOD9135135 Si02
#       8
#     4   4   4   4   4   4   4   4
#     4  12  25  40  63  95 126 165 211 257 320 377
#     4  10  22  39  64  93 128 164 210 262 319 376
#     4  10  21  40  63  94 127 167 207 262 317 376
#     4  10  20  38  63  93 122 160 211 257 308 375
#     4  10  20  37  64  92 123 160 208 258 310 371
#     4  12  23  40  62  96 128 165 211 258 320 376
#     4  12  23  41  63  91 128 163 211 262 313 378
#     4  12  24  41  62  92 126 162 211 264 313 377
#
# _framework density 21.219740999999999
#
# number of rings (size 3 to 8) (size 9 to 14) (size 15 to 20)
#    0.000    1.000    5.000    2.250    1.750    0.000 
#    0.000    2.500    0.000    0.000    0.000    0.000 
#    0.000    0.000    0.000    0.000    0.000    0.000 
#
# Total GULP energy -89359.155969 kJ/mol
# GULP energy per Si atom -5584.947248 kJ/mol
# Density = 2.117144 g / cm^3
# Si number density = 21.219741 Si / 1000 Ang^3
#
#
#
# Elastic Constant Matrix: (Units=GPa)
#
#
# Indices 1 2 3 4 5 6 
#
# 1 135.8479 19.6845 35.1187 0.0000 37.4564 0.0000
# 2 19.6845 39.9989 7.7610 0.0000 7.7930 0.0000
# 3 35.1187 7.7610 88.4024 0.0000 10.9920 0.0000
# 4 0.0000 0.0000 0.0000 28.8023 0.0000 0.6811
# 5 37.4564 7.7930 10.9920 0.0000 38.8942 0.0000
# 6 0.0000 0.0000 0.0000 0.6811 0.0000 40.5069
#
#
#
# Elastic Compliance Matrix: (Units=1/GPa)
#
#
# Indices 1 2 3 4 5 6 
#
# 1 0.011138 -0.003095 -0.003002 0.000000 -0.009258 0.000000
# 2 -0.003095 0.027124 -0.000877 0.000000 -0.002206 0.000000
# 3 -0.003002 -0.000877 0.012644 0.000000 -0.000507 0.000000
# 4 0.000000 0.000000 0.000000 0.034733 0.000000 -0.000584
# 5 -0.009258 -0.002206 -0.000507 0.000000 0.035212 0.000000
# 6 0.000000 0.000000 0.000000 -0.000584 0.000000 0.024697
#
#
# Mechanical properties :
#
#
# Convention : Reuss Voigt Hill
#
# Bulk Modulus (GPa) = 27.05794 43.26414 35.16104
# Shear Modulus (GPa) = 29.10071 35.08637 32.09354
#
# Velocity S-wave (km/s) = 3.70726 4.07071 3.89323
# Velocity P-wave (km/s) = 5.57709 6.52128 6.06758
#
# Compressibility (1/GPa) = 0.03695773
#
# Stress axis : x y z
#
# Youngs Moduli (GPa) = 89.77957 36.86776 79.08581
#
# Poissons Ratio (x) = 0.11412 0.23741
# Poissons Ratio (y) = 0.27789 0.06939
# Poissons Ratio (z) = 0.26951 0.03235
#
# Static dielectric constant tensor:
#      x y z
#    x 1.812660 0.000000 -0.006810 
#    y 0.000000 1.729680 0.000000 
#    z -0.006810 0.000000 1.778070 
# 
# From -- ./inp_files/11336.got.cif
#   From: 2010.05.17/outbox.cif.g08.bks.cpg/sg9_6_cif.got.tgz:11336.got - 2010.06.03 20:04:27.
