data_PCOD9135954
_publ_section_title
;
Structure prediction by ZEFSAII (Michael W. Deem and Ramdas Pophale) SiO2 
 PCOD9135954
Probable space group: C C
;
_chemical_formula_sum "Si O2"
_cell_formula_units_Z 32
_cell_length_a 16.399635
_cell_length_b 9.653402
_cell_length_c 8.616893
_cell_angle_alpha 90.000000
_cell_angle_beta 77.171900
_cell_angle_gamma 90.000000
_cell_volume 1330.111248
_symmetry_space_group_name_H-M "C C"
_symmetry_group_IT_number 9
_symmetry_cell_setting 'monoclinic'
loop_
_space_group_symop_operation_xyz
x,y,z
x,-y,1/2+z
1/2+x,1/2+y,z
1/2+x,1/2-y,1/2+z
loop_
_atom_site_type_symbol
_atom_site_label
_atom_site_fract_x
_atom_site_fract_y
_atom_site_fract_z
Si Si1 0.652900 0.643182 0.864940
Si Si2 0.665642 0.889998 0.043482
Si Si3 0.657085 0.187279 0.904400
Si Si4 0.080242 0.948920 0.094581
Si Si5 0.851406 0.171772 0.341504
Si Si6 0.419243 0.442995 0.511728
Si Si7 0.338650 0.064989 0.685319
Si Si8 0.346900 0.201550 0.359139
O O1 0.587412 0.582710 0.770944
O O2 0.742525 0.618223 0.748717
O O3 0.622681 0.792739 0.932485
O O4 0.656908 0.548955 0.015698
O O5 0.645085 0.850103 0.228412
O O6 0.761469 0.846419 0.961785
O O7 0.650193 0.049258 0.010958
O O8 0.752619 0.240504 0.884862
O O9 0.596443 0.307699 0.993209
O O10 0.001481 0.040769 0.080482
O O11 0.849667 0.095993 0.172516
O O12 0.881391 0.325607 0.285557
O O13 0.908900 0.090490 0.435971
O O14 0.405660 0.331443 0.378920
O O15 0.359074 0.103398 0.502475
O O16 0.356674 0.905577 0.713986
#
# Coordination Sequence:
#
# PCOD9135954 Si02
#       8
#     4   4   4   4   4   4   4   4
#     4  11  21  39  63  98 138 182 236 297 350 420
#     4  11  24  39  69 104 138 180 244 306 359 410
#     4  12  23  40  67 106 139 183 237 307 362 418
#     4  12  24  41  67  98 143 190 235 285 362 441
#     4  10  22  39  64  97 140 180 235 293 349 420
#     4  11  24  42  64 100 139 191 230 279 359 441
#     4  10  21  37  62  99 130 173 237 296 349 399
#     4  11  23  39  66 100 139 177 236 301 350 417
#
# _framework density 24.058136999999999
#
# number of rings (size 3 to 8) (size 9 to 14) (size 15 to 20)
#    0.000    1.000    3.750    3.000    5.250    0.000 
#    0.000    1.250    0.000    3.000    0.000    0.000 
#    0.000    0.000    0.000    0.000    0.000    0.000 
#
# Total GULP energy -89395.423456 kJ/mol
# GULP energy per Si atom -5587.213966 kJ/mol
# Density = 2.400338 g / cm^3
# Si number density = 24.058137 Si / 1000 Ang^3
#
#
#
# Elastic Constant Matrix: (Units=GPa)
#
#
# Indices 1 2 3 4 5 6 
#
# 1 36.0177 12.7950 3.6976 0.0000 14.8382 0.0000
# 2 12.7950 109.0005 11.1622 0.0000 8.5603 0.0000
# 3 3.6976 11.1622 74.8051 0.0000 -5.0332 0.0000
# 4 0.0000 0.0000 0.0000 48.7261 0.0000 12.8933
# 5 14.8382 8.5603 -5.0332 0.0000 23.0088 0.0000
# 6 0.0000 0.0000 0.0000 12.8933 0.0000 26.2117
#
#
#
# Elastic Compliance Matrix: (Units=1/GPa)
#
#
# Indices 1 2 3 4 5 6 
#
# 1 0.039306 -0.002296 -0.003297 0.000000 -0.025215 0.000000
# 2 -0.002296 0.009795 -0.001516 0.000000 -0.002495 0.000000
# 3 -0.003297 -0.001516 0.014146 0.000000 0.005785 0.000000
# 4 0.000000 0.000000 0.000000 0.023594 0.000000 -0.011606
# 5 -0.025215 -0.002495 0.005785 0.000000 0.061917 0.000000
# 6 0.000000 0.000000 0.000000 -0.011606 0.000000 0.043860
#
#
# Mechanical properties :
#
#
# Convention : Reuss Voigt Hill
#
# Bulk Modulus (GPa) = 20.39574 30.57033 25.48304
# Shear Modulus (GPa) = 22.40356 32.40054 27.40205
#
# Velocity S-wave (km/s) = 3.05491 3.67380 3.37856
# Velocity P-wave (km/s) = 4.57596 5.54349 5.08280
#
# Compressibility (1/GPa) = 0.04902984
#
# Stress axis : x y z
#
# Youngs Moduli (GPa) = 25.44124 102.09307 70.68896
#
# Poissons Ratio (x) = 0.23441 0.23306
# Poissons Ratio (y) = 0.05841 0.10716
# Poissons Ratio (z) = 0.08388 0.15477
#
# Static dielectric constant tensor:
#      x y z
#    x 2.043080 0.000000 -0.014570 
#    y 0.000000 1.979230 0.000000 
#    z -0.014570 0.000000 1.919650 
# 
# From -- ./inp_files/11242.got.cif
#   From: 2010.05.17/outbox.cif.g08.bks.cpg/sg9_6_cif.got.tgz:11242.got - 2010.06.03 20:04:27.
