data_PCOD9135057
_publ_section_title
;
Structure prediction by ZEFSAII (Michael W. Deem and Ramdas Pophale) SiO2 
 PCOD9135057
Probable space group: C C
;
_chemical_formula_sum "Si O2"
_cell_formula_units_Z 28
_cell_length_a 14.067090
_cell_length_b 11.530527
_cell_length_c 9.075272
_cell_angle_alpha 90.000000
_cell_angle_beta 47.181264
_cell_angle_gamma 90.000000
_cell_volume 1079.736339
_symmetry_space_group_name_H-M "C C"
_symmetry_group_IT_number 9
_symmetry_cell_setting 'monoclinic'
loop_
_space_group_symop_operation_xyz
x,y,z
x,-y,1/2+z
1/2+x,1/2+y,z
1/2+x,1/2-y,1/2+z
loop_
_atom_site_type_symbol
_atom_site_label
_atom_site_fract_x
_atom_site_fract_y
_atom_site_fract_z
Si Si1 0.063190 0.037640 0.013620
Si Si2 0.573352 0.783016 0.940359
Si Si3 0.921088 0.909584 0.946511
Si Si4 0.681944 0.056473 0.094321
Si Si5 0.228273 0.210987 0.072387
Si Si6 0.353508 0.971008 0.254601
Si Si7 0.564133 0.875875 0.422329
O O1 0.021309 0.153914 0.971693
O O2 0.213471 0.015479 0.825161
O O3 0.039084 0.070188 0.208906
O O4 0.970097 0.938138 0.056226
O O5 0.650725 0.828555 0.718516
O O6 0.672077 0.764502 0.975267
O O7 0.456016 0.872752 0.092008
O O8 0.815941 0.002393 0.002020
O O9 0.851003 0.788928 0.993214
O O10 0.579099 0.960738 0.265061
O O11 0.665341 0.077816 0.939567
O O12 0.118744 0.252892 0.306658
O O13 0.299590 0.089124 0.961085
O O14 0.430867 0.091843 0.148421
#
# Coordination Sequence:
#
# PCOD9135057 Si02
#       7
#     4   4   4   4   4   4   4
#     4  11  24  36  62  96 133 177 216 287 356 408
#     4  10  21  41  66  96 129 184 234 283 347 428
#     4  11  20  38  60  94 133 169 227 275 349 430
#     4  10  20  36  69  91 128 179 230 277 346 423
#     4  10  20  39  69  96 129 184 236 285 347 428
#     4  10  21  39  66  94 137 174 236 283 344 436
#     4  10  20  37  66 101 127 179 237 288 347 425
#
# _framework density 25.932258000000001
#
# number of rings (size 3 to 8) (size 9 to 14) (size 15 to 20)
#    0.000    1.714    1.429    6.000    2.000    3.429 
#    0.000    2.857    3.143    3.429    0.000    0.000 
#    0.000    0.000    0.000    0.000    0.000    0.000 
#
# Total GULP energy -78171.613120 kJ/mol
# GULP energy per Si atom -5583.686651 kJ/mol
# Density = 2.587324 g / cm^3
# Si number density = 25.932258 Si / 1000 Ang^3
#
#
#
# Elastic Constant Matrix: (Units=GPa)
#
#
# Indices 1 2 3 4 5 6 
#
# 1 93.0417 25.4210 26.2806 0.0000 -12.1586 0.0000
# 2 25.4210 56.9094 59.4797 0.0000 3.7241 0.0000
# 3 26.2806 59.4797 139.4999 0.0000 -10.0900 0.0000
# 4 0.0000 0.0000 0.0000 62.3949 0.0000 1.0086
# 5 -12.1586 3.7241 -10.0900 0.0000 59.9473 0.0000
# 6 0.0000 0.0000 0.0000 1.0086 0.0000 31.6529
#
#
#
# Elastic Compliance Matrix: (Units=1/GPa)
#
#
# Indices 1 2 3 4 5 6 
#
# 1 0.012768 -0.006542 0.000608 0.000000 0.003098 0.000000
# 2 -0.006542 0.036181 -0.014631 0.000000 -0.006037 0.000000
# 3 0.000608 -0.014631 0.013532 0.000000 0.003310 0.000000
# 4 0.000000 0.000000 0.000000 0.016035 0.000000 -0.000511
# 5 0.003098 -0.006037 0.003310 0.000000 0.018242 0.000000
# 6 0.000000 0.000000 0.000000 -0.000511 0.000000 0.031609
#
#
# Mechanical properties :
#
#
# Convention : Reuss Voigt Hill
#
# Bulk Modulus (GPa) = 46.83545 56.86817 51.85181
# Shear Modulus (GPa) = 28.31046 42.68365 35.49706
#
# Velocity S-wave (km/s) = 3.30769 4.06145 3.70379
# Velocity P-wave (km/s) = 5.71731 6.63106 6.19107
#
# Compressibility (1/GPa) = 0.02135135
#
# Stress axis : x y z
#
# Youngs Moduli (GPa) = 78.31854 27.63909 73.90084
#
# Poissons Ratio (x) = 0.18080 -0.04492
# Poissons Ratio (y) = 0.51233 1.08124
# Poissons Ratio (z) = -0.04761 0.40438
#
# Static dielectric constant tensor:
#      x y z
#    x 2.073540 0.000000 -0.062030 
#    y 0.000000 2.118090 0.000000 
#    z -0.062030 0.000000 2.044330 
# 
# From -- ./inp_files/9646.got.cif
#   From: 2010.05.17/outbox.cif.g08.bks.cpg/sg9_5_cif.got.tgz:9646.got - 2010.06.03 20:04:27.
