data_PCOD9135206
_publ_section_title
;
Structure prediction by ZEFSAII (Michael W. Deem and Ramdas Pophale) SiO2 
 PCOD9135206
Probable space group: C C
;
_chemical_formula_sum "Si O2"
_cell_formula_units_Z 32
_cell_length_a 10.966807
_cell_length_b 6.735183
_cell_length_c 19.162765
_cell_angle_alpha 90.000000
_cell_angle_beta 60.644194
_cell_angle_gamma 90.000000
_cell_volume 1233.675983
_symmetry_space_group_name_H-M "C C"
_symmetry_group_IT_number 9
_symmetry_cell_setting 'monoclinic'
loop_
_space_group_symop_operation_xyz
x,y,z
x,-y,1/2+z
1/2+x,1/2+y,z
1/2+x,1/2-y,1/2+z
loop_
_atom_site_type_symbol
_atom_site_label
_atom_site_fract_x
_atom_site_fract_y
_atom_site_fract_z
Si Si1 0.231630 0.639623 0.350080
Si Si2 0.735236 0.899410 0.469446
Si Si3 0.601073 0.515523 0.462811
Si Si4 0.025493 0.462558 0.731800
Si Si5 0.561781 0.759580 0.338000
Si Si6 0.687375 0.625813 0.731914
Si Si7 0.424629 0.965597 0.599607
Si Si8 0.830763 0.966243 0.092171
O O1 0.314881 0.527031 0.388137
O O2 0.144675 0.450351 0.345485
O O3 0.268326 0.748752 0.268175
O O4 0.151387 0.815240 0.413243
O O5 0.721034 0.665982 0.456294
O O6 0.574432 0.981586 0.520623
O O7 0.795941 0.938976 0.527627
O O8 0.531864 0.644175 0.418991
O O9 0.493424 0.468301 0.556210
O O10 0.970285 0.622253 0.804386
O O11 0.042492 0.239627 0.756392
O O12 0.190516 0.512133 0.675908
O O13 0.960466 0.450709 0.672865
O O14 0.649901 0.592949 0.270701
O O15 0.794961 0.617648 0.636896
O O16 0.356282 0.769371 0.587221
#
# Coordination Sequence:
#
# PCOD9135206 Si02
#       8
#     4   4   4   4   4   4   4   4
#     4   9  19  37  62  87 116 154 198 248 292 353
#     4   9  20  38  56  85 120 152 199 249 294 353
#     4   9  19  36  59  84 115 159 198 243 301 351
#     4  10  21  38  59  88 121 157 202 248 294 353
#     4   9  18  39  59  83 125 152 197 255 288 354
#     4  10  20  38  62  86 118 161 197 243 302 350
#     4  10  21  39  58  88 122 158 202 246 296 353
#     4  10  20  39  57  83 125 157 193 254 293 345
#
# _framework density 25.938741
#
# number of rings (size 3 to 8) (size 9 to 14) (size 15 to 20)
#    0.000    2.500    1.250    0.000    1.750    1.000 
#    9.000   11.250    0.000    0.000    0.000    0.000 
#    0.000    0.000    0.000    0.000    0.000    0.000 
#
# Total GULP energy -89146.282561 kJ/mol
# GULP energy per Si atom -5571.642660 kJ/mol
# Density = 2.587970 g / cm^3
# Si number density = 25.938741 Si / 1000 Ang^3
#
#
#
# Elastic Constant Matrix: (Units=GPa)
#
#
# Indices 1 2 3 4 5 6 
#
# 1 60.8835 35.8224 15.8506 0.0000 23.7278 0.0000
# 2 35.8224 150.5724 58.0680 0.0000 5.1432 0.0000
# 3 15.8506 58.0680 107.9328 0.0000 0.1437 0.0000
# 4 0.0000 0.0000 0.0000 61.2409 0.0000 -2.0592
# 5 23.7278 5.1432 0.1437 0.0000 60.4228 0.0000
# 6 0.0000 0.0000 0.0000 -2.0592 0.0000 22.5339
#
#
#
# Elastic Compliance Matrix: (Units=1/GPa)
#
#
# Indices 1 2 3 4 5 6 
#
# 1 0.022795 -0.004852 -0.000726 0.000000 -0.008537 0.000000
# 2 -0.004852 0.009443 -0.004369 0.000000 0.001112 0.000000
# 3 -0.000726 -0.004369 0.011721 0.000000 0.000629 0.000000
# 4 0.000000 0.000000 0.000000 0.016379 0.000000 0.001497
# 5 -0.008537 0.001112 0.000629 0.000000 0.019806 0.000000
# 6 0.000000 0.000000 0.000000 0.001497 0.000000 0.044514
#
#
# Mechanical properties :
#
#
# Convention : Reuss Voigt Hill
#
# Bulk Modulus (GPa) = 41.55279 59.87454 50.71366
# Shear Modulus (GPa) = 32.77078 42.81603 37.79341
#
# Velocity S-wave (km/s) = 3.55828 4.06724 3.82124
# Velocity P-wave (km/s) = 5.73900 6.72233 6.25004
#
# Compressibility (1/GPa) = 0.02406578
#
# Stress axis : x y z
#
# Youngs Moduli (GPa) = 43.86832 105.90415 85.31413
#
# Poissons Ratio (x) = 0.51380 0.06195
# Poissons Ratio (y) = 0.21283 0.37274
# Poissons Ratio (z) = 0.03185 0.46270
#
# Static dielectric constant tensor:
#      x y z
#    x 2.107950 0.000000 -0.011910 
#    y 0.000000 2.084570 0.000000 
#    z -0.011910 0.000000 2.036110 
# 
# From -- ./inp_files/33043.got.cif
#   From: 2010.05.17/outbox.cif.g08.bks.cpg/sg9_17_cif.got.tgz:33043.got - 2010.06.03 20:04:27.
