data_PCOD9135018
_publ_section_title
;
Structure prediction by ZEFSAII (Michael W. Deem and Ramdas Pophale) SiO2 
 PCOD9135018
Probable space group: C C
;
_chemical_formula_sum "Si O2"
_cell_formula_units_Z 32
_cell_length_a 12.479436
_cell_length_b 11.697683
_cell_length_c 15.508418
_cell_angle_alpha 90.000000
_cell_angle_beta 141.351355
_cell_angle_gamma 90.000000
_cell_volume 1413.919149
_symmetry_space_group_name_H-M "C C"
_symmetry_group_IT_number 9
_symmetry_cell_setting 'monoclinic'
loop_
_space_group_symop_operation_xyz
x,y,z
x,-y,1/2+z
1/2+x,1/2+y,z
1/2+x,1/2-y,1/2+z
loop_
_atom_site_type_symbol
_atom_site_label
_atom_site_fract_x
_atom_site_fract_y
_atom_site_fract_z
Si Si1 0.001600 0.846413 0.343810
Si Si2 0.428074 0.103370 0.347445
Si Si3 0.464505 0.158557 0.858133
Si Si4 0.688782 0.763829 0.347569
Si Si5 0.211948 0.641598 0.155481
Si Si6 0.538795 0.601879 0.056022
Si Si7 0.122398 0.411294 0.147366
Si Si8 0.999925 0.970940 0.711855
O O1 0.056643 0.917197 0.464602
O O2 0.035090 0.710901 0.376122
O O3 0.796039 0.859789 0.215889
O O4 0.061165 0.913587 0.296769
O O5 0.229775 0.134130 0.205599
O O6 0.489564 0.088157 0.485078
O O7 0.438519 0.974315 0.318771
O O8 0.619754 0.199799 0.896184
O O9 0.307830 0.244158 0.743848
O O10 0.533211 0.169763 0.997847
O O11 0.587507 0.838064 0.211009
O O12 0.634778 0.632023 0.309104
O O13 0.885309 0.804330 0.461189
O O14 0.172244 0.542796 0.200124
O O15 0.334066 0.577361 0.160315
O O16 0.478791 0.516636 0.095110
#
# Coordination Sequence:
#
# PCOD9135018 Si02
#       8
#     4   4   4   4   4   4   4   4
#     4  10  21  38  62  92 129 170 210 262 329 385
#     4  11  22  38  62  93 131 167 213 268 334 394
#     4  10  21  38  60  92 130 167 211 264 327 396
#     4  10  20  37  61  90 119 165 219 268 320 387
#     4   9  19  37  60  89 124 165 208 265 323 379
#     4  11  21  39  62  96 121 165 220 271 318 383
#     4   9  20  39  62  86 125 165 213 268 326 379
#     4  10  20  36  61  92 125 160 216 270 319 381
#
# _framework density 22.632128999999999
#
# number of rings (size 3 to 8) (size 9 to 14) (size 15 to 20)
#    0.000    2.000    1.250    3.000    0.000    4.000 
#    4.500    1.250    0.000    0.000    0.000    0.000 
#    0.000    0.000    0.000    0.000    0.000    0.000 
#
# Total GULP energy -89100.485553 kJ/mol
# GULP energy per Si atom -5568.780347 kJ/mol
# Density = 2.258062 g / cm^3
# Si number density = 22.632129 Si / 1000 Ang^3
#
#
#
# Elastic Constant Matrix: (Units=GPa)
#
#
# Indices 1 2 3 4 5 6 
#
# 1 9.6607 13.4632 -4.2006 0.0000 -1.7034 0.0000
# 2 13.4632 146.7200 16.4353 0.0001 -11.2462 0.0000
# 3 -4.2006 16.4353 100.8385 0.0002 3.5507 0.0001
# 4 0.0000 0.0001 0.0002 20.5942 0.0001 -6.7716
# 5 -1.7034 -11.2462 3.5507 0.0001 12.8927 0.0000
# 6 0.0000 0.0000 0.0001 -6.7716 0.0000 30.1102
#
#
#
# Elastic Compliance Matrix: (Units=1/GPa)
#
#
# Indices 1 2 3 4 5 6 
#
# 1 0.123717 -0.011812 0.006933 0.000000 0.004133 0.000000
# 2 -0.011812 0.008642 -0.002132 0.000000 0.006564 0.000000
# 3 0.006933 -0.002132 0.010690 0.000000 -0.003887 0.000000
# 4 0.000000 0.000000 0.000000 0.052435 0.000000 0.011792
# 5 0.004133 0.006564 -0.003887 0.000000 0.084906 0.000000
# 6 0.000000 0.000000 0.000000 0.011792 0.000000 0.035863
#
#
# Mechanical properties :
#
#
# Convention : Reuss Voigt Hill
#
# Bulk Modulus (GPa) = 7.75028 34.29056 21.02042
# Shear Modulus (GPa) = 13.39466 28.15417 20.77441
#
# Velocity S-wave (km/s) = 2.43542 3.53085 3.03300
# Velocity P-wave (km/s) = 3.36753 5.63974 4.64473
#
# Compressibility (1/GPa) = 0.12902754
#
# Stress axis : x y z
#
# Youngs Moduli (GPa) = 8.08295 115.71983 93.54547
#
# Poissons Ratio (x) = 1.36692 -0.64859
# Poissons Ratio (y) = 0.09548 0.19941
# Poissons Ratio (z) = -0.05604 0.24668
#
# Static dielectric constant tensor:
#      x y z
#    x 1.894460 0.000000 -0.032930 
#    y 0.000000 1.946810 0.000000 
#    z -0.032930 0.000000 1.901980 
# 
# From -- ./inp_files/30720.got.cif
#   From: 2010.05.17/outbox.cif.g08.bks.cpg/sg9_16_cif.got.tgz:30720.got - 2010.06.03 20:04:27.
