data_PCOD9135202
_publ_section_title
;
Structure prediction by ZEFSAII (Michael W. Deem and Ramdas Pophale) SiO2 
 PCOD9135202
Probable space group: C C
;
_chemical_formula_sum "Si O2"
_cell_formula_units_Z 32
_cell_length_a 10.442939
_cell_length_b 16.983403
_cell_length_c 8.956526
_cell_angle_alpha 90.000000
_cell_angle_beta 70.488647
_cell_angle_gamma 90.000000
_cell_volume 1497.280319
_symmetry_space_group_name_H-M "C C"
_symmetry_group_IT_number 9
_symmetry_cell_setting 'monoclinic'
loop_
_space_group_symop_operation_xyz
x,y,z
x,-y,1/2+z
1/2+x,1/2+y,z
1/2+x,1/2-y,1/2+z
loop_
_atom_site_type_symbol
_atom_site_label
_atom_site_fract_x
_atom_site_fract_y
_atom_site_fract_z
Si Si1 0.024730 0.463484 0.754670
Si Si2 0.184200 0.450072 0.974243
Si Si3 0.359410 0.941469 0.545501
Si Si4 0.877342 0.908204 0.383890
Si Si5 0.806105 0.283722 0.405541
Si Si6 0.576357 0.557143 0.293568
Si Si7 0.492572 0.303587 0.596920
Si Si8 0.410793 0.650977 0.547321
O O1 0.140304 0.430638 0.822254
O O2 0.075125 0.543154 0.649874
O O3 0.962530 0.416589 0.639236
O O4 0.917250 0.488200 0.923127
O O5 0.242481 0.539465 0.953576
O O6 0.302160 0.394105 0.984616
O O7 0.324073 0.874308 0.440571
O O8 0.226693 0.964180 0.689076
O O9 0.913116 0.844399 0.493044
O O10 0.873060 0.864666 0.229494
O O11 0.991288 0.977044 0.335271
O O12 0.641184 0.268993 0.486093
O O13 0.889115 0.239158 0.504700
O O14 0.889546 0.254668 0.226420
O O15 0.527267 0.621891 0.190999
O O16 0.551870 0.607064 0.454341
#
# Coordination Sequence:
#
# PCOD9135202 Si02
#       8
#     4   4   4   4   4   4   4   4
#     4  10  22  37  61  93 124 168 212 263 338 372
#     4  10  20  38  61  95 122 161 217 274 320 376
#     4  10  23  41  61  91 133 171 210 270 328 401
#     4  11  21  37  68  98 121 159 227 276 317 377
#     4  10  24  44  62  90 137 177 218 260 332 400
#     4   9  20  38  66  92 128 162 219 276 324 373
#     4  10  23  43  67  97 129 183 213 271 333 390
#     4  10  21  38  64  88 124 169 210 270 316 385
#
# _framework density 21.372084000000001
#
# number of rings (size 3 to 8) (size 9 to 14) (size 15 to 20)
#    0.000    2.000    1.250    1.500   10.500    0.000 
#    2.250    3.750    0.000    0.000    0.000    0.000 
#    0.000    0.000    0.000    0.000    0.000    0.000 
#
# Total GULP energy -89117.672000 kJ/mol
# GULP energy per Si atom -5569.854500 kJ/mol
# Density = 2.132344 g / cm^3
# Si number density = 21.372084 Si / 1000 Ang^3
#
#
#
# Elastic Constant Matrix: (Units=GPa)
#
#
# Indices 1 2 3 4 5 6 
#
# 1 71.7438 10.1883 60.8755 0.0000 -13.0446 0.0000
# 2 10.1883 36.9840 14.0561 0.0000 -3.4374 0.0000
# 3 60.8755 14.0561 104.2563 0.0000 1.3921 0.0000
# 4 0.0000 0.0000 0.0000 19.6193 0.0000 -5.8109
# 5 -13.0446 -3.4374 1.3921 0.0000 44.1860 0.0000
# 6 0.0000 0.0000 0.0000 -5.8109 0.0000 9.8009
#
#
#
# Elastic Compliance Matrix: (Units=1/GPa)
#
#
# Indices 1 2 3 4 5 6 
#
# 1 0.031417 -0.000762 -0.018372 0.000000 0.009794 0.000000
# 2 -0.000762 0.028761 -0.003461 0.000000 0.002122 0.000000
# 3 -0.018372 -0.003461 0.020871 0.000000 -0.006351 0.000000
# 4 0.000000 0.000000 0.000000 0.061828 0.000000 0.036658
# 5 0.009794 0.002122 -0.006351 0.000000 0.025888 0.000000
# 6 0.000000 0.000000 0.000000 0.036658 0.000000 0.123766
#
#
# Mechanical properties :
#
#
# Convention : Reuss Voigt Hill
#
# Bulk Modulus (GPa) = 27.88770 42.58046 35.23408
# Shear Modulus (GPa) = 14.29904 23.24551 18.77228
#
# Velocity S-wave (km/s) = 2.58941 3.30154 2.96692
# Velocity P-wave (km/s) = 4.69223 5.87369 5.31589
#
# Compressibility (1/GPa) = 0.03585810
#
# Stress axis : x y z
#
# Youngs Moduli (GPa) = 31.83023 34.76908 47.91365
#
# Poissons Ratio (x) = 0.02648 0.88029
# Poissons Ratio (y) = 0.02425 0.16584
# Poissons Ratio (z) = 0.58480 0.12034
#
# Static dielectric constant tensor:
#      x y z
#    x 1.889910 0.000000 -0.049240 
#    y 0.000000 1.782560 0.000000 
#    z -0.049240 0.000000 1.788420 
# 
# From -- ./inp_files/7416.got.cif
#   From: 2010.05.17/outbox.cif.g08.bks.cpg/sg9_4_cif.got.tgz:7416.got - 2010.06.03 20:04:27.
