data_PCOD9135331
_publ_section_title
;
Structure prediction by ZEFSAII (Michael W. Deem and Ramdas Pophale) SiO2 
 PCOD9135331
Probable space group: C C
;
_chemical_formula_sum "Si O2"
_cell_formula_units_Z 28
_cell_length_a 8.965039
_cell_length_b 12.414037
_cell_length_c 14.322525
_cell_angle_alpha 90.000000
_cell_angle_beta 69.849369
_cell_angle_gamma 90.000000
_cell_volume 1496.419488
_symmetry_space_group_name_H-M "C C"
_symmetry_group_IT_number 9
_symmetry_cell_setting 'monoclinic'
loop_
_space_group_symop_operation_xyz
x,y,z
x,-y,1/2+z
1/2+x,1/2+y,z
1/2+x,1/2-y,1/2+z
loop_
_atom_site_type_symbol
_atom_site_label
_atom_site_fract_x
_atom_site_fract_y
_atom_site_fract_z
Si Si1 0.664190 0.721309 0.506960
Si Si2 0.988614 0.498854 0.187587
Si Si3 0.696594 0.805939 0.704321
Si Si4 0.049106 0.743479 0.620045
Si Si5 0.009441 0.201504 0.915516
Si Si6 0.866504 0.635466 0.043912
Si Si7 0.726496 0.491271 0.402892
O O1 0.664592 0.731031 0.619879
O O2 0.504636 0.776635 0.505286
O O3 0.681867 0.601909 0.463284
O O4 0.821276 0.787195 0.442519
O O5 0.929262 0.546531 0.102248
O O6 0.841483 0.508027 0.290470
O O7 0.128711 0.576935 0.193114
O O8 0.041273 0.376078 0.162947
O O9 0.602532 0.759759 0.812560
O O10 0.884702 0.802841 0.681566
O O11 0.048031 0.742314 0.506815
O O12 0.205970 0.807796 0.615373
O O13 0.073349 0.079808 0.908997
O O14 0.823844 0.580477 0.955846
#
# Coordination Sequence:
#
# PCOD9135331 Si02
#       7
#     4   4   4   4   4   4   4
#     4  10  22  40  62  87 127 154 206 253 300 364
#     4  11  22  39  65  89 122 165 202 248 313 357
#     4  10  20  39  64  90 120 164 202 251 307 359
#     4  10  22  40  62  87 127 154 206 253 300 364
#     4  10  20  39  64  90 120 164 202 251 307 359
#     4  10  24  40  60  92 122 156 208 256 294 364
#     4  11  22  39  65  89 122 165 202 248 313 357
#
# _framework density 18.711331000000001
#
# number of rings (size 3 to 8) (size 9 to 14) (size 15 to 20)
#    0.000    1.714    2.857    1.714    0.000    5.714 
#    0.000    1.429    0.000    0.000    0.000    0.000 
#    0.000    0.000    0.000    0.000    0.000    0.000 
#
# Total GULP energy -78183.329019 kJ/mol
# GULP energy per Si atom -5584.523501 kJ/mol
# Density = 1.866874 g / cm^3
# Si number density = 18.711331 Si / 1000 Ang^3
#
#
#
# Elastic Constant Matrix: (Units=GPa)
#
#
# Indices 1 2 3 4 5 6 
#
# 1 94.6617 22.9412 1.6952 0.0000 -25.5980 0.0000
# 2 22.9412 61.0768 -1.2006 0.0000 -8.5765 0.0000
# 3 1.6952 -1.2006 79.3626 0.0000 -20.4267 0.0000
# 4 0.0000 0.0000 0.0000 23.6921 0.0000 -10.1455
# 5 -25.5980 -8.5765 -20.4267 0.0000 17.4289 0.0000
# 6 0.0000 0.0000 0.0000 -10.1455 0.0000 20.3425
#
#
#
# Elastic Compliance Matrix: (Units=1/GPa)
#
#
# Indices 1 2 3 4 5 6 
#
# 1 0.023685 -0.001996 0.011691 0.000000 0.047506 0.000000
# 2 -0.001996 0.018493 0.002735 0.000000 0.009375 0.000000
# 3 0.011691 0.002735 0.024570 0.000000 0.047313 0.000000
# 4 0.000000 0.000000 0.000000 0.053671 0.000000 0.026767
# 5 0.047506 0.009375 0.047313 0.000000 0.187213 0.000000
# 6 0.000000 0.000000 0.000000 0.026767 0.000000 0.062508
#
#
# Mechanical properties :
#
#
# Convention : Reuss Voigt Hill
#
# Bulk Modulus (GPa) = 10.91598 31.33028 21.12313
# Shear Modulus (GPa) = 13.30450 26.40370 19.85410
#
# Velocity S-wave (km/s) = 2.66943 3.76055 3.26095
# Velocity P-wave (km/s) = 3.91761 5.96959 5.04894
#
# Compressibility (1/GPa) = 0.09160880
#
# Stress axis : x y z
#
# Youngs Moduli (GPa) = 42.22147 54.07577 40.70069
#
# Poissons Ratio (x) = 0.10791 -0.47584
# Poissons Ratio (y) = 0.08426 -0.11133
# Poissons Ratio (z) = -0.49362 -0.14791
#
# Static dielectric constant tensor:
#      x y z
#    x 1.642900 0.000000 0.004630 
#    y 0.000000 1.623880 0.000000 
#    z 0.004630 0.000000 1.642090 
# 
# From -- ./inp_files/22540.got.cif
#   From: 2010.05.17/outbox.cif.g08.bks.cpg/sg9_12_cif.got.tgz:22540.got - 2010.06.03 20:04:27.
