data_PCOD9135676
_publ_section_title
;
Structure prediction by ZEFSAII (Michael W. Deem and Ramdas Pophale) SiO2 
 PCOD9135676
Probable space group: C C
;
_chemical_formula_sum "Si O2"
_cell_formula_units_Z 32
_cell_length_a 11.808023
_cell_length_b 20.275767
_cell_length_c 9.661031
_cell_angle_alpha 90.000000
_cell_angle_beta 31.367891
_cell_angle_gamma 90.000000
_cell_volume 1203.995143
_symmetry_space_group_name_H-M "C C"
_symmetry_group_IT_number 9
_symmetry_cell_setting 'monoclinic'
loop_
_space_group_symop_operation_xyz
x,y,z
x,-y,1/2+z
1/2+x,1/2+y,z
1/2+x,1/2-y,1/2+z
loop_
_atom_site_type_symbol
_atom_site_label
_atom_site_fract_x
_atom_site_fract_y
_atom_site_fract_z
Si Si1 0.767770 0.843397 0.786550
Si Si2 0.433445 0.908186 0.296050
Si Si3 0.826847 0.222564 0.961166
Si Si4 0.334349 0.924269 0.800062
Si Si5 0.744760 0.945627 0.221754
Si Si6 0.535786 0.678953 0.474312
Si Si7 0.635423 0.708237 0.079014
Si Si8 0.652155 0.491824 0.235017
O O1 0.823051 0.838360 0.569577
O O2 0.983624 0.843635 0.654694
O O3 0.590200 0.899413 0.001530
O O4 0.688873 0.769615 0.923755
O O5 0.592138 0.930228 0.252274
O O6 0.344790 0.834694 0.398167
O O7 0.228450 0.953954 0.541479
O O8 0.869094 0.209110 0.757338
O O9 0.070159 0.254057 0.744147
O O10 0.591842 0.937917 0.516192
O O11 0.248542 0.980262 0.779044
O O12 0.247680 0.854003 0.829821
O O13 0.248946 0.930256 0.047294
O O14 0.916615 0.886951 0.048050
O O15 0.896151 0.008142 0.031824
O O16 0.555766 0.723564 0.317363
#
# Coordination Sequence:
#
# PCOD9135676 Si02
#       8
#     4   4   4   4   4   4   4   4
#     4  12  24  41  67  96 141 182 236 285 351 417
#     4  11  20  39  67  98 129 173 235 287 339 419
#     4  12  29  49  66 103 153 190 234 300 367 435
#     4  10  23  45  65  98 135 175 229 296 362 433
#     4  10  20  42  69  93 137 168 229 293 351 431
#     4  11  25  42  67 102 135 180 235 292 357 432
#     4  12  21  39  69  98 127 181 231 283 333 422
#     4  10  22  43  66  96 133 175 233 290 360 433
#
# _framework density 26.57818
#
# number of rings (size 3 to 8) (size 9 to 14) (size 15 to 20)
#    0.000    1.000    7.500    0.000    3.500    4.000 
#    9.000    0.000    0.000    0.000    0.000    0.000 
#    0.000    0.000    0.000    0.000    0.000    0.000 
#
# Total GULP energy -89136.476876 kJ/mol
# GULP energy per Si atom -5571.029805 kJ/mol
# Density = 2.651769 g / cm^3
# Si number density = 26.578180 Si / 1000 Ang^3
#
#
#
# Elastic Constant Matrix: (Units=GPa)
#
#
# Indices 1 2 3 4 5 6 
#
# 1 44.6822 0.6338 11.0291 -0.0004 7.2182 0.0003
# 2 0.6338 48.0174 10.5286 0.0000 -7.6329 0.0004
# 3 11.0291 10.5286 131.7191 -0.0039 -12.5431 0.0027
# 4 -0.0004 0.0000 -0.0039 44.7716 0.0009 11.2859
# 5 7.2182 -7.6329 -12.5431 0.0009 44.4075 -0.0004
# 6 0.0003 0.0004 0.0027 11.2859 -0.0004 15.0112
#
#
#
# Elastic Compliance Matrix: (Units=1/GPa)
#
#
# Indices 1 2 3 4 5 6 
#
# 1 0.023723 -0.000525 -0.002384 0.000000 -0.004620 0.000000
# 2 -0.000525 0.021676 -0.001362 0.000000 0.003426 0.000000
# 3 -0.002384 -0.001362 0.008134 0.000001 0.002451 -0.000002
# 4 0.000000 0.000000 0.000001 0.027558 0.000000 -0.020719
# 5 -0.004620 0.003426 0.002451 0.000000 0.024551 0.000001
# 6 0.000000 0.000000 -0.000002 -0.020719 0.000001 0.082194
#
#
# Mechanical properties :
#
#
# Convention : Reuss Voigt Hill
#
# Bulk Modulus (GPa) = 22.22730 29.86684 26.04707
# Shear Modulus (GPa) = 23.65460 34.31987 28.98723
#
# Velocity S-wave (km/s) = 2.98652 3.59734 3.30607
# Velocity P-wave (km/s) = 4.50262 5.34006 4.93912
#
# Compressibility (1/GPa) = 0.04498972
#
# Stress axis : x y z
#
# Youngs Moduli (GPa) = 42.15403 46.13378 122.94320
#
# Poissons Ratio (x) = 0.02420 0.29313
# Poissons Ratio (y) = 0.02212 0.16750
# Poissons Ratio (z) = 0.10051 0.06285
#
# Static dielectric constant tensor:
#      x y z
#    x 2.141420 0.000000 -0.091100 
#    y 0.000000 2.263950 0.000000 
#    z -0.091100 0.000000 2.199800 
# 
# From -- ./inp_files/8618.got.cif
#   From: 2010.05.17/outbox.cif.g08.bks.cpg/sg9_5_cif.got.tgz:8618.got - 2010.06.03 20:04:27.
