data_PCOD9135553
_publ_section_title
;
Structure prediction by ZEFSAII (Michael W. Deem and Ramdas Pophale) SiO2 
 PCOD9135553
Probable space group: C C
;
_chemical_formula_sum "Si O2"
_cell_formula_units_Z 28
_cell_length_a 12.396065
_cell_length_b 6.816032
_cell_length_c 21.259290
_cell_angle_alpha 90.000000
_cell_angle_beta 141.163965
_cell_angle_gamma 90.000000
_cell_volume 1126.410665
_symmetry_space_group_name_H-M "C C"
_symmetry_group_IT_number 9
_symmetry_cell_setting 'monoclinic'
loop_
_space_group_symop_operation_xyz
x,y,z
x,-y,1/2+z
1/2+x,1/2+y,z
1/2+x,1/2-y,1/2+z
loop_
_atom_site_type_symbol
_atom_site_label
_atom_site_fract_x
_atom_site_fract_y
_atom_site_fract_z
Si Si1 0.237500 0.086985 0.441800
Si Si2 0.608479 0.552710 0.612610
Si Si3 0.974716 0.183885 0.769638
Si Si4 0.013650 0.320425 0.984263
Si Si5 0.712176 0.756500 0.250382
Si Si6 0.365198 0.977134 0.132206
Si Si7 0.724603 0.952752 0.966376
O O1 0.092121 0.007658 0.328662
O O2 0.244676 0.000850 0.515610
O O3 0.418740 0.041601 0.491024
O O4 0.222167 0.318986 0.446590
O O5 0.576175 0.364721 0.552207
O O6 0.680719 0.464082 0.710430
O O7 0.762123 0.641654 0.640513
O O8 0.417485 0.624693 0.541050
O O9 0.091039 0.337189 0.862372
O O10 0.804238 0.139666 0.732667
O O11 0.930345 0.312933 0.688684
O O12 0.855616 0.245175 0.869099
O O13 0.152293 0.426758 0.003877
O O14 0.533700 0.855761 0.187883
#
# Coordination Sequence:
#
# PCOD9135553 Si02
#       7
#     4   4   4   4   4   4   4
#     4  11  23  43  66 101 136 178 228 279 342 406
#     4  10  21  40  64  97 138 178 224 283 335 400
#     4  10  24  41  66  99 136 179 230 275 343 408
#     4  10  21  41  68  96 139 176 228 289 332 406
#     4  10  20  41  64  97 137 176 220 286 337 390
#     4  11  20  39  70  96 134 184 220 279 347 391
#     4  10  21  43  68  94 136 181 222 283 340 393
#
# _framework density 24.857718999999999
#
# number of rings (size 3 to 8) (size 9 to 14) (size 15 to 20)
#    0.000    1.714    2.857    3.429    0.000    2.286 
#    7.714    0.000   12.571    0.000    0.000    0.000 
#    0.000    0.000    0.000    0.000    0.000    0.000 
#
# Total GULP energy -78240.493055 kJ/mol
# GULP energy per Si atom -5588.606647 kJ/mol
# Density = 2.480114 g / cm^3
# Si number density = 24.857719 Si / 1000 Ang^3
#
#
#
# Elastic Constant Matrix: (Units=GPa)
#
#
# Indices 1 2 3 4 5 6 
#
# 1 177.3331 31.2526 23.4075 0.0000 37.4433 0.0000
# 2 31.2526 64.4626 2.0140 0.0000 8.1041 0.0000
# 3 23.4075 2.0140 101.0928 0.0000 5.8795 0.0000
# 4 0.0000 0.0000 0.0000 40.0984 0.0000 1.7493
# 5 37.4433 8.1041 5.8795 0.0000 57.4206 0.0000
# 6 0.0000 0.0000 0.0000 1.7493 0.0000 33.8403
#
#
#
# Elastic Compliance Matrix: (Units=1/GPa)
#
#
# Indices 1 2 3 4 5 6 
#
# 1 0.007213 -0.002932 -0.001370 0.000000 -0.004149 0.000000
# 2 -0.002932 0.016989 0.000371 0.000000 -0.000523 0.000000
# 3 -0.001370 0.000371 0.010214 0.000000 -0.000205 0.000000
# 4 0.000000 0.000000 0.000000 0.024995 0.000000 -0.001292
# 5 -0.004149 -0.000523 -0.000205 0.000000 0.020216 0.000000
# 6 0.000000 0.000000 0.000000 -0.001292 0.000000 0.029617
#
#
# Mechanical properties :
#
#
# Convention : Reuss Voigt Hill
#
# Bulk Modulus (GPa) = 37.66236 50.69296 44.17766
# Shear Modulus (GPa) = 39.69578 45.35282 42.52430
#
# Velocity S-wave (km/s) = 4.00048 4.27605 4.14056
# Velocity P-wave (km/s) = 6.04339 6.69455 6.37728
#
# Compressibility (1/GPa) = 0.02655171
#
# Stress axis : x y z
#
# Youngs Moduli (GPa) = 138.64044 58.86223 97.90763
#
# Poissons Ratio (x) = 0.17261 0.13417
# Poissons Ratio (y) = 0.40656 -0.03632
# Poissons Ratio (z) = 0.18999 -0.02184
#
# Static dielectric constant tensor:
#      x y z
#    x 2.074340 0.000000 0.027660 
#    y 0.000000 2.026000 0.000000 
#    z 0.027660 0.000000 1.989370 
# 
# From -- ./inp_files/35276.got.cif
#   From: 2010.05.17/outbox.cif.g08.bks.cpg/sg9_18_cif.got.tgz:35276.got - 2010.06.03 20:04:27.
