data_PCOD9135570
_publ_section_title
;
Structure prediction by ZEFSAII (Michael W. Deem and Ramdas Pophale) SiO2 
 PCOD9135570
Probable space group: C C
;
_chemical_formula_sum "Si O2"
_cell_formula_units_Z 28
_cell_length_a 7.356577
_cell_length_b 22.725725
_cell_length_c 9.641008
_cell_angle_alpha 90.000000
_cell_angle_beta 130.117382
_cell_angle_gamma 90.000000
_cell_volume 1232.598987
_symmetry_space_group_name_H-M "C C"
_symmetry_group_IT_number 9
_symmetry_cell_setting 'monoclinic'
loop_
_space_group_symop_operation_xyz
x,y,z
x,-y,1/2+z
1/2+x,1/2+y,z
1/2+x,1/2-y,1/2+z
loop_
_atom_site_type_symbol
_atom_site_label
_atom_site_fract_x
_atom_site_fract_y
_atom_site_fract_z
Si Si1 0.689680 0.194099 0.528300
Si Si2 0.789096 0.443092 0.192969
Si Si3 0.340600 0.377295 0.836592
Si Si4 0.367255 0.942534 0.551366
Si Si5 0.662629 0.675219 0.931208
Si Si6 0.454106 0.178559 0.795953
Si Si7 0.191350 0.204311 0.406774
O O1 0.725941 0.166689 0.394047
O O2 0.691653 0.265168 0.530489
O O3 0.427579 0.178919 0.454416
O O4 0.908330 0.173200 0.730115
O O5 0.776977 0.455161 0.351107
O O6 0.848400 0.500980 0.137860
O O7 0.981176 0.389820 0.271633
O O8 0.544650 0.415600 0.013112
O O9 0.463101 0.337270 0.777628
O O10 0.138225 0.420089 0.681385
O O11 0.215755 0.886412 0.530550
O O12 0.861856 0.680344 0.907358
O O13 0.235944 0.200904 0.593751
O O14 0.648410 0.227320 0.855678
#
# Coordination Sequence:
#
# PCOD9135570 Si02
#       7
#     4   4   4   4   4   4   4
#     4  12  22  42  71 110 147 185 241 303 376 450
#     4  10  25  48  69 106 141 200 251 298 365 433
#     4  11  24  47  75 104 153 184 239 320 362 437
#     4  11  25  46  77 102 143 205 251 297 373 432
#     4  11  21  42  71 103 149 191 233 307 377 430
#     4  10  20  41  66  98 147 178 230 298 365 430
#     4  11  23  38  69 107 142 183 235 291 378 434
#
# _framework density 22.716227
#
# number of rings (size 3 to 8) (size 9 to 14) (size 15 to 20)
#    0.000    1.143    5.714    1.714    4.000    3.429 
#    7.714    0.000    0.000    0.000    0.000    0.000 
#    0.000    0.000    0.000    0.000    0.000    0.000 
#
# Total GULP energy -78272.605479 kJ/mol
# GULP energy per Si atom -5590.900391 kJ/mol
# Density = 2.266452 g / cm^3
# Si number density = 22.716227 Si / 1000 Ang^3
#
#
#
# Elastic Constant Matrix: (Units=GPa)
#
#
# Indices 1 2 3 4 5 6 
#
# 1 102.3845 51.0920 21.0562 0.0000 24.8321 0.0000
# 2 51.0920 161.0112 45.2381 0.0000 6.7382 0.0000
# 3 21.0562 45.2381 78.9156 0.0000 12.5960 0.0000
# 4 0.0000 0.0000 0.0000 41.0580 0.0000 -10.5079
# 5 24.8321 6.7382 12.5960 0.0000 29.4754 0.0000
# 6 0.0000 0.0000 0.0000 -10.5079 0.0000 27.6068
#
#
#
# Elastic Compliance Matrix: (Units=1/GPa)
#
#
# Indices 1 2 3 4 5 6 
#
# 1 0.014601 -0.004259 0.000379 0.000000 -0.011489 0.000000
# 2 -0.004259 0.008646 -0.004376 0.000000 0.003481 0.000000
# 3 0.000379 -0.004376 0.016066 0.000000 -0.006185 0.000000
# 4 0.000000 0.000000 0.000000 0.026984 0.000000 0.010271
# 5 -0.011489 0.003481 -0.006185 0.000000 0.045453 0.000000
# 6 0.000000 0.000000 0.000000 0.010271 0.000000 0.040132
#
#
# Mechanical properties :
#
#
# Convention : Reuss Voigt Hill
#
# Bulk Modulus (GPa) = 43.85420 64.12043 53.98732
# Shear Modulus (GPa) = 28.41010 34.62307 31.51658
#
# Velocity S-wave (km/s) = 3.54029 3.90828 3.72883
# Velocity P-wave (km/s) = 6.00489 6.97525 6.50818
#
# Compressibility (1/GPa) = 0.02280283
#
# Stress axis : x y z
#
# Youngs Moduli (GPa) = 68.48859 115.66225 62.24333
#
# Poissons Ratio (x) = 0.49260 -0.02362
# Poissons Ratio (y) = 0.29169 0.27235
# Poissons Ratio (z) = -0.02599 0.50608
#
# Static dielectric constant tensor:
#      x y z
#    x 1.872430 0.000000 -0.001810 
#    y 0.000000 1.849890 0.000000 
#    z -0.001810 0.000000 1.910320 
# 
# From -- ./inp_files/15510.got.cif
#   From: 2010.05.17/outbox.cif.g08.bks.cpg/sg9_8_cif.got.tgz:15510.got - 2010.06.03 20:04:27.
