data_PCOD9135584
_publ_section_title
;
Structure prediction by ZEFSAII (Michael W. Deem and Ramdas Pophale) SiO2 
 PCOD9135584
Probable space group: C C
;
_chemical_formula_sum "Si O2"
_cell_formula_units_Z 28
_cell_length_a 28.171484
_cell_length_b 7.498693
_cell_length_c 9.208990
_cell_angle_alpha 90.000000
_cell_angle_beta 141.044457
_cell_angle_gamma 90.000000
_cell_volume 1223.101899
_symmetry_space_group_name_H-M "C C"
_symmetry_group_IT_number 9
_symmetry_cell_setting 'monoclinic'
loop_
_space_group_symop_operation_xyz
x,y,z
x,-y,1/2+z
1/2+x,1/2+y,z
1/2+x,1/2-y,1/2+z
loop_
_atom_site_type_symbol
_atom_site_label
_atom_site_fract_x
_atom_site_fract_y
_atom_site_fract_z
Si Si1 0.827600 0.083505 0.860380
Si Si2 0.127546 0.904829 0.017378
Si Si3 0.185095 0.184633 0.361970
Si Si4 0.220205 0.430282 0.856823
Si Si5 0.856354 0.306360 0.369300
Si Si6 0.982340 0.733266 0.717515
Si Si7 0.444856 0.038826 0.346494
O O1 0.778507 0.015404 0.879022
O O2 0.769389 0.155849 0.602807
O O3 0.864751 0.905729 0.881724
O O4 0.896399 0.214444 0.051532
O O5 0.169264 0.721883 0.165944
O O6 0.171431 0.074362 0.183703
O O7 0.130088 0.898206 0.850506
O O8 0.042771 0.889337 0.875386
O O9 0.177454 0.396297 0.318295
O O10 0.268843 0.156931 0.627009
O O11 0.904124 0.405114 0.361005
O O12 0.884961 0.367977 0.595709
O O13 0.983291 0.672906 0.551514
O O14 0.999181 0.571188 0.867913
#
# Coordination Sequence:
#
# PCOD9135584 Si02
#       7
#     4   4   4   4   4   4   4
#     4  11  23  42  69  98 133 181 238 295 348 420
#     4  12  28  46  69 105 146 191 236 293 369 430
#     4  11  26  43  71 104 137 186 235 297 354 425
#     4  11  24  46  70 101 140 183 243 299 352 418
#     4  10  20  41  68 101 130 172 238 294 347 409
#     4  11  26  44  66 103 139 188 227 294 365 429
#     4  10  23  40  69  96 137 173 227 294 351 421
#
# _framework density 22.892613999999998
#
# number of rings (size 3 to 8) (size 9 to 14) (size 15 to 20)
#    0.000    1.143    2.857    3.429    8.000    3.429 
#    2.571    0.000    0.000    0.000    0.000    0.000 
#    0.000    0.000    0.000    0.000    0.000    0.000 
#
# Total GULP energy -78304.270414 kJ/mol
# GULP energy per Si atom -5593.162172 kJ/mol
# Density = 2.284051 g / cm^3
# Si number density = 22.892614 Si / 1000 Ang^3
#
#
#
# Elastic Constant Matrix: (Units=GPa)
#
#
# Indices 1 2 3 4 5 6 
#
# 1 40.6388 -9.6596 36.4408 0.0000 -5.5608 0.0000
# 2 -9.6596 51.0984 18.3145 0.0000 -6.0021 0.0000
# 3 36.4408 18.3145 64.8594 0.0000 -19.6959 0.0000
# 4 0.0000 0.0000 0.0000 36.9498 0.0000 -2.9356
# 5 -5.5608 -6.0021 -19.6959 0.0000 28.2122 0.0000
# 6 0.0000 0.0000 0.0000 -2.9356 0.0000 32.5918
#
#
#
# Elastic Compliance Matrix: (Units=1/GPa)
#
#
# Indices 1 2 3 4 5 6 
#
# 1 0.097761 0.042241 -0.073951 0.000000 -0.023372 0.000000
# 2 0.042241 0.040029 -0.037971 0.000000 -0.009667 0.000000
# 3 -0.073951 -0.037971 0.077170 0.000000 0.031220 0.000000
# 4 0.000000 0.000000 0.000000 0.027259 0.000000 0.002455
# 5 -0.023372 -0.009667 0.031220 0.000000 0.050578 0.000000
# 6 0.000000 0.000000 0.000000 0.002455 0.000000 0.030904
#
#
# Mechanical properties :
#
#
# Convention : Reuss Voigt Hill
#
# Bulk Modulus (GPa) = 13.22818 27.42089 20.32454
# Shear Modulus (GPa) = 10.24036 26.98415 18.61226
#
# Velocity S-wave (km/s) = 2.11729 3.43698 2.85445
# Velocity P-wave (km/s) = 3.43047 5.26826 4.44537
#
# Compressibility (1/GPa) = 0.07559621
#
# Stress axis : x y z
#
# Youngs Moduli (GPa) = 10.22899 24.98169 12.95845
#
# Poissons Ratio (x) = -1.05525 0.95830
# Poissons Ratio (y) = -0.43208 0.49205
# Poissons Ratio (z) = 0.75645 0.94859
#
# Static dielectric constant tensor:
#      x y z
#    x 1.876290 0.000000 -0.004790 
#    y 0.000000 1.903910 0.000000 
#    z -0.004790 0.000000 1.838530 
# 
# From -- ./inp_files/10433.got.cif
#   From: 2010.05.17/outbox.cif.g08.bks.cpg/sg9_6_cif.got.tgz:10433.got - 2010.06.03 20:04:27.
