data_PCOD9135471
_publ_section_title
;
Structure prediction by ZEFSAII (Michael W. Deem and Ramdas Pophale) SiO2 
 PCOD9135471
Probable space group: C C
;
_chemical_formula_sum "Si O2"
_cell_formula_units_Z 28
_cell_length_a 5.324333
_cell_length_b 13.603166
_cell_length_c 14.548123
_cell_angle_alpha 90.000000
_cell_angle_beta 86.984643
_cell_angle_gamma 90.000000
_cell_volume 1052.229472
_symmetry_space_group_name_H-M "C C"
_symmetry_group_IT_number 9
_symmetry_cell_setting 'monoclinic'
loop_
_space_group_symop_operation_xyz
x,y,z
x,-y,1/2+z
1/2+x,1/2+y,z
1/2+x,1/2-y,1/2+z
loop_
_atom_site_type_symbol
_atom_site_label
_atom_site_fract_x
_atom_site_fract_y
_atom_site_fract_z
Si Si1 0.479120 0.697191 0.008220
Si Si2 0.997514 0.707564 0.909837
Si Si3 0.321955 0.420823 0.130287
Si Si4 0.155704 0.777960 0.704972
Si Si5 0.804452 0.498905 0.204739
Si Si6 0.080914 0.003671 0.892127
Si Si7 0.081309 0.528782 0.439213
O O1 0.478073 0.706333 0.118267
O O2 0.732106 0.740538 0.957392
O O3 0.504997 0.585285 0.968622
O O4 0.227534 0.739279 0.969983
O O5 0.041192 0.740557 0.803833
O O6 0.018871 0.588336 0.926198
O O7 0.601387 0.466085 0.131592
O O8 0.334825 0.309097 0.164895
O O9 0.094398 0.469007 0.194166
O O10 0.184187 0.437592 0.035366
O O11 0.285941 0.883551 0.713776
O O12 0.676529 0.449420 0.296074
O O13 0.821981 0.949329 0.872113
O O14 0.305895 0.934361 0.919826
#
# Coordination Sequence:
#
# PCOD9135471 Si02
#       7
#     4   4   4   4   4   4   4
#     4  10  22  42  66 101 146 185 238 303 359 432
#     4  10  22  42  66 101 146 185 238 303 359 432
#     4  12  26  46  72 105 146 189 242 307 369 436
#     4  12  28  46  80 114 144 198 256 302 372 450
#     4  12  26  46  72 105 146 189 242 307 369 436
#     4  10  20  40  66  94 138 188 230 290 362 424
#     4  10  20  40  66  94 138 188 230 290 362 424
#
# _framework density 26.610163
#
# number of rings (size 3 to 8) (size 9 to 14) (size 15 to 20)
#    0.000    1.143    0.000    8.571    0.000    6.857 
#    0.000    0.000    0.000    0.000    0.000    0.000 
#    0.000    0.000    0.000    0.000    0.000    0.000 
#
# Total GULP energy -78208.919730 kJ/mol
# GULP energy per Si atom -5586.351409 kJ/mol
# Density = 2.654960 g / cm^3
# Si number density = 26.610163 Si / 1000 Ang^3
#
#
#
# Elastic Constant Matrix: (Units=GPa)
#
#
# Indices 1 2 3 4 5 6 
#
# 1 169.7980 -2.6127 13.1411 0.0000 15.6355 0.0000
# 2 -2.6127 152.2749 -1.4534 0.0000 8.3809 0.0000
# 3 13.1411 -1.4534 153.3111 0.0000 22.2132 0.0000
# 4 0.0000 0.0000 0.0000 38.5068 0.0000 -1.0064
# 5 15.6355 8.3809 22.2132 0.0000 41.1814 0.0000
# 6 0.0000 0.0000 0.0000 -1.0064 0.0000 -13.6869
#
#
#
# Elastic Compliance Matrix: (Units=1/GPa)
#
#
# Indices 1 2 3 4 5 6 
#
# 1 0.006116 0.000228 -0.000194 0.000000 -0.002264 0.000000
# 2 0.000228 0.006661 0.000274 0.000000 -0.001590 0.000000
# 3 -0.000194 0.000274 0.007094 0.000000 -0.003808 0.000000
# 4 0.000000 0.000000 0.000000 0.025920 0.000000 -0.001906
# 5 -0.002264 -0.001590 -0.003808 0.000000 0.027520 0.000000
# 6 0.000000 0.000000 0.000000 -0.001906 0.000000 -0.072922
#
#
# Mechanical properties :
#
#
# Convention : Reuss Voigt Hill
#
# Bulk Modulus (GPa) = 48.81308 54.83711 51.82509
# Shear Modulus (GPa) = 757.32168 44.28752 400.80460
#
# Velocity S-wave (km/s) = 16.88835 4.08402 12.28608
# Velocity P-wave (km/s) = 19.96678 6.54914 14.85873
#
# Compressibility (1/GPa) = 0.02048631
#
# Stress axis : x y z
#
# Youngs Moduli (GPa) = 163.49651 150.12550 140.96977
#
# Poissons Ratio (x) = -0.03418 0.02736
# Poissons Ratio (y) = -0.03723 -0.03862
# Poissons Ratio (z) = 0.03173 -0.04113
#
# Static dielectric constant tensor:
#      x y z
#    x 2.240870 0.000000 0.006010 
#    y 0.000000 2.200410 0.000000 
#    z 0.006010 0.000000 2.141390 
# 
# From -- ./inp_files/21748.got.cif
#   From: 2010.05.17/outbox.cif.g08.bks.cpg/sg9_11_cif.got.tgz:21748.got - 2010.06.03 20:04:27.
