data_PCOD9135424
_publ_section_title
;
Structure prediction by ZEFSAII (Michael W. Deem and Ramdas Pophale) SiO2 
 PCOD9135424
Probable space group: C C
;
_chemical_formula_sum "Si O2"
_cell_formula_units_Z 28
_cell_length_a 10.600824
_cell_length_b 9.792577
_cell_length_c 15.401446
_cell_angle_alpha 90.000000
_cell_angle_beta 125.864555
_cell_angle_gamma 90.000000
_cell_volume 1295.686155
_symmetry_space_group_name_H-M "C C"
_symmetry_group_IT_number 9
_symmetry_cell_setting 'monoclinic'
loop_
_space_group_symop_operation_xyz
x,y,z
x,-y,1/2+z
1/2+x,1/2+y,z
1/2+x,1/2-y,1/2+z
loop_
_atom_site_type_symbol
_atom_site_label
_atom_site_fract_x
_atom_site_fract_y
_atom_site_fract_z
Si Si1 0.574900 0.859879 0.731840
Si Si2 0.355803 0.909966 0.202513
Si Si3 0.461060 0.141492 0.938505
Si Si4 0.375372 0.620794 0.591323
Si Si5 0.654917 0.686771 0.927807
Si Si6 0.780076 0.102311 0.165107
Si Si7 0.524150 0.544436 0.489119
O O1 0.510024 0.734769 0.647666
O O2 0.582575 0.789000 0.828227
O O3 0.732240 0.901088 0.746611
O O4 0.468656 0.992227 0.694116
O O5 0.409274 0.916263 0.324460
O O6 0.353417 0.750112 0.176297
O O7 0.182852 0.961700 0.110498
O O8 0.309150 0.129231 0.939742
O O9 0.505523 0.302021 0.945355
O O10 0.617870 0.082617 0.045476
O O11 0.222517 0.714317 0.529896
O O12 0.387359 0.518960 0.675535
O O13 0.388190 0.536238 0.506750
O O14 0.548286 0.571168 0.926897
#
# Coordination Sequence:
#
# PCOD9135424 Si02
#       7
#     4   4   4   4   4   4   4
#     4  12  23  41  65  92 127 170 205 268 319 372
#     4  11  21  42  64  91 129 164 211 257 319 372
#     4  10  20  40  62  91 124 167 204 261 312 373
#     4  11  23  40  65  91 126 167 212 259 314 379
#     4  11  21  40  67  91 128 168 210 261 320 375
#     4  11  23  41  64  92 127 165 210 261 313 376
#     4  10  21  40  65  92 127 169 210 263 317 373
#
# _framework density 21.610171999999999
#
# number of rings (size 3 to 8) (size 9 to 14) (size 15 to 20)
#    0.000    1.143    7.143    0.857    2.000    1.143 
#    0.000    2.857    0.000    0.000    0.000    0.000 
#    0.000    0.000    0.000    0.000    0.000    0.000 
#
# Total GULP energy -78121.450335 kJ/mol
# GULP energy per Si atom -5580.103595 kJ/mol
# Density = 2.156099 g / cm^3
# Si number density = 21.610172 Si / 1000 Ang^3
#
#
#
# Elastic Constant Matrix: (Units=GPa)
#
#
# Indices 1 2 3 4 5 6 
#
# 1 78.2431 67.0669 2.2756 0.0000 -14.6835 0.0000
# 2 67.0669 101.7962 7.8674 0.0000 -30.2544 0.0000
# 3 2.2756 7.8674 80.7647 0.0000 -5.6007 0.0000
# 4 0.0000 0.0000 0.0000 38.0574 0.0000 -6.0064
# 5 -14.6835 -30.2544 -5.6007 0.0000 28.9015 0.0000
# 6 0.0000 0.0000 0.0000 -6.0064 0.0000 43.7649
#
#
#
# Elastic Compliance Matrix: (Units=1/GPa)
#
#
# Indices 1 2 3 4 5 6 
#
# 1 0.030656 -0.022622 0.000788 0.000000 -0.007953 0.000000
# 2 -0.022622 0.030963 -0.000941 0.000000 0.020738 0.000000
# 3 0.000788 -0.000941 0.012580 0.000000 0.001853 0.000000
# 4 0.000000 0.000000 0.000000 0.026858 0.000000 0.003686
# 5 -0.007953 0.020738 0.001853 0.000000 0.052627 0.000000
# 6 0.000000 0.000000 0.000000 0.003686 0.000000 0.023355
#
#
# Mechanical properties :
#
#
# Convention : Reuss Voigt Hill
#
# Bulk Modulus (GPa) = 34.90316 46.13597 40.51956
# Shear Modulus (GPa) = 21.53900 34.38437 27.96169
#
# Velocity S-wave (km/s) = 3.16049 3.99321 3.60100
# Velocity P-wave (km/s) = 5.43181 6.53120 6.00671
#
# Compressibility (1/GPa) = 0.02865070
#
# Stress axis : x y z
#
# Youngs Moduli (GPa) = 32.62054 32.29616 79.49374
#
# Poissons Ratio (x) = 0.73059 -0.06267
# Poissons Ratio (y) = 0.73793 0.07478
# Poissons Ratio (z) = -0.02572 0.03038
#
# Static dielectric constant tensor:
#      x y z
#    x 1.781240 0.000000 0.024230 
#    y 0.000000 1.749540 0.000000 
#    z 0.024230 0.000000 1.916500 
# 
# From -- ./inp_files/24031.got.cif
#   From: 2010.05.17/outbox.cif.g08.bks.cpg/sg9_13_cif.got.tgz:24031.got - 2010.06.03 20:04:27.
