data_PCOD9135888
_publ_section_title
;
Structure prediction by ZEFSAII (Michael W. Deem and Ramdas Pophale) SiO2 
 PCOD9135888
Probable space group: C C
;
_chemical_formula_sum "Si O2"
_cell_formula_units_Z 32
_cell_length_a 11.879349
_cell_length_b 13.178780
_cell_length_c 13.796623
_cell_angle_alpha 90.000000
_cell_angle_beta 136.669922
_cell_angle_gamma 90.000000
_cell_volume 1482.147947
_symmetry_space_group_name_H-M "C C"
_symmetry_group_IT_number 9
_symmetry_cell_setting 'monoclinic'
loop_
_space_group_symop_operation_xyz
x,y,z
x,-y,1/2+z
1/2+x,1/2+y,z
1/2+x,1/2-y,1/2+z
loop_
_atom_site_type_symbol
_atom_site_label
_atom_site_fract_x
_atom_site_fract_y
_atom_site_fract_z
Si Si1 0.159140 0.234037 0.306340
Si Si2 0.669595 0.177091 0.221592
Si Si3 0.862894 0.672575 0.256394
Si Si4 0.831434 0.360473 0.434539
Si Si5 0.285783 0.680794 0.072689
Si Si6 0.580121 0.366459 0.425186
Si Si7 0.239330 0.446637 0.259651
Si Si8 0.566827 0.001329 0.455492
O O1 0.288417 0.177154 0.318922
O O2 0.208695 0.239035 0.449736
O O3 0.167874 0.350791 0.272990
O O4 0.979751 0.187690 0.182509
O O5 0.751454 0.263163 0.335473
O O6 0.735418 0.195386 0.152927
O O7 0.707118 0.061107 0.273514
O O8 0.473460 0.181205 0.094055
O O9 0.708068 0.667977 0.088025
O O10 0.978330 0.770544 0.320457
O O11 0.978794 0.574864 0.325733
O O12 0.691072 0.414010 0.409864
O O13 0.926318 0.431241 0.417660
O O14 0.204356 0.572310 0.997741
O O15 0.435588 0.435450 0.375850
O O16 0.156956 0.441256 0.100755
#
# Coordination Sequence:
#
# PCOD9135888 Si02
#       8
#     4   4   4   4   4   4   4   4
#     4  11  20  38  63  88 116 156 197 241 298 352
#     4  10  22  42  59  87 124 154 196 250 291 350
#     4  11  23  40  60  89 124 152 197 250 292 350
#     4  10  22  40  61  85 118 159 197 238 298 353
#     4  10  21  36  61  88 117 156 195 239 297 348
#     4  11  22  40  64  89 115 159 199 244 299 349
#     4   9  21  40  60  88 121 151 198 251 291 345
#     4  10  23  40  56  86 125 155 195 247 290 351
#
# _framework density 21.590287
#
# number of rings (size 3 to 8) (size 9 to 14) (size 15 to 20)
#    0.000    2.000    0.000    6.000    0.000    6.000 
#    0.000   10.000    0.000    0.000    0.000    0.000 
#    0.000    0.000    0.000    0.000    0.000    0.000 
#
# Total GULP energy -89387.843507 kJ/mol
# GULP energy per Si atom -5586.740219 kJ/mol
# Density = 2.154115 g / cm^3
# Si number density = 21.590287 Si / 1000 Ang^3
#
#
#
# Elastic Constant Matrix: (Units=GPa)
#
#
# Indices 1 2 3 4 5 6 
#
# 1 108.5662 22.9356 19.9630 0.0000 19.8584 0.0000
# 2 22.9356 37.4093 28.7649 0.0000 -7.2422 0.0000
# 3 19.9630 28.7649 95.2113 0.0000 17.3761 0.0000
# 4 0.0000 0.0000 0.0000 35.8548 0.0000 5.3319
# 5 19.8584 -7.2422 17.3761 0.0000 19.5937 0.0000
# 6 0.0000 0.0000 0.0000 5.3319 0.0000 18.0185
#
#
#
# Elastic Compliance Matrix: (Units=1/GPa)
#
#
# Indices 1 2 3 4 5 6 
#
# 1 0.022787 -0.034670 0.014616 0.000000 -0.048871 0.000000
# 2 -0.034670 0.104788 -0.045183 0.000000 0.113939 0.000000
# 3 0.014616 -0.045183 0.032023 0.000000 -0.059912 0.000000
# 4 0.000000 0.000000 0.000000 0.029174 0.000000 -0.008633
# 5 -0.048871 0.113939 -0.059912 0.000000 0.195814 0.000000
# 6 0.000000 0.000000 0.000000 -0.008633 0.000000 0.058053
#
#
# Mechanical properties :
#
#
# Convention : Reuss Voigt Hill
#
# Bulk Modulus (GPa) = 34.33698 42.72374 38.53036
# Shear Modulus (GPa) = 8.57895 25.99494 17.28695
#
# Velocity S-wave (km/s) = 1.99553 3.47365 2.83270
# Velocity P-wave (km/s) = 4.60955 5.99330 5.34638
#
# Compressibility (1/GPa) = 0.02912312
#
# Stress axis : x y z
#
# Youngs Moduli (GPa) = 43.88432 9.54309 31.22761
#
# Poissons Ratio (x) = 0.33086 -0.45642
# Poissons Ratio (y) = 1.52149 1.41095
# Poissons Ratio (z) = -0.64140 0.43118
#
# Static dielectric constant tensor:
#      x y z
#    x 1.827130 0.000000 -0.039190 
#    y 0.000000 1.768850 0.000000 
#    z -0.039190 0.000000 1.768920 
# 
# From -- ./inp_files/24851.got.cif
#   From: 2010.05.17/outbox.cif.g08.bks.cpg/sg9_13_cif.got.tgz:24851.got - 2010.06.03 20:04:27.
