data_PCOD9135147
_publ_section_title
;
Structure prediction by ZEFSAII (Michael W. Deem and Ramdas Pophale) SiO2 
 PCOD9135147
Probable space group: C C
;
_chemical_formula_sum "Si O2"
_cell_formula_units_Z 20
_cell_length_a 12.501607
_cell_length_b 8.328600
_cell_length_c 18.248826
_cell_angle_alpha 90.000000
_cell_angle_beta 27.219248
_cell_angle_gamma 90.000000
_cell_volume 869.092090
_symmetry_space_group_name_H-M "C C"
_symmetry_group_IT_number 9
_symmetry_cell_setting 'monoclinic'
loop_
_space_group_symop_operation_xyz
x,y,z
x,-y,1/2+z
1/2+x,1/2+y,z
1/2+x,1/2-y,1/2+z
loop_
_atom_site_type_symbol
_atom_site_label
_atom_site_fract_x
_atom_site_fract_y
_atom_site_fract_z
Si Si1 0.228110 0.427908 0.447680
Si Si2 0.164319 0.762278 0.238914
Si Si3 0.645031 0.225999 0.417738
Si Si4 0.876319 0.964928 0.077937
Si Si5 0.753308 0.275980 0.781551
O O1 0.426063 0.355095 0.378853
O O2 0.272676 0.611947 0.396821
O O3 0.256187 0.324693 0.355398
O O4 0.974463 0.395099 0.637377
O O5 0.232823 0.729957 0.281570
O O6 0.168169 0.592647 0.193558
O O7 0.384595 0.855012 0.070448
O O8 0.582515 0.408932 0.477385
O O9 0.788953 0.845982 0.193269
O O10 0.004538 0.866922 0.936208
#
# Coordination Sequence:
#
# PCOD9135147 Si02
#       5
#     4   4   4   4   4
#     4  11  20  37  67  93 134 187 226 277 363 403
#     4  10  21  37  64  99 135 179 226 288 353 405
#     4  10  20  39  64  96 134 181 225 291 336 419
#     4   9  21  38  66  95 137 181 228 279 355 401
#     4  10  20  37  65  93 130 188 221 285 343 412
#
# _framework density 23.012519999999999
#
# number of rings (size 3 to 8) (size 9 to 14) (size 15 to 20)
#    1.200    0.800    2.000    2.400    0.000    0.000 
#    0.000    0.000   26.400    2.400    0.000    0.000 
#    0.000    0.000    0.000    0.000    0.000    0.000 
#
# Total GULP energy -55700.483782 kJ/mol
# GULP energy per Si atom -5570.048378 kJ/mol
# Density = 2.296014 g / cm^3
# Si number density = 23.012520 Si / 1000 Ang^3
#
#
#
# Elastic Constant Matrix: (Units=GPa)
#
#
# Indices 1 2 3 4 5 6 
#
# 1 43.4434 31.5817 24.1163 0.0007 18.9220 -0.0004
# 2 31.5817 119.3778 31.4107 -0.0062 13.8659 0.0006
# 3 24.1163 31.4107 110.2225 -0.0141 41.6867 0.0046
# 4 0.0007 -0.0062 -0.0141 43.9640 0.0030 9.7014
# 5 18.9220 13.8659 41.6867 0.0030 29.0342 -0.0008
# 6 -0.0004 0.0006 0.0046 9.7014 -0.0008 28.8306
#
#
#
# Elastic Compliance Matrix: (Units=1/GPa)
#
#
# Indices 1 2 3 4 5 6 
#
# 1 0.038429 -0.008110 0.004180 0.000002 -0.027173 -0.000001
# 2 -0.008110 0.010792 -0.002956 0.000000 0.004375 0.000000
# 3 0.004180 -0.002956 0.020781 0.000010 -0.031150 -0.000007
# 4 0.000002 0.000000 0.000010 0.024570 -0.000018 -0.008268
# 5 -0.027173 0.004375 -0.031150 -0.000018 0.094787 0.000013
# 6 -0.000001 0.000000 -0.000007 -0.008268 0.000013 0.037467
#
#
# Mechanical properties :
#
#
# Convention : Reuss Voigt Hill
#
# Bulk Modulus (GPa) = 17.78380 49.69569 33.73975
# Shear Modulus (GPa) = 19.27954 32.76143 26.02048
#
# Velocity S-wave (km/s) = 2.89759 3.77720 3.36625
# Velocity P-wave (km/s) = 4.35194 6.37691 5.45914
#
# Compressibility (1/GPa) = 0.05623096
#
# Stress axis : x y z
#
# Youngs Moduli (GPa) = 26.02185 92.66266 48.11975
#
# Poissons Ratio (x) = 0.75151 -0.20115
# Poissons Ratio (y) = 0.21104 0.14223
# Poissons Ratio (z) = -0.10877 0.27389
#
# Static dielectric constant tensor:
#      x y z
#    x 1.890090 0.000000 -0.021310 
#    y 0.000000 1.924800 0.000000 
#    z -0.021310 0.000000 1.854900 
# 
# From -- ./inp_files/8668.got.cif
#   From: 2010.05.17/outbox.cif.g08.bks.cpg/sg9_5_cif.got.tgz:8668.got - 2010.06.03 20:04:27.
