data_PCOD9135673
_publ_section_title
;
Structure prediction by ZEFSAII (Michael W. Deem and Ramdas Pophale) SiO2 
 PCOD9135673
Probable space group: C C
;
_chemical_formula_sum "Si O2"
_cell_formula_units_Z 32
_cell_length_a 7.487717
_cell_length_b 13.191182
_cell_length_c 19.058647
_cell_angle_alpha 90.000000
_cell_angle_beta 136.140974
_cell_angle_gamma 90.000000
_cell_volume 1304.329191
_symmetry_space_group_name_H-M "C C"
_symmetry_group_IT_number 9
_symmetry_cell_setting 'monoclinic'
loop_
_space_group_symop_operation_xyz
x,y,z
x,-y,1/2+z
1/2+x,1/2+y,z
1/2+x,1/2-y,1/2+z
loop_
_atom_site_type_symbol
_atom_site_label
_atom_site_fract_x
_atom_site_fract_y
_atom_site_fract_z
Si Si1 0.398670 0.276916 0.635720
Si Si2 0.082002 0.781417 0.837627
Si Si3 0.344694 0.327110 0.182560
Si Si4 0.618575 0.127363 0.257052
Si Si5 0.831518 0.604958 0.853759
Si Si6 0.436331 0.066261 0.494018
Si Si7 0.507378 0.382720 0.989475
Si Si8 0.620255 0.509581 0.155231
O O1 0.518016 0.241981 0.743475
O O2 0.584413 0.222204 0.634224
O O3 0.120705 0.226507 0.546152
O O4 0.460593 0.393578 0.638125
O O5 0.880444 0.877128 0.786844
O O6 0.015243 0.696109 0.877375
O O7 0.355451 0.832991 0.927023
O O8 0.501853 0.233384 0.194299
O O9 0.549442 0.357273 0.299827
O O10 0.224093 0.418401 0.104694
O O11 0.385047 0.051162 0.192483
O O12 0.742467 0.128343 0.370789
O O13 0.927385 0.528615 0.939390
O O14 0.738852 0.551396 0.755030
O O15 0.221385 0.067202 0.496282
O O16 0.489145 0.449112 0.054076
#
# Coordination Sequence:
#
# PCOD9135673 Si02
#       8
#     4   4   4   4   4   4   4   4
#     4  10  20  42  68  95 134 181 223 285 352 410
#     4  10  20  42  68  95 134 181 223 285 352 410
#     4   9  22  44  63  92 140 177 225 277 353 418
#     4   9  22  44  63  92 140 177 225 277 353 418
#     4  11  22  42  68 100 130 180 235 287 342 423
#     4  10  22  43  66  97 139 178 232 287 348 417
#     4  10  22  43  66  97 139 178 232 287 348 417
#     4  11  22  42  68 100 130 180 235 287 342 423
#
# _framework density 24.533684999999998
#
# number of rings (size 3 to 8) (size 9 to 14) (size 15 to 20)
#    0.000    2.000    2.500    0.000    0.000    5.000 
#   22.500    0.000    0.000    0.000    0.000    0.000 
#    0.000    0.000    0.000    0.000    0.000    0.000 
#
# Total GULP energy -89196.629096 kJ/mol
# GULP energy per Si atom -5574.789319 kJ/mol
# Density = 2.447785 g / cm^3
# Si number density = 24.533685 Si / 1000 Ang^3
#
#
#
# Elastic Constant Matrix: (Units=GPa)
#
#
# Indices 1 2 3 4 5 6 
#
# 1 39.6601 16.3025 10.9911 0.0000 -9.0821 0.0000
# 2 16.3025 103.8126 40.0002 0.0000 -1.8031 0.0000
# 3 10.9911 40.0002 99.3474 0.0000 5.0251 0.0000
# 4 0.0000 0.0000 0.0000 52.6770 0.0000 -9.9224
# 5 -9.0821 -1.8031 5.0251 0.0000 44.6698 0.0000
# 6 0.0000 0.0000 0.0000 -9.9224 0.0000 29.6129
#
#
#
# Elastic Compliance Matrix: (Units=1/GPa)
#
#
# Indices 1 2 3 4 5 6 
#
# 1 0.028607 -0.003617 -0.002007 0.000000 0.005896 0.000000
# 2 -0.003617 0.011902 -0.004404 0.000000 0.000241 0.000000
# 3 -0.002007 -0.004404 0.012160 0.000000 -0.001954 0.000000
# 4 0.000000 0.000000 0.000000 0.020262 0.000000 0.006789
# 5 0.005896 0.000241 -0.001954 0.000000 0.023815 0.000000
# 6 0.000000 0.000000 0.000000 0.006789 0.000000 0.036044
#
#
# Mechanical properties :
#
#
# Convention : Reuss Voigt Hill
#
# Bulk Modulus (GPa) = 30.66220 41.93419 36.29819
# Shear Modulus (GPa) = 30.54055 37.09370 33.81712
#
# Velocity S-wave (km/s) = 3.53206 3.89260 3.71670
# Velocity P-wave (km/s) = 5.39991 6.11005 5.76592
#
# Compressibility (1/GPa) = 0.03261345
#
# Stress axis : x y z
#
# Youngs Moduli (GPa) = 34.95605 84.02077 82.23851
#
# Poissons Ratio (x) = 0.30388 0.16505
# Poissons Ratio (y) = 0.12643 0.36218
# Poissons Ratio (z) = 0.07015 0.37003
#
# Static dielectric constant tensor:
#      x y z
#    x 2.003690 0.000000 -0.012530 
#    y 0.000000 2.074650 0.000000 
#    z -0.012530 0.000000 1.993620 
# 
# From -- ./inp_files/32714.got.cif
#   From: 2010.05.17/outbox.cif.g08.bks.cpg/sg9_17_cif.got.tgz:32714.got - 2010.06.03 20:04:27.
