data_PCOD9135811
_publ_section_title
;
Structure prediction by ZEFSAII (Michael W. Deem and Ramdas Pophale) SiO2 
 PCOD9135811
Probable space group: C C
;
_chemical_formula_sum "Si O2"
_cell_formula_units_Z 32
_cell_length_a 5.067262
_cell_length_b 22.028470
_cell_length_c 11.585801
_cell_angle_alpha 90.000000
_cell_angle_beta 90.496097
_cell_angle_gamma 90.000000
_cell_volume 1293.205309
_symmetry_space_group_name_H-M "C C"
_symmetry_group_IT_number 9
_symmetry_cell_setting 'monoclinic'
loop_
_space_group_symop_operation_xyz
x,y,z
x,-y,1/2+z
1/2+x,1/2+y,z
1/2+x,1/2-y,1/2+z
loop_
_atom_site_type_symbol
_atom_site_label
_atom_site_fract_x
_atom_site_fract_y
_atom_site_fract_z
Si Si1 0.817240 0.156334 0.270000
Si Si2 0.193620 0.029398 0.509991
Si Si3 0.743473 0.668055 0.971848
Si Si4 0.027793 0.562529 0.118795
Si Si5 0.673403 0.890448 0.006550
Si Si6 0.324305 0.773782 0.689156
Si Si7 0.380684 0.431185 0.412024
Si Si8 0.101337 0.350451 0.253637
O O1 0.715389 0.091166 0.217831
O O2 0.761585 0.153497 0.404723
O O3 0.621044 0.205123 0.212651
O O4 0.112679 0.178233 0.242814
O O5 0.432178 0.068688 0.460288
O O6 0.943864 0.072517 0.535191
O O7 0.310496 0.991167 0.620661
O O8 0.118022 0.978475 0.413018
O O9 0.462190 0.636533 0.954553
O O10 0.881114 0.665615 0.848146
O O11 0.758183 0.726707 0.051834
O O12 0.884626 0.619633 0.057730
O O13 0.215392 0.541821 0.015762
O O14 0.541402 0.861869 0.119993
O O15 0.283826 0.708890 0.747048
O O16 0.228456 0.414133 0.296955
#
# Coordination Sequence:
#
# PCOD9135811 Si02
#       8
#     4   4   4   4   4   4   4   4
#     4  11  25  47  70 101 143 186 237 294 357 424
#     4  11  24  45  70 101 146 192 231 288 369 415
#     4   9  21  43  72 101 136 185 243 290 351 425
#     4   9  19  43  72 100 130 185 245 281 335 437
#     4  12  28  45  64 111 151 180 231 303 357 427
#     4  11  25  46  74 102 135 195 238 298 356 416
#     4  10  20  45  70 102 137 187 242 284 348 437
#     4  11  28  42  72 108 148 184 243 302 353 431
#
# _framework density 24.744716
#
# number of rings (size 3 to 8) (size 9 to 14) (size 15 to 20)
#    0.000    1.500    2.500    0.750    5.250    2.000 
#    0.000    0.000    0.000    0.000    0.000    0.000 
#    0.000    0.000    0.000    0.000    0.000    0.000 
#
# Total GULP energy -89256.848893 kJ/mol
# GULP energy per Si atom -5578.553056 kJ/mol
# Density = 2.468840 g / cm^3
# Si number density = 24.744716 Si / 1000 Ang^3
#
#
#
# Elastic Constant Matrix: (Units=GPa)
#
#
# Indices 1 2 3 4 5 6 
#
# 1 79.0413 9.3081 9.0975 0.0000 -13.6689 0.0000
# 2 9.3081 45.6954 21.6662 0.0000 -8.5068 0.0000
# 3 9.0975 21.6662 125.7734 0.0000 -20.6131 0.0000
# 4 0.0000 0.0000 0.0000 10.5338 0.0000 -2.0991
# 5 -13.6689 -8.5068 -20.6131 0.0000 26.2400 0.0000
# 6 0.0000 0.0000 0.0000 -2.0991 0.0000 15.1817
#
#
#
# Elastic Compliance Matrix: (Units=1/GPa)
#
#
# Indices 1 2 3 4 5 6 
#
# 1 0.014033 -0.001751 0.000449 0.000000 0.007096 0.000000
# 2 -0.001751 0.024675 -0.003400 0.000000 0.004416 0.000000
# 3 0.000449 -0.003400 0.009597 0.000000 0.006671 0.000000
# 4 0.000000 0.000000 0.000000 0.097622 0.000000 0.013497
# 5 0.007096 0.004416 0.006671 0.000000 0.048478 0.000000
# 6 0.000000 0.000000 0.000000 0.013497 0.000000 0.067735
#
#
# Mechanical properties :
#
#
# Convention : Reuss Voigt Hill
#
# Bulk Modulus (GPa) = 25.70519 36.73930 31.22225
# Shear Modulus (GPa) = 17.57399 24.42031 20.99715
#
# Velocity S-wave (km/s) = 2.66787 3.14489 2.91615
# Velocity P-wave (km/s) = 4.46103 5.29780 4.89732
#
# Compressibility (1/GPa) = 0.03890265
#
# Stress axis : x y z
#
# Youngs Moduli (GPa) = 71.25997 40.52691 104.19528
#
# Poissons Ratio (x) = 0.07095 -0.04683
# Poissons Ratio (y) = 0.12475 0.35428
# Poissons Ratio (z) = -0.03203 0.13780
#
# Static dielectric constant tensor:
#      x y z
#    x 2.012570 0.000000 0.052330 
#    y 0.000000 2.072320 0.000000 
#    z 0.052330 0.000000 2.018310 
# 
# From -- ./inp_files/13639.got.cif
#   From: 2010.05.17/outbox.cif.g08.bks.cpg/sg9_7_cif.got.tgz:13639.got - 2010.06.03 20:04:27.
