data_PCOD9135889
_publ_section_title
;
Structure prediction by ZEFSAII (Michael W. Deem and Ramdas Pophale) SiO2 
 PCOD9135889
Probable space group: C C
;
_chemical_formula_sum "Si O2"
_cell_formula_units_Z 32
_cell_length_a 12.124191
_cell_length_b 14.093992
_cell_length_c 14.482303
_cell_angle_alpha 90.000000
_cell_angle_beta 136.534564
_cell_angle_gamma 90.000000
_cell_volume 1702.395161
_symmetry_space_group_name_H-M "C C"
_symmetry_group_IT_number 9
_symmetry_cell_setting 'monoclinic'
loop_
_space_group_symop_operation_xyz
x,y,z
x,-y,1/2+z
1/2+x,1/2+y,z
1/2+x,1/2-y,1/2+z
loop_
_atom_site_type_symbol
_atom_site_label
_atom_site_fract_x
_atom_site_fract_y
_atom_site_fract_z
Si Si1 0.558550 0.254700 0.822190
Si Si2 0.994410 0.037531 0.513449
Si Si3 0.600625 0.956153 0.573690
Si Si4 0.788193 0.803690 0.806071
Si Si5 0.235768 0.901155 0.307848
Si Si6 0.242772 0.575095 0.971133
Si Si7 0.642424 0.465397 0.909519
Si Si8 0.501824 0.916495 0.171894
O O1 0.414362 0.260178 0.808219
O O2 0.701390 0.187879 0.949495
O O3 0.603806 0.363908 0.839121
O O4 0.510577 0.195027 0.702341
O O5 0.883507 0.131126 0.436440
O O6 0.156688 0.065724 0.664205
O O7 0.901985 0.957568 0.515607
O O8 0.144928 0.045110 0.834392
O O9 0.665539 0.870812 0.676999
O O10 0.423128 0.929412 0.429382
O O11 0.719513 0.964505 0.559282
O O12 0.585289 0.048687 0.628683
O O13 0.713254 0.710908 0.804701
O O14 0.029211 0.013678 0.427737
O O15 0.099469 0.538915 0.816947
O O16 0.821756 0.452552 0.057563
#
# Coordination Sequence:
#
# PCOD9135889 Si02
#       8
#     4   4   4   4   4   4   4   4
#     4   9  20  34  61  91 112 151 204 247 288 349
#     4  11  23  38  61  90 120 157 201 247 296 356
#     4  11  21  38  62  90 119 158 196 250 305 347
#     4  11  20  38  65  89 115 153 208 250 289 352
#     4  11  23  36  61  91 122 152 200 249 299 348
#     4  10  21  36  62  89 119 152 202 248 295 352
#     4  10  22  37  60  88 122 155 196 248 300 351
#     4   9  20  37  56  90 123 150 195 253 298 347
#
# _framework density 18.797045000000001
#
# number of rings (size 3 to 8) (size 9 to 14) (size 15 to 20)
#    0.750    1.000    2.500    2.250    7.000    0.000 
#    0.000    0.000    8.250    0.000    0.000    0.000 
#    0.000    0.000    0.000    0.000    0.000    0.000 
#
# Total GULP energy -89205.978700 kJ/mol
# GULP energy per Si atom -5575.373669 kJ/mol
# Density = 1.875426 g / cm^3
# Si number density = 18.797045 Si / 1000 Ang^3
#
#
#
# Elastic Constant Matrix: (Units=GPa)
#
#
# Indices 1 2 3 4 5 6 
#
# 1 87.2564 62.1145 10.1752 0.0000 -11.4811 0.0000
# 2 62.1145 96.3954 36.7753 0.0000 -3.6576 0.0000
# 3 10.1752 36.7753 79.1141 0.0000 -10.0353 0.0000
# 4 0.0000 0.0000 0.0000 23.7855 0.0000 -0.2670
# 5 -11.4811 -3.6576 -10.0353 0.0000 22.2268 0.0000
# 6 0.0000 0.0000 0.0000 -0.2670 0.0000 30.5709
#
#
#
# Elastic Compliance Matrix: (Units=1/GPa)
#
#
# Indices 1 2 3 4 5 6 
#
# 1 0.025821 -0.018856 0.007152 0.000000 0.013464 0.000000
# 2 -0.018856 0.026387 -0.011165 0.000000 -0.010438 0.000000
# 3 0.007152 -0.011165 0.018187 0.000000 0.010068 0.000000
# 4 0.000000 0.000000 0.000000 0.042047 0.000000 0.000367
# 5 0.013464 -0.010438 0.010068 0.000000 0.054773 0.000000
# 6 0.000000 0.000000 0.000000 0.000367 0.000000 0.032714
#
#
# Mechanical properties :
#
#
# Convention : Reuss Voigt Hill
#
# Bulk Modulus (GPa) = 40.55536 53.43289 46.99412
# Shear Modulus (GPa) = 19.69386 25.56334 22.62860
#
# Velocity S-wave (km/s) = 3.24035 3.69177 3.47340
# Velocity P-wave (km/s) = 5.96842 6.83083 6.41413
#
# Compressibility (1/GPa) = 0.02465765
#
# Stress axis : x y z
#
# Youngs Moduli (GPa) = 38.72867 37.89688 54.98384
#
# Poissons Ratio (x) = 0.71457 -0.39323
# Poissons Ratio (y) = 0.73026 0.61389
# Poissons Ratio (z) = -0.27698 0.42311
#
# Static dielectric constant tensor:
#      x y z
#    x 1.650250 0.000000 0.020230 
#    y 0.000000 1.657130 0.000000 
#    z 0.020230 0.000000 1.700260 
# 
# From -- ./inp_files/30729.got.cif
#   From: 2010.05.17/outbox.cif.g08.bks.cpg/sg9_16_cif.got.tgz:30729.got - 2010.06.03 20:04:27.
