data_PCOD9135659
_publ_section_title
;
Structure prediction by ZEFSAII (Michael W. Deem and Ramdas Pophale) SiO2 
 PCOD9135659
Probable space group: C C
;
_chemical_formula_sum "Si O2"
_cell_formula_units_Z 32
_cell_length_a 12.050533
_cell_length_b 16.476059
_cell_length_c 8.022009
_cell_angle_alpha 90.000000
_cell_angle_beta 121.321192
_cell_angle_gamma 90.000000
_cell_volume 1360.617884
_symmetry_space_group_name_H-M "C C"
_symmetry_group_IT_number 9
_symmetry_cell_setting 'monoclinic'
loop_
_space_group_symop_operation_xyz
x,y,z
x,-y,1/2+z
1/2+x,1/2+y,z
1/2+x,1/2-y,1/2+z
loop_
_atom_site_type_symbol
_atom_site_label
_atom_site_fract_x
_atom_site_fract_y
_atom_site_fract_z
Si Si1 0.180360 0.614352 0.112990
Si Si2 0.574173 0.967308 0.200497
Si Si3 0.621246 0.683692 0.327703
Si Si4 0.943251 0.282765 0.569793
Si Si5 0.897586 0.581395 0.270192
Si Si6 0.860884 0.745580 0.665602
Si Si7 0.607431 0.556989 0.037737
Si Si8 0.042284 0.894149 0.113633
O O1 0.182800 0.531090 0.220484
O O2 0.084240 0.677104 0.135554
O O3 0.309697 0.663856 0.170896
O O4 0.121877 0.584865 0.891922
O O5 0.459251 0.025166 0.175894
O O6 0.505855 0.918842 0.998636
O O7 0.768639 0.713689 0.448966
O O8 0.511866 0.752162 0.243635
O O9 0.580649 0.630360 0.140960
O O10 0.611751 0.640350 0.500733
O O11 0.955775 0.185326 0.594490
O O12 0.885258 0.329569 0.680936
O O13 0.855892 0.300562 0.338623
O O14 0.759198 0.541255 0.202743
O O15 0.512248 0.483639 0.014553
O O16 0.602362 0.581271 0.840052
#
# Coordination Sequence:
#
# PCOD9135659 Si02
#       8
#     4   4   4   4   4   4   4   4
#     4  10  20  42  67  93 134 175 224 282 339 412
#     4   9  21  38  64 103 130 175 228 282 344 408
#     4  11  26  45  73 100 139 183 233 287 350 420
#     4  10  23  42  70  95 139 180 229 284 353 413
#     4  10  21  38  67 103 136 179 232 289 342 416
#     4  11  22  45  69  97 133 186 222 285 346 410
#     4  12  24  40  69 102 142 183 235 288 347 420
#     4  11  23  44  63 101 141 183 227 283 355 413
#
# _framework density 23.518725
#
# number of rings (size 3 to 8) (size 9 to 14) (size 15 to 20)
#    0.000    1.500    3.750    1.500    1.750    3.000 
#    4.500    0.000   11.000    0.000    0.000    0.000 
#    0.000    0.000    0.000    0.000    0.000    0.000 
#
# Total GULP energy -89210.587784 kJ/mol
# GULP energy per Si atom -5575.661737 kJ/mol
# Density = 2.346520 g / cm^3
# Si number density = 23.518725 Si / 1000 Ang^3
#
#
#
# Elastic Constant Matrix: (Units=GPa)
#
#
# Indices 1 2 3 4 5 6 
#
# 1 38.1632 22.7593 20.7320 0.0000 -12.5518 0.0000
# 2 22.7593 98.6658 31.1517 0.0000 -9.5358 0.0000
# 3 20.7320 31.1517 79.4805 0.0000 -15.6092 0.0000
# 4 0.0000 0.0000 0.0000 34.8114 0.0000 -6.8437
# 5 -12.5518 -9.5358 -15.6092 0.0000 34.7096 0.0000
# 6 0.0000 0.0000 0.0000 -6.8437 0.0000 20.3183
#
#
#
# Elastic Compliance Matrix: (Units=1/GPa)
#
#
# Indices 1 2 3 4 5 6 
#
# 1 0.035340 -0.005631 -0.005271 0.000000 0.008862 0.000000
# 2 -0.005631 0.012513 -0.003467 0.000000 -0.000158 0.000000
# 3 -0.005271 -0.003467 0.016183 0.000000 0.004419 0.000000
# 4 0.000000 0.000000 0.000000 0.030763 0.000000 0.010362
# 5 0.008862 -0.000158 0.004419 0.000000 0.033959 0.000000
# 6 0.000000 0.000000 0.000000 0.010362 0.000000 0.052707
#
#
# Mechanical properties :
#
#
# Convention : Reuss Voigt Hill
#
# Bulk Modulus (GPa) = 28.32906 40.62174 34.47540
# Shear Modulus (GPa) = 22.52566 27.41229 24.96897
#
# Velocity S-wave (km/s) = 3.09815 3.41772 3.26185
# Velocity P-wave (km/s) = 4.98694 5.73446 5.37371
#
# Compressibility (1/GPa) = 0.03529944
#
# Stress axis : x y z
#
# Youngs Moduli (GPa) = 28.29688 79.91388 61.79284
#
# Poissons Ratio (x) = 0.45001 0.32568
# Poissons Ratio (y) = 0.15935 0.21421
# Poissons Ratio (z) = 0.14914 0.27703
#
# Static dielectric constant tensor:
#      x y z
#    x 1.949210 0.000000 -0.013260 
#    y 0.000000 1.980940 0.000000 
#    z -0.013260 0.000000 1.916170 
# 
# From -- ./inp_files/9905.got.cif
#   From: 2010.05.17/outbox.cif.g08.bks.cpg/sg9_5_cif.got.tgz:9905.got - 2010.06.03 20:04:27.
