data_PCOD9135192
_publ_section_title
;
Structure prediction by ZEFSAII (Michael W. Deem and Ramdas Pophale) SiO2 
 PCOD9135192
Probable space group: C C
;
_chemical_formula_sum "Si O2"
_cell_formula_units_Z 32
_cell_length_a 8.572167
_cell_length_b 24.018441
_cell_length_c 9.537523
_cell_angle_alpha 90.000000
_cell_angle_beta 53.878376
_cell_angle_gamma 90.000000
_cell_volume 1586.197967
_symmetry_space_group_name_H-M "C C"
_symmetry_group_IT_number 9
_symmetry_cell_setting 'monoclinic'
loop_
_space_group_symop_operation_xyz
x,y,z
x,-y,1/2+z
1/2+x,1/2+y,z
1/2+x,1/2-y,1/2+z
loop_
_atom_site_type_symbol
_atom_site_label
_atom_site_fract_x
_atom_site_fract_y
_atom_site_fract_z
Si Si1 0.136390 0.327875 0.071290
Si Si2 0.032051 0.223432 0.253943
Si Si3 0.270097 0.800655 0.092757
Si Si4 0.898178 0.928875 0.957076
Si Si5 0.650895 0.079999 0.098562
Si Si6 0.763669 0.997564 0.279469
Si Si7 0.258893 0.147610 0.304448
Si Si8 0.936136 0.817972 0.495955
O O1 0.038463 0.289963 0.240853
O O2 0.208671 0.389196 0.066899
O O3 0.981267 0.323302 0.028703
O O4 0.333832 0.295467 0.931025
O O5 0.222478 0.201464 0.228803
O O6 0.014448 0.194423 0.110692
O O7 0.292442 0.734782 0.051006
O O8 0.113131 0.811186 0.295523
O O9 0.212918 0.833249 0.985420
O O10 0.896795 0.965074 0.098400
O O11 0.877450 0.963030 0.825778
O O12 0.091655 0.894033 0.846157
O O13 0.641433 0.036868 0.236167
O O14 0.463107 0.118305 0.189923
O O15 0.828854 0.123035 0.031992
O O16 0.669432 0.045592 0.942005
#
# Coordination Sequence:
#
# PCOD9135192 Si02
#       8
#     4   4   4   4   4   4   4   4
#     4  10  20  38  60  86 123 156 190 238 291 354
#     4  10  21  36  59  90 121 156 191 232 292 362
#     4  11  22  37  62  94 122 157 193 232 296 366
#     4  10  22  40  60  84 117 153 197 249 292 341
#     4  11  23  41  62  86 119 156 199 249 294 343
#     4  10  23  42  61  81 112 158 205 247 294 341
#     4  11  23  38  61  92 120 149 193 246 296 353
#     4  11  22  40  61  87 124 161 192 237 293 356
#
# _framework density 20.174028
#
# number of rings (size 3 to 8) (size 9 to 14) (size 15 to 20)
#    0.000    1.500    0.000    7.500    0.000    8.000 
#    0.000    5.000    0.000    0.000    0.000    0.000 
#    0.000    0.000    0.000    0.000    0.000    0.000 
#
# Total GULP energy -89282.973942 kJ/mol
# GULP energy per Si atom -5580.185871 kJ/mol
# Density = 2.012811 g / cm^3
# Si number density = 20.174028 Si / 1000 Ang^3
#
#
#
# Elastic Constant Matrix: (Units=GPa)
#
#
# Indices 1 2 3 4 5 6 
#
# 1 30.0815 17.6235 14.5734 0.0000 0.9861 0.0000
# 2 17.6235 69.2573 4.9915 0.0000 -3.1610 0.0000
# 3 14.5734 4.9915 50.9301 0.0000 -1.1753 0.0000
# 4 0.0000 0.0000 0.0000 27.0087 0.0000 4.2524
# 5 0.9861 -3.1610 -1.1753 0.0000 19.0155 0.0000
# 6 0.0000 0.0000 0.0000 4.2524 0.0000 20.6464
#
#
#
# Elastic Compliance Matrix: (Units=1/GPa)
#
#
# Indices 1 2 3 4 5 6 
#
# 1 0.045711 -0.010984 -0.012118 0.000000 -0.004945 0.000000
# 2 -0.010984 0.017285 0.001531 0.000000 0.003538 0.000000
# 3 -0.012118 0.001531 0.023005 0.000000 0.002305 0.000000
# 4 0.000000 0.000000 0.000000 0.038266 0.000000 -0.007881
# 5 -0.004945 0.003538 0.002305 0.000000 0.053576 0.000000
# 6 0.000000 0.000000 0.000000 -0.007881 0.000000 0.050058
#
#
# Mechanical properties :
#
#
# Convention : Reuss Voigt Hill
#
# Bulk Modulus (GPa) = 23.33224 24.96064 24.14644
# Shear Modulus (GPa) = 17.52362 20.87282 19.19822
#
# Velocity S-wave (km/s) = 2.95044 3.22007 3.08820
# Velocity P-wave (km/s) = 4.81636 5.12100 4.97102
#
# Compressibility (1/GPa) = 0.04285915
#
# Stress axis : x y z
#
# Youngs Moduli (GPa) = 21.87665 57.85310 43.46825
#
# Poissons Ratio (x) = 0.63547 0.52673
# Poissons Ratio (y) = 0.24030 -0.06653
# Poissons Ratio (z) = 0.26509 -0.08855
#
# Static dielectric constant tensor:
#      x y z
#    x 1.708480 0.000000 0.015860 
#    y 0.000000 1.764860 0.000000 
#    z 0.015860 0.000000 1.707090 
# 
# From -- ./inp_files/6379.got.cif
#   From: 2010.05.17/outbox.cif.g08.bks.cpg/sg9_4_cif.got.tgz:6379.got - 2010.06.03 20:04:27.
