data_PCOD9135250
_publ_section_title
;
Structure prediction by ZEFSAII (Michael W. Deem and Ramdas Pophale) SiO2 
 PCOD9135250
Probable space group: C C
;
_chemical_formula_sum "Si O2"
_cell_formula_units_Z 24
_cell_length_a 8.433784
_cell_length_b 16.447824
_cell_length_c 7.092082
_cell_angle_alpha 90.000000
_cell_angle_beta 84.776097
_cell_angle_gamma 90.000000
_cell_volume 979.708948
_symmetry_space_group_name_H-M "C C"
_symmetry_group_IT_number 9
_symmetry_cell_setting 'monoclinic'
loop_
_space_group_symop_operation_xyz
x,y,z
x,-y,1/2+z
1/2+x,1/2+y,z
1/2+x,1/2-y,1/2+z
loop_
_atom_site_type_symbol
_atom_site_label
_atom_site_fract_x
_atom_site_fract_y
_atom_site_fract_z
Si Si1 0.320440 0.858706 0.958520
Si Si2 0.694478 0.117055 0.911113
Si Si3 0.971855 0.125765 0.443189
Si Si4 0.970727 0.808712 0.526342
Si Si5 0.141709 0.438824 0.844043
Si Si6 0.259998 0.245008 0.128559
O O1 0.478967 0.911106 0.962072
O O2 0.314020 0.832499 0.739104
O O3 0.144876 0.897124 0.010181
O O4 0.355698 0.770234 0.048239
O O5 0.887536 0.126567 0.900555
O O6 0.653908 0.107058 0.139087
O O7 0.660231 0.195079 0.781940
O O8 0.634569 0.035450 0.822999
O O9 0.995578 0.147957 0.221875
O O10 0.805858 0.075429 0.445873
O O11 0.914993 0.208131 0.547891
O O12 0.145691 0.774671 0.465878
#
# Coordination Sequence:
#
# PCOD9135250 Si02
#       6
#     4   4   4   4   4   4
#     4  10  22  36  61  95 123 163 221 252 322 380
#     4  10  23  39  66  92 128 174 212 260 331 377
#     4  10  21  36  63  89 131 159 212 268 315 378
#     4   9  20  37  61  93 121 162 215 258 314 374
#     4  11  22  42  62  88 133 172 206 266 325 387
#     4  10  20  38  65  95 124 166 214 270 313 376
#
# _framework density 24.497069
#
# number of rings (size 3 to 8) (size 9 to 14) (size 15 to 20)
#    0.000    2.000    1.667    1.000    9.333    0.000 
#    0.000    6.667    0.000    0.000    0.000    0.000 
#    0.000    0.000    0.000    0.000    0.000    0.000 
#
# Total GULP energy -66810.749774 kJ/mol
# GULP energy per Si atom -5567.562481 kJ/mol
# Density = 2.444131 g / cm^3
# Si number density = 24.497069 Si / 1000 Ang^3
#
#
#
# Elastic Constant Matrix: (Units=GPa)
#
#
# Indices 1 2 3 4 5 6 
#
# 1 182.0602 49.8840 20.7161 0.0000 11.9969 0.0000
# 2 49.8840 70.3548 -12.0671 0.0000 5.7993 0.0000
# 3 20.7161 -12.0671 23.0968 0.0000 3.4579 0.0000
# 4 0.0000 0.0000 0.0000 28.3815 0.0000 3.9643
# 5 11.9969 5.7993 3.4579 0.0000 35.7233 0.0000
# 6 0.0000 0.0000 0.0000 3.9643 0.0000 25.7750
#
#
#
# Elastic Compliance Matrix: (Units=1/GPa)
#
#
# Indices 1 2 3 4 5 6 
#
# 1 0.009447 -0.008898 -0.013052 0.000000 -0.000464 0.000000
# 2 -0.008898 0.024406 0.021185 0.000000 -0.003024 0.000000
# 3 -0.013052 0.021185 0.066900 0.000000 -0.005531 0.000000
# 4 0.000000 0.000000 0.000000 0.036008 0.000000 -0.005538
# 5 -0.000464 -0.003024 -0.005531 0.000000 0.029175 0.000000
# 6 0.000000 0.000000 0.000000 -0.005538 0.000000 0.039649
#
#
# Mechanical properties :
#
#
# Convention : Reuss Voigt Hill
#
# Bulk Modulus (GPa) = 10.07858 43.61977 26.84917
# Shear Modulus (GPa) = 20.81691 32.44122 26.62906
#
# Velocity S-wave (km/s) = 2.91825 3.64303 3.30059
# Velocity P-wave (km/s) = 3.93421 5.96157 5.05066
#
# Compressibility (1/GPa) = 0.09922036
#
# Stress axis : x y z
#
# Youngs Moduli (GPa) = 105.85761 40.97371 14.94779
#
# Poissons Ratio (x) = 0.36460 0.19511
# Poissons Ratio (y) = 0.94197 -0.31667
# Poissons Ratio (z) = 1.38170 -0.86803
#
# Static dielectric constant tensor:
#      x y z
#    x 2.058490 0.000000 0.017300 
#    y 0.000000 1.969980 0.000000 
#    z 0.017300 0.000000 2.044280 
# 
# From -- ./inp_files/4947.got.cif
#   From: 2010.05.17/outbox.cif.g08.bks.cpg/sg9_3_cif.got.tgz:4947.got - 2010.06.03 20:04:27.
