data_PCOD9135966
_publ_section_title
;
Structure prediction by ZEFSAII (Michael W. Deem and Ramdas Pophale) SiO2 
 PCOD9135966
Probable space group: C C
;
_chemical_formula_sum "Si O2"
_cell_formula_units_Z 32
_cell_length_a 10.425727
_cell_length_b 24.628178
_cell_length_c 5.132314
_cell_angle_alpha 90.000000
_cell_angle_beta 112.201720
_cell_angle_gamma 90.000000
_cell_volume 1220.103906
_symmetry_space_group_name_H-M "C C"
_symmetry_group_IT_number 9
_symmetry_cell_setting 'monoclinic'
loop_
_space_group_symop_operation_xyz
x,y,z
x,-y,1/2+z
1/2+x,1/2+y,z
1/2+x,1/2-y,1/2+z
loop_
_atom_site_type_symbol
_atom_site_label
_atom_site_fract_x
_atom_site_fract_y
_atom_site_fract_z
Si Si1 0.856900 0.036989 0.004350
Si Si2 0.674114 0.537685 0.261114
Si Si3 0.563228 0.799437 0.345972
Si Si4 0.469571 0.037961 0.163445
Si Si5 0.708625 0.113598 0.248972
Si Si6 0.321861 0.702026 0.656714
Si Si7 0.119363 0.789124 0.259571
Si Si8 0.314550 0.873925 0.187765
O O1 0.015192 0.055697 0.147779
O O2 0.840825 0.990716 0.213816
O O3 0.761348 0.086177 0.023104
O O4 0.694511 0.491894 0.501001
O O5 0.763428 0.589203 0.410444
O O6 0.603548 0.836919 0.623437
O O7 0.556742 0.739443 0.453903
O O8 0.701572 0.804526 0.279670
O O9 0.420544 0.828274 0.154699
O O10 0.619361 0.066178 0.304895
O O11 0.384589 0.086194 0.953595
O O12 0.457501 0.990487 0.936329
O O13 0.825262 0.144787 0.500814
O O14 0.252746 0.753448 0.452237
O O15 0.484069 0.712560 0.842889
O O16 0.184575 0.845991 0.229129
#
# Coordination Sequence:
#
# PCOD9135966 Si02
#       8
#     4   4   4   4   4   4   4   4
#     4  10  21  37  65  97 143 188 236 296 366 443
#     4  10  22  44  66 105 143 184 244 302 360 446
#     4  10  25  45  69 102 139 187 250 305 369 446
#     4  11  25  44  72 111 151 196 253 312 369 453
#     4  10  23  40  66  99 143 189 247 300 371 447
#     4  11  25  44  75 102 144 194 250 312 384 446
#     4  11  24  49  68 108 145 188 252 314 375 456
#     4  11  23  45  73 102 148 194 242 311 376 445
#
# _framework density 26.227276
#
# number of rings (size 3 to 8) (size 9 to 14) (size 15 to 20)
#    0.000    1.500    1.250    2.250    7.000    0.000 
#   11.250    0.000    0.000    0.000    0.000    0.000 
#    0.000    0.000    0.000    0.000    0.000    0.000 
#
# Total GULP energy -89448.988655 kJ/mol
# GULP energy per Si atom -5590.561791 kJ/mol
# Density = 2.616758 g / cm^3
# Si number density = 26.227276 Si / 1000 Ang^3
#
#
#
# Elastic Constant Matrix: (Units=GPa)
#
#
# Indices 1 2 3 4 5 6 
#
# 1 130.6480 41.5970 29.5055 0.0000 -3.4448 0.0000
# 2 41.5970 90.7555 31.4950 0.0000 6.9885 0.0000
# 3 29.5055 31.4950 91.1306 0.0000 -5.6449 0.0000
# 4 0.0000 0.0000 0.0000 20.6000 0.0000 3.0219
# 5 -3.4448 6.9885 -5.6449 0.0000 41.8770 0.0000
# 6 0.0000 0.0000 0.0000 3.0219 0.0000 49.7462
#
#
#
# Elastic Compliance Matrix: (Units=1/GPa)
#
#
# Indices 1 2 3 4 5 6 
#
# 1 0.009251 -0.003768 -0.001620 0.000000 0.001171 0.000000
# 2 -0.003768 0.014364 -0.003945 0.000000 -0.003239 0.000000
# 3 -0.001620 -0.003945 0.013002 0.000000 0.002278 0.000000
# 4 0.000000 0.000000 0.000000 0.048980 0.000000 -0.002975
# 5 0.001171 -0.003239 0.002278 0.000000 0.024823 0.000000
# 6 0.000000 0.000000 0.000000 -0.002975 0.000000 0.020283
#
#
# Mechanical properties :
#
#
# Convention : Reuss Voigt Hill
#
# Bulk Modulus (GPa) = 55.70809 57.52545 56.61677
# Shear Modulus (GPa) = 32.18475 36.44041 34.31258
#
# Velocity S-wave (km/s) = 3.50687 3.73152 3.62094
# Velocity P-wave (km/s) = 6.13874 6.36763 6.25423
#
# Compressibility (1/GPa) = 0.01795071
#
# Stress axis : x y z
#
# Youngs Moduli (GPa) = 108.10093 69.61866 76.90915
#
# Poissons Ratio (x) = 0.26231 0.12462
# Poissons Ratio (y) = 0.40730 0.30340
# Poissons Ratio (z) = 0.17516 0.27464
#
# Static dielectric constant tensor:
#      x y z
#    x 2.212540 0.000000 0.029500 
#    y 0.000000 2.056400 0.000000 
#    z 0.029500 0.000000 2.106640 
# 
# From -- ./inp_files/1884.got.cif
#   From: 2010.05.17/outbox.cif.g08.bks.cpg/sg9_1_cif.got.tgz:1884.got - 2010.06.03 20:04:27.
