data_PCOD9135055
_publ_section_title
;
Structure prediction by ZEFSAII (Michael W. Deem and Ramdas Pophale) SiO2 
 PCOD9135055
Probable space group: C C
;
_chemical_formula_sum "Si O2"
_cell_formula_units_Z 28
_cell_length_a 12.973570
_cell_length_b 10.616050
_cell_length_c 9.788929
_cell_angle_alpha 90.000000
_cell_angle_beta 50.671686
_cell_angle_gamma 90.000000
_cell_volume 1042.877207
_symmetry_space_group_name_H-M "C C"
_symmetry_group_IT_number 9
_symmetry_cell_setting 'monoclinic'
loop_
_space_group_symop_operation_xyz
x,y,z
x,-y,1/2+z
1/2+x,1/2+y,z
1/2+x,1/2-y,1/2+z
loop_
_atom_site_type_symbol
_atom_site_label
_atom_site_fract_x
_atom_site_fract_y
_atom_site_fract_z
Si Si1 0.803910 0.860569 0.631870
Si Si2 0.532123 0.809054 0.932406
Si Si3 0.296490 0.990016 0.970762
Si Si4 0.328700 0.272497 0.913757
Si Si5 0.563159 0.532259 0.857795
Si Si6 0.111524 0.759009 0.821033
Si Si7 0.976078 0.549230 0.088414
O O1 0.646515 0.862457 0.734381
O O2 0.814785 0.855687 0.788548
O O3 0.879469 0.730827 0.524675
O O4 0.901101 0.966032 0.486178
O O5 0.580317 0.666109 0.919049
O O6 0.536669 0.909263 0.051149
O O7 0.293376 0.128218 0.904599
O O8 0.388909 0.021678 0.025344
O O9 0.381771 0.912455 0.790125
O O10 0.150309 0.954696 0.147173
O O11 0.480949 0.274366 0.835730
O O12 0.232927 0.287675 0.125997
O O13 0.619457 0.402319 0.870511
O O14 0.079662 0.656364 0.961916
#
# Coordination Sequence:
#
# PCOD9135055 Si02
#       7
#     4   4   4   4   4   4   4
#     4  10  20  36  68  92 123 166 232 260 305 389
#     4  10  21  38  67  94 127 175 221 266 312 396
#     4  10  21  42  66  93 131 182 209 263 324 406
#     4  10  20  38  64  92 124 176 221 253 316 399
#     4   9  22  38  63  93 131 169 218 262 330 377
#     4  10  23  39  61  95 129 164 209 281 323 378
#     4  11  23  41  69  95 133 170 224 257 332 383
#
# _framework density 26.848797000000001
#
# number of rings (size 3 to 8) (size 9 to 14) (size 15 to 20)
#    0.857    1.143    1.429    1.714    4.000    1.143 
#    0.000    7.143    0.000    0.000    0.000    0.000 
#    0.000    0.000    0.000    0.000    0.000    0.000 
#
# Total GULP energy -78077.029593 kJ/mol
# GULP energy per Si atom -5576.930685 kJ/mol
# Density = 2.678769 g / cm^3
# Si number density = 26.848797 Si / 1000 Ang^3
#
#
#
# Elastic Constant Matrix: (Units=GPa)
#
#
# Indices 1 2 3 4 5 6 
#
# 1 54.0050 -26.5532 34.9743 0.0000 -12.2785 0.0000
# 2 -26.5532 140.7403 62.7543 0.0000 7.0094 0.0000
# 3 34.9743 62.7543 275.0846 0.0000 -33.8890 0.0000
# 4 0.0000 0.0000 0.0000 59.0899 0.0000 -7.9914
# 5 -12.2785 7.0094 -33.8890 0.0000 57.8501 0.0000
# 6 0.0000 0.0000 0.0000 -7.9914 0.0000 13.4396
#
#
#
# Elastic Compliance Matrix: (Units=1/GPa)
#
#
# Indices 1 2 3 4 5 6 
#
# 1 0.025109 0.006636 -0.004471 0.000000 0.001906 0.000000
# 2 0.006636 0.009925 -0.003322 0.000000 -0.001740 0.000000
# 3 -0.004471 -0.003322 0.005275 0.000000 0.002544 0.000000
# 4 0.000000 0.000000 0.000000 0.018403 0.000000 0.010943
# 5 0.001906 -0.001740 0.002544 0.000000 0.019392 0.000000
# 6 0.000000 0.000000 0.000000 0.010943 0.000000 0.080914
#
#
# Mechanical properties :
#
#
# Convention : Reuss Voigt Hill
#
# Bulk Modulus (GPa) = 26.32026 68.02008 47.17017
# Shear Modulus (GPa) = 28.73606 52.65290 40.69448
#
# Velocity S-wave (km/s) = 3.27508 4.43322 3.89741
# Velocity P-wave (km/s) = 4.91182 7.18290 6.15305
#
# Compressibility (1/GPa) = 0.03799355
#
# Stress axis : x y z
#
# Youngs Moduli (GPa) = 39.82694 100.75202 189.57258
#
# Poissons Ratio (x) = -0.66859 0.84765
# Poissons Ratio (y) = -0.26429 0.62983
# Poissons Ratio (z) = 0.17808 0.33473
#
# Static dielectric constant tensor:
#      x y z
#    x 2.205410 0.000000 -0.086950 
#    y 0.000000 2.251110 0.000000 
#    z -0.086950 0.000000 2.099880 
# 
# From -- ./inp_files/19262.got.cif
#   From: 2010.05.17/outbox.cif.g08.bks.cpg/sg9_10_cif.got.tgz:19262.got - 2010.06.03 20:04:27.
