data_PCOD9135892
_publ_section_title
;
Structure prediction by ZEFSAII (Michael W. Deem and Ramdas Pophale) SiO2 
 PCOD9135892
Probable space group: C C
;
_chemical_formula_sum "Si O2"
_cell_formula_units_Z 32
_cell_length_a 12.290055
_cell_length_b 10.282665
_cell_length_c 14.863716
_cell_angle_alpha 90.000000
_cell_angle_beta 38.748786
_cell_angle_gamma 90.000000
_cell_volume 1175.700450
_symmetry_space_group_name_H-M "C C"
_symmetry_group_IT_number 9
_symmetry_cell_setting 'monoclinic'
loop_
_space_group_symop_operation_xyz
x,y,z
x,-y,1/2+z
1/2+x,1/2+y,z
1/2+x,1/2-y,1/2+z
loop_
_atom_site_type_symbol
_atom_site_label
_atom_site_fract_x
_atom_site_fract_y
_atom_site_fract_z
Si Si1 0.635530 0.518310 0.600330
Si Si2 0.385695 0.317038 0.846436
Si Si3 0.124995 0.605229 0.769301
Si Si4 0.796093 0.768128 0.717068
Si Si5 0.122521 0.458549 0.591490
Si Si6 0.985591 0.976529 0.016869
Si Si7 0.446175 0.991495 0.038524
Si Si8 0.971790 0.149430 0.862653
O O1 0.530707 0.387378 0.691585
O O2 0.631964 0.548040 0.496986
O O3 0.807814 0.497645 0.546911
O O4 0.520190 0.623029 0.728857
O O5 0.496021 0.228126 0.842802
O O6 0.290989 0.240515 0.827208
O O7 0.245163 0.420696 0.974045
O O8 0.068705 0.511075 0.723050
O O9 0.330682 0.629788 0.617899
O O10 0.113276 0.539939 0.874897
O O11 0.883529 0.896492 0.620837
O O12 0.901413 0.650617 0.604535
O O13 0.595715 0.762136 0.815696
O O14 0.265985 0.344505 0.506145
O O15 0.972416 0.433012 0.616320
O O16 0.033437 0.024447 0.885497
#
# Coordination Sequence:
#
# PCOD9135892 Si02
#       8
#     4   4   4   4   4   4   4   4
#     4   9  21  39  61  90 118 160 203 253 304 357
#     4  10  21  38  66  88 119 156 217 258 291 369
#     4  11  23  36  63  94 126 157 199 264 312 362
#     4  10  21  36  64  93 115 157 212 261 297 359
#     4  10  22  42  61  93 122 161 206 259 309 361
#     4  10  22  38  64  89 121 158 203 257 309 358
#     4  11  22  36  64  92 125 156 207 257 308 366
#     4   9  20  37  61  83 126 155 195 257 308 356
#
# _framework density 27.217818999999999
#
# number of rings (size 3 to 8) (size 9 to 14) (size 15 to 20)
#    0.000    2.000    1.250    2.250    7.000    0.000 
#    0.000    0.000   16.500    6.000    0.000    0.000 
#    0.000    0.000    0.000    0.000    0.000    0.000 
#
# Total GULP energy -89380.346969 kJ/mol
# GULP energy per Si atom -5586.271686 kJ/mol
# Density = 2.715587 g / cm^3
# Si number density = 27.217819 Si / 1000 Ang^3
#
#
#
# Elastic Constant Matrix: (Units=GPa)
#
#
# Indices 1 2 3 4 5 6 
#
# 1 166.0649 11.6449 16.0347 0.0000 13.0724 0.0000
# 2 11.6449 54.4495 19.8841 0.0000 -2.6432 0.0000
# 3 16.0347 19.8841 93.2355 0.0000 22.4667 0.0000
# 4 0.0000 0.0000 0.0000 41.5508 0.0000 -3.0972
# 5 13.0724 -2.6432 22.4667 0.0000 51.1280 0.0000
# 6 0.0000 0.0000 0.0000 -3.0972 0.0000 30.6914
#
#
#
# Elastic Compliance Matrix: (Units=1/GPa)
#
#
# Indices 1 2 3 4 5 6 
#
# 1 0.006269 -0.001244 -0.000460 0.000000 -0.001465 0.000000
# 2 -0.001244 0.020655 -0.005061 0.000000 0.003610 0.000000
# 3 -0.000460 -0.005061 0.013330 0.000000 -0.006002 0.000000
# 4 0.000000 0.000000 0.000000 0.024249 0.000000 0.002447
# 5 -0.001465 0.003610 -0.006002 0.000000 0.022757 0.000000
# 6 0.000000 0.000000 0.000000 0.002447 0.000000 0.032829
#
#
# Mechanical properties :
#
#
# Convention : Reuss Voigt Hill
#
# Bulk Modulus (GPa) = 37.41863 45.43081 41.42472
# Shear Modulus (GPa) = 35.08101 42.41979 38.75040
#
# Velocity S-wave (km/s) = 3.59402 3.95211 3.77731
# Velocity P-wave (km/s) = 5.56779 6.12808 5.85464
#
# Compressibility (1/GPa) = 0.02672466
#
# Stress axis : x y z
#
# Youngs Moduli (GPa) = 159.52302 48.41419 75.01805
#
# Poissons Ratio (x) = 0.06022 0.03449
# Poissons Ratio (y) = 0.19843 0.37966
# Poissons Ratio (z) = 0.07335 0.24502
#
# Static dielectric constant tensor:
#      x y z
#    x 2.258040 0.000000 -0.044070 
#    y 0.000000 2.219500 0.000000 
#    z -0.044070 0.000000 2.124890 
# 
# From -- ./inp_files/16481.got.cif
#   From: 2010.05.17/outbox.cif.g08.bks.cpg/sg9_9_cif.got.tgz:16481.got - 2010.06.03 20:04:27.
