data_PCOD9135438
_publ_section_title
;
Structure prediction by ZEFSAII (Michael W. Deem and Ramdas Pophale) SiO2 
 PCOD9135438
Probable space group: C C
;
_chemical_formula_sum "Si O2"
_cell_formula_units_Z 32
_cell_length_a 7.936170
_cell_length_b 14.577786
_cell_length_c 12.009119
_cell_angle_alpha 90.000000
_cell_angle_beta 100.812363
_cell_angle_gamma 90.000000
_cell_volume 1364.690920
_symmetry_space_group_name_H-M "C C"
_symmetry_group_IT_number 9
_symmetry_cell_setting 'monoclinic'
loop_
_space_group_symop_operation_xyz
x,y,z
x,-y,1/2+z
1/2+x,1/2+y,z
1/2+x,1/2-y,1/2+z
loop_
_atom_site_type_symbol
_atom_site_label
_atom_site_fract_x
_atom_site_fract_y
_atom_site_fract_z
Si Si1 0.430240 0.588159 0.783290
Si Si2 0.260642 0.579561 0.341095
Si Si3 0.303028 0.778459 0.764600
Si Si4 0.469295 0.083505 0.144146
Si Si5 0.280507 0.162317 0.507526
Si Si6 0.636533 0.066049 0.561470
Si Si7 0.925003 0.828204 0.651524
Si Si8 0.108182 0.013895 0.615920
O O1 0.385198 0.507785 0.861681
O O2 0.400899 0.689026 0.823029
O O3 0.284175 0.582811 0.669073
O O4 0.599819 0.561037 0.737362
O O5 0.082157 0.547832 0.261993
O O6 0.209280 0.607281 0.457033
O O7 0.340083 0.650043 0.261770
O O8 0.424353 0.814217 0.678992
O O9 0.108583 0.777702 0.694135
O O10 0.282554 0.839114 0.873713
O O11 0.580184 0.042364 0.055892
O O12 0.282746 0.040197 0.116747
O O13 0.458252 0.114728 0.566180
O O14 0.299724 0.263669 0.563631
O O15 0.123568 0.101314 0.535339
O O16 0.972278 0.929070 0.606577
#
# Coordination Sequence:
#
# PCOD9135438 Si02
#       8
#     4   4   4   4   4   4   4   4
#     4  10  22  39  61  91 129 155 214 268 316 395
#     4  10  21  40  64  89 122 171 207 262 328 385
#     4  11  22  40  62  94 127 166 215 271 325 392
#     4   9  20  39  61  87 123 161 210 263 318 388
#     4  11  22  40  68  91 130 172 217 268 335 393
#     4  10  20  40  64  87 124 169 211 264 330 389
#     4  10  23  43  63  95 134 166 221 273 323 402
#     4   9  22  41  63  90 125 172 207 275 329 384
#
# _framework density 23.448530999999999
#
# number of rings (size 3 to 8) (size 9 to 14) (size 15 to 20)
#    0.000    2.000    2.500    0.000    3.500    3.000 
#    4.500    0.000    0.000    0.000    0.000    0.000 
#    0.000    0.000    0.000    0.000    0.000    0.000 
#
# Total GULP energy -89109.642743 kJ/mol
# GULP energy per Si atom -5569.352671 kJ/mol
# Density = 2.339516 g / cm^3
# Si number density = 23.448531 Si / 1000 Ang^3
#
#
#
# Elastic Constant Matrix: (Units=GPa)
#
#
# Indices 1 2 3 4 5 6 
#
# 1 71.0252 21.2346 10.1240 0.0000 -20.0689 0.0000
# 2 21.2346 98.9812 12.4597 0.0000 -15.5907 0.0000
# 3 10.1240 12.4597 43.4330 0.0000 -6.7770 0.0000
# 4 0.0000 0.0000 0.0000 25.8199 0.0000 3.6922
# 5 -20.0689 -15.5907 -6.7770 0.0000 32.5211 0.0000
# 6 0.0000 0.0000 0.0000 3.6922 0.0000 15.7117
#
#
#
# Elastic Compliance Matrix: (Units=1/GPa)
#
#
# Indices 1 2 3 4 5 6 
#
# 1 0.017664 -0.002035 -0.002052 0.000000 0.009497 0.000000
# 2 -0.002035 0.011409 -0.002213 0.000000 0.003752 0.000000
# 3 -0.002052 -0.002213 0.024573 0.000000 0.002794 0.000000
# 4 0.000000 0.000000 0.000000 0.040077 0.000000 -0.009418
# 5 0.009497 0.003752 0.002794 0.000000 0.038991 0.000000
# 6 0.000000 0.000000 0.000000 -0.009418 0.000000 0.065860
#
#
# Mechanical properties :
#
#
# Convention : Reuss Voigt Hill
#
# Bulk Modulus (GPa) = 24.36280 33.45290 28.90785
# Shear Modulus (GPa) = 22.23648 26.11862 24.17755
#
# Velocity S-wave (km/s) = 3.08281 3.34109 3.21454
# Velocity P-wave (km/s) = 4.80459 5.40198 5.11201
#
# Compressibility (1/GPa) = 0.04104619
#
# Stress axis : x y z
#
# Youngs Moduli (GPa) = 56.61239 87.64863 40.69515
#
# Poissons Ratio (x) = 0.17839 0.08349
# Poissons Ratio (y) = 0.11522 0.09006
# Poissons Ratio (z) = 0.11615 0.19397
#
# Static dielectric constant tensor:
#      x y z
#    x 1.925090 0.000000 -0.026910 
#    y 0.000000 2.016520 0.000000 
#    z -0.026910 0.000000 1.895170 
# 
# From -- ./inp_files/14639.got.cif
#   From: 2010.05.17/outbox.cif.g08.bks.cpg/sg9_8_cif.got.tgz:14639.got - 2010.06.03 20:04:27.
