data_PCOD9135280
_publ_section_title
;
Structure prediction by ZEFSAII (Michael W. Deem and Ramdas Pophale) SiO2 
 PCOD9135280
Probable space group: C C
;
_chemical_formula_sum "Si O2"
_cell_formula_units_Z 32
_cell_length_a 18.332321
_cell_length_b 5.173150
_cell_length_c 14.863678
_cell_angle_alpha 90.000000
_cell_angle_beta 112.238130
_cell_angle_gamma 90.000000
_cell_volume 1304.761220
_symmetry_space_group_name_H-M "C C"
_symmetry_group_IT_number 9
_symmetry_cell_setting 'monoclinic'
loop_
_space_group_symop_operation_xyz
x,y,z
x,-y,1/2+z
1/2+x,1/2+y,z
1/2+x,1/2-y,1/2+z
loop_
_atom_site_type_symbol
_atom_site_label
_atom_site_fract_x
_atom_site_fract_y
_atom_site_fract_z
Si Si1 0.230630 0.917099 0.973530
Si Si2 0.913804 0.476483 0.350769
Si Si3 0.188205 0.434394 0.053415
Si Si4 0.364778 0.388133 0.176970
Si Si5 0.903032 0.495273 0.554088
Si Si6 0.508734 0.225618 0.750829
Si Si7 0.250117 0.219776 0.794921
Si Si8 0.162370 0.258545 0.219650
O O1 0.322428 0.851183 0.039386
O O2 0.240927 0.036954 0.879104
O O3 0.181349 0.667705 0.980445
O O4 0.194846 0.161300 0.008042
O O5 0.875743 0.676553 0.261788
O O6 0.923544 0.541560 0.460089
O O7 0.996303 0.407318 0.341722
O O8 0.843733 0.261872 0.321959
O O9 0.274373 0.477138 0.141050
O O10 0.132328 0.393337 0.113004
O O11 0.441850 0.558637 0.224516
O O12 0.374217 0.282155 0.078191
O O13 0.974655 0.550874 0.654162
O O14 0.593208 0.311230 0.756844
O O15 0.212017 0.502199 0.786665
O O16 0.204946 0.011633 0.709961
#
# Coordination Sequence:
#
# PCOD9135280 Si02
#       8
#     4   4   4   4   4   4   4   4
#     4  10  21  40  69  95 126 164 230 282 325 395
#     4  10  22  42  69  94 128 178 230 286 332 404
#     4  11  20  40  65  99 125 173 219 276 334 397
#     4  10  20  38  68  93 132 173 225 279 334 407
#     4   9  21  39  64  96 123 168 227 277 334 395
#     4  11  24  42  63  94 137 178 218 278 340 411
#     4  11  24  44  67  99 129 177 227 279 340 405
#     4  12  26  41  67  96 138 177 218 273 347 412
#
# _framework density 24.525559000000001
#
# number of rings (size 3 to 8) (size 9 to 14) (size 15 to 20)
#    0.000    1.500    2.500    2.250    5.250    1.000 
#    4.500    0.000    0.000    0.000    0.000    0.000 
#    0.000    0.000    0.000    0.000    0.000    0.000 
#
# Total GULP energy -89162.583674 kJ/mol
# GULP energy per Si atom -5572.661480 kJ/mol
# Density = 2.446974 g / cm^3
# Si number density = 24.525559 Si / 1000 Ang^3
#
#
#
# Elastic Constant Matrix: (Units=GPa)
#
#
# Indices 1 2 3 4 5 6 
#
# 1 121.8116 29.0549 2.9296 0.0000 -32.1047 0.0000
# 2 29.0549 74.0239 21.4803 0.0000 -10.1585 0.0000
# 3 2.9296 21.4803 95.1530 0.0000 -41.5217 0.0000
# 4 0.0000 0.0000 0.0000 18.9123 0.0000 -1.2612
# 5 -32.1047 -10.1585 -41.5217 0.0000 39.8854 0.0000
# 6 0.0000 0.0000 0.0000 -1.2612 0.0000 12.6341
#
#
#
# Elastic Compliance Matrix: (Units=1/GPa)
#
#
# Indices 1 2 3 4 5 6 
#
# 1 0.014859 -0.005862 0.009956 0.000000 0.020831 0.000000
# 2 -0.005862 0.016775 -0.006965 0.000000 -0.007697 0.000000
# 3 0.009956 -0.006965 0.026566 0.000000 0.033896 0.000000
# 4 0.000000 0.000000 0.000000 0.053230 0.000000 0.005314
# 5 0.020831 -0.007697 0.033896 0.000000 0.075166 0.000000
# 6 0.000000 0.000000 0.000000 0.005314 0.000000 0.079682
#
#
# Mechanical properties :
#
#
# Convention : Reuss Voigt Hill
#
# Bulk Modulus (GPa) = 19.06320 44.21312 31.63816
# Shear Modulus (GPa) = 17.27078 30.12127 23.69603
#
# Velocity S-wave (km/s) = 2.65655 3.50831 3.11171
# Velocity P-wave (km/s) = 4.14721 5.87175 5.08315
#
# Compressibility (1/GPa) = 0.05245710
#
# Stress axis : x y z
#
# Youngs Moduli (GPa) = 67.30111 59.61242 37.64142
#
# Poissons Ratio (x) = 0.34947 -0.37476
# Poissons Ratio (y) = 0.39455 0.26218
# Poissons Ratio (z) = -0.67006 0.41521
#
# Static dielectric constant tensor:
#      x y z
#    x 1.950920 0.000000 0.049220 
#    y 0.000000 2.056130 0.000000 
#    z 0.049220 0.000000 2.148290 
# 
# From -- ./inp_files/26358.got.cif
#   From: 2010.05.17/outbox.cif.g08.bks.cpg/sg9_14_cif.got.tgz:26358.got - 2010.06.03 20:04:27.
