data_PCOD9135973
_publ_section_title
;
Structure prediction by ZEFSAII (Michael W. Deem and Ramdas Pophale) SiO2 
 PCOD9135973
Probable space group: C C
;
_chemical_formula_sum "Si O2"
_cell_formula_units_Z 32
_cell_length_a 16.565850
_cell_length_b 13.477363
_cell_length_c 5.783584
_cell_angle_alpha 90.000000
_cell_angle_beta 110.298414
_cell_angle_gamma 90.000000
_cell_volume 1211.076443
_symmetry_space_group_name_H-M "C C"
_symmetry_group_IT_number 9
_symmetry_cell_setting 'monoclinic'
loop_
_space_group_symop_operation_xyz
x,y,z
x,-y,1/2+z
1/2+x,1/2+y,z
1/2+x,1/2-y,1/2+z
loop_
_atom_site_type_symbol
_atom_site_label
_atom_site_fract_x
_atom_site_fract_y
_atom_site_fract_z
Si Si1 0.169210 0.283230 0.720870
Si Si2 0.378114 0.094461 0.922716
Si Si3 0.711076 0.411022 0.020092
Si Si4 0.039613 0.404930 0.834439
Si Si5 0.458011 0.241599 0.626005
Si Si6 0.790407 0.732408 0.217673
Si Si7 0.527044 0.457683 0.760178
Si Si8 0.215649 0.528169 0.042690
O O1 0.175489 0.169293 0.668073
O O2 0.076554 0.325368 0.687281
O O3 0.206068 0.353120 0.556441
O O4 0.225117 0.299553 0.008745
O O5 0.297892 0.041768 0.714702
O O6 0.417680 0.172656 0.782704
O O7 0.457617 0.041689 0.132405
O O8 0.335879 0.162690 0.074635
O O9 0.740784 0.339965 0.841355
O O10 0.630695 0.475959 0.864994
O O11 0.118945 0.479233 0.956059
O O12 0.010890 0.334320 0.015635
O O13 0.371932 0.283515 0.415910
O O14 0.511428 0.339054 0.742157
O O15 0.495177 0.500350 0.478674
O O16 0.254640 0.497976 0.331822
#
# Coordination Sequence:
#
# PCOD9135973 Si02
#       8
#     4   4   4   4   4   4   4   4
#     4  10  21  37  67  97 134 173 216 275 337 419
#     4   9  20  39  70  98 127 175 230 278 336 417
#     4  10  22  42  71  96 131 181 231 281 352 403
#     4  10  21  37  67  97 134 173 216 275 337 419
#     4  10  22  42  71  96 131 181 231 281 352 403
#     4   9  20  39  70  98 127 175 230 278 336 417
#     4  12  30  46  70 104 140 182 242 300 344 408
#     4  10  24  38  56  98 138 164 210 258 328 398
#
# _framework density 26.422774
#
# number of rings (size 3 to 8) (size 9 to 14) (size 15 to 20)
#    0.000    2.000    0.000    1.500   17.500    0.000 
#    0.000    5.000    0.000    0.000    0.000    0.000 
#    0.000    0.000    0.000    0.000    0.000    0.000 
#
# Total GULP energy -89553.562297 kJ/mol
# GULP energy per Si atom -5597.097644 kJ/mol
# Density = 2.636263 g / cm^3
# Si number density = 26.422774 Si / 1000 Ang^3
#
#
#
# Elastic Constant Matrix: (Units=GPa)
#
#
# Indices 1 2 3 4 5 6 
#
# 1 70.2040 22.6123 27.0770 0.0000 2.3013 0.0000
# 2 22.6123 140.4571 44.7745 0.0000 -6.4266 0.0000
# 3 27.0770 44.7745 144.9358 0.0000 -6.7180 0.0000
# 4 0.0000 0.0000 0.0000 44.9982 0.0000 4.1864
# 5 2.3013 -6.4266 -6.7180 0.0000 55.7580 0.0000
# 6 0.0000 0.0000 0.0000 4.1864 0.0000 26.6579
#
#
#
# Elastic Compliance Matrix: (Units=1/GPa)
#
#
# Indices 1 2 3 4 5 6 
#
# 1 0.015811 -0.001819 -0.002446 0.000000 -0.001157 0.000000
# 2 -0.001819 0.008128 -0.002136 0.000000 0.000754 0.000000
# 3 -0.002446 -0.002136 0.008055 0.000000 0.000825 0.000000
# 4 0.000000 0.000000 0.000000 0.022553 0.000000 -0.003542
# 5 -0.001157 0.000754 0.000825 0.000000 0.018169 0.000000
# 6 0.000000 0.000000 0.000000 -0.003542 0.000000 0.038069
#
#
# Mechanical properties :
#
#
# Convention : Reuss Voigt Hill
#
# Bulk Modulus (GPa) = 52.10333 60.50274 56.30303
# Shear Modulus (GPa) = 38.46674 42.89168 40.67921
#
# Velocity S-wave (km/s) = 3.81966 4.03337 3.92797
# Velocity P-wave (km/s) = 6.26218 6.68120 6.47508
#
# Compressibility (1/GPa) = 0.01919263
#
# Stress axis : x y z
#
# Youngs Moduli (GPa) = 63.24636 123.03296 124.15168
#
# Poissons Ratio (x) = 0.22377 0.30363
# Poissons Ratio (y) = 0.11503 0.26521
# Poissons Ratio (z) = 0.15468 0.26282
#
# Static dielectric constant tensor:
#      x y z
#    x 2.082910 0.000000 0.023640 
#    y 0.000000 1.956850 0.000000 
#    z 0.023640 0.000000 2.199310 
# 
# From -- ./inp_files/2915.got.cif
#   From: 2010.05.17/outbox.cif.g08.bks.cpg/sg9_2_cif.got.tgz:2915.got - 2010.06.03 20:04:27.
