data_PCOD9135750
_publ_section_title
;
Structure prediction by ZEFSAII (Michael W. Deem and Ramdas Pophale) SiO2 
 PCOD9135750
Probable space group: C C
;
_chemical_formula_sum "Si O2"
_cell_formula_units_Z 28
_cell_length_a 14.041437
_cell_length_b 7.296816
_cell_length_c 10.506174
_cell_angle_alpha 90.000000
_cell_angle_beta 74.740931
_cell_angle_gamma 90.000000
_cell_volume 1038.490150
_symmetry_space_group_name_H-M "C C"
_symmetry_group_IT_number 9
_symmetry_cell_setting 'monoclinic'
loop_
_space_group_symop_operation_xyz
x,y,z
x,-y,1/2+z
1/2+x,1/2+y,z
1/2+x,1/2-y,1/2+z
loop_
_atom_site_type_symbol
_atom_site_label
_atom_site_fract_x
_atom_site_fract_y
_atom_site_fract_z
Si Si1 0.258430 0.197745 0.505950
Si Si2 0.435615 0.523586 0.587799
Si Si3 0.112058 0.136372 0.345853
Si Si4 0.302534 0.224520 0.982863
Si Si5 0.464072 0.793255 0.788820
Si Si6 0.674829 0.229819 0.298366
Si Si7 0.973833 0.673201 0.717554
O O1 0.172356 0.951579 0.300484
O O2 0.363979 0.233653 0.402302
O O3 0.176496 0.240936 0.427777
O O4 0.260551 0.976279 0.531175
O O5 0.514862 0.560117 0.450851
O O6 0.434957 0.310768 0.624902
O O7 0.340160 0.643324 0.581736
O O8 0.078204 0.255596 0.236699
O O9 0.478455 0.387682 0.201535
O O10 0.230596 0.324103 0.907222
O O11 0.398544 0.182033 0.862688
O O12 0.561664 0.833884 0.836057
O O13 0.464621 0.960592 0.686969
O O14 0.727376 0.196119 0.144833
#
# Coordination Sequence:
#
# PCOD9135750 Si02
#       7
#     4   4   4   4   4   4   4
#     4  10  22  42  77 105 149 198 244 307 375 448
#     4  11  22  47  76 105 149 197 246 312 371 445
#     4  10  20  43  72 105 145 197 240 303 375 438
#     4   9  24  41  71 108 149 192 256 297 377 448
#     4  11  24  45  79 108 146 196 249 306 382 438
#     4  11  22  47  72 110 151 200 247 307 377 449
#     4  10  22  45  71 107 147 186 248 304 369 444
#
# _framework density 26.962222000000001
#
# number of rings (size 3 to 8) (size 9 to 14) (size 15 to 20)
#    0.000    1.714    2.857    0.000    6.000    1.143 
#    7.714    1.429    6.286    0.000    0.000    0.000 
#    0.000    0.000    0.000    0.000    0.000    0.000 
#
# Total GULP energy -78405.207200 kJ/mol
# GULP energy per Si atom -5600.371943 kJ/mol
# Density = 2.690085 g / cm^3
# Si number density = 26.962222 Si / 1000 Ang^3
#
#
#
# Elastic Constant Matrix: (Units=GPa)
#
#
# Indices 1 2 3 4 5 6 
#
# 1 86.7716 1.4650 16.3116 0.0000 26.1312 0.0000
# 2 1.4650 80.5703 14.8840 0.0000 -3.7514 0.0000
# 3 16.3116 14.8840 77.6121 0.0000 13.4900 0.0000
# 4 0.0000 0.0000 0.0000 21.5282 0.0000 -4.4553
# 5 26.1312 -3.7514 13.4900 0.0000 50.2717 0.0000
# 6 0.0000 0.0000 0.0000 -4.4553 0.0000 31.1708
#
#
#
# Elastic Compliance Matrix: (Units=1/GPa)
#
#
# Indices 1 2 3 4 5 6 
#
# 1 0.013890 -0.000256 -0.001691 0.000000 -0.006786 0.000000
# 2 -0.000256 0.013012 -0.002762 0.000000 0.001845 0.000000
# 3 -0.001691 -0.002762 0.014321 0.000000 -0.003170 0.000000
# 4 0.000000 0.000000 0.000000 0.047867 0.000000 0.006842
# 5 -0.006786 0.001845 -0.003170 0.000000 0.024407 0.000000
# 6 0.000000 0.000000 0.000000 0.006842 0.000000 0.033059
#
#
# Mechanical properties :
#
#
# Convention : Reuss Voigt Hill
#
# Bulk Modulus (GPa) = 31.44189 34.47501 32.95845
# Shear Modulus (GPa) = 30.01624 34.74702 32.38163
#
# Velocity S-wave (km/s) = 3.34019 3.59378 3.46930
# Velocity P-wave (km/s) = 5.15389 5.48038 5.31964
#
# Compressibility (1/GPa) = 0.03180470
#
# Stress axis : x y z
#
# Youngs Moduli (GPa) = 71.99365 76.84969 69.82899
#
# Poissons Ratio (x) = 0.01969 0.11806
# Poissons Ratio (y) = 0.01844 0.19289
# Poissons Ratio (z) = 0.12172 0.21229
#
# Static dielectric constant tensor:
#      x y z
#    x 2.111100 0.000000 0.028040 
#    y 0.000000 2.123640 0.000000 
#    z 0.028040 0.000000 2.045070 
# 
# From -- ./inp_files/16239.got.cif
#   From: 2010.05.17/outbox.cif.g08.bks.cpg/sg9_9_cif.got.tgz:16239.got - 2010.06.03 20:04:27.
