data_PCOD9135092
_publ_section_title
;
Structure prediction by ZEFSAII (Michael W. Deem and Ramdas Pophale) SiO2 
 PCOD9135092
Probable space group: C C
;
_chemical_formula_sum "Si O2"
_cell_formula_units_Z 24
_cell_length_a 17.941174
_cell_length_b 6.656667
_cell_length_c 22.995398
_cell_angle_alpha 90.000000
_cell_angle_beta 154.870823
_cell_angle_gamma 90.000000
_cell_volume 1166.246901
_symmetry_space_group_name_H-M "C C"
_symmetry_group_IT_number 9
_symmetry_cell_setting 'monoclinic'
loop_
_space_group_symop_operation_xyz
x,y,z
x,-y,1/2+z
1/2+x,1/2+y,z
1/2+x,1/2-y,1/2+z
loop_
_atom_site_type_symbol
_atom_site_label
_atom_site_fract_x
_atom_site_fract_y
_atom_site_fract_z
Si Si1 0.556680 0.414263 0.190400
Si Si2 0.208616 0.831394 0.421774
Si Si3 0.404657 0.686434 0.800632
Si Si4 0.475262 0.833825 0.097078
Si Si5 0.034715 0.859144 0.516829
Si Si6 0.290487 0.359696 0.794720
O O1 0.622910 0.323004 0.297656
O O2 0.532958 0.651416 0.178056
O O3 0.703962 0.353907 0.246325
O O4 0.367322 0.325824 0.039976
O O5 0.303554 0.047417 0.494689
O O6 0.133739 0.492114 0.204723
O O7 0.061391 0.803093 0.366192
O O8 0.241338 0.821350 0.666346
O O9 0.340701 0.453803 0.767449
O O10 0.468468 0.744800 0.910479
O O11 0.455770 0.739015 0.018917
O O12 0.959241 0.084509 0.453761
#
# Coordination Sequence:
#
# PCOD9135092 Si02
#       6
#     4   4   4   4   4   4
#     4  11  22  39  64  92 128 164 210 258 310 379
#     4  11  23  38  64  97 126 162 207 259 322 369
#     4   9  19  36  61  91 130 159 200 261 311 374
#     4  10  20  37  60  89 119 166 211 248 299 370
#     4   9  17  36  63  85 120 165 206 248 309 370
#     4   8  19  36  60  86 115 164 204 246 299 372
#
# _framework density 20.578831000000001
#
# number of rings (size 3 to 8) (size 9 to 14) (size 15 to 20)
#    1.000    1.333    0.000    3.000    0.000    1.333 
#    0.000    5.000    3.667    0.000    0.000    0.000 
#    0.000    0.000    0.000    0.000    0.000    0.000 
#
# Total GULP energy -66887.190408 kJ/mol
# GULP energy per Si atom -5573.932534 kJ/mol
# Density = 2.053199 g / cm^3
# Si number density = 20.578831 Si / 1000 Ang^3
#
#
#
# Elastic Constant Matrix: (Units=GPa)
#
#
# Indices 1 2 3 4 5 6 
#
# 1 69.0822 4.5483 31.8092 0.0000 24.3142 0.0000
# 2 4.5483 43.2935 4.6594 0.0000 12.1321 0.0001
# 3 31.8092 4.6594 118.3235 0.0002 5.0620 0.0000
# 4 0.0000 0.0000 0.0002 30.8469 0.0000 4.2166
# 5 24.3142 12.1321 5.0620 0.0000 33.8256 0.0000
# 6 0.0000 0.0001 0.0000 4.2166 0.0000 12.5367
#
#
#
# Elastic Compliance Matrix: (Units=1/GPa)
#
#
# Indices 1 2 3 4 5 6 
#
# 1 0.022600 0.002822 -0.005483 0.000000 -0.016436 0.000000
# 2 0.002822 0.026077 -0.001307 0.000000 -0.011186 0.000000
# 3 -0.005483 -0.001307 0.009851 0.000000 0.002936 0.000000
# 4 0.000000 0.000000 0.000000 0.033980 0.000000 -0.011429
# 5 -0.016436 -0.011186 0.002936 0.000000 0.044951 0.000000
# 6 0.000000 0.000000 0.000000 -0.011429 0.000000 0.083610
#
#
# Mechanical properties :
#
#
# Convention : Reuss Voigt Hill
#
# Bulk Modulus (GPa) = 19.76644 34.74811 27.25727
# Shear Modulus (GPa) = 20.33601 28.08733 24.21167
#
# Velocity S-wave (km/s) = 3.14698 3.69842 3.43378
# Velocity P-wave (km/s) = 4.77815 5.92956 5.38472
#
# Compressibility (1/GPa) = 0.05059081
#
# Stress axis : x y z
#
# Youngs Moduli (GPa) = 44.24874 38.34803 101.50849
#
# Poissons Ratio (x) = -0.10821 0.55662
# Poissons Ratio (y) = -0.12486 0.13266
# Poissons Ratio (z) = 0.24264 0.05012
#
# Static dielectric constant tensor:
#      x y z
#    x 1.707340 0.000000 -0.016690 
#    y 0.000000 1.813310 0.000000 
#    z -0.016690 0.000000 1.752030 
# 
# From -- ./inp_files/35966.got.cif
#   From: 2010.05.17/outbox.cif.g08.bks.cpg/sg9_18_cif.got.tgz:35966.got - 2010.06.03 20:04:27.
