data_PCOD9135211
_publ_section_title
;
Structure prediction by ZEFSAII (Michael W. Deem and Ramdas Pophale) SiO2 
 PCOD9135211
Probable space group: C C
;
_chemical_formula_sum "Si O2"
_cell_formula_units_Z 32
_cell_length_a 22.291326
_cell_length_b 15.610647
_cell_length_c 8.280119
_cell_angle_alpha 90.000000
_cell_angle_beta 32.613262
_cell_angle_gamma 90.000000
_cell_volume 1552.939613
_symmetry_space_group_name_H-M "C C"
_symmetry_group_IT_number 9
_symmetry_cell_setting 'monoclinic'
loop_
_space_group_symop_operation_xyz
x,y,z
x,-y,1/2+z
1/2+x,1/2+y,z
1/2+x,1/2-y,1/2+z
loop_
_atom_site_type_symbol
_atom_site_label
_atom_site_fract_x
_atom_site_fract_y
_atom_site_fract_z
Si Si1 0.690290 0.236504 0.736760
Si Si2 0.380758 0.837356 0.384294
Si Si3 0.294162 0.776405 0.931011
Si Si4 0.562522 0.706792 0.849009
Si Si5 0.998392 0.633419 0.081224
Si Si6 0.354799 0.591259 0.275416
Si Si7 0.774278 0.085012 0.088986
Si Si8 0.523298 0.026432 0.700993
O O1 0.774837 0.315017 0.512019
O O2 0.773092 0.154604 0.562104
O O3 0.619862 0.261687 0.053896
O O4 0.594301 0.204102 0.834508
O O5 0.342641 0.801058 0.645457
O O6 0.424385 0.932226 0.318182
O O7 0.485373 0.782241 0.090297
O O8 0.380242 0.820649 0.856856
O O9 0.167731 0.809710 0.226136
O O10 0.292568 0.674806 0.959082
O O11 0.479015 0.628164 0.009337
O O12 0.020694 0.575662 0.188123
O O13 0.006893 0.566462 0.914787
O O14 0.310892 0.596733 0.191658
O O15 0.342191 0.494393 0.362211
O O16 0.644902 0.058257 0.370512
#
# Coordination Sequence:
#
# PCOD9135211 Si02
#       8
#     4   4   4   4   4   4   4   4
#     4  10  20  38  62  89 129 160 212 263 313 385
#     4   9  21  36  63  90 121 169 212 260 331 375
#     4  10  23  41  64  90 131 171 213 265 324 390
#     4  10  21  40  64  91 128 170 209 264 328 386
#     4  11  23  39  61  94 126 159 217 265 318 379
#     4  11  25  38  64 103 128 166 222 268 329 375
#     4  12  22  40  64  98 129 167 216 270 319 383
#     4  11  21  38  60  93 122 160 213 265 316 375
#
# _framework density 20.606083000000002
#
# number of rings (size 3 to 8) (size 9 to 14) (size 15 to 20)
#    0.000    1.500    3.750    0.750    7.000    0.000 
#    0.000    5.000    0.000    0.000    0.000    0.000 
#    0.000    0.000    0.000    0.000    0.000    0.000 
#
# Total GULP energy -89305.500761 kJ/mol
# GULP energy per Si atom -5581.593798 kJ/mol
# Density = 2.055918 g / cm^3
# Si number density = 20.606083 Si / 1000 Ang^3
#
#
#
# Elastic Constant Matrix: (Units=GPa)
#
#
# Indices 1 2 3 4 5 6 
#
# 1 62.0135 35.4289 32.6838 0.0000 -29.9112 0.0000
# 2 35.4289 99.4323 46.0772 0.0000 -18.5908 0.0000
# 3 32.6838 46.0772 117.3136 0.0000 -29.1171 0.0000
# 4 0.0000 0.0000 0.0000 31.7447 0.0000 -6.6925
# 5 -29.9112 -18.5908 -29.1171 0.0000 36.1659 0.0000
# 6 0.0000 0.0000 0.0000 -6.6925 0.0000 35.4228
#
#
#
# Elastic Compliance Matrix: (Units=1/GPa)
#
#
# Indices 1 2 3 4 5 6 
#
# 1 0.030518 -0.006598 -0.000610 0.000000 0.021357 0.000000
# 2 -0.006598 0.013995 -0.004033 0.000000 -0.001510 0.000000
# 3 -0.000610 -0.004033 0.012045 0.000000 0.007120 0.000000
# 4 0.000000 0.000000 0.000000 0.032808 0.000000 0.006198
# 5 0.021357 -0.001510 0.007120 0.000000 0.050270 0.000000
# 6 0.000000 0.000000 0.000000 0.006198 0.000000 0.029402
#
#
# Mechanical properties :
#
#
# Convention : Reuss Voigt Hill
#
# Bulk Modulus (GPa) = 29.34677 56.34880 42.84779
# Shear Modulus (GPa) = 24.64527 31.63797 28.14162
#
# Velocity S-wave (km/s) = 3.46210 3.92263 3.69954
# Velocity P-wave (km/s) = 5.50039 6.92251 6.25202
#
# Compressibility (1/GPa) = 0.03407530
#
# Stress axis : x y z
#
# Youngs Moduli (GPa) = 32.76770 71.45546 83.01894
#
# Poissons Ratio (x) = 0.47147 0.05064
# Poissons Ratio (y) = 0.21620 0.33484
# Poissons Ratio (z) = 0.01999 0.28820
#
# Static dielectric constant tensor:
#      x y z
#    x 1.848460 0.000000 0.001030 
#    y 0.000000 1.712460 0.000000 
#    z 0.001030 0.000000 1.724120 
# 
# From -- ./inp_files/7385.got.cif
#   From: 2010.05.17/outbox.cif.g08.bks.cpg/sg9_4_cif.got.tgz:7385.got - 2010.06.03 20:04:27.
