data_PCOD9135035
_publ_section_title
;
Structure prediction by ZEFSAII (Michael W. Deem and Ramdas Pophale) SiO2 
 PCOD9135035
Probable space group: C C
;
_chemical_formula_sum "Si O2"
_cell_formula_units_Z 28
_cell_length_a 13.042632
_cell_length_b 13.161214
_cell_length_c 10.015181
_cell_angle_alpha 90.000000
_cell_angle_beta 47.568121
_cell_angle_gamma 90.000000
_cell_volume 1268.888496
_symmetry_space_group_name_H-M "C C"
_symmetry_group_IT_number 9
_symmetry_cell_setting 'monoclinic'
loop_
_space_group_symop_operation_xyz
x,y,z
x,-y,1/2+z
1/2+x,1/2+y,z
1/2+x,1/2-y,1/2+z
loop_
_atom_site_type_symbol
_atom_site_label
_atom_site_fract_x
_atom_site_fract_y
_atom_site_fract_z
Si Si1 0.855900 0.251813 0.984960
Si Si2 0.030468 0.523623 0.999965
Si Si3 0.175189 0.448931 0.635457
Si Si4 0.804068 0.664133 0.246331
Si Si5 0.621294 0.378829 0.313812
Si Si6 0.793339 0.121755 0.674442
Si Si7 0.560140 0.453921 0.078065
O O1 0.878158 0.305319 0.821658
O O2 0.997183 0.203905 0.915544
O O3 0.751859 0.156803 0.047536
O O4 0.769528 0.325036 0.159167
O O5 0.083204 0.439826 0.851188
O O6 0.136115 0.615141 0.867516
O O7 0.073287 0.506474 0.113674
O O8 0.876766 0.564536 0.123898
O O9 0.287257 0.539379 0.561822
O O10 0.820947 0.759935 0.134520
O O11 0.650066 0.634670 0.426774
O O12 0.603378 0.443543 0.463892
O O13 0.594819 0.447554 0.203854
O O14 0.901330 0.072752 0.683663
#
# Coordination Sequence:
#
# PCOD9135035 Si02
#       7
#     4   4   4   4   4   4   4
#     4  11  20  37  64  88 117 164 208 242 291 373
#     4  10  21  36  63  88 120 155 205 248 300 352
#     4  10  20  37  61  91 119 160 201 249 297 367
#     4  11  21  37  64  92 117 160 212 247 289 373
#     4  11  23  41  65  90 125 160 207 251 306 360
#     4  10  20  36  63  87 120 157 206 246 295 364
#     4  11  23  38  64  92 124 160 203 257 304 359
#
# _framework density 22.066555999999999
#
# number of rings (size 3 to 8) (size 9 to 14) (size 15 to 20)
#    0.857    0.571    4.286    1.714    0.000    3.429 
#    0.000    1.429    0.000    1.714    0.000    0.000 
#    0.000    0.000    0.000    0.000    0.000    0.000 
#
# Total GULP energy -78093.579809 kJ/mol
# GULP energy per Si atom -5578.112844 kJ/mol
# Density = 2.201633 g / cm^3
# Si number density = 22.066556 Si / 1000 Ang^3
#
#
#
# Elastic Constant Matrix: (Units=GPa)
#
#
# Indices 1 2 3 4 5 6 
#
# 1 44.6681 11.5105 14.4514 0.0000 4.6448 0.0000
# 2 11.5105 76.9512 26.5644 0.0000 11.2286 0.0000
# 3 14.4514 26.5644 85.8860 0.0000 -5.7491 0.0000
# 4 0.0000 0.0000 0.0000 46.0173 0.0000 -2.5193
# 5 4.6448 11.2286 -5.7491 0.0000 23.9085 0.0000
# 6 0.0000 0.0000 0.0000 -2.5193 0.0000 31.2612
#
#
#
# Elastic Compliance Matrix: (Units=1/GPa)
#
#
# Indices 1 2 3 4 5 6 
#
# 1 0.024603 -0.001574 -0.003988 0.000000 -0.004999 0.000000
# 2 -0.001574 0.016349 -0.005372 0.000000 -0.008664 0.000000
# 3 -0.003988 -0.005372 0.014429 0.000000 0.006767 0.000000
# 4 0.000000 0.000000 0.000000 0.021827 0.000000 0.001759
# 5 -0.004999 -0.008664 0.006767 0.000000 0.048494 0.000000
# 6 0.000000 0.000000 0.000000 0.001759 0.000000 0.032130
#
#
# Mechanical properties :
#
#
# Convention : Reuss Voigt Hill
#
# Bulk Modulus (GPa) = 29.83831 34.72867 32.28349
# Shear Modulus (GPa) = 26.19564 30.56931 28.38247
#
# Velocity S-wave (km/s) = 3.44920 3.72603 3.59028
# Velocity P-wave (km/s) = 5.42346 5.85520 5.64346
#
# Compressibility (1/GPa) = 0.03351396
#
# Stress axis : x y z
#
# Youngs Moduli (GPa) = 40.64557 61.16395 69.30565
#
# Poissons Ratio (x) = 0.09628 0.27636
# Poissons Ratio (y) = 0.06398 0.37231
# Poissons Ratio (z) = 0.16208 0.32857
#
# Static dielectric constant tensor:
#      x y z
#    x 1.827660 0.000000 0.006700 
#    y 0.000000 1.824690 0.000000 
#    z 0.006700 0.000000 1.818530 
# 
# From -- ./inp_files/18046.got.cif
#   From: 2010.05.17/outbox.cif.g08.bks.cpg/sg9_10_cif.got.tgz:18046.got - 2010.06.03 20:04:27.
