data_PCOD9135912
_publ_section_title
;
Structure prediction by ZEFSAII (Michael W. Deem and Ramdas Pophale) SiO2 
 PCOD9135912
Probable space group: C C
;
_chemical_formula_sum "Si O2"
_cell_formula_units_Z 32
_cell_length_a 23.167156
_cell_length_b 10.594088
_cell_length_c 8.895067
_cell_angle_alpha 90.000000
_cell_angle_beta 46.067033
_cell_angle_gamma 90.000000
_cell_volume 1572.206931
_symmetry_space_group_name_H-M "C C"
_symmetry_group_IT_number 9
_symmetry_cell_setting 'monoclinic'
loop_
_space_group_symop_operation_xyz
x,y,z
x,-y,1/2+z
1/2+x,1/2+y,z
1/2+x,1/2-y,1/2+z
loop_
_atom_site_type_symbol
_atom_site_label
_atom_site_fract_x
_atom_site_fract_y
_atom_site_fract_z
Si Si1 0.672230 0.657662 0.269400
Si Si2 0.544004 0.203548 0.868578
Si Si3 0.957519 0.197102 0.805693
Si Si4 0.089213 0.945322 0.215512
Si Si5 0.499912 0.080363 0.462029
Si Si6 0.826382 0.440012 0.368653
Si Si7 0.793839 0.317113 0.109901
Si Si8 0.111037 0.256487 0.929433
O O1 0.628544 0.788762 0.308363
O O2 0.631498 0.564637 0.217641
O O3 0.646212 0.607993 0.479714
O O4 0.766547 0.646288 0.074567
O O5 0.563286 0.255290 0.669756
O O6 0.508593 0.065363 0.907265
O O7 0.486269 0.282927 0.082640
O O8 0.001598 0.074517 0.796317
O O9 0.988049 0.321751 0.844962
O O10 0.862323 0.210695 0.986746
O O11 0.085043 0.853112 0.364579
O O12 0.420529 0.089903 0.709520
O O13 0.579801 0.118150 0.405957
O O14 0.805942 0.405346 0.234079
O O15 0.807653 0.584350 0.448373
O O16 0.705837 0.258578 0.275103
#
# Coordination Sequence:
#
# PCOD9135912 Si02
#       8
#     4   4   4   4   4   4   4   4
#     4  11  20  35  60  90 123 153 196 254 294 356
#     4  11  20  36  58  86 117 160 198 238 306 356
#     4   9  21  37  58  86 123 158 201 250 292 364
#     4  10  21  37  57  90 121 157 196 244 311 356
#     4  10  22  38  60  88 122 159 200 246 301 363
#     4  11  21  35  61  96 119 148 203 257 296 347
#     4  11  21  37  60  94 121 157 201 255 301 348
#     4  11  22  37  60  86 124 156 197 248 311 356
#
# _framework density 20.353553000000002
#
# number of rings (size 3 to 8) (size 9 to 14) (size 15 to 20)
#    0.000    1.500    3.750    2.250    1.750    0.000 
#    0.000    0.000    5.500    1.500    0.000    0.000 
#    0.000    0.000    0.000    0.000    0.000    0.000 
#
# Total GULP energy -89197.707195 kJ/mol
# GULP energy per Si atom -5574.856700 kJ/mol
# Density = 2.030723 g / cm^3
# Si number density = 20.353553 Si / 1000 Ang^3
#
#
#
# Elastic Constant Matrix: (Units=GPa)
#
#
# Indices 1 2 3 4 5 6 
#
# 1 81.2336 9.7103 40.5150 0.0000 -11.5872 0.0000
# 2 9.7103 18.8709 11.9634 0.0000 -7.7198 0.0000
# 3 40.5150 11.9634 121.3754 0.0000 -2.9389 0.0000
# 4 0.0000 0.0000 0.0000 20.5622 0.0000 -0.1687
# 5 -11.5872 -7.7198 -2.9389 0.0000 41.5320 0.0000
# 6 0.0000 0.0000 0.0000 -0.1687 0.0000 23.3606
#
#
#
# Elastic Compliance Matrix: (Units=1/GPa)
#
#
# Indices 1 2 3 4 5 6 
#
# 1 0.015599 -0.003639 -0.004767 0.000000 0.003338 0.000000
# 2 -0.003639 0.061973 -0.004647 0.000000 0.010175 0.000000
# 3 -0.004767 -0.004647 0.010253 0.000000 -0.001468 0.000000
# 4 0.000000 0.000000 0.000000 0.048636 0.000000 0.000351
# 5 0.003338 0.010175 -0.001468 0.000000 0.026797 0.000000
# 6 0.000000 0.000000 0.000000 0.000351 0.000000 0.042810
#
#
# Mechanical properties :
#
#
# Convention : Reuss Voigt Hill
#
# Bulk Modulus (GPa) = 16.20289 38.42860 27.31575
# Shear Modulus (GPa) = 19.78269 27.71037 23.74653
#
# Velocity S-wave (km/s) = 3.12100 3.69379 3.41941
# Velocity P-wave (km/s) = 4.57881 6.09209 5.38884
#
# Compressibility (1/GPa) = 0.06171739
#
# Stress axis : x y z
#
# Youngs Moduli (GPa) = 64.10627 16.13615 97.53433
#
# Poissons Ratio (x) = 0.05871 0.46499
# Poissons Ratio (y) = 0.23326 0.45328
# Poissons Ratio (z) = 0.30563 0.07499
#
# Static dielectric constant tensor:
#      x y z
#    x 1.775480 0.000000 -0.006120 
#    y 0.000000 1.830990 0.000000 
#    z -0.006120 0.000000 1.746810 
# 
# From -- ./inp_files/10547.got.cif
#   From: 2010.05.17/outbox.cif.g08.bks.cpg/sg9_6_cif.got.tgz:10547.got - 2010.06.03 20:04:27.
