data_PCOD9135834
_publ_section_title
;
Structure prediction by ZEFSAII (Michael W. Deem and Ramdas Pophale) SiO2 
 PCOD9135834
Probable space group: C C
;
_chemical_formula_sum "Si O2"
_cell_formula_units_Z 20
_cell_length_a 6.968642
_cell_length_b 17.932052
_cell_length_c 11.677487
_cell_angle_alpha 90.000000
_cell_angle_beta 139.123897
_cell_angle_gamma 90.000000
_cell_volume 954.965655
_symmetry_space_group_name_H-M "C C"
_symmetry_group_IT_number 9
_symmetry_cell_setting 'monoclinic'
loop_
_space_group_symop_operation_xyz
x,y,z
x,-y,1/2+z
1/2+x,1/2+y,z
1/2+x,1/2-y,1/2+z
loop_
_atom_site_type_symbol
_atom_site_label
_atom_site_fract_x
_atom_site_fract_y
_atom_site_fract_z
Si Si1 0.839150 0.582705 0.431850
Si Si2 0.364510 0.223031 0.300677
Si Si3 0.104038 0.629328 0.768130
Si Si4 0.719489 0.351441 0.496737
Si Si5 0.173870 0.566891 0.050722
O O1 0.951396 0.661138 0.431660
O O2 0.515308 0.570232 0.236025
O O3 0.858528 0.592410 0.577880
O O4 0.049372 0.516438 0.487180
O O5 0.137146 0.281785 0.256546
O O6 0.632282 0.277082 0.387346
O O7 0.254411 0.179245 0.140822
O O8 0.421417 0.600045 0.863885
O O9 0.097555 0.608868 0.897683
O O10 0.992146 0.393437 0.569608
#
# Coordination Sequence:
#
# PCOD9135834 Si02
#       5
#     4   4   4   4   4
#     4  12  25  47  71 105 144 188 233 295 350 423
#     4  10  20  47  73  94 146 180 234 299 337 416
#     4  10  23  48  72 101 144 183 235 296 348 418
#     4  10  22  46  69 105 138 186 235 290 351 416
#     4  12  28  44  73 105 144 191 237 284 364 421
#
# _framework density 20.943162000000001
#
# number of rings (size 3 to 8) (size 9 to 14) (size 15 to 20)
#    1.200    0.000    4.000    1.200    2.800    3.200 
#    7.200    0.000    0.000    0.000    0.000    0.000 
#    0.000    0.000    0.000    0.000    0.000    0.000 
#
# Total GULP energy -55762.303082 kJ/mol
# GULP energy per Si atom -5576.230308 kJ/mol
# Density = 2.089549 g / cm^3
# Si number density = 20.943162 Si / 1000 Ang^3
#
#
#
# Elastic Constant Matrix: (Units=GPa)
#
#
# Indices 1 2 3 4 5 6 
#
# 1 55.5042 31.6169 22.9660 0.0000 -16.0053 0.0000
# 2 31.6169 102.8751 21.9191 0.0000 -6.9625 0.0000
# 3 22.9660 21.9191 98.1334 0.0000 -28.0394 0.0000
# 4 0.0000 0.0000 0.0000 -3.5537 0.0000 -23.1550
# 5 -16.0053 -6.9625 -28.0394 0.0000 38.2606 0.0000
# 6 0.0000 0.0000 0.0000 -23.1550 0.0000 13.5111
#
#
#
# Elastic Compliance Matrix: (Units=1/GPa)
#
#
# Indices 1 2 3 4 5 6 
#
# 1 0.024914 -0.006681 -0.002160 0.000000 0.007623 0.000000
# 2 -0.006681 0.011999 -0.001633 0.000000 -0.001808 0.000000
# 3 -0.002160 -0.001633 0.013556 0.000000 0.008734 0.000000
# 4 0.000000 0.000000 0.000000 -0.023129 0.000000 -0.039638
# 5 0.007623 -0.001808 0.008734 0.000000 0.035397 0.000000
# 6 0.000000 0.000000 0.000000 -0.039638 0.000000 0.006083
#
#
# Mechanical properties :
#
#
# Convention : Reuss Voigt Hill
#
# Bulk Modulus (GPa) = 33.87407 45.50186 39.68796
# Shear Modulus (GPa) = 50.19552 21.64431 35.91991
#
# Velocity S-wave (km/s) = 4.90097 3.21826 4.14589
# Velocity P-wave (km/s) = 6.94517 5.96516 6.47374
#
# Compressibility (1/GPa) = 0.02952111
#
# Stress axis : x y z
#
# Youngs Moduli (GPa) = 40.13750 83.33761 73.76792
#
# Poissons Ratio (x) = 0.55676 0.15936
# Poissons Ratio (y) = 0.26815 0.12049
# Poissons Ratio (z) = 0.08671 0.13612
#
# Static dielectric constant tensor:
#      x y z
#    x 1.709640 0.000000 -0.026490 
#    y 0.000000 1.769190 0.000000 
#    z -0.026490 0.000000 1.818890 
# 
# From -- ./inp_files/13428.got.cif
#   From: 2010.05.17/outbox.cif.g08.bks.cpg/sg9_7_cif.got.tgz:13428.got - 2010.06.03 20:04:27.
