data_PCOD9135760
_publ_section_title
;
Structure prediction by ZEFSAII (Michael W. Deem and Ramdas Pophale) SiO2 
 PCOD9135760
Probable space group: C C
;
_chemical_formula_sum "Si O2"
_cell_formula_units_Z 28
_cell_length_a 6.401884
_cell_length_b 20.827032
_cell_length_c 12.465151
_cell_angle_alpha 90.000000
_cell_angle_beta 132.515610
_cell_angle_gamma 90.000000
_cell_volume 1225.053799
_symmetry_space_group_name_H-M "C C"
_symmetry_group_IT_number 9
_symmetry_cell_setting 'monoclinic'
loop_
_space_group_symop_operation_xyz
x,y,z
x,-y,1/2+z
1/2+x,1/2+y,z
1/2+x,1/2-y,1/2+z
loop_
_atom_site_type_symbol
_atom_site_label
_atom_site_fract_x
_atom_site_fract_y
_atom_site_fract_z
Si Si1 0.520400 0.693403 0.107530
Si Si2 0.304828 0.622898 0.821043
Si Si3 0.901923 0.581413 0.248725
Si Si4 0.917523 0.800040 0.164942
Si Si5 0.162376 0.861838 0.043650
Si Si6 0.425264 0.503351 0.474459
Si Si7 0.764294 0.176539 0.237245
O O1 0.766343 0.647604 0.243767
O O2 0.639177 0.761161 0.107759
O O3 0.286409 0.690408 0.118733
O O4 0.420856 0.658602 0.965530
O O5 0.467931 0.646955 0.772952
O O6 0.344404 0.547648 0.855138
O O7 0.977910 0.642178 0.696218
O O8 0.124408 0.539276 0.395132
O O9 0.081749 0.613131 0.209880
O O10 0.629998 0.536733 0.125771
O O11 0.949261 0.834294 0.061156
O O12 0.134390 0.741363 0.239542
O O13 0.115781 0.937134 0.007151
O O14 0.065421 0.829865 0.900092
#
# Coordination Sequence:
#
# PCOD9135760 Si02
#       7
#     4   4   4   4   4   4   4
#     4  10  23  44  70 100 140 179 225 284 346 407
#     4  11  24  42  68 101 135 181 229 281 341 412
#     4   9  20  40  68  94 134 179 224 280 338 395
#     4  11  24  42  68 102 136 181 226 288 340 411
#     4  11  24  42  68 101 135 181 229 281 341 412
#     4  10  20  44  64  94 140 176 228 282 326 412
#     4  10  23  44  70 100 140 179 225 284 346 407
#
# _framework density 22.856141000000001
#
# number of rings (size 3 to 8) (size 9 to 14) (size 15 to 20)
#    0.000    1.714    1.429    1.714    0.000   11.429 
#   10.286    7.143    0.000    0.000    0.000    0.000 
#    0.000    0.000    0.000    0.000    0.000    0.000 
#
# Total GULP energy -78016.459686 kJ/mol
# GULP energy per Si atom -5572.604263 kJ/mol
# Density = 2.280412 g / cm^3
# Si number density = 22.856141 Si / 1000 Ang^3
#
#
#
# Elastic Constant Matrix: (Units=GPa)
#
#
# Indices 1 2 3 4 5 6 
#
# 1 73.8466 25.0489 33.8820 0.0000 -9.9668 0.0000
# 2 25.0489 123.7186 23.8462 0.0000 2.7195 0.0000
# 3 33.8820 23.8462 85.7168 0.0000 0.9263 0.0000
# 4 0.0000 0.0000 0.0000 32.8345 0.0000 5.9281
# 5 -9.9668 2.7195 0.9263 0.0000 43.0766 0.0000
# 6 0.0000 0.0000 0.0000 5.9281 0.0000 10.1736
#
#
#
# Elastic Compliance Matrix: (Units=1/GPa)
#
#
# Indices 1 2 3 4 5 6 
#
# 1 0.017945 -0.002488 -0.006449 0.000000 0.004448 0.000000
# 2 -0.002488 0.008896 -0.001479 0.000000 -0.001105 0.000000
# 3 -0.006449 -0.001479 0.014646 0.000000 -0.001714 0.000000
# 4 0.000000 0.000000 0.000000 0.034037 0.000000 -0.019833
# 5 0.004448 -0.001105 -0.001714 0.000000 0.024350 0.000000
# 6 0.000000 0.000000 0.000000 -0.019833 0.000000 0.109850
#
#
# Mechanical properties :
#
#
# Convention : Reuss Voigt Hill
#
# Bulk Modulus (GPa) = 48.41827 49.87070 49.14448
# Shear Modulus (GPa) = 21.05788 30.58393 25.82090
#
# Velocity S-wave (km/s) = 3.03862 3.66198 3.36477
# Velocity P-wave (km/s) = 5.79145 6.30451 6.05342
#
# Compressibility (1/GPa) = 0.02065336
#
# Stress axis : x y z
#
# Youngs Moduli (GPa) = 55.72668 112.40948 68.27983
#
# Poissons Ratio (x) = 0.27967 0.44034
# Poissons Ratio (y) = 0.13864 0.10102
# Poissons Ratio (z) = 0.35939 0.16631
#
# Static dielectric constant tensor:
#      x y z
#    x 1.921360 0.000000 0.054530 
#    y 0.000000 1.867970 0.000000 
#    z 0.054530 0.000000 1.843810 
# 
# From -- ./inp_files/13567.got.cif
#   From: 2010.05.17/outbox.cif.g08.bks.cpg/sg9_7_cif.got.tgz:13567.got - 2010.06.03 20:04:27.
