data_PCOD9135234
_publ_section_title
;
Structure prediction by ZEFSAII (Michael W. Deem and Ramdas Pophale) SiO2 
 PCOD9135234
Probable space group: C C
;
_chemical_formula_sum "Si O2"
_cell_formula_units_Z 32
_cell_length_a 6.933958
_cell_length_b 13.221330
_cell_length_c 13.464806
_cell_angle_alpha 90.000000
_cell_angle_beta 84.156000
_cell_angle_gamma 90.000000
_cell_volume 1227.986114
_symmetry_space_group_name_H-M "C C"
_symmetry_group_IT_number 9
_symmetry_cell_setting 'monoclinic'
loop_
_space_group_symop_operation_xyz
x,y,z
x,-y,1/2+z
1/2+x,1/2+y,z
1/2+x,1/2-y,1/2+z
loop_
_atom_site_type_symbol
_atom_site_label
_atom_site_fract_x
_atom_site_fract_y
_atom_site_fract_z
Si Si1 0.955400 0.954730 0.223460
Si Si2 0.575954 0.211312 0.063906
Si Si3 0.399644 0.817691 0.143154
Si Si4 0.185405 0.210464 0.998199
Si Si5 0.102519 0.643665 0.835204
Si Si6 0.246220 0.016562 0.864065
Si Si7 0.195722 0.509732 0.566137
Si Si8 0.387588 0.605273 0.380341
O O1 0.818591 0.874710 0.286766
O O2 0.169126 0.952779 0.258081
O O3 0.882688 0.953566 0.116902
O O4 0.883311 0.065319 0.268966
O O5 0.343510 0.216806 0.077686
O O6 0.607407 0.199621 0.941404
O O7 0.634472 0.101370 0.097969
O O8 0.676103 0.297585 0.124922
O O9 0.484042 0.801757 0.250341
O O10 0.512395 0.917995 0.098290
O O11 0.486243 0.735710 0.060137
O O12 0.181880 0.103050 0.945114
O O13 0.264744 0.296303 0.917679
O O14 0.974333 0.539133 0.850247
O O15 0.119876 0.915762 0.892837
O O16 0.276379 0.520995 0.451751
#
# Coordination Sequence:
#
# PCOD9135234 Si02
#       8
#     4   4   4   4   4   4   4   4
#     4   9  19  38  61  83 122 164 205 262 319 375
#     4  11  22  40  63  88 130 167 206 272 318 379
#     4  10  23  40  62  95 125 163 217 265 317 389
#     4  10  21  38  61  93 123 164 212 261 324 382
#     4  10  20  38  65  88 122 169 209 253 325 382
#     4   9  20  38  64  85 124 164 206 261 324 375
#     4  10  20  38  64  86 123 171 208 258 328 379
#     4   9  19  38  58  86 121 160 209 256 313 379
#
# _framework density 26.058924999999999
#
# number of rings (size 3 to 8) (size 9 to 14) (size 15 to 20)
#    0.750    1.500    1.250    1.500    0.000    7.000 
#    0.000    7.500    0.000    0.000    0.000    0.000 
#    0.000    0.000    0.000    0.000    0.000    0.000 
#
# Total GULP energy -89178.822782 kJ/mol
# GULP energy per Si atom -5573.676424 kJ/mol
# Density = 2.599961 g / cm^3
# Si number density = 26.058925 Si / 1000 Ang^3
#
#
#
# Elastic Constant Matrix: (Units=GPa)
#
#
# Indices 1 2 3 4 5 6 
#
# 1 85.5446 4.6562 20.0157 0.0000 30.5252 0.0000
# 2 4.6562 60.0017 0.8793 0.0000 14.0152 0.0000
# 3 20.0157 0.8793 95.1089 0.0000 29.7920 0.0000
# 4 0.0000 0.0000 0.0000 24.8303 0.0000 7.9707
# 5 30.5252 14.0152 29.7920 0.0000 41.0702 0.0000
# 6 0.0000 0.0000 0.0000 7.9707 0.0000 37.9817
#
#
#
# Elastic Compliance Matrix: (Units=1/GPa)
#
#
# Indices 1 2 3 4 5 6 
#
# 1 0.016097 0.001796 0.000693 0.000000 -0.013079 0.000000
# 2 0.001796 0.018703 0.002415 0.000000 -0.009469 0.000000
# 3 0.000693 0.002415 0.013931 0.000000 -0.011445 0.000000
# 4 0.000000 0.000000 0.000000 0.043182 0.000000 -0.009062
# 5 -0.013079 -0.009469 -0.011445 0.000000 0.045603 0.000000
# 6 0.000000 0.000000 0.000000 -0.009062 0.000000 0.028230
#
#
# Mechanical properties :
#
#
# Convention : Reuss Voigt Hill
#
# Bulk Modulus (GPa) = 17.08253 32.41751 24.75002
# Shear Modulus (GPa) = 28.49777 35.11673 31.80725
#
# Velocity S-wave (km/s) = 3.31053 3.67494 3.49748
# Velocity P-wave (km/s) = 4.60244 5.52032 5.08214
#
# Compressibility (1/GPa) = 0.05853934
#
# Stress axis : x y z
#
# Youngs Moduli (GPa) = 62.12275 53.46656 71.78208
#
# Poissons Ratio (x) = -0.09602 -0.04973
# Poissons Ratio (y) = -0.11156 -0.17338
# Poissons Ratio (z) = -0.04304 -0.12914
#
# Static dielectric constant tensor:
#      x y z
#    x 2.060530 0.000000 0.005210 
#    y 0.000000 2.151700 0.000000 
#    z 0.005210 0.000000 2.034400 
# 
# From -- ./inp_files/23114.got.cif
#   From: 2010.05.17/outbox.cif.g08.bks.cpg/sg9_12_cif.got.tgz:23114.got - 2010.06.03 20:04:27.
