data_PCOD9135235
_publ_section_title
;
Structure prediction by ZEFSAII (Michael W. Deem and Ramdas Pophale) SiO2 
 PCOD9135235
Probable space group: C C
;
_chemical_formula_sum "Si O2"
_cell_formula_units_Z 32
_cell_length_a 12.595776
_cell_length_b 14.037665
_cell_length_c 11.887827
_cell_angle_alpha 90.000000
_cell_angle_beta 141.719066
_cell_angle_gamma 90.000000
_cell_volume 1302.195243
_symmetry_space_group_name_H-M "C C"
_symmetry_group_IT_number 9
_symmetry_cell_setting 'monoclinic'
loop_
_space_group_symop_operation_xyz
x,y,z
x,-y,1/2+z
1/2+x,1/2+y,z
1/2+x,1/2-y,1/2+z
loop_
_atom_site_type_symbol
_atom_site_label
_atom_site_fract_x
_atom_site_fract_y
_atom_site_fract_z
Si Si1 0.327490 0.115801 0.177520
Si Si2 0.508706 0.294196 0.413744
Si Si3 0.699685 0.508954 0.780156
Si Si4 0.426583 0.652354 0.443392
Si Si5 0.648742 0.353095 0.916452
Si Si6 0.041065 0.365488 0.569460
Si Si7 0.997601 0.575330 0.787441
Si Si8 0.186756 0.315517 0.267338
O O1 0.420879 0.216555 0.262602
O O2 0.258820 0.071754 0.238698
O O3 0.459647 0.035873 0.254024
O O4 0.147722 0.140646 0.969105
O O5 0.364953 0.350188 0.363846
O O6 0.592093 0.229872 0.582085
O O7 0.551544 0.575521 0.606054
O O8 0.634129 0.447813 0.830227
O O9 0.873595 0.568211 0.950842
O O10 0.487250 0.658611 0.362711
O O11 0.472583 0.757780 0.525700
O O12 0.225079 0.628283 0.283906
O O13 0.691604 0.266283 0.867754
O O14 0.814250 0.370922 0.132122
O O15 0.084278 0.390321 0.474033
O O16 0.089433 0.601879 0.749080
#
# Coordination Sequence:
#
# PCOD9135235 Si02
#       8
#     4   4   4   4   4   4   4   4
#     4  10  21  41  60  92 135 179 214 282 343 408
#     4  10  20  38  64  88 134 169 219 270 346 400
#     4  11  23  44  65 103 150 178 234 301 348 419
#     4  12  23  43  71 102 141 192 233 289 358 418
#     4  12  22  40  68 102 142 178 224 303 347 404
#     4  11  23  41  71 101 145 185 233 290 362 411
#     4  11  22  39  64 100 141 171 227 290 342 405
#     4  11  20  34  63 102 126 166 220 281 340 397
#
# _framework density 24.573888
#
# number of rings (size 3 to 8) (size 9 to 14) (size 15 to 20)
#    0.000    1.000    8.750    0.000    1.750    0.000 
#   13.500    0.000    2.750    0.000    0.000    0.000 
#    0.000    0.000    0.000    0.000    0.000    0.000 
#
# Total GULP energy -89524.155835 kJ/mol
# GULP energy per Si atom -5595.259740 kJ/mol
# Density = 2.451796 g / cm^3
# Si number density = 24.573888 Si / 1000 Ang^3
#
#
#
# Elastic Constant Matrix: (Units=GPa)
#
#
# Indices 1 2 3 4 5 6 
#
# 1 71.2715 33.1897 24.6591 0.0000 16.9437 0.0000
# 2 33.1897 123.1647 26.8406 0.0001 18.6720 0.0000
# 3 24.6591 26.8406 112.8524 0.0002 22.2400 0.0001
# 4 0.0000 0.0001 0.0002 30.5651 0.0001 7.4686
# 5 16.9437 18.6720 22.2400 0.0001 37.9327 0.0000
# 6 0.0000 0.0000 0.0001 7.4686 0.0000 29.0171
#
#
#
# Elastic Compliance Matrix: (Units=1/GPa)
#
#
# Indices 1 2 3 4 5 6 
#
# 1 0.017548 -0.003544 -0.002025 0.000000 -0.004907 0.000000
# 2 -0.003544 0.009689 -0.001020 0.000000 -0.002588 0.000000
# 3 -0.002025 -0.001020 0.010480 0.000000 -0.004738 0.000000
# 4 0.000000 0.000000 0.000000 0.034913 0.000000 -0.008986
# 5 -0.004907 -0.002588 -0.004738 0.000000 0.032606 0.000000
# 6 0.000000 0.000000 0.000000 -0.008986 0.000000 0.036775
#
#
# Mechanical properties :
#
#
# Convention : Reuss Voigt Hill
#
# Bulk Modulus (GPa) = 40.74914 52.96306 46.85610
# Shear Modulus (GPa) = 30.60584 34.34294 32.47439
#
# Velocity S-wave (km/s) = 3.53294 3.74242 3.63919
# Velocity P-wave (km/s) = 5.76719 6.34615 6.06359
#
# Compressibility (1/GPa) = 0.02454039
#
# Stress axis : x y z
#
# Youngs Moduli (GPa) = 56.98619 103.21194 95.42154
#
# Poissons Ratio (x) = 0.36575 0.19319
# Poissons Ratio (y) = 0.20194 0.09733
# Poissons Ratio (z) = 0.11537 0.10527
#
# Static dielectric constant tensor:
#      x y z
#    x 1.993120 0.000000 -0.023070 
#    y 0.000000 1.961230 0.000000 
#    z -0.023070 0.000000 1.990030 
# 
# From -- ./inp_files/26038.got.cif
#   From: 2010.05.17/outbox.cif.g08.bks.cpg/sg9_14_cif.got.tgz:26038.got - 2010.06.03 20:04:27.
