data_PCOD9135660
_publ_section_title
;
Structure prediction by ZEFSAII (Michael W. Deem and Ramdas Pophale) SiO2 
 PCOD9135660
Probable space group: C C
;
_chemical_formula_sum "Si O2"
_cell_formula_units_Z 32
_cell_length_a 16.170889
_cell_length_b 17.628980
_cell_length_c 8.527614
_cell_angle_alpha 90.000000
_cell_angle_beta 35.579358
_cell_angle_gamma 90.000000
_cell_volume 1414.440628
_symmetry_space_group_name_H-M "C C"
_symmetry_group_IT_number 9
_symmetry_cell_setting 'monoclinic'
loop_
_space_group_symop_operation_xyz
x,y,z
x,-y,1/2+z
1/2+x,1/2+y,z
1/2+x,1/2-y,1/2+z
loop_
_atom_site_type_symbol
_atom_site_label
_atom_site_fract_x
_atom_site_fract_y
_atom_site_fract_z
Si Si1 0.366910 0.473762 0.159120
Si Si2 0.451120 0.898488 0.208817
Si Si3 0.089896 0.557859 0.949669
Si Si4 0.874477 0.729094 0.612998
Si Si5 0.728774 0.872634 0.927343
Si Si6 0.572589 0.452574 0.574544
Si Si7 0.799173 0.577021 0.271667
Si Si8 0.653623 0.315740 0.207849
O O1 0.208158 0.437060 0.404310
O O2 0.321475 0.562700 0.195497
O O3 0.472090 0.485580 0.141711
O O4 0.468223 0.431892 0.878164
O O5 0.368045 0.850796 0.210289
O O6 0.583487 0.849183 0.066307
O O7 0.359713 0.919818 0.502686
O O8 0.534306 0.971745 0.017470
O O9 0.932701 0.593229 0.184455
O O10 0.176232 0.586302 0.665985
O O11 0.783354 0.725000 0.596286
O O12 0.035178 0.754975 0.346212
O O13 0.813006 0.795728 0.818090
O O14 0.712322 0.497962 0.418834
O O15 0.605885 0.383751 0.403543
O O16 0.693493 0.642279 0.485995
#
# Coordination Sequence:
#
# PCOD9135660 Si02
#       8
#     4   4   4   4   4   4   4   4
#     4  11  21  37  67  99 132 172 216 282 344 403
#     4  10  23  40  71  95 131 177 226 279 341 405
#     4  10  21  42  69  99 130 178 227 286 337 409
#     4  12  23  45  67  96 132 193 224 277 348 425
#     4  10  20  42  67  93 138 172 225 274 337 415
#     4  12  22  41  67 103 135 168 227 290 346 401
#     4  11  24  45  65 102 136 170 228 292 344 413
#     4  12  26  44  69  95 140 186 229 280 351 423
#
# _framework density 22.623784000000001
#
# number of rings (size 3 to 8) (size 9 to 14) (size 15 to 20)
#    0.000    1.000    5.000    1.500    1.750    2.000 
#    4.500    0.000    5.500    0.000    0.000    0.000 
#    0.000    0.000    0.000    0.000    0.000    0.000 
#
# Total GULP energy -89176.283146 kJ/mol
# GULP energy per Si atom -5573.517697 kJ/mol
# Density = 2.257229 g / cm^3
# Si number density = 22.623784 Si / 1000 Ang^3
#
#
#
# Elastic Constant Matrix: (Units=GPa)
#
#
# Indices 1 2 3 4 5 6 
#
# 1 86.0094 11.5816 25.8169 0.0000 -30.0898 0.0000
# 2 11.5816 70.3188 40.0195 0.0001 -4.5925 -0.0001
# 3 25.8169 40.0195 69.9812 0.0001 -17.8340 -0.0001
# 4 0.0000 0.0001 0.0001 20.0309 0.0000 8.7735
# 5 -30.0898 -4.5925 -17.8340 0.0000 31.7406 0.0001
# 6 0.0000 -0.0001 -0.0001 8.7735 0.0001 17.7590
#
#
#
# Elastic Compliance Matrix: (Units=1/GPa)
#
#
# Indices 1 2 3 4 5 6 
#
# 1 0.017825 -0.000641 -0.002249 0.000000 0.015542 0.000000
# 2 -0.000641 0.021632 -0.013411 0.000000 -0.005013 0.000000
# 3 -0.002249 -0.013411 0.025386 0.000000 0.010191 0.000000
# 4 0.000000 0.000000 0.000000 0.063708 0.000000 -0.031474
# 5 0.015542 -0.005013 0.010191 0.000000 0.051240 0.000000
# 6 0.000000 0.000000 0.000000 -0.031474 0.000000 0.071859
#
#
# Mechanical properties :
#
#
# Convention : Reuss Voigt Hill
#
# Bulk Modulus (GPa) = 31.01701 42.34948 36.68325
# Shear Modulus (GPa) = 16.94924 23.83220 20.39072
#
# Velocity S-wave (km/s) = 2.74008 3.24915 3.00542
# Velocity P-wave (km/s) = 4.87344 5.73024 5.31912
#
# Compressibility (1/GPa) = 0.03224037
#
# Stress axis : x y z
#
# Youngs Moduli (GPa) = 56.10062 46.22822 39.39216
#
# Poissons Ratio (x) = 0.02963 0.08858
# Poissons Ratio (y) = 0.03596 0.52831
# Poissons Ratio (z) = 0.12615 0.61999
#
# Static dielectric constant tensor:
#      x y z
#    x 1.934190 0.000000 -0.061010 
#    y 0.000000 1.849580 0.000000 
#    z -0.061010 0.000000 1.860950 
# 
# From -- ./inp_files/11024.got.cif
#   From: 2010.05.17/outbox.cif.g08.bks.cpg/sg9_6_cif.got.tgz:11024.got - 2010.06.03 20:04:27.
