data_PCOD9135877
_publ_section_title
;
Structure prediction by ZEFSAII (Michael W. Deem and Ramdas Pophale) SiO2 
 PCOD9135877
Probable space group: C C
;
_chemical_formula_sum "Si O2"
_cell_formula_units_Z 32
_cell_length_a 17.370798
_cell_length_b 12.894294
_cell_length_c 7.418435
_cell_angle_alpha 90.000000
_cell_angle_beta 46.792537
_cell_angle_gamma 90.000000
_cell_volume 1211.114890
_symmetry_space_group_name_H-M "C C"
_symmetry_group_IT_number 9
_symmetry_cell_setting 'monoclinic'
loop_
_space_group_symop_operation_xyz
x,y,z
x,-y,1/2+z
1/2+x,1/2+y,z
1/2+x,1/2-y,1/2+z
loop_
_atom_site_type_symbol
_atom_site_label
_atom_site_fract_x
_atom_site_fract_y
_atom_site_fract_z
Si Si1 0.309330 0.919835 0.705370
Si Si2 0.326752 0.230558 0.850759
Si Si3 0.765294 0.944403 0.847297
Si Si4 0.419705 0.151468 0.352274
Si Si5 0.036704 0.397951 0.337765
Si Si6 0.871555 0.884067 0.339825
Si Si7 0.079477 0.014738 0.455709
Si Si8 0.594494 0.677269 0.103462
O O1 0.310790 0.820302 0.571329
O O2 0.325622 0.908513 0.894394
O O3 0.429149 0.961978 0.464079
O O4 0.195397 0.968118 0.856845
O O5 0.329877 0.354812 0.851884
O O6 0.409705 0.175459 0.580930
O O7 0.216725 0.206754 0.923795
O O8 0.775318 0.901431 0.631195
O O9 0.826235 0.052698 0.745829
O O10 0.646747 0.947365 0.108383
O O11 0.398677 0.265353 0.297372
O O12 0.525103 0.119142 0.072375
O O13 0.035362 0.285194 0.239999
O O14 0.978436 0.942419 0.226253
O O15 0.075282 0.093091 0.292880
O O16 0.070450 0.889550 0.463852
#
# Coordination Sequence:
#
# PCOD9135877 Si02
#       8
#     4   4   4   4   4   4   4   4
#     4   9  21  38  67  86 127 165 208 253 317 370
#     4   9  20  39  60  92 125 166 207 252 312 382
#     4  10  23  39  62  89 130 165 206 264 314 371
#     4   9  20  40  63  89 124 165 210 257 309 378
#     4   9  20  44  61  86 125 173 205 259 313 377
#     4  11  22  38  60  97 125 159 218 256 312 378
#     4  11  21  36  58  99 120 162 207 262 313 368
#     4  10  21  36  59  88 130 159 205 261 306 370
#
# _framework density 26.421934
#
# number of rings (size 3 to 8) (size 9 to 14) (size 15 to 20)
#    0.750    1.500    1.250    0.750    5.250    0.000 
#    0.000    5.000    0.000    1.500    0.000    0.000 
#    0.000    0.000    0.000    0.000    0.000    0.000 
#
# Total GULP energy -89212.894445 kJ/mol
# GULP energy per Si atom -5575.805903 kJ/mol
# Density = 2.636180 g / cm^3
# Si number density = 26.421934 Si / 1000 Ang^3
#
#
#
# Elastic Constant Matrix: (Units=GPa)
#
#
# Indices 1 2 3 4 5 6 
#
# 1 81.7671 34.9810 47.5833 0.0000 -8.8292 0.0000
# 2 34.9810 44.0784 14.4443 0.0000 0.5083 0.0000
# 3 47.5833 14.4443 142.7989 0.0000 -13.9686 0.0000
# 4 0.0000 0.0000 0.0000 43.0676 0.0000 2.8143
# 5 -8.8292 0.5083 -13.9686 0.0000 59.8520 0.0000
# 6 0.0000 0.0000 0.0000 2.8143 0.0000 23.2115
#
#
#
# Elastic Compliance Matrix: (Units=1/GPa)
#
#
# Indices 1 2 3 4 5 6 
#
# 1 0.022711 -0.016174 -0.005721 0.000000 0.002152 0.000000
# 2 -0.016174 0.035017 0.001622 0.000000 -0.002305 0.000000
# 3 -0.005721 0.001622 0.008864 0.000000 0.001211 0.000000
# 4 0.000000 0.000000 0.000000 0.023405 0.000000 -0.002838
# 5 0.002152 -0.002305 0.001211 0.000000 0.017328 0.000000
# 6 0.000000 0.000000 0.000000 -0.002838 0.000000 0.043426
#
#
# Mechanical properties :
#
#
# Convention : Reuss Voigt Hill
#
# Bulk Modulus (GPa) = 38.39338 51.40683 44.90010
# Shear Modulus (GPa) = 25.00270 36.66859 30.83565
#
# Velocity S-wave (km/s) = 3.07951 3.72937 3.41991
# Velocity P-wave (km/s) = 5.21603 6.16787 5.71181
#
# Compressibility (1/GPa) = 0.02604616
#
# Stress axis : x y z
#
# Youngs Moduli (GPa) = 44.03172 28.55722 112.82011
#
# Poissons Ratio (x) = 0.46187 0.64547
# Poissons Ratio (y) = 0.71215 -0.18298
# Poissons Ratio (z) = 0.25191 -0.04632
#
# Static dielectric constant tensor:
#      x y z
#    x 2.136240 0.000000 0.058460 
#    y 0.000000 2.240610 0.000000 
#    z 0.058460 0.000000 2.108290 
# 
# From -- ./inp_files/11704.got.cif
#   From: 2010.05.17/outbox.cif.g08.bks.cpg/sg9_6_cif.got.tgz:11704.got - 2010.06.03 20:04:27.
