data_PCOD9135575
_publ_section_title
;
Structure prediction by ZEFSAII (Michael W. Deem and Ramdas Pophale) SiO2 
 PCOD9135575
Probable space group: C C
;
_chemical_formula_sum "Si O2"
_cell_formula_units_Z 32
_cell_length_a 7.610890
_cell_length_b 11.409114
_cell_length_c 15.887955
_cell_angle_alpha 90.000000
_cell_angle_beta 111.369720
_cell_angle_gamma 90.000000
_cell_volume 1284.756905
_symmetry_space_group_name_H-M "C C"
_symmetry_group_IT_number 9
_symmetry_cell_setting 'monoclinic'
loop_
_space_group_symop_operation_xyz
x,y,z
x,-y,1/2+z
1/2+x,1/2+y,z
1/2+x,1/2-y,1/2+z
loop_
_atom_site_type_symbol
_atom_site_label
_atom_site_fract_x
_atom_site_fract_y
_atom_site_fract_z
Si Si1 0.603120 0.144373 0.742200
Si Si2 0.206408 0.088038 0.227923
Si Si3 0.602822 0.902943 0.712491
Si Si4 0.770337 0.341383 0.049012
Si Si5 0.096811 0.015646 0.388967
Si Si6 0.376255 0.762324 0.343758
Si Si7 0.408454 0.781468 0.535966
Si Si8 0.021902 0.852103 0.526961
O O1 0.691286 0.273098 0.747372
O O2 0.426919 0.140743 0.646907
O O3 0.512512 0.152155 0.818129
O O4 0.716306 0.025365 0.741630
O O5 0.421322 0.074188 0.238292
O O6 0.152003 0.009587 0.299682
O O7 0.076350 0.074329 0.121157
O O8 0.698585 0.782344 0.759153
O O9 0.527923 0.878696 0.606377
O O10 0.563388 0.321141 0.052997
O O11 0.837566 0.222610 0.014658
O O12 0.769853 0.442776 0.979515
O O13 0.976578 0.136017 0.370377
O O14 0.001960 0.920228 0.434889
O O15 0.341252 0.809486 0.429999
O O16 0.209744 0.768978 0.550044
#
# Coordination Sequence:
#
# PCOD9135575 Si02
#       8
#     4   4   4   4   4   4   4   4
#     4  10  21  43  68  92 132 180 217 280 343 390
#     4   9  22  41  65  97 130 172 228 277 330 408
#     4  11  22  43  69  96 136 179 224 275 350 400
#     4  10  20  41  67  89 139 174 211 292 328 383
#     4  10  22  41  63  94 132 171 227 273 331 406
#     4  10  23  41  65  97 134 170 229 281 331 406
#     4  10  22  41  66 101 133 174 227 278 334 407
#     4  10  22  41  65  96 130 176 225 268 345 406
#
# _framework density 24.907436000000001
#
# number of rings (size 3 to 8) (size 9 to 14) (size 15 to 20)
#    0.000    2.000    1.250    1.500    3.500    3.000 
#    0.000    7.500    0.000    0.000    0.000    0.000 
#    0.000    0.000    0.000    0.000    0.000    0.000 
#
# Total GULP energy -89281.605462 kJ/mol
# GULP energy per Si atom -5580.100341 kJ/mol
# Density = 2.485075 g / cm^3
# Si number density = 24.907436 Si / 1000 Ang^3
#
#
#
# Elastic Constant Matrix: (Units=GPa)
#
#
# Indices 1 2 3 4 5 6 
#
# 1 57.3988 16.7596 20.5761 0.0000 -13.6001 0.0000
# 2 16.7596 91.2572 26.6089 0.0000 -4.5789 0.0000
# 3 20.5761 26.6089 142.7352 0.0000 -20.6763 0.0000
# 4 0.0000 0.0000 0.0000 51.7264 0.0000 -2.1712
# 5 -13.6001 -4.5789 -20.6763 0.0000 36.9391 0.0000
# 6 0.0000 0.0000 0.0000 -2.1712 0.0000 21.9690
#
#
#
# Elastic Compliance Matrix: (Units=1/GPa)
#
#
# Indices 1 2 3 4 5 6 
#
# 1 0.020308 -0.002989 -0.001459 0.000000 0.006290 0.000000
# 2 -0.002989 0.012030 -0.001910 0.000000 -0.000678 0.000000
# 3 -0.001459 -0.001910 0.008119 0.000000 0.003770 0.000000
# 4 0.000000 0.000000 0.000000 0.019413 0.000000 0.001919
# 5 0.006290 -0.000678 0.003770 0.000000 0.031414 0.000000
# 6 0.000000 0.000000 0.000000 0.001919 0.000000 0.045708
#
#
# Mechanical properties :
#
#
# Convention : Reuss Voigt Hill
#
# Bulk Modulus (GPa) = 36.04818 46.58668 41.31743
# Shear Modulus (GPa) = 31.45567 37.29001 34.37284
#
# Velocity S-wave (km/s) = 3.55759 3.87349 3.71890
# Velocity P-wave (km/s) = 5.60174 6.22493 5.92154
#
# Compressibility (1/GPa) = 0.02774065
#
# Stress axis : x y z
#
# Youngs Moduli (GPa) = 49.24178 83.12696 123.17451
#
# Poissons Ratio (x) = 0.24843 0.17975
# Poissons Ratio (y) = 0.14716 0.23527
# Poissons Ratio (z) = 0.07186 0.15878
#
# Static dielectric constant tensor:
#      x y z
#    x 1.974010 0.000000 0.049670 
#    y 0.000000 2.123570 0.000000 
#    z 0.049670 0.000000 2.043770 
# 
# From -- ./inp_files/22867.got.cif
#   From: 2010.05.17/outbox.cif.g08.bks.cpg/sg9_12_cif.got.tgz:22867.got - 2010.06.03 20:04:27.
