data_PCOD9135778
_publ_section_title
;
Structure prediction by ZEFSAII (Michael W. Deem and Ramdas Pophale) SiO2 
 PCOD9135778
Probable space group: C C
;
_chemical_formula_sum "Si O2"
_cell_formula_units_Z 28
_cell_length_a 22.438203
_cell_length_b 7.837421
_cell_length_c 15.647612
_cell_angle_alpha 90.000000
_cell_angle_beta 23.559858
_cell_angle_gamma 90.000000
_cell_volume 1099.894389
_symmetry_space_group_name_H-M "C C"
_symmetry_group_IT_number 9
_symmetry_cell_setting 'monoclinic'
loop_
_space_group_symop_operation_xyz
x,y,z
x,-y,1/2+z
1/2+x,1/2+y,z
1/2+x,1/2-y,1/2+z
loop_
_atom_site_type_symbol
_atom_site_label
_atom_site_fract_x
_atom_site_fract_y
_atom_site_fract_z
Si Si1 0.669690 0.933643 0.240290
Si Si2 0.509936 0.013642 0.131354
Si Si3 0.754880 0.646553 0.727314
Si Si4 0.821952 0.178557 0.831632
Si Si5 0.387459 0.759553 0.555193
Si Si6 0.902208 0.811755 0.700124
Si Si7 0.541803 0.158983 0.262009
O O1 0.562430 0.787365 0.341088
O O2 0.828886 0.852486 0.053668
O O3 0.608534 0.988669 0.414853
O O4 0.623007 0.088628 0.240327
O O5 0.403056 0.854462 0.257817
O O6 0.446411 0.203784 0.207357
O O7 0.549080 0.011338 0.179822
O O8 0.811076 0.448520 0.656194
O O9 0.577473 0.649853 0.946614
O O10 0.802550 0.751491 0.750038
O O11 0.875262 0.717717 0.499836
O O12 0.833591 0.176631 0.714437
O O13 0.669951 0.277637 0.055998
O O14 0.847629 0.981148 0.819785
#
# Coordination Sequence:
#
# PCOD9135778 Si02
#       7
#     4   4   4   4   4   4   4
#     4  10  21  41  70 103 144 189 236 301 373 431
#     4  11  23  45  69 100 156 184 243 308 362 444
#     4  11  25  44  73 109 146 192 250 303 367 442
#     4  11  24  42  77 105 140 201 247 301 379 435
#     4  10  20  44  70 101 144 190 235 300 370 439
#     4  12  25  46  74 106 145 201 240 299 377 442
#     4  11  24  42  73 110 145 195 251 312 364 439
#
# _framework density 25.456987999999999
#
# number of rings (size 3 to 8) (size 9 to 14) (size 15 to 20)
#    0.000    1.143    5.714    2.571    2.000    2.286 
#    0.000    0.000    3.143    0.000    0.000    0.000 
#    0.000    0.000    0.000    0.000    0.000    0.000 
#
# Total GULP energy -78041.240503 kJ/mol
# GULP energy per Si atom -5574.374322 kJ/mol
# Density = 2.539905 g / cm^3
# Si number density = 25.456988 Si / 1000 Ang^3
#
#
#
# Elastic Constant Matrix: (Units=GPa)
#
#
# Indices 1 2 3 4 5 6 
#
# 1 139.0056 25.2716 26.1795 0.0000 -16.2611 0.0000
# 2 25.2716 108.0519 -21.3596 0.0001 -11.3292 0.0001
# 3 26.1795 -21.3596 74.9604 0.0000 -17.5120 0.0000
# 4 0.0000 0.0001 0.0000 14.0986 0.0000 -12.6576
# 5 -16.2611 -11.3292 -17.5120 0.0000 38.1514 0.0000
# 6 0.0000 0.0001 0.0000 -12.6576 0.0000 18.5112
#
#
#
# Elastic Compliance Matrix: (Units=1/GPa)
#
#
# Indices 1 2 3 4 5 6 
#
# 1 0.008432 -0.002496 -0.003349 0.000000 0.001316 0.000000
# 2 -0.002496 0.011361 0.005207 0.000000 0.004700 0.000000
# 3 -0.003349 0.005207 0.017946 0.000000 0.008356 0.000000
# 4 0.000000 0.000000 0.000000 0.183704 0.000000 0.125614
# 5 0.001316 0.004700 0.008356 0.000000 0.032003 0.000000
# 6 0.000000 0.000000 0.000000 0.125614 0.000000 0.139914
#
#
# Mechanical properties :
#
#
# Convention : Reuss Voigt Hill
#
# Bulk Modulus (GPa) = 27.42555 42.46677 34.94616
# Shear Modulus (GPa) = 12.29132 33.61400 22.95266
#
# Velocity S-wave (km/s) = 2.19972 3.63771 3.00596
# Velocity P-wave (km/s) = 4.15311 5.86190 5.07987
#
# Compressibility (1/GPa) = 0.03646235
#
# Stress axis : x y z
#
# Youngs Moduli (GPa) = 118.59014 88.02271 55.72333
#
# Poissons Ratio (x) = 0.21973 0.18661
# Poissons Ratio (y) = 0.29603 -0.29015
# Poissons Ratio (z) = 0.39715 -0.45833
#
# Static dielectric constant tensor:
#      x y z
#    x 2.038460 0.000000 -0.026760 
#    y 0.000000 2.049830 0.000000 
#    z -0.026760 0.000000 2.224910 
# 
# From -- ./inp_files/27328.got.cif
#   From: 2010.05.17/outbox.cif.g08.bks.cpg/sg9_14_cif.got.tgz:27328.got - 2010.06.03 20:04:27.
