data_PCOD9135605
_publ_section_title
;
Structure prediction by ZEFSAII (Michael W. Deem and Ramdas Pophale) SiO2 
 PCOD9135605
Probable space group: C C
;
_chemical_formula_sum "Si O2"
_cell_formula_units_Z 24
_cell_length_a 14.207098
_cell_length_b 6.430840
_cell_length_c 10.227278
_cell_angle_alpha 90.000000
_cell_angle_beta 99.007414
_cell_angle_gamma 90.000000
_cell_volume 922.877726
_symmetry_space_group_name_H-M "C C"
_symmetry_group_IT_number 9
_symmetry_cell_setting 'monoclinic'
loop_
_space_group_symop_operation_xyz
x,y,z
x,-y,1/2+z
1/2+x,1/2+y,z
1/2+x,1/2-y,1/2+z
loop_
_atom_site_type_symbol
_atom_site_label
_atom_site_fract_x
_atom_site_fract_y
_atom_site_fract_z
Si Si1 0.627610 0.595284 0.186190
Si Si2 0.732831 0.407147 0.980387
Si Si3 0.386602 0.360287 0.417907
Si Si4 0.051831 0.533738 0.537590
Si Si5 0.391062 0.886504 0.669189
Si Si6 0.472930 0.742968 0.330696
O O1 0.691878 0.553924 0.327435
O O2 0.633357 0.825207 0.118721
O O3 0.523084 0.606508 0.229450
O O4 0.655183 0.435493 0.078045
O O5 0.793794 0.194757 0.981698
O O6 0.812612 0.574182 0.042269
O O7 0.472723 0.206473 0.477012
O O8 0.366972 0.295466 0.263086
O O9 0.425375 0.591033 0.423968
O O10 0.997333 0.394983 0.633493
O O11 0.056545 0.386372 0.412488
O O12 0.395460 0.100434 0.755703
#
# Coordination Sequence:
#
# PCOD9135605 Si02
#       6
#     4   4   4   4   4   4
#     4  11  23  43  73 110 157 196 245 319 391 449
#     4  11  22  42  71 110 154 195 246 314 391 452
#     4  10  20  41  72 100 141 199 253 305 364 448
#     4   9  21  41  70 103 145 190 251 305 369 456
#     4   9  20  40  68  98 142 195 248 311 364 449
#     4  10  22  43  72 107 141 199 265 304 367 456
#
# _framework density 26.005611999999999
#
# number of rings (size 3 to 8) (size 9 to 14) (size 15 to 20)
#    0.000    2.000    1.667    1.000    0.000    5.333 
#    3.000    8.333    0.000    0.000    0.000    0.000 
#    0.000    0.000    0.000    0.000    0.000    0.000 
#
# Total GULP energy -67038.013930 kJ/mol
# GULP energy per Si atom -5586.501161 kJ/mol
# Density = 2.594642 g / cm^3
# Si number density = 26.005612 Si / 1000 Ang^3
#
#
#
# Elastic Constant Matrix: (Units=GPa)
#
#
# Indices 1 2 3 4 5 6 
#
# 1 91.6461 47.8449 50.5076 0.0000 -6.2806 0.0000
# 2 47.8449 99.3404 59.2616 0.0000 -8.2293 0.0000
# 3 50.5076 59.2616 176.3716 0.0000 17.9598 0.0000
# 4 0.0000 0.0000 0.0000 50.9453 0.0000 -5.9753
# 5 -6.2806 -8.2293 17.9598 0.0000 52.1626 0.0000
# 6 0.0000 0.0000 0.0000 -5.9753 0.0000 34.9205
#
#
#
# Elastic Compliance Matrix: (Units=1/GPa)
#
#
# Indices 1 2 3 4 5 6 
#
# 1 0.015514 -0.005688 -0.002726 0.000000 0.001909 0.000000
# 2 -0.005688 0.015350 -0.003840 0.000000 0.003059 0.000000
# 3 -0.002726 -0.003840 0.008121 0.000000 -0.003730 0.000000
# 4 0.000000 0.000000 0.000000 0.020031 0.000000 0.003428
# 5 0.001909 0.003059 -0.003730 0.000000 0.021168 0.000000
# 6 0.000000 0.000000 0.000000 0.003428 0.000000 0.029223
#
#
# Mechanical properties :
#
#
# Convention : Reuss Voigt Hill
#
# Bulk Modulus (GPa) = 69.07673 75.84293 72.45983
# Shear Modulus (GPa) = 36.03854 41.58861 38.81357
#
# Velocity S-wave (km/s) = 3.72667 4.00336 3.86749
# Velocity P-wave (km/s) = 6.71843 7.11313 6.91859
#
# Compressibility (1/GPa) = 0.01447666
#
# Stress axis : x y z
#
# Youngs Moduli (GPa) = 64.45763 65.14609 123.14065
#
# Poissons Ratio (x) = 0.37052 0.33570
# Poissons Ratio (y) = 0.36660 0.47292
# Poissons Ratio (z) = 0.17572 0.25019
#
# Static dielectric constant tensor:
#      x y z
#    x 2.107430 0.000000 0.010030 
#    y 0.000000 2.036860 0.000000 
#    z 0.010030 0.000000 2.099660 
# 
# From -- ./inp_files/18816.got.cif
#   From: 2010.05.17/outbox.cif.g08.bks.cpg/sg9_10_cif.got.tgz:18816.got - 2010.06.03 20:04:27.
