data_PCOD9135033
_publ_section_title
;
Structure prediction by ZEFSAII (Michael W. Deem and Ramdas Pophale) SiO2 
 PCOD9135033
Probable space group: C C
;
_chemical_formula_sum "Si O2"
_cell_formula_units_Z 28
_cell_length_a 18.703784
_cell_length_b 10.369213
_cell_length_c 5.627125
_cell_angle_alpha 90.000000
_cell_angle_beta 83.817649
_cell_angle_gamma 90.000000
_cell_volume 1084.997373
_symmetry_space_group_name_H-M "C C"
_symmetry_group_IT_number 9
_symmetry_cell_setting 'monoclinic'
loop_
_space_group_symop_operation_xyz
x,y,z
x,-y,1/2+z
1/2+x,1/2+y,z
1/2+x,1/2-y,1/2+z
loop_
_atom_site_type_symbol
_atom_site_label
_atom_site_fract_x
_atom_site_fract_y
_atom_site_fract_z
Si Si1 0.774850 0.041538 0.673940
Si Si2 0.865642 0.429294 0.225895
Si Si3 0.140928 0.358176 0.725781
Si Si4 0.240289 0.199915 0.038413
Si Si5 0.110975 0.142319 0.335451
Si Si6 0.980526 0.954472 0.389564
Si Si7 0.010178 0.311085 0.029421
O O1 0.771963 0.195197 0.709551
O O2 0.807197 0.017220 0.401682
O O3 0.695809 0.974399 0.655220
O O4 0.859203 0.528528 0.451866
O O5 0.800971 0.338778 0.331430
O O6 0.945470 0.371794 0.197848
O O7 0.127878 0.247677 0.533561
O O8 0.183120 0.280226 0.910653
O O9 0.063906 0.401497 0.859508
O O10 0.188656 0.101379 0.197995
O O11 0.059151 0.227179 0.186805
O O12 0.060870 0.018159 0.400286
O O13 0.948743 0.011902 0.158898
O O14 0.980782 0.800340 0.363434
#
# Coordination Sequence:
#
# PCOD9135033 Si02
#       7
#     4   4   4   4   4   4   4
#     4  10  20  36  63 101 133 170 221 285 351 410
#     4  12  32  52  72 100 146 202 252 296 370 442
#     4  10  20  39  71 106 142 180 237 301 361 424
#     4  10  24  44  67 102 144 186 245 297 361 433
#     4  10  20  39  71 106 142 180 237 301 361 424
#     4  10  20  36  63 101 133 170 221 285 351 410
#     4  10  24  44  67 102 144 186 245 297 361 433
#
# _framework density 25.806512999999999
#
# number of rings (size 3 to 8) (size 9 to 14) (size 15 to 20)
#    0.000    1.714    2.857    0.000    4.000    6.857 
#    0.000    5.714    0.000    0.000    0.000    0.000 
#    0.000    0.000    0.000    0.000    0.000    0.000 
#
# Total GULP energy -78133.873623 kJ/mol
# GULP energy per Si atom -5580.990973 kJ/mol
# Density = 2.574778 g / cm^3
# Si number density = 25.806513 Si / 1000 Ang^3
#
#
#
# Elastic Constant Matrix: (Units=GPa)
#
#
# Indices 1 2 3 4 5 6 
#
# 1 71.5742 15.6284 45.0182 0.0000 -47.1620 0.0000
# 2 15.6284 46.4772 25.0219 0.0000 -20.9475 0.0000
# 3 45.0182 25.0219 123.4071 0.0000 -28.2382 0.0000
# 4 0.0000 0.0000 0.0000 57.9618 0.0000 -8.3536
# 5 -47.1620 -20.9475 -28.2382 0.0000 75.0170 0.0000
# 6 0.0000 0.0000 0.0000 -8.3536 0.0000 15.0312
#
#
#
# Elastic Compliance Matrix: (Units=1/GPa)
#
#
# Indices 1 2 3 4 5 6 
#
# 1 0.028362 0.001256 -0.007048 0.000000 0.015529 0.000000
# 2 0.001256 0.026355 -0.004308 0.000000 0.006527 0.000000
# 3 -0.007048 -0.004308 0.011226 0.000000 -0.001408 0.000000
# 4 0.000000 0.000000 0.000000 0.018755 0.000000 0.010423
# 5 0.015529 0.006527 -0.001408 0.000000 0.024385 0.000000
# 6 0.000000 0.000000 0.000000 0.010423 0.000000 0.072321
#
#
# Mechanical properties :
#
#
# Convention : Reuss Voigt Hill
#
# Bulk Modulus (GPa) = 21.86143 45.86618 33.86381
# Shear Modulus (GPa) = 23.05719 39.98800 31.52260
#
# Velocity S-wave (km/s) = 2.99233 3.94068 3.49878
# Velocity P-wave (km/s) = 4.51978 6.20620 5.42887
#
# Compressibility (1/GPa) = 0.04574266
#
# Stress axis : x y z
#
# Youngs Moduli (GPa) = 35.25789 37.94370 89.08238
#
# Poissons Ratio (x) = -0.04766 0.62784
# Poissons Ratio (y) = -0.04429 0.38380
# Poissons Ratio (z) = 0.24849 0.16347
#
# Static dielectric constant tensor:
#      x y z
#    x 2.102110 0.000000 -0.080170 
#    y 0.000000 2.127160 0.000000 
#    z -0.080170 0.000000 2.160650 
# 
# From -- ./inp_files/3138.got.cif
#   From: 2010.05.17/outbox.cif.g08.bks.cpg/sg9_2_cif.got.tgz:3138.got - 2010.06.03 20:04:27.
