data_PCOD9135023
_publ_section_title
;
Structure prediction by ZEFSAII (Michael W. Deem and Ramdas Pophale) SiO2 
 PCOD9135023
Probable space group: C C
;
_chemical_formula_sum "Si O2"
_cell_formula_units_Z 28
_cell_length_a 8.394555
_cell_length_b 13.481766
_cell_length_c 9.274588
_cell_angle_alpha 90.000000
_cell_angle_beta 102.242531
_cell_angle_gamma 90.000000
_cell_volume 1025.766853
_symmetry_space_group_name_H-M "C C"
_symmetry_group_IT_number 9
_symmetry_cell_setting 'monoclinic'
loop_
_space_group_symop_operation_xyz
x,y,z
x,-y,1/2+z
1/2+x,1/2+y,z
1/2+x,1/2-y,1/2+z
loop_
_atom_site_type_symbol
_atom_site_label
_atom_site_fract_x
_atom_site_fract_y
_atom_site_fract_z
Si Si1 0.134990 0.888235 0.054470
Si Si2 0.109770 0.393321 0.018241
Si Si3 0.441862 0.156357 0.764338
Si Si4 0.932995 0.124073 0.128056
Si Si5 0.872459 0.264334 0.557842
Si Si6 0.359484 0.512774 0.868922
Si Si7 0.284499 0.876346 0.810055
O O1 0.281916 0.907011 0.190342
O O2 0.992337 0.828470 0.102109
O O3 0.201889 0.823229 0.932650
O O4 0.041013 0.973761 0.951363
O O5 0.225400 0.458751 0.940709
O O6 0.930905 0.426792 0.927990
O O7 0.191448 0.283812 0.004736
O O8 0.086507 0.388537 0.190208
O O9 0.409914 0.268014 0.694952
O O10 0.434616 0.172078 0.933870
O O11 0.123180 0.097604 0.188180
O O12 0.846079 0.038157 0.209534
O O13 0.873615 0.119109 0.951106
O O14 0.884610 0.322059 0.707169
#
# Coordination Sequence:
#
# PCOD9135023 Si02
#       7
#     4   4   4   4   4   4   4
#     4   9  20  37  59  86 124 154 191 256 294 360
#     4  10  20  39  61  93 123 157 195 260 299 354
#     4  11  20  37  64  92 119 147 210 246 301 350
#     4  11  22  44  59  89 119 167 197 251 297 368
#     4  11  17  33  60  95 117 151 193 252 299 349
#     4  10  23  44  61  83 129 161 200 241 316 351
#     4  10  20  36  62  88 125 155 202 248 306 348
#
# _framework density 27.29665
#
# number of rings (size 3 to 8) (size 9 to 14) (size 15 to 20)
#    0.000    1.714    5.714    0.857    0.000    1.143 
#   12.857    4.286    0.000    0.000    0.000    0.000 
#    0.000    0.000    0.000    0.000    0.000    0.000 
#
# Total GULP energy -77958.883878 kJ/mol
# GULP energy per Si atom -5568.491706 kJ/mol
# Density = 2.723452 g / cm^3
# Si number density = 27.296650 Si / 1000 Ang^3
#
#
#
# Elastic Constant Matrix: (Units=GPa)
#
#
# Indices 1 2 3 4 5 6 
#
# 1 87.1952 -12.4139 6.8015 0.0000 -8.0760 0.0000
# 2 -12.4139 43.0291 -6.0325 0.0000 -15.1594 0.0000
# 3 6.8015 -6.0325 104.3705 0.0000 -6.3911 0.0000
# 4 0.0000 0.0000 0.0000 22.9681 0.0000 6.1537
# 5 -8.0760 -15.1594 -6.3911 0.0000 40.1470 0.0000
# 6 0.0000 0.0000 0.0000 6.1537 0.0000 9.9902
#
#
#
# Elastic Compliance Matrix: (Units=1/GPa)
#
#
# Indices 1 2 3 4 5 6 
#
# 1 0.012639 0.005182 -0.000251 0.000000 0.004459 0.000000
# 2 0.005182 0.029436 0.002129 0.000000 0.012496 0.000000
# 3 -0.000251 0.002129 0.009863 0.000000 0.002323 0.000000
# 4 0.000000 0.000000 0.000000 0.052144 0.000000 -0.032119
# 5 0.004459 0.012496 0.002323 0.000000 0.030894 0.000000
# 6 0.000000 0.000000 0.000000 -0.032119 0.000000 0.119882
#
#
# Mechanical properties :
#
#
# Convention : Reuss Voigt Hill
#
# Bulk Modulus (GPa) = 15.13822 23.47833 19.30827
# Shear Modulus (GPa) = 19.02894 31.03706 25.03300
#
# Velocity S-wave (km/s) = 2.64316 3.37564 3.03161
# Velocity P-wave (km/s) = 3.85654 4.87987 4.39807
#
# Compressibility (1/GPa) = 0.06605795
#
# Stress axis : x y z
#
# Youngs Moduli (GPa) = 79.12079 33.97186 101.38967
#
# Poissons Ratio (x) = -0.17605 0.02545
# Poissons Ratio (y) = -0.41002 -0.21585
# Poissons Ratio (z) = 0.01986 -0.07232
#
# Static dielectric constant tensor:
#      x y z
#    x 2.202040 0.000000 0.031270 
#    y 0.000000 2.325830 0.000000 
#    z 0.031270 0.000000 2.132480 
# 
# From -- ./inp_files/5259.got.cif
#   From: 2010.05.17/outbox.cif.g08.bks.cpg/sg9_3_cif.got.tgz:5259.got - 2010.06.03 20:04:27.
