data_PCOD9135014
_publ_section_title
;
Structure prediction by ZEFSAII (Michael W. Deem and Ramdas Pophale) SiO2 
 PCOD9135014
Probable space group: C C
;
_chemical_formula_sum "Si O2"
_cell_formula_units_Z 32
_cell_length_a 9.150442
_cell_length_b 24.714804
_cell_length_c 5.469214
_cell_angle_alpha 90.000000
_cell_angle_beta 88.057634
_cell_angle_gamma 90.000000
_cell_volume 1236.159624
_symmetry_space_group_name_H-M "C C"
_symmetry_group_IT_number 9
_symmetry_cell_setting 'monoclinic'
loop_
_space_group_symop_operation_xyz
x,y,z
x,-y,1/2+z
1/2+x,1/2+y,z
1/2+x,1/2-y,1/2+z
loop_
_atom_site_type_symbol
_atom_site_label
_atom_site_fract_x
_atom_site_fract_y
_atom_site_fract_z
Si Si1 0.668290 0.744664 0.526650
Si Si2 0.602432 0.317264 0.386202
Si Si3 0.296595 0.888807 0.608717
Si Si4 0.100262 0.985826 0.620997
Si Si5 0.298381 0.366200 0.533364
Si Si6 0.677839 0.097911 0.540780
Si Si7 0.013392 0.714430 0.554994
Si Si8 0.390589 0.937518 0.107483
O O1 0.615784 0.677033 0.597288
O O2 0.700448 0.812118 0.538863
O O3 0.566020 0.752264 0.288685
O O4 0.843144 0.725418 0.519337
O O5 0.747668 0.329926 0.526182
O O6 0.459802 0.342251 0.499207
O O7 0.593139 0.251307 0.335354
O O8 0.150254 0.924616 0.593596
O O9 0.354567 0.901638 0.870212
O O10 0.391739 0.910158 0.375362
O O11 0.023232 0.996340 0.879614
O O12 0.257098 0.019383 0.622715
O O13 0.266126 0.399484 0.287718
O O14 0.267256 0.398128 0.784928
O O15 0.581750 0.154980 0.549899
O O16 0.559614 0.049198 0.549872
#
# Coordination Sequence:
#
# PCOD9135014 Si02
#       8
#     4   4   4   4   4   4   4   4
#     4  10  22  39  56  79 115 166 210 258 294 355
#     4  11  23  36  58  79 117 164 203 248 297 363
#     4  10  21  34  58  94 116 146 191 247 306 366
#     4   8  16  33  54  86 118 138 175 241 312 359
#     4  10  24  38  54  79 117 161 202 246 290 351
#     4  11  21  40  54  83 114 155 204 250 292 357
#     4  10  23  36  57  80 119 160 211 257 304 351
#     4  10  20  36  61  88 116 148 190 247 311 360
#
# _framework density 25.886623
#
# number of rings (size 3 to 8) (size 9 to 14) (size 15 to 20)
#    0.000    2.000    1.250    1.500    7.000    2.000 
#    0.000    0.000    0.000    0.000    0.000   47.250 
#    0.000    0.000    0.000    0.000    0.000    0.000 
#
# Total GULP energy -89100.355269 kJ/mol
# GULP energy per Si atom -5568.772204 kJ/mol
# Density = 2.582770 g / cm^3
# Si number density = 25.886623 Si / 1000 Ang^3
#
#
#
# Elastic Constant Matrix: (Units=GPa)
#
#
# Indices 1 2 3 4 5 6 
#
# 1 66.1778 22.6477 38.5578 0.0000 6.2520 0.0000
# 2 22.6477 35.0866 18.3821 0.0000 4.2752 0.0000
# 3 38.5578 18.3821 165.6649 0.0000 11.2348 0.0000
# 4 0.0000 0.0000 0.0000 25.5998 0.0000 2.2214
# 5 6.2520 4.2752 11.2348 0.0000 13.8224 0.0000
# 6 0.0000 0.0000 0.0000 2.2214 0.0000 34.6574
#
#
#
# Elastic Compliance Matrix: (Units=1/GPa)
#
#
# Indices 1 2 3 4 5 6 
#
# 1 0.021416 -0.011604 -0.003475 0.000000 -0.003273 0.000000
# 2 -0.011604 0.037205 -0.001061 0.000000 -0.005396 0.000000
# 3 -0.003475 -0.001061 0.007233 0.000000 -0.003979 0.000000
# 4 0.000000 0.000000 0.000000 0.039281 0.000000 -0.002518
# 5 -0.003273 -0.005396 -0.003979 0.000000 0.078729 0.000000
# 6 0.000000 0.000000 0.000000 -0.002518 0.000000 0.029015
#
#
# Mechanical properties :
#
#
# Convention : Reuss Voigt Hill
#
# Bulk Modulus (GPa) = 29.78660 47.34496 38.56578
# Shear Modulus (GPa) = 19.50449 27.30537 23.40493
#
# Velocity S-wave (km/s) = 2.74790 3.25130 3.01014
# Velocity P-wave (km/s) = 4.64752 5.69418 5.19727
#
# Compressibility (1/GPa) = 0.03357215
#
# Stress axis : x y z
#
# Youngs Moduli (GPa) = 46.69431 26.87826 138.26202
#
# Poissons Ratio (x) = 0.31190 0.48044
# Poissons Ratio (y) = 0.54185 0.14676
# Poissons Ratio (z) = 0.16226 0.02853
#
# Static dielectric constant tensor:
#      x y z
#    x 2.042770 0.000000 -0.045810 
#    y 0.000000 2.246150 0.000000 
#    z -0.045810 0.000000 2.088510 
# 
# From -- ./inp_files/1276.got.cif
#   From: 2010.05.17/outbox.cif.g08.bks.cpg/sg9_1_cif.got.tgz:1276.got - 2010.06.03 20:04:27.
