data_PCOD9135814
_publ_section_title
;
Structure prediction by ZEFSAII (Michael W. Deem and Ramdas Pophale) SiO2 
 PCOD9135814
Probable space group: C C
;
_chemical_formula_sum "Si O2"
_cell_formula_units_Z 28
_cell_length_a 17.503012
_cell_length_b 6.193413
_cell_length_c 14.291423
_cell_angle_alpha 90.000000
_cell_angle_beta 132.416626
_cell_angle_gamma 90.000000
_cell_volume 1143.740324
_symmetry_space_group_name_H-M "C C"
_symmetry_group_IT_number 9
_symmetry_cell_setting 'monoclinic'
loop_
_space_group_symop_operation_xyz
x,y,z
x,-y,1/2+z
1/2+x,1/2+y,z
1/2+x,1/2-y,1/2+z
loop_
_atom_site_type_symbol
_atom_site_label
_atom_site_fract_x
_atom_site_fract_y
_atom_site_fract_z
Si Si1 0.378950 0.038151 0.511090
Si Si2 0.504332 0.364386 0.745903
Si Si3 0.646362 0.546977 0.513181
Si Si4 0.772416 0.071987 0.834203
Si Si5 0.995619 0.856519 0.058095
Si Si6 0.801364 0.109473 0.167552
Si Si7 0.215578 0.689449 0.445889
O O1 0.445740 0.180329 0.638628
O O2 0.298728 0.184427 0.385163
O O3 0.464404 0.895418 0.527563
O O4 0.303499 0.868554 0.498768
O O5 0.603782 0.309430 0.890153
O O6 0.524503 0.552975 0.685929
O O7 0.423919 0.416592 0.763095
O O8 0.578944 0.570808 0.550797
O O9 0.757276 0.648261 0.633161
O O10 0.643102 0.313204 0.460092
O O11 0.751361 0.028967 0.708925
O O12 0.691399 0.929095 0.827709
O O13 0.885280 0.966289 0.944459
O O14 0.769815 0.003291 0.044816
#
# Coordination Sequence:
#
# PCOD9135814 Si02
#       7
#     4   4   4   4   4   4   4
#     4  10  20  45  72  94 138 191 227 290 363 416
#     4  11  23  46  70  99 144 184 232 294 358 438
#     4  12  27  43  70 109 139 185 244 294 360 429
#     4  10  22  42  72 100 137 185 235 289 356 429
#     4  10  23  44  68 105 136 182 237 289 356 421
#     4  12  24  45  69 105 140 188 241 288 366 433
#     4  11  23  45  67 100 142 179 238 292 353 424
#
# _framework density 24.481082000000001
#
# number of rings (size 3 to 8) (size 9 to 14) (size 15 to 20)
#    0.000    1.143    7.143    0.000    2.000    6.857 
#    5.143    0.000    0.000    0.000    0.000    0.000 
#    0.000    0.000    0.000    0.000    0.000    0.000 
#
# Total GULP energy -78112.204329 kJ/mol
# GULP energy per Si atom -5579.443166 kJ/mol
# Density = 2.442536 g / cm^3
# Si number density = 24.481082 Si / 1000 Ang^3
#
#
#
# Elastic Constant Matrix: (Units=GPa)
#
#
# Indices 1 2 3 4 5 6 
#
# 1 138.7398 50.3498 21.1589 0.0000 -25.5882 0.0000
# 2 50.3498 78.8631 3.0466 0.0000 -7.6743 0.0000
# 3 21.1589 3.0466 67.0217 0.0000 -14.5717 0.0000
# 4 0.0000 0.0000 0.0000 17.1527 0.0000 0.9563
# 5 -25.5882 -7.6743 -14.5717 0.0000 34.8017 0.0000
# 6 0.0000 0.0000 0.0000 0.9563 0.0000 43.1787
#
#
#
# Elastic Compliance Matrix: (Units=1/GPa)
#
#
# Indices 1 2 3 4 5 6 
#
# 1 0.010846 -0.006287 -0.001877 0.000000 0.005802 0.000000
# 2 -0.006287 0.016603 0.001123 0.000000 -0.000491 0.000000
# 3 -0.001877 0.001123 0.016740 0.000000 0.005877 0.000000
# 4 0.000000 0.000000 0.000000 0.058372 0.000000 -0.001293
# 5 0.005802 -0.000491 0.005877 0.000000 0.035353 0.000000
# 6 0.000000 0.000000 0.000000 -0.001293 0.000000 0.023188
#
#
# Mechanical properties :
#
#
# Convention : Reuss Voigt Hill
#
# Bulk Modulus (GPa) = 33.21452 48.19277 40.70365
# Shear Modulus (GPa) = 26.99514 33.03124 30.01319
#
# Velocity S-wave (km/s) = 3.32429 3.67721 3.50519
# Velocity P-wave (km/s) = 5.32272 6.14472 5.74843
#
# Compressibility (1/GPa) = 0.03010732
#
# Stress axis : x y z
#
# Youngs Moduli (GPa) = 92.20170 60.22964 59.73822
#
# Poissons Ratio (x) = 0.37868 0.11211
# Poissons Ratio (y) = 0.57970 -0.06711
# Poissons Ratio (z) = 0.17304 -0.06766
#
# Static dielectric constant tensor:
#      x y z
#    x 1.981300 0.000000 0.003920 
#    y 0.000000 2.022540 0.000000 
#    z 0.003920 0.000000 1.954590 
# 
# From -- ./inp_files/26307.got.cif
#   From: 2010.05.17/outbox.cif.g08.bks.cpg/sg9_14_cif.got.tgz:26307.got - 2010.06.03 20:04:27.
