data_PCOD9135817
_publ_section_title
;
Structure prediction by ZEFSAII (Michael W. Deem and Ramdas Pophale) SiO2 
 PCOD9135817
Probable space group: C C
;
_chemical_formula_sum "Si O2"
_cell_formula_units_Z 32
_cell_length_a 8.026241
_cell_length_b 11.730389
_cell_length_c 28.016993
_cell_angle_alpha 90.000000
_cell_angle_beta 32.589097
_cell_angle_gamma 90.000000
_cell_volume 1420.760640
_symmetry_space_group_name_H-M "C C"
_symmetry_group_IT_number 9
_symmetry_cell_setting 'monoclinic'
loop_
_space_group_symop_operation_xyz
x,y,z
x,-y,1/2+z
1/2+x,1/2+y,z
1/2+x,1/2-y,1/2+z
loop_
_atom_site_type_symbol
_atom_site_label
_atom_site_fract_x
_atom_site_fract_y
_atom_site_fract_z
Si Si1 0.235020 0.120336 0.095230
Si Si2 0.668767 0.522589 0.910066
Si Si3 0.332106 0.562927 0.732259
Si Si4 0.222012 0.043137 0.731084
Si Si5 0.312146 0.509451 0.410003
Si Si6 0.366611 0.792944 0.671526
Si Si7 0.844561 0.145572 0.559240
Si Si8 0.422285 0.227601 0.482839
O O1 0.255633 0.171067 0.144538
O O2 0.225927 0.234531 0.065772
O O3 0.960581 0.029364 0.163308
O O4 0.541839 0.053679 0.004981
O O5 0.599678 0.470461 0.875286
O O6 0.573145 0.654669 0.930487
O O7 0.031734 0.515130 0.832056
O O8 0.447257 0.454457 0.999245
O O9 0.599803 0.575845 0.707636
O O10 0.243664 0.679735 0.726861
O O11 0.550707 0.102148 0.660079
O O12 0.288837 0.907862 0.718013
O O13 0.947599 0.066001 0.834429
O O14 0.167693 0.628504 0.429390
O O15 0.727768 0.761663 0.576961
O O16 0.158479 0.177718 0.511402
#
# Coordination Sequence:
#
# PCOD9135817 Si02
#       8
#     4   4   4   4   4   4   4   4
#     4  10  23  44  70  97 138 188 229 288 350 423
#     4  12  25  47  71 104 140 189 234 292 358 414
#     4  11  24  46  74 101 144 188 236 300 352 415
#     4  11  25  45  67 108 142 179 243 294 347 431
#     4  12  24  45  69 104 142 181 236 289 351 425
#     4  10  20  45  73  94 133 188 230 285 356 410
#     4  11  24  48  71  97 142 189 228 292 356 414
#     4  11  23  46  73  95 137 188 230 292 356 416
#
# _framework density 22.523147000000002
#
# number of rings (size 3 to 8) (size 9 to 14) (size 15 to 20)
#    0.000    1.000    5.000    2.250    3.500    2.000 
#   13.500    0.000    0.000    0.000    0.000    0.000 
#    0.000    0.000    0.000    0.000    0.000    0.000 
#
# Total GULP energy -89290.522076 kJ/mol
# GULP energy per Si atom -5580.657630 kJ/mol
# Density = 2.247188 g / cm^3
# Si number density = 22.523147 Si / 1000 Ang^3
#
#
#
# Elastic Constant Matrix: (Units=GPa)
#
#
# Indices 1 2 3 4 5 6 
#
# 1 54.7546 41.3908 17.2122 -0.0261 -2.4292 0.0068
# 2 41.3908 136.6776 31.7753 -0.0485 -7.9943 0.0321
# 3 17.2122 31.7753 113.2803 -0.0528 -7.6871 0.0455
# 4 -0.0261 -0.0485 -0.0528 21.9012 0.0349 -2.4200
# 5 -2.4292 -7.9943 -7.6871 0.0349 22.9176 -0.0224
# 6 0.0068 0.0321 0.0455 -2.4200 -0.0224 22.2543
#
#
#
# Elastic Compliance Matrix: (Units=1/GPa)
#
#
# Indices 1 2 3 4 5 6 
#
# 1 0.023999 -0.006888 -0.001744 0.000011 -0.000444 0.000007
# 2 -0.006888 0.009898 -0.001581 0.000006 0.002192 -0.000006
# 3 -0.001744 -0.001581 0.009707 0.000012 0.002520 -0.000013
# 4 0.000011 0.000006 0.000012 0.046215 -0.000058 0.005025
# 5 -0.000444 0.002192 0.002520 -0.000058 0.045198 0.000031
# 6 0.000007 -0.000006 -0.000013 0.005025 0.000031 0.045482
#
#
# Mechanical properties :
#
#
# Convention : Reuss Voigt Hill
#
# Bulk Modulus (GPa) = 43.14623 53.94101 48.54362
# Shear Modulus (GPa) = 23.96336 27.70356 25.83346
#
# Velocity S-wave (km/s) = 3.26535 3.51095 3.39037
# Velocity P-wave (km/s) = 5.78054 6.35899 6.07666
#
# Compressibility (1/GPa) = 0.02317699
#
# Stress axis : x y z
#
# Youngs Moduli (GPa) = 41.66843 101.02771 103.01625
#
# Poissons Ratio (x) = 0.69589 0.17971
# Poissons Ratio (y) = 0.28702 0.16288
# Poissons Ratio (z) = 0.07269 0.15973
#
# Static dielectric constant tensor:
#      x y z
#    x 1.870100 0.000000 0.037150 
#    y 0.000000 1.870130 0.000000 
#    z 0.037150 0.000000 1.852570 
# 
# From -- ./inp_files/37195.got.cif
#   From: 2010.05.17/outbox.cif.g08.bks.cpg/sg9_19_cif.got.tgz:37195.got - 2010.06.03 20:04:27.
