data_PCOD9135089
_publ_section_title
;
Structure prediction by ZEFSAII (Michael W. Deem and Ramdas Pophale) SiO2 
 PCOD9135089
Probable space group: C C
;
_chemical_formula_sum "Si O2"
_cell_formula_units_Z 32
_cell_length_a 13.560573
_cell_length_b 6.760541
_cell_length_c 13.474713
_cell_angle_alpha 90.000000
_cell_angle_beta 71.963821
_cell_angle_gamma 90.000000
_cell_volume 1174.616622
_symmetry_space_group_name_H-M "C C"
_symmetry_group_IT_number 9
_symmetry_cell_setting 'monoclinic'
loop_
_space_group_symop_operation_xyz
x,y,z
x,-y,1/2+z
1/2+x,1/2+y,z
1/2+x,1/2-y,1/2+z
loop_
_atom_site_type_symbol
_atom_site_label
_atom_site_fract_x
_atom_site_fract_y
_atom_site_fract_z
Si Si1 0.458710 0.604400 0.036600
Si Si2 0.801079 0.307389 0.232805
Si Si3 0.045942 0.301176 0.497617
Si Si4 0.105468 0.262674 0.682403
Si Si5 0.651428 0.311256 0.594925
Si Si6 0.388539 0.305176 0.348271
Si Si7 0.214417 0.248688 0.279873
Si Si8 0.858743 0.604963 0.927435
O O1 0.372941 0.723669 0.123572
O O2 0.566612 0.709163 0.034270
O O3 0.474344 0.376878 0.061766
O O4 0.430654 0.580243 0.929969
O O5 0.688790 0.211381 0.244693
O O6 0.775984 0.544147 0.235839
O O7 0.861700 0.292486 0.318670
O O8 0.963477 0.418403 0.457418
O O9 0.104443 0.379745 0.577402
O O10 0.128940 0.222568 0.392150
O O11 0.990889 0.274252 0.762645
O O12 0.130282 0.037176 0.638831
O O13 0.653852 0.194313 0.698268
O O14 0.765596 0.294007 0.514768
O O15 0.305058 0.387355 0.296479
O O16 0.327767 0.121029 0.416038
#
# Coordination Sequence:
#
# PCOD9135089 Si02
#       8
#     4   4   4   4   4   4   4   4
#     4  11  21  37  63  91 119 159 204 250 301 362
#     4  10  20  37  60  87 118 159 203 246 297 358
#     4  11  23  41  63  92 124 161 203 253 307 363
#     4  10  20  37  60  87 118 159 203 246 297 358
#     4  10  20  39  63  88 120 161 202 249 303 359
#     4  11  21  37  63  91 119 159 204 250 301 362
#     4  10  20  39  63  88 120 161 202 249 303 359
#     4  11  23  41  63  92 124 161 203 253 307 363
#
# _framework density 27.242930000000001
#
# number of rings (size 3 to 8) (size 9 to 14) (size 15 to 20)
#    0.000    1.500    0.000    9.000    0.000    2.000 
#    0.000   11.250    0.000    0.000    0.000    0.000 
#    0.000    0.000    0.000    0.000    0.000    0.000 
#
# Total GULP energy -89495.309321 kJ/mol
# GULP energy per Si atom -5593.456833 kJ/mol
# Density = 2.718092 g / cm^3
# Si number density = 27.242930 Si / 1000 Ang^3
#
#
#
# Elastic Constant Matrix: (Units=GPa)
#
#
# Indices 1 2 3 4 5 6 
#
# 1 212.0115 11.3786 69.3253 0.0000 45.0187 0.0000
# 2 11.3786 54.6084 5.6971 0.0000 16.2264 0.0000
# 3 69.3253 5.6971 161.8059 0.0000 27.9543 0.0000
# 4 0.0000 0.0000 0.0000 33.2249 0.0000 16.6933
# 5 45.0187 16.2264 27.9543 0.0000 78.2626 0.0000
# 6 0.0000 0.0000 0.0000 16.6933 0.0000 45.3341
#
#
#
# Elastic Compliance Matrix: (Units=1/GPa)
#
#
# Indices 1 2 3 4 5 6 
#
# 1 0.005975 -0.000242 -0.002096 0.000000 -0.002638 0.000000
# 2 -0.000242 0.019524 0.000098 0.000000 -0.003943 0.000000
# 3 -0.002096 0.000098 0.007322 0.000000 -0.001430 0.000000
# 4 0.000000 0.000000 0.000000 0.036931 0.000000 -0.013599
# 5 -0.002638 -0.003943 -0.001430 0.000000 0.015623 0.000000
# 6 0.000000 0.000000 0.000000 -0.013599 0.000000 0.027066
#
#
# Mechanical properties :
#
#
# Convention : Reuss Voigt Hill
#
# Bulk Modulus (GPa) = 35.28540 66.80308 51.04424
# Shear Modulus (GPa) = 39.56670 54.16598 46.86634
#
# Velocity S-wave (km/s) = 3.81513 4.46383 4.15216
# Velocity P-wave (km/s) = 5.69097 7.15137 6.46256
#
# Compressibility (1/GPa) = 0.02834033
#
# Stress axis : x y z
#
# Youngs Moduli (GPa) = 167.35752 51.21828 136.57915
#
# Poissons Ratio (x) = 0.01242 0.28623
# Poissons Ratio (y) = 0.04058 -0.01335
# Poissons Ratio (z) = 0.35074 -0.00501
#
# Static dielectric constant tensor:
#      x y z
#    x 2.193430 0.000000 0.127690 
#    y 0.000000 2.291460 0.000000 
#    z 0.127690 0.000000 2.103980 
# 
# From -- ./inp_files/17765.got.cif
#   From: 2010.05.17/outbox.cif.g08.bks.cpg/sg9_9_cif.got.tgz:17765.got - 2010.06.03 20:04:27.
