data_PCOD9135133
_publ_section_title
;
Structure prediction by ZEFSAII (Michael W. Deem and Ramdas Pophale) SiO2 
 PCOD9135133
Probable space group: C C
;
_chemical_formula_sum "Si O2"
_cell_formula_units_Z 32
_cell_length_a 15.664666
_cell_length_b 9.055919
_cell_length_c 20.752131
_cell_angle_alpha 90.000000
_cell_angle_beta 30.986005
_cell_angle_gamma 90.000000
_cell_volume 1515.580849
_symmetry_space_group_name_H-M "C C"
_symmetry_group_IT_number 9
_symmetry_cell_setting 'monoclinic'
loop_
_space_group_symop_operation_xyz
x,y,z
x,-y,1/2+z
1/2+x,1/2+y,z
1/2+x,1/2-y,1/2+z
loop_
_atom_site_type_symbol
_atom_site_label
_atom_site_fract_x
_atom_site_fract_y
_atom_site_fract_z
Si Si1 0.395920 0.540191 0.402330
Si Si2 0.564607 0.001106 0.747356
Si Si3 0.724338 0.684323 0.162674
Si Si4 0.212136 0.009854 0.541735
Si Si5 0.303956 0.720511 0.058119
Si Si6 0.502055 0.035496 0.510891
Si Si7 0.878315 0.936894 0.764417
Si Si8 0.531870 0.872257 0.138861
O O1 0.568773 0.620949 0.303615
O O2 0.380398 0.408542 0.463914
O O3 0.394902 0.497941 0.326769
O O4 0.233656 0.646144 0.508888
O O5 0.682101 0.143183 0.684381
O O6 0.517836 0.001695 0.701803
O O7 0.673759 0.857488 0.690242
O O8 0.389843 0.010991 0.895011
O O9 0.706840 0.603612 0.104929
O O10 0.898308 0.616732 0.073006
O O11 0.208556 0.174365 0.570841
O O12 0.036544 0.988117 0.619837
O O13 0.421046 0.833289 0.020852
O O14 0.692723 0.023394 0.364949
O O15 0.493818 0.085270 0.590631
O O16 0.913792 0.760134 0.739993
#
# Coordination Sequence:
#
# PCOD9135133 Si02
#       8
#     4   4   4   4   4   4   4   4
#     4   9  19  37  64  89 125 163 223 265 312 385
#     4  11  22  40  74  99 118 172 235 262 325 395
#     4  10  21  39  66  94 128 170 211 277 322 384
#     4  10  22  38  68  95 125 170 226 271 308 398
#     4  10  24  40  67  97 129 172 221 277 327 385
#     4  10  24  39  65  95 139 169 206 275 344 388
#     4  10  20  37  64  89 131 174 210 264 324 394
#     4  10  20  38  66  96 123 168 220 267 320 397
#
# _framework density 21.114018000000002
#
# number of rings (size 3 to 8) (size 9 to 14) (size 15 to 20)
#    0.000    2.000    2.500    0.750   10.500    1.000 
#    0.000    0.000   30.250    0.000    0.000    0.000 
#    0.000    0.000    0.000    0.000    0.000    0.000 
#
# Total GULP energy -89073.407090 kJ/mol
# GULP energy per Si atom -5567.087943 kJ/mol
# Density = 2.106596 g / cm^3
# Si number density = 21.114018 Si / 1000 Ang^3
#
#
#
# Elastic Constant Matrix: (Units=GPa)
#
#
# Indices 1 2 3 4 5 6 
#
# 1 54.3441 25.7291 33.6286 0.0000 -18.7245 0.0000
# 2 25.7291 81.6035 37.5540 -0.0002 -9.7360 0.0000
# 3 33.6286 37.5540 143.7624 -0.0002 -27.7831 0.0000
# 4 0.0000 -0.0002 -0.0002 25.8597 0.0001 0.6150
# 5 -18.7245 -9.7360 -27.7831 0.0001 37.8113 0.0000
# 6 0.0000 0.0000 0.0000 0.6150 0.0000 15.7775
#
#
#
# Elastic Compliance Matrix: (Units=1/GPa)
#
#
# Indices 1 2 3 4 5 6 
#
# 1 0.026116 -0.005840 -0.002768 0.000000 0.009396 0.000000
# 2 -0.005840 0.015271 -0.002823 0.000000 -0.001034 0.000000
# 3 -0.002768 -0.002823 0.009249 0.000000 0.004698 0.000000
# 4 0.000000 0.000000 0.000000 0.038706 0.000000 -0.001509
# 5 0.009396 -0.001034 0.004698 0.000000 0.034286 0.000000
# 6 0.000000 0.000000 0.000000 -0.001509 0.000000 0.063440
#
#
# Mechanical properties :
#
#
# Convention : Reuss Voigt Hill
#
# Bulk Modulus (GPa) = 36.00318 52.61481 44.30899
# Shear Modulus (GPa) = 22.81151 28.07625 25.44388
#
# Velocity S-wave (km/s) = 3.29050 3.65052 3.47518
# Velocity P-wave (km/s) = 5.61475 6.53773 6.09374
#
# Compressibility (1/GPa) = 0.02777532
#
# Stress axis : x y z
#
# Youngs Moduli (GPa) = 38.29069 65.48197 108.12219
#
# Poissons Ratio (x) = 0.38238 0.29926
# Poissons Ratio (y) = 0.22360 0.30524
# Poissons Ratio (z) = 0.10598 0.18486
#
# Static dielectric constant tensor:
#      x y z
#    x 1.808510 0.000000 -0.007360 
#    y 0.000000 1.792050 0.000000 
#    z -0.007360 0.000000 1.859550 
# 
# From -- ./inp_files/35750.got.cif
#   From: 2010.05.17/outbox.cif.g08.bks.cpg/sg9_18_cif.got.tgz:35750.got - 2010.06.03 20:04:27.
