data_PCOD9135650
_publ_section_title
;
Structure prediction by ZEFSAII (Michael W. Deem and Ramdas Pophale) SiO2 
 PCOD9135650
Probable space group: C C
;
_chemical_formula_sum "Si O2"
_cell_formula_units_Z 28
_cell_length_a 10.135240
_cell_length_b 9.974047
_cell_length_c 13.574875
_cell_angle_alpha 90.000000
_cell_angle_beta 123.335512
_cell_angle_gamma 90.000000
_cell_volume 1146.490719
_symmetry_space_group_name_H-M "C C"
_symmetry_group_IT_number 9
_symmetry_cell_setting 'monoclinic'
loop_
_space_group_symop_operation_xyz
x,y,z
x,-y,1/2+z
1/2+x,1/2+y,z
1/2+x,1/2-y,1/2+z
loop_
_atom_site_type_symbol
_atom_site_label
_atom_site_fract_x
_atom_site_fract_y
_atom_site_fract_z
Si Si1 0.104510 0.443290 0.245910
Si Si2 0.529992 0.706948 0.086061
Si Si3 0.157534 0.207143 0.929148
Si Si4 0.585465 0.543714 0.269215
Si Si5 0.522030 0.848281 0.553943
Si Si6 0.695379 0.240872 0.949982
Si Si7 0.929539 0.461830 0.833531
O O1 0.131814 0.320365 0.183356
O O2 0.198929 0.394835 0.382835
O O3 0.937562 0.456581 0.234136
O O4 0.106736 0.576414 0.179646
O O5 0.470546 0.588414 0.134802
O O6 0.606404 0.659757 0.016995
O O7 0.370761 0.792886 0.004443
O O8 0.054934 0.341580 0.872551
O O9 0.097317 0.100234 0.823277
O O10 0.349409 0.215749 0.006299
O O11 0.574796 0.656065 0.348920
O O12 0.749115 0.570937 0.278656
O O13 0.646195 0.760939 0.543486
O O14 0.480681 0.952975 0.449396
#
# Coordination Sequence:
#
# PCOD9135650 Si02
#       7
#     4   4   4   4   4   4   4
#     4  10  21  41  67  87 133 175 210 276 341 385
#     4  11  21  42  67  89 131 176 214 270 344 389
#     4  11  21  41  69  93 129 173 225 265 325 423
#     4  10  22  40  64  96 129 172 219 277 334 395
#     4  10  21  41  64  94 129 171 215 271 339 389
#     4  10  22  41  61  94 133 168 220 281 327 396
#     4  10  20  42  66  93 126 171 223 272 328 405
#
# _framework density 24.422353999999999
#
# number of rings (size 3 to 8) (size 9 to 14) (size 15 to 20)
#    0.000    1.714    2.857    1.714    0.000    1.143 
#   18.000    0.000    0.000    0.000    0.000    0.000 
#    0.000    0.000    0.000    0.000    0.000    0.000 
#
# Total GULP energy -77962.747169 kJ/mol
# GULP energy per Si atom -5568.767655 kJ/mol
# Density = 2.436677 g / cm^3
# Si number density = 24.422354 Si / 1000 Ang^3
#
#
#
# Elastic Constant Matrix: (Units=GPa)
#
#
# Indices 1 2 3 4 5 6 
#
# 1 107.8527 22.6460 21.1848 0.0000 -28.4398 0.0000
# 2 22.6460 65.5989 -1.5463 0.0000 -3.3941 0.0000
# 3 21.1848 -1.5463 55.1198 0.0000 -16.5722 0.0000
# 4 0.0000 0.0000 0.0000 27.9267 0.0000 -3.3072
# 5 -28.4398 -3.3941 -16.5722 0.0000 31.0632 0.0000
# 6 0.0000 0.0000 0.0000 -3.3072 0.0000 31.0499
#
#
#
# Elastic Compliance Matrix: (Units=1/GPa)
#
#
# Indices 1 2 3 4 5 6 
#
# 1 0.013352 -0.004104 -0.002032 0.000000 0.010692 0.000000
# 2 -0.004104 0.016650 0.001741 0.000000 -0.001009 0.000000
# 3 -0.002032 0.001741 0.021999 0.000000 0.010066 0.000000
# 4 0.000000 0.000000 0.000000 0.036266 0.000000 0.003863
# 5 0.010692 -0.001009 0.010066 0.000000 0.047241 0.000000
# 6 0.000000 0.000000 0.000000 0.003863 0.000000 0.032618
#
#
# Mechanical properties :
#
#
# Convention : Reuss Voigt Hill
#
# Bulk Modulus (GPa) = 23.14301 34.79338 28.96819
# Shear Modulus (GPa) = 26.13436 30.42709 28.28072
#
# Velocity S-wave (km/s) = 3.27479 3.53352 3.40661
# Velocity P-wave (km/s) = 4.87808 5.56104 5.23072
#
# Compressibility (1/GPa) = 0.04320960
#
# Stress axis : x y z
#
# Youngs Moduli (GPa) = 74.89410 60.06077 45.45737
#
# Poissons Ratio (x) = 0.24650 0.09238
# Poissons Ratio (y) = 0.30738 -0.07914
# Poissons Ratio (z) = 0.15221 -0.10456
#
# Static dielectric constant tensor:
#      x y z
#    x 1.980470 0.000000 0.074940 
#    y 0.000000 2.141160 0.000000 
#    z 0.074940 0.000000 2.081430 
# 
# From -- ./inp_files/22680.got.cif
#   From: 2010.05.17/outbox.cif.g08.bks.cpg/sg9_12_cif.got.tgz:22680.got - 2010.06.03 20:04:27.
