data_PCOD9135481
_publ_section_title
;
Structure prediction by ZEFSAII (Michael W. Deem and Ramdas Pophale) SiO2 
 PCOD9135481
Probable space group: C C
;
_chemical_formula_sum "Si O2"
_cell_formula_units_Z 28
_cell_length_a 15.792540
_cell_length_b 8.950168
_cell_length_c 20.749514
_cell_angle_alpha 90.000000
_cell_angle_beta 24.135981
_cell_angle_gamma 90.000000
_cell_volume 1199.256457
_symmetry_space_group_name_H-M "C C"
_symmetry_group_IT_number 9
_symmetry_cell_setting 'monoclinic'
loop_
_space_group_symop_operation_xyz
x,y,z
x,-y,1/2+z
1/2+x,1/2+y,z
1/2+x,1/2-y,1/2+z
loop_
_atom_site_type_symbol
_atom_site_label
_atom_site_fract_x
_atom_site_fract_y
_atom_site_fract_z
Si Si1 0.265870 0.090627 0.454150
Si Si2 0.199839 0.563827 0.975955
Si Si3 0.867082 0.894279 0.736290
Si Si4 0.947753 0.448682 0.968188
Si Si5 0.073648 0.382166 0.164879
Si Si6 0.782794 0.564232 0.210842
Si Si7 0.911082 0.773229 0.018423
O O1 0.248283 0.263876 0.448760
O O2 0.318920 0.090540 0.494116
O O3 0.447609 0.010292 0.288884
O O4 0.064562 0.990453 0.576396
O O5 0.280008 0.497041 0.854271
O O6 0.258092 0.458329 0.994816
O O7 0.952982 0.533167 0.146430
O O8 0.668670 0.868808 0.827540
O O9 0.949127 0.741485 0.710646
O O10 0.810489 0.452316 0.130227
O O11 0.004644 0.623377 0.921590
O O12 0.189475 0.292990 0.140651
O O13 0.873367 0.718844 0.116991
O O14 0.564938 0.592658 0.395684
#
# Coordination Sequence:
#
# PCOD9135481 Si02
#       7
#     4   4   4   4   4   4   4
#     4  12  24  44  68 102 141 179 225 291 344 405
#     4  11  26  45  66 103 136 181 227 289 355 402
#     4  11  23  46  71  94 139 180 231 285 336 421
#     4   9  22  39  65  99 132 177 223 280 342 391
#     4  12  26  42  71 102 132 185 235 278 348 415
#     4   9  21  40  67  92 137 174 233 278 338 412
#     4  10  20  40  68 100 127 186 230 275 337 418
#
# _framework density 23.347798999999998
#
# number of rings (size 3 to 8) (size 9 to 14) (size 15 to 20)
#    0.857    0.571    1.429    3.429    6.000    0.000 
#    2.571    2.857    0.000    0.000    0.000    0.000 
#    0.000    0.000    0.000    0.000    0.000    0.000 
#
# Total GULP energy -78105.342259 kJ/mol
# GULP energy per Si atom -5578.953018 kJ/mol
# Density = 2.329466 g / cm^3
# Si number density = 23.347799 Si / 1000 Ang^3
#
#
#
# Elastic Constant Matrix: (Units=GPa)
#
#
# Indices 1 2 3 4 5 6 
#
# 1 48.7011 25.9351 4.4059 0.0105 1.1614 -0.0035
# 2 25.9351 113.5341 7.8654 0.0120 -5.8846 -0.0013
# 3 4.4059 7.8654 54.6954 0.0252 -2.9259 -0.0025
# 4 0.0105 0.0120 0.0252 18.8913 -0.0072 0.7136
# 5 1.1614 -5.8846 -2.9259 -0.0072 21.7718 0.0015
# 6 -0.0035 -0.0013 -0.0025 0.7136 0.0015 -0.2757
#
#
#
# Elastic Compliance Matrix: (Units=1/GPa)
#
#
# Indices 1 2 3 4 5 6 
#
# 1 0.023625 -0.005459 -0.001274 0.000001 -0.002907 -0.000271
# 2 -0.005459 0.010269 -0.000879 -0.000003 0.002949 0.000037
# 3 -0.001274 -0.000879 0.018637 -0.000016 0.002335 -0.000177
# 4 0.000001 -0.000003 -0.000016 0.048220 0.000005 0.124809
# 5 -0.002907 0.002949 0.002335 0.000005 0.047197 0.000268
# 6 -0.000271 0.000037 -0.000177 0.124809 0.000268 -3.304113
#
#
# Mechanical properties :
#
#
# Convention : Reuss Voigt Hill
#
# Bulk Modulus (GPa) = 26.80469 32.59373 29.69921
# Shear Modulus (GPa) = -1.59821 19.99244 9.19712
#
# Velocity S-wave (km/s) = -0.82826 2.92941 1.98689
# Velocity P-wave (km/s) = 3.25436 5.04305 4.24401
#
# Compressibility (1/GPa) = 0.03730691
#
# Stress axis : x y z
#
# Youngs Moduli (GPa) = 42.32772 97.38291 53.65673
#
# Poissons Ratio (x) = 0.53164 0.06834
# Poissons Ratio (y) = 0.23108 0.04717
# Poissons Ratio (z) = 0.05391 0.08562
#
# Static dielectric constant tensor:
#      x y z
#    x 1.883400 0.000000 -0.017480 
#    y 0.000000 1.821480 0.000000 
#    z -0.017480 0.000000 1.921370 
# 
# From -- ./inp_files/35813.got.cif
#   From: 2010.05.17/outbox.cif.g08.bks.cpg/sg9_18_cif.got.tgz:35813.got - 2010.06.03 20:04:27.
