data_PCOD9135970
_publ_section_title
;
Structure prediction by ZEFSAII (Michael W. Deem and Ramdas Pophale) SiO2 
 PCOD9135970
Probable space group: C C
;
_chemical_formula_sum "Si O2"
_cell_formula_units_Z 32
_cell_length_a 12.674644
_cell_length_b 12.041284
_cell_length_c 14.450841
_cell_angle_alpha 90.000000
_cell_angle_beta 144.499672
_cell_angle_gamma 90.000000
_cell_volume 1280.734811
_symmetry_space_group_name_H-M "C C"
_symmetry_group_IT_number 9
_symmetry_cell_setting 'monoclinic'
loop_
_space_group_symop_operation_xyz
x,y,z
x,-y,1/2+z
1/2+x,1/2+y,z
1/2+x,1/2-y,1/2+z
loop_
_atom_site_type_symbol
_atom_site_label
_atom_site_fract_x
_atom_site_fract_y
_atom_site_fract_z
Si Si1 0.231900 0.814964 0.955790
Si Si2 0.769848 0.856670 0.120438
Si Si3 0.687987 0.408070 0.127405
Si Si4 0.613771 0.902509 0.469526
Si Si5 0.663246 0.118131 0.208445
Si Si6 0.630203 0.236071 0.708726
Si Si7 0.381095 0.258280 0.009462
Si Si8 0.933440 0.084376 0.909990
O O1 0.185921 0.685669 0.947674
O O2 0.130591 0.836766 0.784953
O O3 0.168794 0.877792 0.004310
O O4 0.448419 0.831933 0.102704
O O5 0.660869 0.783314 0.119169
O O6 0.941064 0.894188 0.305704
O O7 0.827192 0.789098 0.073361
O O8 0.668090 0.967418 0.010659
O O9 0.894983 0.395637 0.306778
O O10 0.544334 0.334237 0.082382
O O11 0.613163 0.534113 0.081056
O O12 0.702341 0.859058 0.628864
O O13 0.723139 0.205874 0.327889
O O14 0.772456 0.007574 0.306479
O O15 0.446089 0.130515 0.053969
O O16 0.829695 0.187083 0.880168
#
# Coordination Sequence:
#
# PCOD9135970 Si02
#       8
#     4   4   4   4   4   4   4   4
#     4  12  24  41  73  99 138 176 241 284 345 410
#     4   9  24  46  64  94 140 182 221 274 355 412
#     4  11  23  38  70 107 126 179 233 292 346 392
#     4  11  23  42  67 103 136 174 233 288 343 412
#     4  10  21  37  66  94 133 169 218 290 333 400
#     4  10  25  46  66  99 137 184 225 282 348 418
#     4  11  22  39  66  99 132 170 227 285 341 407
#     4   8  22  47  64  95 140 172 230 279 345 421
#
# _framework density 24.985655999999999
#
# number of rings (size 3 to 8) (size 9 to 14) (size 15 to 20)
#    0.750    1.000    2.500    0.750   10.500    1.000 
#    4.500    1.250    0.000    0.000    0.000    0.000 
#    0.000    0.000    0.000    0.000    0.000    0.000 
#
# Total GULP energy -89082.371819 kJ/mol
# GULP energy per Si atom -5567.648239 kJ/mol
# Density = 2.492879 g / cm^3
# Si number density = 24.985656 Si / 1000 Ang^3
#
#
#
# Elastic Constant Matrix: (Units=GPa)
#
#
# Indices 1 2 3 4 5 6 
#
# 1 161.8889 26.9078 41.4260 0.0001 -19.2114 0.0000
# 2 26.9078 42.0426 15.7738 0.0001 -10.7248 0.0000
# 3 41.4260 15.7738 76.8487 0.0000 -3.4636 0.0000
# 4 0.0001 0.0001 0.0000 32.0401 0.0000 0.9929
# 5 -19.2114 -10.7248 -3.4636 0.0000 38.6068 0.0000
# 6 0.0000 0.0000 0.0000 0.9929 0.0000 10.3841
#
#
#
# Elastic Compliance Matrix: (Units=1/GPa)
#
#
# Indices 1 2 3 4 5 6 
#
# 1 0.007911 -0.003035 -0.003516 0.000000 0.002778 0.000000
# 2 -0.003035 0.028791 -0.003997 0.000000 0.006129 0.000000
# 3 -0.003516 -0.003997 0.015663 0.000000 -0.001455 0.000000
# 4 0.000000 0.000000 0.000000 0.031304 0.000000 -0.002993
# 5 0.002778 0.006129 -0.001455 0.000000 0.028857 0.000000
# 6 0.000000 0.000000 0.000000 -0.002993 0.000000 0.096587
#
#
# Mechanical properties :
#
#
# Convention : Reuss Voigt Hill
#
# Bulk Modulus (GPa) = 31.98191 49.88838 40.93514
# Shear Modulus (GPa) = 20.77854 29.31771 25.04813
#
# Velocity S-wave (km/s) = 2.88691 3.42918 3.16966
# Velocity P-wave (km/s) = 4.89287 5.97404 5.46028
#
# Compressibility (1/GPa) = 0.03126768
#
# Stress axis : x y z
#
# Youngs Moduli (GPa) = 126.40582 34.73286 63.84487
#
# Poissons Ratio (x) = 0.10542 0.22450
# Poissons Ratio (y) = 0.38367 0.25520
# Poissons Ratio (z) = 0.44448 0.13884
#
# Static dielectric constant tensor:
#      x y z
#    x 1.953150 0.000000 -0.029610 
#    y 0.000000 2.139720 0.000000 
#    z -0.029610 0.000000 2.043340 
# 
# From -- ./inp_files/24967.got.cif
#   From: 2010.05.17/outbox.cif.g08.bks.cpg/sg9_13_cif.got.tgz:24967.got - 2010.06.03 20:04:27.
