data_PCOD9135694
_publ_section_title
;
Structure prediction by ZEFSAII (Michael W. Deem and Ramdas Pophale) SiO2 
 PCOD9135694
Probable space group: C C
;
_chemical_formula_sum "Si O2"
_cell_formula_units_Z 32
_cell_length_a 7.210858
_cell_length_b 9.129399
_cell_length_c 19.851581
_cell_angle_alpha 90.000000
_cell_angle_beta 91.760578
_cell_angle_gamma 90.000000
_cell_volume 1306.228540
_symmetry_space_group_name_H-M "C C"
_symmetry_group_IT_number 9
_symmetry_cell_setting 'monoclinic'
loop_
_space_group_symop_operation_xyz
x,y,z
x,-y,1/2+z
1/2+x,1/2+y,z
1/2+x,1/2-y,1/2+z
loop_
_atom_site_type_symbol
_atom_site_label
_atom_site_fract_x
_atom_site_fract_y
_atom_site_fract_z
Si Si1 0.542260 0.945858 0.836730
Si Si2 0.499132 0.375767 0.634505
Si Si3 0.147769 0.357117 0.702689
Si Si4 0.501558 0.571245 0.511342
Si Si5 0.075704 0.378980 0.047209
Si Si6 0.573452 0.679957 0.923618
Si Si7 0.771327 0.483881 0.224564
Si Si8 0.497826 0.866147 0.461337
O O1 0.685522 0.930958 0.776455
O O2 0.510391 0.778872 0.860997
O O3 0.355485 0.009370 0.800396
O O4 0.592750 0.044722 0.901441
O O5 0.283464 0.406321 0.645101
O O6 0.577543 0.480114 0.576025
O O7 0.534603 0.208430 0.614396
O O8 0.598186 0.414736 0.705031
O O9 0.940450 0.423267 0.688880
O O10 0.197449 0.182252 0.708721
O O11 0.293130 0.604265 0.533398
O O12 0.507565 0.481129 0.441817
O O13 0.593963 0.723776 0.492808
O O14 0.007045 0.268236 0.988459
O O15 0.977476 0.527662 0.024962
O O16 0.796889 0.676866 0.930393
#
# Coordination Sequence:
#
# PCOD9135694 Si02
#       8
#     4   4   4   4   4   4   4   4
#     4   9  21  44  71 100 147 191 250 316 382 463
#     4  11  25  46  71 104 150 191 252 309 386 474
#     4  10  25  45  73 109 145 203 252 317 390 467
#     4  10  23  39  67 105 139 188 244 306 389 461
#     4   9  22  39  62  99 137 182 235 303 375 456
#     4   9  19  41  63  95 138 183 237 301 376 447
#     4  10  25  46  73 108 148 199 258 312 391 464
#     4  10  20  42  70  98 142 189 240 316 383 460
#
# _framework density 24.498009
#
# number of rings (size 3 to 8) (size 9 to 14) (size 15 to 20)
#    0.750    1.500    0.000    0.750    3.500    7.000 
#    0.000   16.250    0.000    0.000    0.000    0.000 
#    0.000    0.000    0.000    0.000    0.000    0.000 
#
# Total GULP energy -89155.912508 kJ/mol
# GULP energy per Si atom -5572.244532 kJ/mol
# Density = 2.444225 g / cm^3
# Si number density = 24.498009 Si / 1000 Ang^3
#
#
#
# Elastic Constant Matrix: (Units=GPa)
#
#
# Indices 1 2 3 4 5 6 
#
# 1 72.8816 4.2318 -5.5917 0.0000 -3.6747 0.0000
# 2 4.2318 146.1873 39.4201 0.0000 -4.3394 0.0000
# 3 -5.5917 39.4201 76.2367 0.0000 -3.3561 0.0000
# 4 0.0000 0.0000 0.0000 46.3658 0.0000 -1.5239
# 5 -3.6747 -4.3394 -3.3561 0.0000 29.2089 0.0000
# 6 0.0000 0.0000 0.0000 -1.5239 0.0000 18.3558
#
#
#
# Elastic Compliance Matrix: (Units=1/GPa)
#
#
# Indices 1 2 3 4 5 6 
#
# 1 0.013971 -0.000753 0.001494 0.000000 0.001817 0.000000
# 2 -0.000753 0.008004 -0.004167 0.000000 0.000616 0.000000
# 3 0.001494 -0.004167 0.015440 0.000000 0.001343 0.000000
# 4 0.000000 0.000000 0.000000 0.021627 0.000000 0.001795
# 5 0.001817 0.000616 0.001343 0.000000 0.034711 0.000000
# 6 0.000000 0.000000 0.000000 0.001795 0.000000 0.054628
#
#
# Mechanical properties :
#
#
# Convention : Reuss Voigt Hill
#
# Bulk Modulus (GPa) = 32.71886 41.26954 36.99420
# Shear Modulus (GPa) = 30.22602 35.93580 33.08091
#
# Velocity S-wave (km/s) = 3.51638 3.83415 3.67870
# Velocity P-wave (km/s) = 5.46546 6.04017 5.75999
#
# Compressibility (1/GPa) = 0.03056341
#
# Stress axis : x y z
#
# Youngs Moduli (GPa) = 71.57727 124.93338 64.76518
#
# Poissons Ratio (x) = 0.09413 -0.09678
# Poissons Ratio (y) = 0.05393 0.26987
# Poissons Ratio (z) = -0.10696 0.52059
#
# Static dielectric constant tensor:
#      x y z
#    x 1.945490 0.000000 -0.018690 
#    y 0.000000 2.048770 0.000000 
#    z -0.018690 0.000000 1.976170 
# 
# From -- ./inp_files/32323.got.cif
#   From: 2010.05.17/outbox.cif.g08.bks.cpg/sg9_17_cif.got.tgz:32323.got - 2010.06.03 20:04:27.
