data_PCOD9135690
_publ_section_title
;
Structure prediction by ZEFSAII (Michael W. Deem and Ramdas Pophale) SiO2 
 PCOD9135690
Probable space group: C C
;
_chemical_formula_sum "Si O2"
_cell_formula_units_Z 32
_cell_length_a 9.106398
_cell_length_b 13.159181
_cell_length_c 10.287061
_cell_angle_alpha 90.000000
_cell_angle_beta 78.028724
_cell_angle_gamma 90.000000
_cell_volume 1205.917003
_symmetry_space_group_name_H-M "C C"
_symmetry_group_IT_number 9
_symmetry_cell_setting 'monoclinic'
loop_
_space_group_symop_operation_xyz
x,y,z
x,-y,1/2+z
1/2+x,1/2+y,z
1/2+x,1/2-y,1/2+z
loop_
_atom_site_type_symbol
_atom_site_label
_atom_site_fract_x
_atom_site_fract_y
_atom_site_fract_z
Si Si1 0.111730 0.565518 0.730020
Si Si2 0.987987 0.779633 0.401970
Si Si3 0.988393 0.129782 0.288361
Si Si4 0.264399 0.532885 0.959055
Si Si5 0.375353 0.183877 0.663518
Si Si6 0.636735 0.377956 0.013470
Si Si7 0.857305 0.766285 0.158950
Si Si8 0.710736 0.397399 0.511759
O O1 0.135957 0.533669 0.873201
O O2 0.193475 0.494312 0.610253
O O3 0.200688 0.673485 0.702436
O O4 0.939824 0.585890 0.724504
O O5 0.991931 0.702818 0.521520
O O6 0.939765 0.729572 0.275483
O O7 0.138729 0.845432 0.396768
O O8 0.853479 0.861111 0.449012
O O9 0.887578 0.044226 0.374980
O O10 0.887368 0.222127 0.258827
O O11 0.114185 0.159729 0.371075
O O12 0.076377 0.095218 0.144377
O O13 0.226451 0.179400 0.608023
O O14 0.467022 0.359061 0.094885
O O15 0.726530 0.483567 0.984313
O O16 0.832175 0.676150 0.058661
#
# Coordination Sequence:
#
# PCOD9135690 Si02
#       8
#     4   4   4   4   4   4   4   4
#     4  11  22  45  67 104 137 187 241 303 369 441
#     4  10  20  42  70  96 131 182 226 295 360 428
#     4  11  22  44  69  97 138 183 237 301 364 444
#     4  11  22  41  77 101 135 192 252 297 371 460
#     4  11  26  44  65  98 149 177 230 311 367 427
#     4  12  26  44  68 105 138 188 239 300 369 444
#     4  11  22  42  73  98 134 183 243 290 370 444
#     4  11  22  44  69  99 138 184 240 295 362 446
#
# _framework density 26.535823000000001
#
# number of rings (size 3 to 8) (size 9 to 14) (size 15 to 20)
#    0.000    1.000    5.000    3.750    1.750    2.000 
#    9.000    0.000    0.000    0.000    0.000    0.000 
#    0.000    0.000    0.000    0.000    0.000    0.000 
#
# Total GULP energy -89492.735724 kJ/mol
# GULP energy per Si atom -5593.295983 kJ/mol
# Density = 2.647543 g / cm^3
# Si number density = 26.535823 Si / 1000 Ang^3
#
#
#
# Elastic Constant Matrix: (Units=GPa)
#
#
# Indices 1 2 3 4 5 6 
#
# 1 104.2311 43.8965 24.4222 0.0000 36.9119 0.0000
# 2 43.8965 86.1713 46.4107 0.0000 22.2680 0.0000
# 3 24.4222 46.4107 125.8128 0.0000 58.7052 0.0000
# 4 0.0000 0.0000 0.0000 36.3667 0.0000 5.7442
# 5 36.9119 22.2680 58.7052 0.0000 62.9020 0.0000
# 6 0.0000 0.0000 0.0000 5.7442 0.0000 33.7682
#
#
#
# Elastic Compliance Matrix: (Units=1/GPa)
#
#
# Indices 1 2 3 4 5 6 
#
# 1 0.015633 -0.007800 0.005022 0.000000 -0.011099 0.000000
# 2 -0.007800 0.018376 -0.007732 0.000000 0.005288 0.000000
# 3 0.005022 -0.007732 0.017579 0.000000 -0.016615 0.000000
# 4 0.000000 0.000000 0.000000 0.028257 0.000000 -0.004807
# 5 -0.011099 0.005288 -0.016615 0.000000 0.036045 0.000000
# 6 0.000000 0.000000 0.000000 -0.004807 0.000000 0.030431
#
#
# Mechanical properties :
#
#
# Convention : Reuss Voigt Hill
#
# Bulk Modulus (GPa) = 32.71535 60.63046 46.67290
# Shear Modulus (GPa) = 28.16413 40.03977 34.10195
#
# Velocity S-wave (km/s) = 3.26139 3.88866 3.58876
# Velocity P-wave (km/s) = 5.15148 6.56204 5.89907
#
# Compressibility (1/GPa) = 0.03056669
#
# Stress axis : x y z
#
# Youngs Moduli (GPa) = 63.96766 54.41877 56.88746
#
# Poissons Ratio (x) = 0.42446 -0.28566
# Poissons Ratio (y) = 0.49894 0.43985
# Poissons Ratio (z) = -0.32121 0.42076
#
# Static dielectric constant tensor:
#      x y z
#    x 2.193160 0.000000 -0.144000 
#    y 0.000000 2.103030 0.000000 
#    z -0.144000 0.000000 2.184010 
# 
# From -- ./inp_files/14634.got.cif
#   From: 2010.05.17/outbox.cif.g08.bks.cpg/sg9_8_cif.got.tgz:14634.got - 2010.06.03 20:04:27.
