data_PCOD9135440
_publ_section_title
;
Structure prediction by ZEFSAII (Michael W. Deem and Ramdas Pophale) SiO2 
 PCOD9135440
Probable space group: C C
;
_chemical_formula_sum "Si O2"
_cell_formula_units_Z 28
_cell_length_a 7.998610
_cell_length_b 12.122558
_cell_length_c 20.640335
_cell_angle_alpha 90.000000
_cell_angle_beta 139.954854
_cell_angle_gamma 90.000000
_cell_volume 1287.657981
_symmetry_space_group_name_H-M "C C"
_symmetry_group_IT_number 9
_symmetry_cell_setting 'monoclinic'
loop_
_space_group_symop_operation_xyz
x,y,z
x,-y,1/2+z
1/2+x,1/2+y,z
1/2+x,1/2-y,1/2+z
loop_
_atom_site_type_symbol
_atom_site_label
_atom_site_fract_x
_atom_site_fract_y
_atom_site_fract_z
Si Si1 0.145820 0.520574 0.351250
Si Si2 0.528258 0.087479 0.071904
Si Si3 0.008456 0.216314 0.480619
Si Si4 0.706997 0.132525 0.604668
Si Si5 0.465545 0.933527 0.160794
Si Si6 0.929373 0.844753 0.522202
Si Si7 0.081686 0.957806 0.699931
O O1 0.297334 0.635179 0.388243
O O2 0.071210 0.462017 0.261877
O O3 0.322956 0.435483 0.442516
O O4 0.876792 0.546690 0.308736
O O5 0.845513 0.100629 0.169448
O O6 0.520027 0.971150 0.029055
O O7 0.423457 0.048865 0.109645
O O8 0.407820 0.188338 0.998597
O O9 0.208305 0.139676 0.580587
O O10 0.181509 0.278248 0.478330
O O11 0.666108 0.129077 0.671012
O O12 0.614650 0.247873 0.551400
O O13 0.987544 0.085527 0.670596
O O14 0.059602 0.904973 0.622354
#
# Coordination Sequence:
#
# PCOD9135440 Si02
#       7
#     4   4   4   4   4   4   4
#     4  12  22  34  62 104 120 146 210 264 304 354
#     4   7  17  40  68  76 114 180 201 229 309 372
#     4  10  20  40  64  88 127 162 203 256 304 365
#     4   7  17  40  68  76 114 180 201 229 309 372
#     4   8  19  38  59  87 124 159 199 248 305 362
#     4  10  20  40  64  88 127 162 203 256 304 365
#     4   8  19  38  59  87 124 159 199 248 305 362
#
# _framework density 21.744903000000001
#
# number of rings (size 3 to 8) (size 9 to 14) (size 15 to 20)
#    1.714    1.143    0.000    0.857    0.000    2.286 
#    0.000   24.286    0.000    6.857    0.000    0.000 
#    0.000    0.000    0.000    0.000    0.000    0.000 
#
# Total GULP energy -77955.970795 kJ/mol
# GULP energy per Si atom -5568.283628 kJ/mol
# Density = 2.169541 g / cm^3
# Si number density = 21.744903 Si / 1000 Ang^3
#
#
#
# Elastic Constant Matrix: (Units=GPa)
#
#
# Indices 1 2 3 4 5 6 
#
# 1 32.5827 16.0707 -0.1741 0.0000 9.3522 0.0000
# 2 16.0707 82.7058 16.7693 0.0000 5.4693 0.0000
# 3 -0.1741 16.7693 37.0599 0.0000 8.3021 0.0000
# 4 0.0000 0.0000 0.0000 13.0810 0.0000 7.0115
# 5 9.3522 5.4693 8.3021 0.0000 22.5543 0.0000
# 6 0.0000 0.0000 0.0000 7.0115 0.0000 39.0013
#
#
#
# Elastic Compliance Matrix: (Units=1/GPa)
#
#
# Indices 1 2 3 4 5 6 
#
# 1 0.039732 -0.008146 0.007761 0.000000 -0.017357 0.000000
# 2 -0.008146 0.015008 -0.007379 0.000000 0.002455 0.000000
# 3 0.007761 -0.007379 0.033436 0.000000 -0.013736 0.000000
# 4 0.000000 0.000000 0.000000 0.084599 0.000000 -0.015209
# 5 -0.017357 0.002455 -0.013736 0.000000 0.055995 0.000000
# 6 0.000000 0.000000 0.000000 -0.015209 0.000000 0.028374
#
#
# Mechanical properties :
#
#
# Convention : Reuss Voigt Hill
#
# Bulk Modulus (GPa) = 13.76512 24.18669 18.97591
# Shear Modulus (GPa) = 16.84129 22.90615 19.87372
#
# Velocity S-wave (km/s) = 2.78599 3.24914 3.02644
# Velocity P-wave (km/s) = 4.08571 5.02224 4.57799
#
# Compressibility (1/GPa) = 0.07264737
#
# Stress axis : x y z
#
# Youngs Moduli (GPa) = 25.16834 66.63194 29.90790
#
# Poissons Ratio (x) = 0.54280 -0.23211
# Poissons Ratio (y) = 0.20503 0.22069
# Poissons Ratio (z) = -0.19533 0.49168
#
# Static dielectric constant tensor:
#      x y z
#    x 1.880630 0.000000 0.025240 
#    y 0.000000 1.833930 0.000000 
#    z 0.025240 0.000000 1.758540 
# 
# From -- ./inp_files/32612.got.cif
#   From: 2010.05.17/outbox.cif.g08.bks.cpg/sg9_17_cif.got.tgz:32612.got - 2010.06.03 20:04:27.
