data_PCOD9135625
_publ_section_title
;
Structure prediction by ZEFSAII (Michael W. Deem and Ramdas Pophale) SiO2 
 PCOD9135625
Probable space group: C C
;
_chemical_formula_sum "Si O2"
_cell_formula_units_Z 32
_cell_length_a 13.809040
_cell_length_b 10.680419
_cell_length_c 13.901245
_cell_angle_alpha 90.000000
_cell_angle_beta 40.024218
_cell_angle_gamma 90.000000
_cell_volume 1318.534956
_symmetry_space_group_name_H-M "C C"
_symmetry_group_IT_number 9
_symmetry_cell_setting 'monoclinic'
loop_
_space_group_symop_operation_xyz
x,y,z
x,-y,1/2+z
1/2+x,1/2+y,z
1/2+x,1/2-y,1/2+z
loop_
_atom_site_type_symbol
_atom_site_label
_atom_site_fract_x
_atom_site_fract_y
_atom_site_fract_z
Si Si1 0.109270 0.691171 0.655120
Si Si2 0.786258 0.981765 0.887945
Si Si3 0.017767 0.121969 0.076076
Si Si4 0.265413 0.926951 0.866622
Si Si5 0.376972 0.571618 0.004690
Si Si6 0.530284 0.696243 0.415285
Si Si7 0.528220 0.924001 0.800124
Si Si8 0.470308 0.960742 0.539306
O O1 0.250025 0.640340 0.483090
O O2 0.016480 0.757804 0.643075
O O3 0.106684 0.780312 0.751832
O O4 0.038132 0.564769 0.749313
O O5 0.874201 0.953440 0.724491
O O6 0.883784 0.068927 0.884456
O O7 0.626999 0.037344 0.978417
O O8 0.993086 0.146751 0.982383
O O9 0.164031 0.038066 0.987899
O O10 0.152865 0.826998 0.905445
O O11 0.343333 0.984915 0.713134
O O12 0.392516 0.869541 0.839507
O O13 0.204403 0.613208 0.157742
O O14 0.425670 0.427884 0.996554
O O15 0.449205 0.824154 0.507508
O O16 0.481211 0.939688 0.945816
#
# Coordination Sequence:
#
# PCOD9135625 Si02
#       8
#     4   4   4   4   4   4   4   4
#     4  10  22  38  66  99 122 170 221 263 319 383
#     4  11  22  40  66  94 128 175 209 266 328 382
#     4  11  24  38  64  95 136 160 217 272 320 378
#     4  11  25  39  62 105 129 162 219 275 324 372
#     4  10  20  42  63  97 124 175 210 259 331 377
#     4  10  24  38  69  98 126 166 225 271 315 383
#     4  10  22  39  66  93 129 169 214 260 328 377
#     4  11  23  40  68  91 134 167 215 270 323 384
#
# _framework density 24.269362000000001
#
# number of rings (size 3 to 8) (size 9 to 14) (size 15 to 20)
#    0.000    1.500    5.000    0.000    8.750    0.000 
#    0.000    1.250    0.000    0.000    0.000    0.000 
#    0.000    0.000    0.000    0.000    0.000    0.000 
#
# Total GULP energy -89275.486641 kJ/mol
# GULP energy per Si atom -5579.717915 kJ/mol
# Density = 2.421412 g / cm^3
# Si number density = 24.269362 Si / 1000 Ang^3
#
#
#
# Elastic Constant Matrix: (Units=GPa)
#
#
# Indices 1 2 3 4 5 6 
#
# 1 128.1357 -5.6657 -3.7021 0.0000 4.9571 0.0000
# 2 -5.6657 41.7874 9.3770 0.0000 0.4296 0.0000
# 3 -3.7021 9.3770 84.4664 0.0000 -1.6391 0.0000
# 4 0.0000 0.0000 0.0000 7.1365 0.0000 3.7269
# 5 4.9571 0.4296 -1.6391 0.0000 43.6398 0.0000
# 6 0.0000 0.0000 0.0000 3.7269 0.0000 20.9781
#
#
#
# Elastic Compliance Matrix: (Units=1/GPa)
#
#
# Indices 1 2 3 4 5 6 
#
# 1 0.007891 0.001031 0.000214 0.000000 -0.000898 0.000000
# 2 0.001031 0.024682 -0.002704 0.000000 -0.000462 0.000000
# 3 0.000214 -0.002704 0.012157 0.000000 0.000459 0.000000
# 4 0.000000 0.000000 0.000000 0.154455 0.000000 -0.027440
# 5 -0.000898 -0.000462 0.000459 0.000000 0.023039 0.000000
# 6 0.000000 0.000000 0.000000 -0.027440 0.000000 0.052543
#
#
# Mechanical properties :
#
#
# Convention : Reuss Voigt Hill
#
# Bulk Modulus (GPa) = 23.91622 28.26753 26.09187
# Shear Modulus (GPa) = 17.14545 31.30958 24.22752
#
# Velocity S-wave (km/s) = 2.66082 3.59567 3.16298
# Velocity P-wave (km/s) = 4.39498 5.37691 4.91055
#
# Compressibility (1/GPa) = 0.04181263
#
# Stress axis : x y z
#
# Youngs Moduli (GPa) = 126.73059 40.51543 82.25394
#
# Poissons Ratio (x) = -0.04178 -0.01760
# Poissons Ratio (y) = -0.13067 0.22240
# Poissons Ratio (z) = -0.02711 0.10955
#
# Static dielectric constant tensor:
#      x y z
#    x 1.989560 0.000000 -0.037350 
#    y 0.000000 1.996530 0.000000 
#    z -0.037350 0.000000 1.914490 
# 
# From -- ./inp_files/25838.got.cif
#   From: 2010.05.17/outbox.cif.g08.bks.cpg/sg9_13_cif.got.tgz:25838.got - 2010.06.03 20:04:27.
