data_PCOD9135922
_publ_section_title
;
Structure prediction by ZEFSAII (Michael W. Deem and Ramdas Pophale) SiO2 
 PCOD9135922
Probable space group: C C
;
_chemical_formula_sum "Si O2"
_cell_formula_units_Z 24
_cell_length_a 4.760093
_cell_length_b 23.061778
_cell_length_c 8.092006
_cell_angle_alpha 90.000000
_cell_angle_beta 113.590990
_cell_angle_gamma 90.000000
_cell_volume 814.069847
_symmetry_space_group_name_H-M "C C"
_symmetry_group_IT_number 9
_symmetry_cell_setting 'monoclinic'
loop_
_space_group_symop_operation_xyz
x,y,z
x,-y,1/2+z
1/2+x,1/2+y,z
1/2+x,1/2-y,1/2+z
loop_
_atom_site_type_symbol
_atom_site_label
_atom_site_fract_x
_atom_site_fract_y
_atom_site_fract_z
Si Si1 0.502450 0.758477 0.642060
Si Si2 0.362203 0.428231 0.117490
Si Si3 0.120879 0.455865 0.715986
Si Si4 0.295575 0.846695 0.356381
Si Si5 0.546998 0.381455 0.646376
Si Si6 0.976699 0.315980 0.976019
O O1 0.535624 0.799883 0.492214
O O2 0.681408 0.697035 0.679804
O O3 0.156164 0.737255 0.605910
O O4 0.604348 0.795700 0.822766
O O5 0.201798 0.481213 0.172120
O O6 0.698965 0.409033 0.256776
O O7 0.345657 0.443733 0.921500
O O8 0.148196 0.371992 0.088677
O O9 0.214519 0.409142 0.596365
O O10 0.782685 0.437029 0.692479
O O11 0.090773 0.852763 0.477660
O O12 0.662705 0.342470 0.825913
#
# Coordination Sequence:
#
# PCOD9135922 Si02
#       6
#     4   4   4   4   4   4
#     4   8  14  30  60  92 122 158 203 253 304 365
#     4  10  21  37  59  92 125 166 207 257 310 369
#     4  11  24  41  62  92 127 164 209 254 308 369
#     4   9  17  34  63  92 126 164 207 256 311 367
#     4  10  22  41  64  94 126 162 204 254 308 372
#     4   8  16  31  58  86 120 156 198 246 303 358
#
# _framework density 29.4815
#
# number of rings (size 3 to 8) (size 9 to 14) (size 15 to 20)
#    0.000    2.667    0.000    1.000    0.000    5.333 
#    0.000    5.000    0.000  120.000    0.000    0.000 
#    0.000    0.000    0.000    0.000    0.000    0.000 
#
# Total GULP energy -66932.028907 kJ/mol
# GULP energy per Si atom -5577.669076 kJ/mol
# Density = 2.941440 g / cm^3
# Si number density = 29.481500 Si / 1000 Ang^3
#
#
#
# Elastic Constant Matrix: (Units=GPa)
#
#
# Indices 1 2 3 4 5 6 
#
# 1 110.7697 6.7834 -30.4555 0.0000 -4.9418 0.0000
# 2 6.7834 159.0347 -28.9902 0.0000 -8.4297 0.0000
# 3 -30.4555 -28.9902 60.5131 0.0000 20.2081 0.0000
# 4 0.0000 0.0000 0.0000 59.2076 0.0000 -10.0380
# 5 -4.9418 -8.4297 20.2081 0.0000 18.4527 0.0000
# 6 0.0000 0.0000 0.0000 -10.0380 0.0000 38.9491
#
#
#
# Elastic Compliance Matrix: (Units=1/GPa)
#
#
# Indices 1 2 3 4 5 6 
#
# 1 0.010796 0.000623 0.007365 0.000000 -0.004890 0.000000
# 2 0.000623 0.006932 0.003975 0.000000 -0.001019 0.000000
# 3 0.007365 0.003975 0.032905 0.000000 -0.032247 0.000000
# 4 0.000000 0.000000 0.000000 0.017661 0.000000 0.004552
# 5 -0.004890 -0.001019 -0.032247 0.000000 0.087732 0.000000
# 6 0.000000 0.000000 0.000000 0.004552 0.000000 0.026848
#
#
# Mechanical properties :
#
#
# Convention : Reuss Voigt Hill
#
# Bulk Modulus (GPa) = 13.41227 24.99922 19.20575
# Shear Modulus (GPa) = 27.20319 48.85388 38.02854
#
# Velocity S-wave (km/s) = 3.04093 4.07517 3.59543
# Velocity P-wave (km/s) = 4.10961 5.53540 4.87492
#
# Compressibility (1/GPa) = 0.07455858
#
# Stress axis : x y z
#
# Youngs Moduli (GPa) = 92.62343 144.26069 30.39052
#
# Poissons Ratio (x) = -0.08986 -0.22383
# Poissons Ratio (y) = -0.05769 -0.12080
# Poissons Ratio (z) = -0.68217 -0.57341
#
# Static dielectric constant tensor:
#      x y z
#    x 2.583290 0.000000 0.180600 
#    y 0.000000 2.379510 0.000000 
#    z 0.180600 0.000000 2.496000 
# 
# From -- ./inp_files/3890.got.cif
#   From: 2010.05.17/outbox.cif.g08.bks.cpg/sg9_2_cif.got.tgz:3890.got - 2010.06.03 20:04:27.
