data_PCOD9135412
_publ_section_title
;
Structure prediction by ZEFSAII (Michael W. Deem and Ramdas Pophale) SiO2 
 PCOD9135412
Probable space group: C C
;
_chemical_formula_sum "Si O2"
_cell_formula_units_Z 32
_cell_length_a 16.542498
_cell_length_b 14.707719
_cell_length_c 9.663824
_cell_angle_alpha 90.000000
_cell_angle_beta 29.799491
_cell_angle_gamma 90.000000
_cell_volume 1168.482800
_symmetry_space_group_name_H-M "C C"
_symmetry_group_IT_number 9
_symmetry_cell_setting 'monoclinic'
loop_
_space_group_symop_operation_xyz
x,y,z
x,-y,1/2+z
1/2+x,1/2+y,z
1/2+x,1/2-y,1/2+z
loop_
_atom_site_type_symbol
_atom_site_label
_atom_site_fract_x
_atom_site_fract_y
_atom_site_fract_z
Si Si1 0.870840 0.796669 0.558430
Si Si2 0.259958 0.719370 0.493453
Si Si3 0.017523 0.444759 0.264343
Si Si4 0.639592 0.240937 0.941883
Si Si5 0.646531 0.934416 0.784917
Si Si6 0.602579 0.451414 0.336276
Si Si7 0.872037 0.368729 0.737997
Si Si8 0.460508 0.431040 0.832871
O O1 0.714580 0.834057 0.709067
O O2 0.994769 0.769622 0.257426
O O3 0.962858 0.877980 0.502502
O O4 0.822813 0.733207 0.759635
O O5 0.144584 0.638909 0.604087
O O6 0.395440 0.668695 0.388678
O O7 0.173075 0.779481 0.737770
O O8 0.082852 0.539066 0.230248
O O9 0.877136 0.421526 0.583060
O O10 0.016126 0.449362 0.101419
O O11 0.557859 0.146107 0.011837
O O12 0.793249 0.271918 0.805698
O O13 0.803107 0.001801 0.564226
O O14 0.584701 0.457711 0.526376
O O15 0.545643 0.544017 0.348915
O O16 0.761976 0.412253 0.022566
#
# Coordination Sequence:
#
# PCOD9135412 Si02
#       8
#     4   4   4   4   4   4   4   4
#     4   8  16  33  57  82 114 154 197 243 294 350
#     4   8  16  33  57  82 114 154 197 243 294 350
#     4   9  18  33  57  84 121 149 192 249 305 355
#     4  10  20  40  60  80 116 164 206 242 292 366
#     4   9  16  32  56  85 114 155 190 242 306 365
#     4   9  18  33  57  84 121 149 192 249 305 355
#     4  10  22  40  60  84 120 164 198 250 302 348
#     4   9  16  32  56  85 114 155 190 242 306 365
#
# _framework density 27.385940999999999
#
# number of rings (size 3 to 8) (size 9 to 14) (size 15 to 20)
#    0.000    3.000    0.000    2.250    0.000    1.000 
#   13.500   11.250    0.000    0.000    0.000    0.000 
#    0.000    0.000    0.000    0.000    0.000    0.000 
#
# Total GULP energy -89247.418011 kJ/mol
# GULP energy per Si atom -5577.963626 kJ/mol
# Density = 2.732361 g / cm^3
# Si number density = 27.385941 Si / 1000 Ang^3
#
#
#
# Elastic Constant Matrix: (Units=GPa)
#
#
# Indices 1 2 3 4 5 6 
#
# 1 54.5658 41.1710 43.1165 0.0000 12.7713 0.0000
# 2 41.1710 49.5523 31.3193 0.0000 8.5698 0.0000
# 3 43.1165 31.3193 187.5615 0.0000 39.5416 0.0000
# 4 0.0000 0.0000 0.0000 23.9813 0.0000 6.6136
# 5 12.7713 8.5698 39.5416 0.0000 55.9573 0.0000
# 6 0.0000 0.0000 0.0000 6.6136 0.0000 34.6066
#
#
#
# Elastic Compliance Matrix: (Units=1/GPa)
#
#
# Indices 1 2 3 4 5 6 
#
# 1 0.054004 -0.041282 -0.005000 0.000000 -0.002470 0.000000
# 2 -0.041282 0.054160 0.000245 0.000000 0.000954 0.000000
# 3 -0.005000 0.000245 0.007294 0.000000 -0.004051 0.000000
# 4 0.000000 0.000000 0.000000 0.044019 0.000000 -0.008412
# 5 -0.002470 0.000954 -0.004051 0.000000 0.021151 0.000000
# 6 0.000000 0.000000 0.000000 -0.008412 0.000000 0.030504
#
#
# Mechanical properties :
#
#
# Convention : Reuss Voigt Hill
#
# Bulk Modulus (GPa) = 42.76531 58.09923 50.43227
# Shear Modulus (GPa) = 16.07715 34.64723 25.36219
#
# Velocity S-wave (km/s) = 2.42556 3.56075 3.04649
# Velocity P-wave (km/s) = 4.84707 6.17789 5.55250
#
# Compressibility (1/GPa) = 0.02338344
#
# Stress axis : x y z
#
# Youngs Moduli (GPa) = 18.51728 18.46374 137.09703
#
# Poissons Ratio (x) = 0.76222 0.68553
# Poissons Ratio (y) = 0.76443 -0.03357
# Poissons Ratio (z) = 0.09259 -0.00452
#
# Static dielectric constant tensor:
#      x y z
#    x 2.180140 0.000000 -0.009460 
#    y 0.000000 2.227610 0.000000 
#    z -0.009460 0.000000 2.261470 
# 
# From -- ./inp_files/11045.got.cif
#   From: 2010.05.17/outbox.cif.g08.bks.cpg/sg9_6_cif.got.tgz:11045.got - 2010.06.03 20:04:27.
