data_PCOD9135773
_publ_section_title
;
Structure prediction by ZEFSAII (Michael W. Deem and Ramdas Pophale) SiO2 
 PCOD9135773
Probable space group: C C
;
_chemical_formula_sum "Si O2"
_cell_formula_units_Z 28
_cell_length_a 22.244367
_cell_length_b 5.875751
_cell_length_c 20.940809
_cell_angle_alpha 90.000000
_cell_angle_beta 155.189996
_cell_angle_gamma 90.000000
_cell_volume 1148.479683
_symmetry_space_group_name_H-M "C C"
_symmetry_group_IT_number 9
_symmetry_cell_setting 'monoclinic'
loop_
_space_group_symop_operation_xyz
x,y,z
x,-y,1/2+z
1/2+x,1/2+y,z
1/2+x,1/2-y,1/2+z
loop_
_atom_site_type_symbol
_atom_site_label
_atom_site_fract_x
_atom_site_fract_y
_atom_site_fract_z
Si Si1 0.420120 0.676221 0.957950
Si Si2 0.126021 0.911953 0.063535
Si Si3 0.125483 0.451550 0.670314
Si Si4 0.646489 0.963632 0.487505
Si Si5 0.021312 0.883572 0.173590
Si Si6 0.359662 0.204705 0.227666
Si Si7 0.744754 0.273027 0.481664
O O1 0.251894 0.633738 0.797346
O O2 0.494874 0.542887 0.971190
O O3 0.484326 0.574190 0.085967
O O4 0.475417 0.931691 0.008613
O O5 0.165031 0.720116 0.152535
O O6 0.261620 0.073441 0.183093
O O7 0.100452 0.776108 0.972299
O O8 0.102572 0.313030 0.712656
O O9 0.525048 0.144537 0.393082
O O10 0.798957 0.039010 0.665154
O O11 0.670529 0.038817 0.437121
O O12 0.128241 0.931480 0.335254
O O13 0.874434 0.789892 0.060840
O O14 0.312123 0.119006 0.110755
#
# Coordination Sequence:
#
# PCOD9135773 Si02
#       7
#     4   4   4   4   4   4   4
#     4  11  26  44  69  96 128 175 220 278 324 384
#     4  11  24  42  68  98 134 169 223 267 330 381
#     4  11  26  44  69  96 129 173 222 277 324 385
#     4  10  22  41  65  97 134 171 212 264 321 390
#     4  11  22  46  70  94 134 169 219 272 326 388
#     4  10  22  41  65  97 133 173 211 264 321 388
#     4  10  20  44  68  98 132 170 215 268 324 396
#
# _framework density 24.380056
#
# number of rings (size 3 to 8) (size 9 to 14) (size 15 to 20)
#    0.857    0.571    2.857    1.714    2.000    6.857 
#    5.143    0.000    0.000    0.000    0.000    0.000 
#    0.000    0.000    0.000    0.000    0.000    0.000 
#
# Total GULP energy -78247.686607 kJ/mol
# GULP energy per Si atom -5589.120472 kJ/mol
# Density = 2.432457 g / cm^3
# Si number density = 24.380056 Si / 1000 Ang^3
#
#
#
# Elastic Constant Matrix: (Units=GPa)
#
#
# Indices 1 2 3 4 5 6 
#
# 1 128.2023 7.3176 20.6361 -0.0001 3.3337 -0.0001
# 2 7.3176 21.5153 -7.6972 0.0002 -1.1703 0.0002
# 3 20.6361 -7.6972 90.8552 -0.0001 2.3463 -0.0001
# 4 -0.0001 0.0002 -0.0001 25.6316 -0.0001 0.8479
# 5 3.3337 -1.1703 2.3463 -0.0001 45.5611 0.0000
# 6 -0.0001 0.0002 -0.0001 0.8479 0.0000 31.0426
#
#
#
# Elastic Compliance Matrix: (Units=1/GPa)
#
#
# Indices 1 2 3 4 5 6 
#
# 1 0.008379 -0.003669 -0.002199 0.000000 -0.000594 0.000000
# 2 -0.003669 0.049585 0.005001 0.000000 0.001285 0.000000
# 3 -0.002199 0.005001 0.011938 0.000000 -0.000325 0.000000
# 4 0.000000 0.000000 0.000000 0.039050 0.000000 -0.001067
# 5 -0.000594 0.001285 -0.000325 0.000000 0.022042 0.000000
# 6 0.000000 0.000000 0.000000 -0.001067 0.000000 0.032243
#
#
# Mechanical properties :
#
#
# Convention : Reuss Voigt Hill
#
# Bulk Modulus (GPa) = 14.66929 31.23175 22.95052
# Shear Modulus (GPa) = 26.63931 35.13478 30.88705
#
# Velocity S-wave (km/s) = 3.30914 3.80034 3.56321
# Velocity P-wave (km/s) = 4.54208 5.66524 5.13446
#
# Compressibility (1/GPa) = 0.06816963
#
# Stress axis : x y z
#
# Youngs Moduli (GPa) = 119.34717 20.16724 83.76632
#
# Poissons Ratio (x) = 0.07399 0.18417
# Poissons Ratio (y) = 0.43784 -0.41891
# Poissons Ratio (z) = 0.26239 -0.10085
#
# Static dielectric constant tensor:
#      x y z
#    x 1.933340 0.000000 -0.071340 
#    y 0.000000 1.954400 0.000000 
#    z -0.071340 0.000000 1.944930 
# 
# From -- ./inp_files/12676.got.cif
#   From: 2010.05.17/outbox.cif.g08.bks.cpg/sg9_7_cif.got.tgz:12676.got - 2010.06.03 20:04:27.
