data_PCOD9135684
_publ_section_title
;
Structure prediction by ZEFSAII (Michael W. Deem and Ramdas Pophale) SiO2 
 PCOD9135684
Probable space group: C C
;
_chemical_formula_sum "Si O2"
_cell_formula_units_Z 28
_cell_length_a 5.497781
_cell_length_b 19.154292
_cell_length_c 13.328751
_cell_angle_alpha 90.000000
_cell_angle_beta 110.328514
_cell_angle_gamma 90.000000
_cell_volume 1316.177298
_symmetry_space_group_name_H-M "C C"
_symmetry_group_IT_number 9
_symmetry_cell_setting 'monoclinic'
loop_
_space_group_symop_operation_xyz
x,y,z
x,-y,1/2+z
1/2+x,1/2+y,z
1/2+x,1/2-y,1/2+z
loop_
_atom_site_type_symbol
_atom_site_label
_atom_site_fract_x
_atom_site_fract_y
_atom_site_fract_z
Si Si1 0.855480 0.517797 0.001480
Si Si2 0.623351 0.621291 0.526816
Si Si3 0.528059 0.391846 0.316628
Si Si4 0.464362 0.181573 0.748335
Si Si5 0.119326 0.415195 0.886656
Si Si6 0.161174 0.836489 0.798441
Si Si7 0.843574 0.033804 0.210487
O O1 0.709425 0.459118 0.044067
O O2 0.105864 0.539006 0.100220
O O3 0.659602 0.576675 0.935764
O O4 0.950362 0.474116 0.917395
O O5 0.809915 0.663655 0.624715
O O6 0.315080 0.616786 0.496940
O O7 0.645371 0.649217 0.415984
O O8 0.752356 0.342857 0.300949
O O9 0.475627 0.457821 0.234512
O O10 0.244083 0.357931 0.293813
O O11 0.536220 0.262756 0.760455
O O12 0.249994 0.453647 0.811915
O O13 0.962981 0.349478 0.820091
O O14 0.029460 0.900431 0.720482
#
# Coordination Sequence:
#
# PCOD9135684 Si02
#       7
#     4   4   4   4   4   4   4
#     4  11  22  39  67 107 131 180 233 296 341 408
#     4  10  22  41  72  95 137 188 223 283 362 405
#     4  12  25  45  69 106 137 176 243 288 340 414
#     4  12  28  46  70 104 143 184 228 295 349 419
#     4  10  20  42  69  98 141 179 237 280 356 417
#     4  10  25  45  65  99 141 183 233 283 350 427
#     4  11  22  42  70  99 134 190 229 293 346 418
#
# _framework density 21.273728999999999
#
# number of rings (size 3 to 8) (size 9 to 14) (size 15 to 20)
#    0.000    1.143    5.714    1.714    6.000    2.286 
#    2.571    0.000    0.000    0.000    0.000    0.000 
#    0.000    0.000    0.000    0.000    0.000    0.000 
#
# Total GULP energy -78128.894797 kJ/mol
# GULP energy per Si atom -5580.635343 kJ/mol
# Density = 2.122531 g / cm^3
# Si number density = 21.273729 Si / 1000 Ang^3
#
#
#
# Elastic Constant Matrix: (Units=GPa)
#
#
# Indices 1 2 3 4 5 6 
#
# 1 84.5491 26.8728 8.9333 0.0000 29.9857 0.0000
# 2 26.8728 96.0349 17.9375 0.0000 31.5500 0.0000
# 3 8.9333 17.9375 96.2298 0.0000 45.2144 0.0000
# 4 0.0000 0.0000 0.0000 31.4831 0.0000 7.8983
# 5 29.9857 31.5500 45.2144 0.0000 46.8564 0.0000
# 6 0.0000 0.0000 0.0000 7.8983 0.0000 18.4631
#
#
#
# Elastic Compliance Matrix: (Units=1/GPa)
#
#
# Indices 1 2 3 4 5 6 
#
# 1 0.017330 -0.000465 0.006479 0.000000 -0.017030 0.000000
# 2 -0.000465 0.013937 0.003137 0.000000 -0.012114 0.000000
# 3 0.006479 0.003137 0.022221 0.000000 -0.027701 0.000000
# 4 0.000000 0.000000 0.000000 0.035582 0.000000 -0.015221
# 5 -0.017030 -0.012114 -0.027701 0.000000 0.067127 0.000000
# 6 0.000000 0.000000 0.000000 -0.015221 0.000000 0.060674
#
#
# Mechanical properties :
#
#
# Convention : Reuss Voigt Hill
#
# Bulk Modulus (GPa) = 13.92925 42.70012 28.31468
# Shear Modulus (GPa) = 22.47209 34.23186 28.35198
#
# Velocity S-wave (km/s) = 3.25365 4.01573 3.65461
# Velocity P-wave (km/s) = 4.54718 6.45111 5.58093
#
# Compressibility (1/GPa) = 0.07179138
#
# Stress axis : x y z
#
# Youngs Moduli (GPa) = 57.70235 71.75311 45.00198
#
# Poissons Ratio (x) = 0.03336 -0.29159
# Poissons Ratio (y) = 0.02683 -0.14117
# Poissons Ratio (z) = -0.37388 -0.22509
#
# Static dielectric constant tensor:
#      x y z
#    x 1.929190 0.000000 0.027090 
#    y 0.000000 1.765310 0.000000 
#    z 0.027090 0.000000 1.787020 
# 
# From -- ./inp_files/13110.got.cif
#   From: 2010.05.17/outbox.cif.g08.bks.cpg/sg9_7_cif.got.tgz:13110.got - 2010.06.03 20:04:27.
