data_PCOD9135881
_publ_section_title
;
Structure prediction by ZEFSAII (Michael W. Deem and Ramdas Pophale) SiO2 
 PCOD9135881
Probable space group: C C
;
_chemical_formula_sum "Si O2"
_cell_formula_units_Z 32
_cell_length_a 15.071340
_cell_length_b 21.879467
_cell_length_c 5.298099
_cell_angle_alpha 90.000000
_cell_angle_beta 70.644519
_cell_angle_gamma 90.000000
_cell_volume 1648.320221
_symmetry_space_group_name_H-M "C C"
_symmetry_group_IT_number 9
_symmetry_cell_setting 'monoclinic'
loop_
_space_group_symop_operation_xyz
x,y,z
x,-y,1/2+z
1/2+x,1/2+y,z
1/2+x,1/2-y,1/2+z
loop_
_atom_site_type_symbol
_atom_site_label
_atom_site_fract_x
_atom_site_fract_y
_atom_site_fract_z
Si Si1 0.318350 0.959396 0.520160
Si Si2 0.146034 0.538617 0.235182
Si Si3 0.202713 0.775121 0.311255
Si Si4 0.281747 0.860569 0.899462
Si Si5 0.702602 0.161603 0.945397
Si Si6 0.548476 0.786296 0.250054
Si Si7 0.351117 0.740811 0.563019
Si Si8 0.459142 0.102808 0.561247
O O1 0.258811 0.901419 0.677869
O O2 0.419668 0.928237 0.357041
O O3 0.303283 0.995360 0.272501
O O4 0.163759 0.509656 0.493679
O O5 0.203339 0.599408 0.102282
O O6 0.037866 0.561430 0.356794
O O7 0.183749 0.718840 0.143890
O O8 0.122647 0.764686 0.592921
O O9 0.303283 0.759980 0.343257
O O10 0.203267 0.840325 0.173397
O O11 0.316234 0.795174 0.773656
O O12 0.369677 0.889694 0.963804
O O13 0.612268 0.165391 0.846584
O O14 0.798481 0.179351 0.705581
O O15 0.462467 0.749305 0.454174
O O16 0.501258 0.830835 0.086761
#
# Coordination Sequence:
#
# PCOD9135881 Si02
#       8
#     4   4   4   4   4   4   4   4
#     4  12  24  35  53  83 120 163 207 239 291 366
#     4  12  26  38  57  85 125 167 204 243 294 366
#     4  10  21  37  57  84 120 159 206 254 313 359
#     4  11  21  37  55  83 122 163 203 253 296 359
#     4  10  23  38  56  86 125 161 204 254 302 364
#     4  11  20  36  61  86 120 161 202 255 308 362
#     4  10  21  36  60  84 119 162 206 254 312 361
#     4  12  22  37  57  85 125 164 206 240 296 365
#
# _framework density 19.413703000000002
#
# number of rings (size 3 to 8) (size 9 to 14) (size 15 to 20)
#    0.000    1.000    5.000    2.250    3.500    0.000 
#    0.000    0.000    0.000    0.000    0.000    1.750 
#    0.000    0.000    0.000    0.000    0.000    0.000 
#
# Total GULP energy -89146.087049 kJ/mol
# GULP energy per Si atom -5571.630441 kJ/mol
# Density = 1.936952 g / cm^3
# Si number density = 19.413703 Si / 1000 Ang^3
#
#
#
# Elastic Constant Matrix: (Units=GPa)
#
#
# Indices 1 2 3 4 5 6 
#
# 1 15.8783 -5.2325 3.7824 0.0000 -2.7682 0.0000
# 2 -5.2325 48.7039 34.2246 0.0000 -8.2567 0.0000
# 3 3.7824 34.2246 96.2040 0.0000 2.3988 0.0000
# 4 0.0000 0.0000 0.0000 51.3678 0.0000 -5.2785
# 5 -2.7682 -8.2567 2.3988 0.0000 27.8519 0.0000
# 6 0.0000 0.0000 0.0000 -5.2785 0.0000 23.0719
#
#
#
# Elastic Compliance Matrix: (Units=1/GPa)
#
#
# Indices 1 2 3 4 5 6 
#
# 1 0.072725 0.016297 -0.008977 0.000000 0.012832 0.000000
# 2 0.016297 0.033465 -0.012861 0.000000 0.012648 0.000000
# 3 -0.008977 -0.012861 0.015473 0.000000 -0.006038 0.000000
# 4 0.000000 0.000000 0.000000 0.019936 0.000000 0.004561
# 5 0.012832 0.012648 -0.006038 0.000000 0.041449 0.000000
# 6 0.000000 0.000000 0.000000 0.004561 0.000000 0.044386
#
#
# Mechanical properties :
#
#
# Convention : Reuss Voigt Hill
#
# Bulk Modulus (GPa) = 9.04318 25.14836 17.09577
# Shear Modulus (GPa) = 18.15686 28.99243 23.57464
#
# Velocity S-wave (km/s) = 3.06152 3.86865 3.48850
# Velocity P-wave (km/s) = 4.14312 5.73910 5.00513
#
# Compressibility (1/GPa) = 0.11058061
#
# Stress axis : x y z
#
# Youngs Moduli (GPa) = 13.75045 29.88189 64.62668
#
# Poissons Ratio (x) = -0.48698 0.58014
# Poissons Ratio (y) = -0.22409 0.83118
# Poissons Ratio (z) = 0.12344 0.38432
#
# Static dielectric constant tensor:
#      x y z
#    x 1.688270 0.000000 0.037190 
#    y 0.000000 1.740860 0.000000 
#    z 0.037190 0.000000 1.849930 
# 
# From -- ./inp_files/2633.got.cif
#   From: 2010.05.17/outbox.cif.g08.bks.cpg/sg9_2_cif.got.tgz:2633.got - 2010.06.03 20:04:27.
