data_PCOD9135707
_publ_section_title
;
Structure prediction by ZEFSAII (Michael W. Deem and Ramdas Pophale) SiO2 
 PCOD9135707
Probable space group: C C
;
_chemical_formula_sum "Si O2"
_cell_formula_units_Z 32
_cell_length_a 22.924330
_cell_length_b 5.039976
_cell_length_c 24.068062
_cell_angle_alpha 90.000000
_cell_angle_beta 151.855423
_cell_angle_gamma 90.000000
_cell_volume 1311.687318
_symmetry_space_group_name_H-M "C C"
_symmetry_group_IT_number 9
_symmetry_cell_setting 'monoclinic'
loop_
_space_group_symop_operation_xyz
x,y,z
x,-y,1/2+z
1/2+x,1/2+y,z
1/2+x,1/2-y,1/2+z
loop_
_atom_site_type_symbol
_atom_site_label
_atom_site_fract_x
_atom_site_fract_y
_atom_site_fract_z
Si Si1 0.680020 0.915149 0.794630
Si Si2 0.210146 0.225613 0.598287
Si Si3 0.499775 0.997608 0.547140
Si Si4 0.707403 0.132250 0.978153
Si Si5 0.431850 0.500670 0.940776
Si Si6 0.316405 0.729099 0.732617
Si Si7 0.746634 0.594778 0.402682
Si Si8 0.567226 0.404650 0.393688
O O1 0.818099 0.948717 0.887278
O O2 0.682479 0.693999 0.844753
O O3 0.592455 0.867024 0.668876
O O4 0.650793 0.205823 0.792822
O O5 0.272858 0.272280 0.590065
O O6 0.212818 0.518846 0.625763
O O7 0.278845 0.034145 0.698486
O O8 0.100062 0.038611 0.481813
O O9 0.527878 0.290231 0.547774
O O10 0.371232 0.046158 0.472078
O O11 0.488440 0.792387 0.486458
O O12 0.781074 0.235076 0.986524
O O13 0.590211 0.336522 0.875504
O O14 0.657287 0.836061 0.949431
O O15 0.366685 0.635424 0.833837
O O16 0.430109 0.700696 0.784896
#
# Coordination Sequence:
#
# PCOD9135707 Si02
#       8
#     4   4   4   4   4   4   4   4
#     4  10  21  39  62  89 118 155 197 253 298 380
#     4  10  22  39  57  87 124 156 213 249 300 367
#     4  10  21  41  59  91 119 152 202 250 305 375
#     4  10  20  43  57  86 127 161 191 273 295 353
#     4  10  23  37  61  88 123 154 200 253 302 360
#     4  12  22  39  63  88 121 172 201 253 310 367
#     4  10  21  39  62  87 120 153 201 246 310 357
#     4  10  22  39  59  84 126 159 207 253 298 359
#
# _framework density 24.396059999999999
#
# number of rings (size 3 to 8) (size 9 to 14) (size 15 to 20)
#    0.750    1.000    1.250    3.000    0.000    2.000 
#    6.750    0.000    0.000    0.000    0.000    0.000 
#    0.000    0.000    0.000    0.000    0.000    0.000 
#
# Total GULP energy -89087.522896 kJ/mol
# GULP energy per Si atom -5567.970181 kJ/mol
# Density = 2.434053 g / cm^3
# Si number density = 24.396060 Si / 1000 Ang^3
#
#
#
# Elastic Constant Matrix: (Units=GPa)
#
#
# Indices 1 2 3 4 5 6 
#
# 1 69.6662 38.4887 10.6989 0.0019 -18.5303 0.0000
# 2 38.4887 154.6374 33.1422 0.0075 -4.5417 0.0029
# 3 10.6989 33.1422 45.7017 -0.0003 -15.0922 0.0009
# 4 0.0019 0.0075 -0.0003 22.8525 -0.0005 -9.0840
# 5 -18.5303 -4.5417 -15.0922 -0.0005 30.0177 0.0008
# 6 0.0000 0.0029 0.0009 -9.0840 0.0008 17.5245
#
#
#
# Elastic Compliance Matrix: (Units=1/GPa)
#
#
# Indices 1 2 3 4 5 6 
#
# 1 0.020445 -0.005480 0.003695 0.000001 0.013649 0.000000
# 2 -0.005480 0.009223 -0.007268 -0.000004 -0.005642 -0.000003
# 3 0.003695 -0.007268 0.031988 0.000003 0.017264 0.000000
# 4 0.000001 -0.000004 0.000003 0.055115 0.000001 0.028570
# 5 0.013649 -0.005642 0.017264 0.000001 0.049566 -0.000002
# 6 0.000000 -0.000003 0.000000 0.028570 -0.000002 0.071873
#
#
# Mechanical properties :
#
#
# Convention : Reuss Voigt Hill
#
# Bulk Modulus (GPa) = 22.96233 48.29611 35.62922
# Shear Modulus (GPa) = 18.46161 26.59063 22.52612
#
# Velocity S-wave (km/s) = 2.75389 3.30503 3.04197
# Velocity P-wave (km/s) = 4.42093 5.86549 5.19368
#
# Compressibility (1/GPa) = 0.04354959
#
# Stress axis : x y z
#
# Youngs Moduli (GPa) = 48.91256 108.42805 31.26153
#
# Poissons Ratio (x) = 0.59415 -0.11552
# Poissons Ratio (y) = 0.26802 0.22722
# Poissons Ratio (z) = -0.18074 0.78810
#
# Static dielectric constant tensor:
#      x y z
#    x 2.094760 0.000000 0.006480 
#    y 0.000000 1.941140 0.000000 
#    z 0.006480 0.000000 1.982310 
# 
# From -- ./inp_files/21040.got.cif
#   From: 2010.05.17/outbox.cif.g08.bks.cpg/sg9_11_cif.got.tgz:21040.got - 2010.06.03 20:04:27.
