data_PCOD9135826
_publ_section_title
;
Structure prediction by ZEFSAII (Michael W. Deem and Ramdas Pophale) SiO2 
 PCOD9135826
Probable space group: C C
;
_chemical_formula_sum "Si O2"
_cell_formula_units_Z 20
_cell_length_a 13.519583
_cell_length_b 7.706837
_cell_length_c 9.810033
_cell_angle_alpha 90.000000
_cell_angle_beta 133.886256
_cell_angle_gamma 90.000000
_cell_volume 736.673351
_symmetry_space_group_name_H-M "C C"
_symmetry_group_IT_number 9
_symmetry_cell_setting 'monoclinic'
loop_
_space_group_symop_operation_xyz
x,y,z
x,-y,1/2+z
1/2+x,1/2+y,z
1/2+x,1/2-y,1/2+z
loop_
_atom_site_type_symbol
_atom_site_label
_atom_site_fract_x
_atom_site_fract_y
_atom_site_fract_z
Si Si1 0.131000 0.287561 0.043470
Si Si2 0.586608 0.586687 0.433418
Si Si3 0.788330 0.634121 0.403592
Si Si4 0.855151 0.703677 0.857479
Si Si5 0.713478 0.015987 0.871373
O O1 0.274790 0.200574 0.233720
O O2 0.366963 0.046645 0.977932
O O3 0.146748 0.420762 0.935686
O O4 0.047025 0.113318 0.928316
O O5 0.638551 0.586966 0.326476
O O6 0.483907 0.732301 0.392581
O O7 0.609810 0.900336 0.160465
O O8 0.727635 0.636627 0.646199
O O9 0.812552 0.820000 0.499308
O O10 0.804037 0.872808 0.885814
#
# Coordination Sequence:
#
# PCOD9135826 Si02
#       5
#     4   4   4   4   4
#     4   9  21  42  77 113 157 210 265 336 404 492
#     4  11  23  51  76 118 161 213 269 347 403 502
#     4   9  22  45  71 115 152 210 269 326 409 490
#     4  11  24  48  79 109 163 212 271 339 409 486
#     4  10  20  46  71 113 159 205 264 334 411 484
#
# _framework density 27.149076000000001
#
# number of rings (size 3 to 8) (size 9 to 14) (size 15 to 20)
#    1.200    0.800    2.000    1.200    0.000    0.000 
#   25.200    0.000    0.000    0.000    0.000    0.000 
#    0.000    0.000    0.000    0.000    0.000    0.000 
#
# Total GULP energy -55693.752230 kJ/mol
# GULP energy per Si atom -5569.375223 kJ/mol
# Density = 2.708728 g / cm^3
# Si number density = 27.149076 Si / 1000 Ang^3
#
#
#
# Elastic Constant Matrix: (Units=GPa)
#
#
# Indices 1 2 3 4 5 6 
#
# 1 141.4930 107.3710 48.6260 0.0000 -14.4335 0.0000
# 2 107.3710 298.1006 45.0724 0.0000 -23.5679 0.0000
# 3 48.6260 45.0724 60.3993 0.0000 -35.3015 0.0000
# 4 0.0000 0.0000 0.0000 33.2734 0.0000 -24.8136
# 5 -14.4335 -23.5679 -35.3015 0.0000 30.4383 0.0000
# 6 0.0000 0.0000 0.0000 -24.8136 0.0000 39.3757
#
#
#
# Elastic Compliance Matrix: (Units=1/GPa)
#
#
# Indices 1 2 3 4 5 6 
#
# 1 0.015313 -0.003898 -0.021540 0.000000 -0.020739 0.000000
# 2 -0.003898 0.004785 0.002026 0.000000 0.004206 0.000000
# 3 -0.021540 0.002026 0.084846 0.000000 0.089757 0.000000
# 4 0.000000 0.000000 0.000000 0.056700 0.000000 0.035731
# 5 -0.020739 0.004206 0.089757 0.000000 0.130374 0.000000
# 6 0.000000 0.000000 0.000000 0.035731 0.000000 0.047913
#
#
# Mechanical properties :
#
#
# Convention : Reuss Voigt Hill
#
# Bulk Modulus (GPa) = 17.20599 100.23684 58.72142
# Shear Modulus (GPa) = 12.31138 40.54574 26.42856
#
# Velocity S-wave (km/s) = 2.13180 3.86871 3.12342
# Velocity P-wave (km/s) = 3.52290 7.54698 5.88930
#
# Compressibility (1/GPa) = 0.05811928
#
# Stress axis : x y z
#
# Youngs Moduli (GPa) = 65.30603 208.99427 11.78603
#
# Poissons Ratio (x) = 0.81468 0.25387
# Poissons Ratio (y) = 0.25457 -0.02388
# Poissons Ratio (z) = 1.40669 -0.42341
#
# Static dielectric constant tensor:
#      x y z
#    x 2.214450 0.000000 0.032700 
#    y 0.000000 2.206160 0.000000 
#    z 0.032700 0.000000 2.367290 
# 
# From -- ./inp_files/6749.got.cif
#   From: 2010.05.17/outbox.cif.g08.bks.cpg/sg9_4_cif.got.tgz:6749.got - 2010.06.03 20:04:27.
