data_PCOD9135624
_publ_section_title
;
Structure prediction by ZEFSAII (Michael W. Deem and Ramdas Pophale) SiO2 
 PCOD9135624
Probable space group: C C
;
_chemical_formula_sum "Si O2"
_cell_formula_units_Z 20
_cell_length_a 20.474151
_cell_length_b 6.563433
_cell_length_c 9.153354
_cell_angle_alpha 90.000000
_cell_angle_beta 40.729309
_cell_angle_gamma 90.000000
_cell_volume 802.580315
_symmetry_space_group_name_H-M "C C"
_symmetry_group_IT_number 9
_symmetry_cell_setting 'monoclinic'
loop_
_space_group_symop_operation_xyz
x,y,z
x,-y,1/2+z
1/2+x,1/2+y,z
1/2+x,1/2-y,1/2+z
loop_
_atom_site_type_symbol
_atom_site_label
_atom_site_fract_x
_atom_site_fract_y
_atom_site_fract_z
Si Si1 0.388290 0.087311 0.289330
Si Si2 0.567653 0.784036 0.290394
Si Si3 0.682802 0.405618 0.023939
Si Si4 0.835073 0.279080 0.168465
Si Si5 0.664328 0.009205 0.886877
O O1 0.274728 0.170328 0.466859
O O2 0.412582 0.158145 0.411472
O O3 0.377976 0.848786 0.255110
O O4 0.461487 0.186040 0.046610
O O5 0.604690 0.551345 0.236140
O O6 0.641540 0.933835 0.258165
O O7 0.584962 0.852926 0.093733
O O8 0.641697 0.222245 0.003019
O O9 0.745971 0.553386 0.810210
O O10 0.775785 0.070271 0.239981
#
# Coordination Sequence:
#
# PCOD9135624 Si02
#       5
#     4   4   4   4   4
#     4  10  20  42  63  95 138 172 224 275 343 411
#     4  11  23  41  66 103 132 179 224 285 341 415
#     4   9  22  40  64  88 138 176 219 280 337 401
#     4   9  21  39  66  92 132 179 218 281 342 403
#     4  11  22  42  69  94 132 180 227 281 351 400
#
# _framework density 24.919623000000001
#
# number of rings (size 3 to 8) (size 9 to 14) (size 15 to 20)
#    1.200    0.800    0.000    3.600    0.000    1.600 
#    7.200    0.000    0.000    0.000    0.000    0.000 
#    0.000    0.000    0.000    0.000    0.000    0.000 
#
# Total GULP energy -55693.181350 kJ/mol
# GULP energy per Si atom -5569.318135 kJ/mol
# Density = 2.486290 g / cm^3
# Si number density = 24.919623 Si / 1000 Ang^3
#
#
#
# Elastic Constant Matrix: (Units=GPa)
#
#
# Indices 1 2 3 4 5 6 
#
# 1 51.7679 21.7701 11.9824 0.0000 6.1919 0.0000
# 2 21.7701 80.4962 28.7038 0.0000 -3.2136 0.0000
# 3 11.9824 28.7038 81.7400 0.0000 2.5171 0.0000
# 4 0.0000 0.0000 0.0000 40.3011 0.0000 1.6219
# 5 6.1919 -3.2136 2.5171 0.0000 40.2759 0.0000
# 6 0.0000 0.0000 0.0000 1.6219 0.0000 26.6822
#
#
#
# Elastic Compliance Matrix: (Units=1/GPa)
#
#
# Indices 1 2 3 4 5 6 
#
# 1 0.022493 -0.005834 -0.001130 0.000000 -0.003853 0.000000
# 2 -0.005834 0.015799 -0.004768 0.000000 0.002456 0.000000
# 3 -0.001130 -0.004768 0.014108 0.000000 -0.001088 0.000000
# 4 0.000000 0.000000 0.000000 0.024874 0.000000 -0.001512
# 5 -0.003853 0.002456 -0.001088 0.000000 0.025685 0.000000
# 6 0.000000 0.000000 0.000000 -0.001512 0.000000 0.037570
#
#
# Mechanical properties :
#
#
# Convention : Reuss Voigt Hill
#
# Bulk Modulus (GPa) = 34.56062 37.65741 36.10902
# Shear Modulus (GPa) = 28.79551 31.55503 30.17527
#
# Velocity S-wave (km/s) = 3.40300 3.56233 3.48358
# Velocity P-wave (km/s) = 5.41660 5.66256 5.54095
#
# Compressibility (1/GPa) = 0.02893466
#
# Stress axis : x y z
#
# Youngs Moduli (GPa) = 44.45881 63.29469 70.88409
#
# Poissons Ratio (x) = 0.36926 0.08010
# Poissons Ratio (y) = 0.25937 0.33800
# Poissons Ratio (z) = 0.05024 0.30181
#
# Static dielectric constant tensor:
#      x y z
#    x 2.258260 0.000000 0.073060 
#    y 0.000000 1.961010 0.000000 
#    z 0.073060 0.000000 1.979640 
# 
# From -- ./inp_files/17321.got.cif
#   From: 2010.05.17/outbox.cif.g08.bks.cpg/sg9_9_cif.got.tgz:17321.got - 2010.06.03 20:04:27.
