data_PCOD9135670
_publ_section_title
;
Structure prediction by ZEFSAII (Michael W. Deem and Ramdas Pophale) SiO2 
 PCOD9135670
Probable space group: C C
;
_chemical_formula_sum "Si O2"
_cell_formula_units_Z 32
_cell_length_a 5.118991
_cell_length_b 13.817356
_cell_length_c 17.271002
_cell_angle_alpha 90.000000
_cell_angle_beta 89.883012
_cell_angle_gamma 90.000000
_cell_volume 1221.591332
_symmetry_space_group_name_H-M "C C"
_symmetry_group_IT_number 9
_symmetry_cell_setting 'monoclinic'
loop_
_space_group_symop_operation_xyz
x,y,z
x,-y,1/2+z
1/2+x,1/2+y,z
1/2+x,1/2-y,1/2+z
loop_
_atom_site_type_symbol
_atom_site_label
_atom_site_fract_x
_atom_site_fract_y
_atom_site_fract_z
Si Si1 0.720200 0.957890 0.082700
Si Si2 0.624099 0.166516 0.867112
Si Si3 0.975485 0.687134 0.697417
Si Si4 0.878000 0.508776 0.433717
Si Si5 0.620328 0.616421 0.047963
Si Si6 0.832691 0.796165 0.980721
Si Si7 0.488202 0.815633 0.670507
Si Si8 0.994474 0.332145 0.838880
O O1 0.577518 0.911304 0.156973
O O2 0.912273 0.875311 0.043756
O O3 0.894191 0.055272 0.090653
O O4 0.511326 0.958222 0.013204
O O5 0.443240 0.177972 0.790299
O O6 0.591439 0.055060 0.887949
O O7 0.540266 0.219896 0.947117
O O8 0.884185 0.223086 0.842642
O O9 0.722280 0.738794 0.660555
O O10 0.217542 0.759760 0.687184
O O11 0.655471 0.438210 0.465993
O O12 0.788155 0.594187 0.378103
O O13 0.883283 0.616966 0.101246
O O14 0.611782 0.728859 0.022568
O O15 0.722161 0.838657 0.901195
O O16 0.556530 0.864362 0.752417
#
# Coordination Sequence:
#
# PCOD9135670 Si02
#       8
#     4   4   4   4   4   4   4   4
#     4  11  24  41  67 106 144 193 251 312 381 457
#     4  10  21  42  67  98 138 193 247 309 373 451
#     4  11  25  46  74 104 147 197 246 310 390 454
#     4  10  24  40  66 102 138 194 252 310 374 448
#     4  11  24  41  67 106 144 193 251 312 381 457
#     4  10  20  42  68  94 142 190 254 298 382 448
#     4  11  25  46  74 104 147 197 246 310 390 454
#     4  10  21  42  67  98 138 193 247 309 373 451
#
# _framework density 26.195339000000001
#
# number of rings (size 3 to 8) (size 9 to 14) (size 15 to 20)
#    0.000    1.500    2.500    1.500    3.500    5.000 
#    0.000    0.000    0.000    0.000    0.000    0.000 
#    0.000    0.000    0.000    0.000    0.000    0.000 
#
# Total GULP energy -89308.383349 kJ/mol
# GULP energy per Si atom -5581.773959 kJ/mol
# Density = 2.613572 g / cm^3
# Si number density = 26.195339 Si / 1000 Ang^3
#
#
#
# Elastic Constant Matrix: (Units=GPa)
#
#
# Indices 1 2 3 4 5 6 
#
# 1 122.7791 31.7428 32.5180 0.0000 1.5587 0.0000
# 2 31.7428 110.6373 31.8911 0.0000 -3.9178 0.0000
# 3 32.5180 31.8911 143.2236 0.0000 -1.0897 0.0000
# 4 0.0000 0.0000 0.0000 43.9016 0.0000 -3.4360
# 5 1.5587 -3.9178 -1.0897 0.0000 30.8691 0.0000
# 6 0.0000 0.0000 0.0000 -3.4360 0.0000 36.0872
#
#
#
# Elastic Compliance Matrix: (Units=1/GPa)
#
#
# Indices 1 2 3 4 5 6 
#
# 1 0.009144 -0.002192 -0.001594 0.000000 -0.000796 0.000000
# 2 -0.002192 0.010225 -0.001769 0.000000 0.001346 0.000000
# 3 -0.001594 -0.001769 0.007739 0.000000 0.000129 0.000000
# 4 0.000000 0.000000 0.000000 0.022949 0.000000 0.002185
# 5 -0.000796 0.001346 0.000129 0.000000 0.032610 0.000000
# 6 0.000000 0.000000 0.000000 0.002185 0.000000 0.027919
#
#
# Mechanical properties :
#
#
# Convention : Reuss Voigt Hill
#
# Bulk Modulus (GPa) = 62.50895 63.21599 62.86247
# Shear Modulus (GPa) = 39.36127 40.87078 40.11603
#
# Velocity S-wave (km/s) = 3.88055 3.95426 3.91758
# Velocity P-wave (km/s) = 6.63270 6.71068 6.67180
#
# Compressibility (1/GPa) = 0.01599771
#
# Stress axis : x y z
#
# Youngs Moduli (GPa) = 109.36459 97.79939 129.21859
#
# Poissons Ratio (x) = 0.21439 0.20597
# Poissons Ratio (y) = 0.23974 0.22856
# Poissons Ratio (z) = 0.17432 0.17299
#
# Static dielectric constant tensor:
#      x y z
#    x 2.207520 0.000000 -0.075920 
#    y 0.000000 2.286240 0.000000 
#    z -0.075920 0.000000 2.105150 
# 
# From -- ./inp_files/28613.got.cif
#   From: 2010.05.17/outbox.cif.g08.bks.cpg/sg9_15_cif.got.tgz:28613.got - 2010.06.03 20:04:27.
