data_PCOD9135565
_publ_section_title
;
Structure prediction by ZEFSAII (Michael W. Deem and Ramdas Pophale) SiO2 
 PCOD9135565
Probable space group: C C
;
_chemical_formula_sum "Si O2"
_cell_formula_units_Z 24
_cell_length_a 15.114554
_cell_length_b 9.168550
_cell_length_c 8.385672
_cell_angle_alpha 90.000000
_cell_angle_beta 68.265507
_cell_angle_gamma 90.000000
_cell_volume 1079.462139
_symmetry_space_group_name_H-M "C C"
_symmetry_group_IT_number 9
_symmetry_cell_setting 'monoclinic'
loop_
_space_group_symop_operation_xyz
x,y,z
x,-y,1/2+z
1/2+x,1/2+y,z
1/2+x,1/2-y,1/2+z
loop_
_atom_site_type_symbol
_atom_site_label
_atom_site_fract_x
_atom_site_fract_y
_atom_site_fract_z
Si Si1 0.397700 0.296065 0.158570
Si Si2 0.998189 0.365719 0.125045
Si Si3 0.305709 0.034229 0.365294
Si Si4 0.561405 0.869045 0.723336
Si Si5 0.743180 0.301719 0.217124
Si Si6 0.895299 0.891288 0.797038
O O1 0.316219 0.178639 0.251439
O O2 0.495465 0.211099 0.136182
O O3 0.396167 0.436871 0.272128
O O4 0.387331 0.350254 0.986592
O O5 0.902660 0.440504 0.266341
O O6 0.988924 0.196614 0.174810
O O7 0.079415 0.466963 0.148086
O O8 0.007128 0.377583 0.929412
O O9 0.293135 0.098883 0.548673
O O10 0.224385 0.920663 0.368373
O O11 0.653994 0.775701 0.697922
O O12 0.810943 0.177664 0.246076
#
# Coordination Sequence:
#
# PCOD9135565 Si02
#       6
#     4   4   4   4   4   4
#     4  11  22  40  64  92 125 171 220 265 322 403
#     4  10  20  41  66  89 125 177 219 259 326 407
#     4  10  20  41  66  89 125 177 219 259 326 407
#     4  11  24  41  64  97 129 166 218 278 330 380
#     4  11  24  41  64  97 129 166 218 278 330 380
#     4  11  22  40  64  92 125 171 220 265 322 403
#
# _framework density 22.233294000000001
#
# number of rings (size 3 to 8) (size 9 to 14) (size 15 to 20)
#    0.000    1.333    0.000   10.000    0.000    5.333 
#    0.000    5.000    0.000    0.000    0.000    0.000 
#    0.000    0.000    0.000    0.000    0.000    0.000 
#
# Total GULP energy -66997.237565 kJ/mol
# GULP energy per Si atom -5583.103130 kJ/mol
# Density = 2.218269 g / cm^3
# Si number density = 22.233294 Si / 1000 Ang^3
#
#
#
# Elastic Constant Matrix: (Units=GPa)
#
#
# Indices 1 2 3 4 5 6 
#
# 1 73.9292 25.2134 4.9244 0.0000 14.7872 0.0000
# 2 25.2134 113.8719 -22.8426 0.0000 1.9479 0.0000
# 3 4.9244 -22.8426 62.9055 0.0000 2.0358 0.0000
# 4 0.0000 0.0000 0.0000 46.3869 0.0000 10.4907
# 5 14.7872 1.9479 2.0358 0.0000 19.5955 0.0000
# 6 0.0000 0.0000 0.0000 10.4907 0.0000 38.9998
#
#
#
# Elastic Compliance Matrix: (Units=1/GPa)
#
#
# Indices 1 2 3 4 5 6 
#
# 1 0.017652 -0.004193 -0.002495 0.000000 -0.012644 0.000000
# 2 -0.004193 0.010501 0.004086 0.000000 0.001695 0.000000
# 3 -0.002495 0.004086 0.017587 0.000000 -0.000351 0.000000
# 4 0.000000 0.000000 0.000000 0.022954 0.000000 -0.006175
# 5 -0.012644 0.001695 -0.000351 0.000000 0.060442 0.000000
# 6 0.000000 0.000000 0.000000 -0.006175 0.000000 0.027302
#
#
# Mechanical properties :
#
#
# Convention : Reuss Voigt Hill
#
# Bulk Modulus (GPa) = 24.66850 29.47744 27.07297
# Shear Modulus (GPa) = 28.54653 37.22387 32.88520
#
# Velocity S-wave (km/s) = 3.58712 4.09619 3.85008
# Velocity P-wave (km/s) = 5.31751 5.97149 5.65396
#
# Compressibility (1/GPa) = 0.04053753
#
# Stress axis : x y z
#
# Youngs Moduli (GPa) = 56.65207 95.23032 56.85883
#
# Poissons Ratio (x) = 0.39926 0.14187
# Poissons Ratio (y) = 0.23752 -0.23235
# Poissons Ratio (z) = 0.14135 -0.38916
#
# Static dielectric constant tensor:
#      x y z
#    x 1.907710 0.000000 0.000730 
#    y 0.000000 1.847530 0.000000 
#    z 0.000730 0.000000 1.858030 
# 
# From -- ./inp_files/8733.got.cif
#   From: 2010.05.17/outbox.cif.g08.bks.cpg/sg9_5_cif.got.tgz:8733.got - 2010.06.03 20:04:27.
