data_PCOD9135679
_publ_section_title
;
Structure prediction by ZEFSAII (Michael W. Deem and Ramdas Pophale) SiO2 
 PCOD9135679
Probable space group: C C
;
_chemical_formula_sum "Si O2"
_cell_formula_units_Z 24
_cell_length_a 22.409770
_cell_length_b 6.792598
_cell_length_c 10.366417
_cell_angle_alpha 90.000000
_cell_angle_beta 145.413866
_cell_angle_gamma 90.000000
_cell_volume 895.732721
_symmetry_space_group_name_H-M "C C"
_symmetry_group_IT_number 9
_symmetry_cell_setting 'monoclinic'
loop_
_space_group_symop_operation_xyz
x,y,z
x,-y,1/2+z
1/2+x,1/2+y,z
1/2+x,1/2-y,1/2+z
loop_
_atom_site_type_symbol
_atom_site_label
_atom_site_fract_x
_atom_site_fract_y
_atom_site_fract_z
Si Si1 0.247880 0.214378 0.424330
Si Si2 0.604385 0.087529 0.460923
Si Si3 0.249744 0.793761 0.514978
Si Si4 0.428050 0.604108 0.697655
Si Si5 0.425046 0.098093 0.533498
Si Si6 0.409265 0.342297 0.892803
O O1 0.290274 0.322520 0.627985
O O2 0.203006 0.004802 0.390226
O O3 0.348413 0.136549 0.519424
O O4 0.184011 0.362521 0.220153
O O5 0.660908 0.185372 0.438234
O O6 0.507620 0.216615 0.343879
O O7 0.544633 0.890157 0.304020
O O8 0.309497 0.686653 0.504306
O O9 0.352412 0.809801 0.791263
O O10 0.460325 0.445099 0.860729
O O11 0.430493 0.526279 0.555991
O O12 0.434086 0.877657 0.483649
#
# Coordination Sequence:
#
# PCOD9135679 Si02
#       6
#     4   4   4   4   4   4
#     4  10  20  42  69  95 138 187 235 288 351 429
#     4  10  22  39  70 102 127 189 243 273 367 424
#     4  10  21  42  69  93 149 185 232 299 353 423
#     4  11  24  45  66 102 145 180 235 300 358 429
#     4   9  20  43  66  96 132 183 237 291 345 420
#     4  10  23  41  68  98 137 186 226 297 362 409
#
# _framework density 26.793704999999999
#
# number of rings (size 3 to 8) (size 9 to 14) (size 15 to 20)
#    0.000    2.000    3.333    0.000    9.333    0.000 
#    3.000    0.000    7.333    0.000    0.000    0.000 
#    0.000    0.000    0.000    0.000    0.000    0.000 
#
# Total GULP energy -66871.377063 kJ/mol
# GULP energy per Si atom -5572.614755 kJ/mol
# Density = 2.673272 g / cm^3
# Si number density = 26.793705 Si / 1000 Ang^3
#
#
#
# Elastic Constant Matrix: (Units=GPa)
#
#
# Indices 1 2 3 4 5 6 
#
# 1 118.2118 16.3783 44.1927 0.0000 -10.2987 0.0000
# 2 16.3783 53.0297 35.5563 0.0000 7.8102 0.0000
# 3 44.1927 35.5563 163.5151 0.0000 -2.0568 0.0000
# 4 0.0000 0.0000 0.0000 43.2787 0.0000 -8.1611
# 5 -10.2987 7.8102 -2.0568 0.0000 54.2259 0.0000
# 6 0.0000 0.0000 0.0000 -8.1611 0.0000 27.6461
#
#
#
# Elastic Compliance Matrix: (Units=1/GPa)
#
#
# Indices 1 2 3 4 5 6 
#
# 1 0.009712 -0.001820 -0.002204 0.000000 0.002023 0.000000
# 2 -0.001820 0.023048 -0.004568 0.000000 -0.003838 0.000000
# 3 -0.002204 -0.004568 0.007711 0.000000 0.000532 0.000000
# 4 0.000000 0.000000 0.000000 0.024468 0.000000 0.007223
# 5 0.002023 -0.003838 0.000532 0.000000 0.019399 0.000000
# 6 0.000000 0.000000 0.000000 0.007223 0.000000 0.038304
#
#
# Mechanical properties :
#
#
# Convention : Reuss Voigt Hill
#
# Bulk Modulus (GPa) = 42.94182 58.55680 50.74931
# Shear Modulus (GPa) = 33.87843 40.93876 37.40859
#
# Velocity S-wave (km/s) = 3.55972 3.91311 3.74059
# Velocity P-wave (km/s) = 5.74083 6.50528 6.13497
#
# Compressibility (1/GPa) = 0.02328732
#
# Stress axis : x y z
#
# Youngs Moduli (GPa) = 102.97000 43.38823 129.68121
#
# Poissons Ratio (x) = 0.07896 0.28576
# Poissons Ratio (y) = 0.18740 0.59240
# Poissons Ratio (z) = 0.22690 0.19820
#
# Static dielectric constant tensor:
#      x y z
#    x 2.205170 0.000000 -0.101700 
#    y 0.000000 2.277210 0.000000 
#    z -0.101700 0.000000 2.229240 
# 
# From -- ./inp_files/20824.got.cif
#   From: 2010.05.17/outbox.cif.g08.bks.cpg/sg9_11_cif.got.tgz:20824.got - 2010.06.03 20:04:27.
