data_PCOD9135915
_publ_section_title
;
Structure prediction by ZEFSAII (Michael W. Deem and Ramdas Pophale) SiO2 
 PCOD9135915
Probable space group: C C
;
_chemical_formula_sum "Si O2"
_cell_formula_units_Z 32
_cell_length_a 7.982825
_cell_length_b 6.700003
_cell_length_c 27.659538
_cell_angle_alpha 90.000000
_cell_angle_beta 126.107596
_cell_angle_gamma 90.000000
_cell_volume 1195.199656
_symmetry_space_group_name_H-M "C C"
_symmetry_group_IT_number 9
_symmetry_cell_setting 'monoclinic'
loop_
_space_group_symop_operation_xyz
x,y,z
x,-y,1/2+z
1/2+x,1/2+y,z
1/2+x,1/2-y,1/2+z
loop_
_atom_site_type_symbol
_atom_site_label
_atom_site_fract_x
_atom_site_fract_y
_atom_site_fract_z
Si Si1 0.054350 0.080374 0.317200
Si Si2 0.270600 0.703278 0.016339
Si Si3 0.973283 0.458034 0.235164
Si Si4 0.244436 0.316585 0.208146
Si Si5 0.242767 0.494363 0.106375
Si Si6 0.818712 0.335195 0.547590
Si Si7 0.319952 0.633107 0.453564
Si Si8 0.786379 0.224328 0.344607
O O1 0.011695 0.269857 0.276193
O O2 0.008496 0.146328 0.364011
O O3 0.266906 0.962902 0.344558
O O4 0.893765 0.904375 0.275221
O O5 0.350872 0.586700 0.077376
O O6 0.315270 0.931256 0.035388
O O7 0.346268 0.586760 0.981395
O O8 0.018497 0.722675 0.975673
O O9 0.020686 0.387598 0.188996
O O10 0.135366 0.632534 0.278023
O O11 0.762238 0.578699 0.207036
O O12 0.312052 0.426343 0.170993
O O13 0.219113 0.270607 0.077090
O O14 0.071444 0.668961 0.089664
O O15 0.718493 0.237214 0.482671
O O16 0.219582 0.630615 0.384135
#
# Coordination Sequence:
#
# PCOD9135915 Si02
#       8
#     4   4   4   4   4   4   4   4
#     4  10  22  41  59  88 123 157 207 256 313 372
#     4  10  22  41  59  88 123 157 207 256 313 372
#     4  10  21  39  58  86 121 156 204 257 309 378
#     4  10  21  37  58  87 120 156 204 253 309 377
#     4  10  21  37  58  87 120 156 204 253 309 377
#     4  10  21  39  58  86 121 156 204 257 309 378
#     4  10  23  38  60  90 119 162 206 259 311 379
#     4  10  23  38  60  90 119 162 206 259 311 379
#
# _framework density 26.773772000000001
#
# number of rings (size 3 to 8) (size 9 to 14) (size 15 to 20)
#    0.000    2.000    0.000    2.250    3.500    2.000 
#    0.000    0.000    0.000    0.000    0.000    0.000 
#    0.000    0.000    0.000    0.000    0.000    0.000 
#
# Total GULP energy -89177.655162 kJ/mol
# GULP energy per Si atom -5573.603448 kJ/mol
# Density = 2.671283 g / cm^3
# Si number density = 26.773772 Si / 1000 Ang^3
#
#
#
# Elastic Constant Matrix: (Units=GPa)
#
#
# Indices 1 2 3 4 5 6 
#
# 1 82.7938 61.9624 33.8868 0.0000 -29.6795 0.0000
# 2 61.9624 149.9566 21.3958 0.0000 -13.6910 0.0000
# 3 33.8868 21.3958 101.9371 0.0000 -33.1631 0.0000
# 4 0.0000 0.0000 0.0000 37.2042 0.0000 -10.4469
# 5 -29.6795 -13.6910 -33.1631 0.0000 32.5335 0.0000
# 6 0.0000 0.0000 0.0000 -10.4469 0.0000 40.6858
#
#
#
# Elastic Compliance Matrix: (Units=1/GPa)
#
#
# Indices 1 2 3 4 5 6 
#
# 1 0.025822 -0.008838 -0.000412 0.000000 0.019417 0.000000
# 2 -0.008838 0.009999 -0.000621 0.000000 -0.004487 0.000000
# 3 -0.000412 -0.000621 0.014767 0.000000 0.014416 0.000000
# 4 0.000000 0.000000 0.000000 0.028967 0.000000 0.007438
# 5 0.019417 -0.004487 0.014416 0.000000 0.061258 0.000000
# 6 0.000000 0.000000 0.000000 0.007438 0.000000 0.026488
#
#
# Mechanical properties :
#
#
# Convention : Reuss Voigt Hill
#
# Bulk Modulus (GPa) = 32.41791 63.24197 47.82994
# Shear Modulus (GPa) = 25.33889 36.58088 30.95988
#
# Velocity S-wave (km/s) = 3.07971 3.70035 3.40421
# Velocity P-wave (km/s) = 4.97800 6.47526 5.77536
#
# Compressibility (1/GPa) = 0.03084715
#
# Stress axis : x y z
#
# Youngs Moduli (GPa) = 38.72704 100.00641 67.71839
#
# Poissons Ratio (x) = 0.88386 0.02789
# Poissons Ratio (y) = 0.34227 0.04203
# Poissons Ratio (z) = 0.01595 0.06207
#
# Static dielectric constant tensor:
#      x y z
#    x 2.718690 0.000000 0.326530 
#    y 0.000000 2.174800 0.000000 
#    z 0.326530 0.000000 2.210810 
# 
# From -- ./inp_files/37121.got.cif
#   From: 2010.05.17/outbox.cif.g08.bks.cpg/sg9_19_cif.got.tgz:37121.got - 2010.06.03 20:04:27.
