data_PCOD9135355
_publ_section_title
;
Structure prediction by ZEFSAII (Michael W. Deem and Ramdas Pophale) SiO2 
 PCOD9135355
Probable space group: C C
;
_chemical_formula_sum "Si O2"
_cell_formula_units_Z 28
_cell_length_a 21.934375
_cell_length_b 9.043243
_cell_length_c 15.533907
_cell_angle_alpha 90.000000
_cell_angle_beta 21.427418
_cell_angle_gamma 90.000000
_cell_volume 1125.657659
_symmetry_space_group_name_H-M "C C"
_symmetry_group_IT_number 9
_symmetry_cell_setting 'monoclinic'
loop_
_space_group_symop_operation_xyz
x,y,z
x,-y,1/2+z
1/2+x,1/2+y,z
1/2+x,1/2-y,1/2+z
loop_
_atom_site_type_symbol
_atom_site_label
_atom_site_fract_x
_atom_site_fract_y
_atom_site_fract_z
Si Si1 0.430700 0.202291 0.652490
Si Si2 0.777703 0.706294 0.607567
Si Si3 0.129396 0.734881 0.132883
Si Si4 0.741518 0.420926 0.831393
Si Si5 0.160765 0.549937 0.472300
Si Si6 0.854602 0.150437 0.586796
Si Si7 0.181337 0.114560 0.227871
O O1 0.608947 0.254606 0.379199
O O2 0.492726 0.132007 0.661400
O O3 0.339229 0.072281 0.718295
O O4 0.297001 0.334554 0.829184
O O5 0.765483 0.771121 0.528028
O O6 0.792716 0.530218 0.577891
O O7 0.953136 0.760524 0.412320
O O8 0.131231 0.583960 0.076518
O O9 0.161897 0.866383 0.023727
O O10 0.867843 0.290696 0.635787
O O11 0.616342 0.408888 0.913575
O O12 0.238001 0.469569 0.285290
O O13 0.774076 0.228619 0.610407
O O14 0.043371 0.099566 0.336627
#
# Coordination Sequence:
#
# PCOD9135355 Si02
#       7
#     4   4   4   4   4   4   4
#     4  12  23  43  73 104 137 181 247 279 330 417
#     4  12  25  42  68 105 141 174 225 302 352 395
#     4  11  26  45  68 101 144 182 225 285 372 396
#     4   9  22  39  73  95 134 185 238 270 327 432
#     4  11  24  42  73 101 135 190 236 279 334 431
#     4   9  20  38  67  97 128 175 240 274 318 410
#     4  10  20  39  66 101 129 179 235 273 329 415
#
# _framework density 24.874347
#
# number of rings (size 3 to 8) (size 9 to 14) (size 15 to 20)
#    0.857    0.571    1.429    4.286    4.000    0.000 
#    0.000    2.857    0.000    0.000    0.000    0.000 
#    0.000    0.000    0.000    0.000    0.000    0.000 
#
# Total GULP energy -78207.731712 kJ/mol
# GULP energy per Si atom -5586.266551 kJ/mol
# Density = 2.481773 g / cm^3
# Si number density = 24.874347 Si / 1000 Ang^3
#
#
#
# Elastic Constant Matrix: (Units=GPa)
#
#
# Indices 1 2 3 4 5 6 
#
# 1 72.0343 34.3824 9.6548 0.0000 -14.7865 0.0000
# 2 34.3824 117.3786 30.0503 0.0000 -8.4384 0.0000
# 3 9.6548 30.0503 61.3710 0.0000 -12.3698 0.0000
# 4 0.0000 0.0000 0.0000 30.1521 0.0000 -10.1013
# 5 -14.7865 -8.4384 -12.3698 0.0000 34.8622 0.0000
# 6 0.0000 0.0000 0.0000 -10.1013 0.0000 52.4883
#
#
#
# Elastic Compliance Matrix: (Units=1/GPa)
#
#
# Indices 1 2 3 4 5 6 
#
# 1 0.017428 -0.004882 0.000970 0.000000 0.006554 0.000000
# 2 -0.004882 0.011125 -0.004905 0.000000 -0.001118 0.000000
# 3 0.000970 -0.004905 0.019803 0.000000 0.006251 0.000000
# 4 0.000000 0.000000 0.000000 0.035451 0.000000 0.006822
# 5 0.006554 -0.001118 0.006251 0.000000 0.033412 0.000000
# 6 0.000000 0.000000 0.000000 0.006822 0.000000 0.020365
#
#
# Mechanical properties :
#
#
# Convention : Reuss Voigt Hill
#
# Bulk Modulus (GPa) = 32.54969 44.32875 38.43922
# Shear Modulus (GPa) = 30.21927 35.28027 32.74977
#
# Velocity S-wave (km/s) = 3.48929 3.77017 3.63245
# Velocity P-wave (km/s) = 5.41734 6.06729 5.75150
#
# Compressibility (1/GPa) = 0.03072226
#
# Stress axis : x y z
#
# Youngs Moduli (GPa) = 57.37916 89.88978 50.49693
#
# Poissons Ratio (x) = 0.43885 -0.04897
# Poissons Ratio (y) = 0.28013 0.24767
# Poissons Ratio (z) = -0.05565 0.44087
#
# Static dielectric constant tensor:
#      x y z
#    x 1.987060 0.000000 0.035960 
#    y 0.000000 1.973380 0.000000 
#    z 0.035960 0.000000 1.956670 
# 
# From -- ./inp_files/31574.got.cif
#   From: 2010.05.17/outbox.cif.g08.bks.cpg/sg9_16_cif.got.tgz:31574.got - 2010.06.03 20:04:27.
