data_PCOD9135646
_publ_section_title
;
Structure prediction by ZEFSAII (Michael W. Deem and Ramdas Pophale) SiO2 
 PCOD9135646
Probable space group: C C
;
_chemical_formula_sum "Si O2"
_cell_formula_units_Z 28
_cell_length_a 8.689452
_cell_length_b 11.717952
_cell_length_c 16.393958
_cell_angle_alpha 90.000000
_cell_angle_beta 122.007369
_cell_angle_gamma 90.000000
_cell_volume 1415.511810
_symmetry_space_group_name_H-M "C C"
_symmetry_group_IT_number 9
_symmetry_cell_setting 'monoclinic'
loop_
_space_group_symop_operation_xyz
x,y,z
x,-y,1/2+z
1/2+x,1/2+y,z
1/2+x,1/2-y,1/2+z
loop_
_atom_site_type_symbol
_atom_site_label
_atom_site_fract_x
_atom_site_fract_y
_atom_site_fract_z
Si Si1 0.782870 0.449653 0.167060
Si Si2 0.108159 0.449647 0.492355
Si Si3 0.834239 0.615968 0.329714
Si Si4 0.334411 0.872682 0.538107
Si Si5 0.417614 0.372700 0.121304
Si Si6 0.489884 0.347013 0.329707
Si Si7 0.640685 0.170734 0.829702
O O1 0.764398 0.538734 0.236890
O O2 0.816607 0.524382 0.096675
O O3 0.594780 0.382441 0.114507
O O4 0.954189 0.369738 0.236245
O O5 0.282686 0.524357 0.562745
O O6 0.141077 0.369745 0.423151
O O7 0.950044 0.538749 0.422546
O O8 0.025173 0.382425 0.544904
O O9 0.682352 0.694814 0.329707
O O10 0.971198 0.709510 0.329709
O O11 0.324239 0.749988 0.579702
O O12 0.171808 0.880513 0.427031
O O13 0.477159 0.380515 0.232381
O O14 0.311125 0.386516 0.329706
#
# Coordination Sequence:
#
# PCOD9135646 Si02
#       7
#     4   4   4   4   4   4   4
#     4  11  23  40  65  95 127 166 208 251 317 370
#     4  11  23  40  65  95 127 166 208 251 317 370
#     4   9  20  41  68  84 127 164 203 256 309 367
#     4  12  24  41  63  95 125 164 210 259 309 374
#     4  12  24  41  63  95 125 164 210 259 309 374
#     4  10  20  42  66  81 127 166 195 264 313 349
#     4   9  20  41  64  91 124 164 204 256 302 370
#
# _framework density 19.780830999999999
#
# number of rings (size 3 to 8) (size 9 to 14) (size 15 to 20)
#    0.857    0.571    2.857    3.429    0.000    2.286 
#    0.000    2.857    0.000    0.000    0.000    0.000 
#    0.000    0.000    0.000    0.000    0.000    0.000 
#
# Total GULP energy -78131.489276 kJ/mol
# GULP energy per Si atom -5580.820663 kJ/mol
# Density = 1.973581 g / cm^3
# Si number density = 19.780831 Si / 1000 Ang^3
#
#
#
# Elastic Constant Matrix: (Units=GPa)
#
#
# Indices 1 2 3 4 5 6 
#
# 1 107.1369 25.6181 28.4889 0.0000 -1.5526 0.0000
# 2 25.6181 63.6900 26.6432 0.0000 0.0745 0.0000
# 3 28.4889 26.6432 103.3184 0.0000 1.3686 0.0000
# 4 0.0000 0.0000 0.0000 -4.4233 0.0000 -2.6041
# 5 -1.5526 0.0745 1.3686 0.0000 25.2678 0.0000
# 6 0.0000 0.0000 0.0000 -2.6041 0.0000 43.1807
#
#
#
# Elastic Compliance Matrix: (Units=1/GPa)
#
#
# Indices 1 2 3 4 5 6 
#
# 1 0.010721 -0.003444 -0.002079 0.000000 0.000782 0.000000
# 2 -0.003444 0.018707 -0.003874 0.000000 -0.000057 0.000000
# 3 -0.002079 -0.003874 0.011261 0.000000 -0.000726 0.000000
# 4 0.000000 0.000000 0.000000 -0.218323 0.000000 -0.013166
# 5 0.000782 -0.000057 -0.000726 0.000000 0.039664 0.000000
# 6 0.000000 0.000000 0.000000 -0.013166 0.000000 0.022365
#
#
# Mechanical properties :
#
#
# Convention : Reuss Voigt Hill
#
# Bulk Modulus (GPa) = 45.66937 48.40506 47.03722
# Shear Modulus (GPa) = -55.85624 25.69804 -15.07910
#
# Velocity S-wave (km/s) = -5.31967 3.60827 -2.76399
# Velocity P-wave (km/s) = 3.82021 6.47173 3.69386
#
# Compressibility (1/GPa) = 0.02189651
#
# Stress axis : x y z
#
# Youngs Moduli (GPa) = 93.27168 53.45648 88.80597
#
# Poissons Ratio (x) = 0.18410 0.18459
# Poissons Ratio (y) = 0.32121 0.34400
# Poissons Ratio (z) = 0.19387 0.20707
#
# Static dielectric constant tensor:
#      x y z
#    x 1.697870 0.000000 -0.001670 
#    y 0.000000 1.709510 0.000000 
#    z -0.001670 0.000000 1.667230 
# 
# From -- ./inp_files/22647.got.cif
#   From: 2010.05.17/outbox.cif.g08.bks.cpg/sg9_12_cif.got.tgz:22647.got - 2010.06.03 20:04:27.
