data_PCOD9135974
_publ_section_title
;
Structure prediction by ZEFSAII (Michael W. Deem and Ramdas Pophale) SiO2 
 PCOD9135974
Probable space group: C C
;
_chemical_formula_sum "Si O2"
_cell_formula_units_Z 32
_cell_length_a 14.094367
_cell_length_b 5.540582
_cell_length_c 18.236963
_cell_angle_alpha 90.000000
_cell_angle_beta 108.194981
_cell_angle_gamma 90.000000
_cell_volume 1352.934633
_symmetry_space_group_name_H-M "C C"
_symmetry_group_IT_number 9
_symmetry_cell_setting 'monoclinic'
loop_
_space_group_symop_operation_xyz
x,y,z
x,-y,1/2+z
1/2+x,1/2+y,z
1/2+x,1/2-y,1/2+z
loop_
_atom_site_type_symbol
_atom_site_label
_atom_site_fract_x
_atom_site_fract_y
_atom_site_fract_z
Si Si1 0.416630 0.437096 0.638350
Si Si2 0.490765 0.206379 0.965463
Si Si3 0.516803 0.059035 0.138281
Si Si4 0.291191 0.156640 0.867819
Si Si5 0.178925 0.045653 0.048176
Si Si6 0.735423 0.758538 0.691011
Si Si7 0.640377 0.908854 0.927708
Si Si8 0.817209 0.744350 0.477884
O O1 0.467601 0.697522 0.660547
O O2 0.319682 0.400216 0.665545
O O3 0.386193 0.411925 0.544961
O O4 0.482646 0.194711 0.664341
O O5 0.385743 0.322317 0.915014
O O6 0.533490 0.030410 0.911210
O O7 0.487227 0.073016 0.044227
O O8 0.579058 0.403052 0.999249
O O9 0.635305 0.085527 0.174181
O O10 0.275063 0.179057 0.778822
O O11 0.184292 0.208636 0.882352
O O12 0.338631 0.910459 0.911268
O O13 0.200386 0.976299 0.136166
O O14 0.275571 0.948576 0.028161
O O15 0.163474 0.312792 0.015589
O O16 0.718221 0.116276 0.931114
#
# Coordination Sequence:
#
# PCOD9135974 Si02
#       8
#     4   4   4   4   4   4   4   4
#     4  11  24  46  73 101 139 183 241 293 343 428
#     4  10  21  37  67  99 120 175 233 282 345 418
#     4  11  25  45  74 102 136 185 239 288 352 420
#     4  11  22  42  61  97 139 175 227 289 362 415
#     4   8  19  39  62  91 124 170 231 279 336 410
#     4  10  25  44  64 102 142 187 231 295 364 423
#     4  10  21  39  66  91 133 174 228 296 346 418
#     4   9  19  38  65  97 123 169 228 288 340 404
#
# _framework density 23.652287000000001
#
# number of rings (size 3 to 8) (size 9 to 14) (size 15 to 20)
#    0.000    2.000    1.250    1.500    7.000    3.000 
#   11.250    0.000    0.000    0.000    0.000    0.000 
#    0.000    0.000    0.000    0.000    0.000    0.000 
#
# Total GULP energy -89274.656640 kJ/mol
# GULP energy per Si atom -5579.666040 kJ/mol
# Density = 2.359845 g / cm^3
# Si number density = 23.652287 Si / 1000 Ang^3
#
#
#
# Elastic Constant Matrix: (Units=GPa)
#
#
# Indices 1 2 3 4 5 6 
#
# 1 158.4102 36.6567 27.7395 0.0000 -0.9534 0.0000
# 2 36.6567 73.5004 7.0549 0.0000 -9.6518 0.0000
# 3 27.7395 7.0549 106.7599 0.0000 3.0492 0.0000
# 4 0.0000 0.0000 0.0000 10.1844 0.0000 -4.5884
# 5 -0.9534 -9.6518 3.0492 0.0000 18.9844 0.0000
# 6 0.0000 0.0000 0.0000 -4.5884 0.0000 30.5413
#
#
#
# Elastic Compliance Matrix: (Units=1/GPa)
#
#
# Indices 1 2 3 4 5 6 
#
# 1 0.007457 -0.003725 -0.001656 0.000000 -0.001253 0.000000
# 2 -0.003725 0.016589 -0.000366 0.000000 0.008306 0.000000
# 3 -0.001656 -0.000366 0.009874 0.000000 -0.001855 0.000000
# 4 0.000000 0.000000 0.000000 0.105319 0.000000 0.015823
# 5 -0.001253 0.008306 -0.001855 0.000000 0.057132 0.000000
# 6 0.000000 0.000000 0.000000 0.015823 0.000000 0.035120
#
#
# Mechanical properties :
#
#
# Convention : Reuss Voigt Hill
#
# Bulk Modulus (GPa) = 44.58722 53.50808 49.04765
# Shear Modulus (GPa) = 19.96339 29.75663 24.86001
#
# Velocity S-wave (km/s) = 2.90838 3.55080 3.24553
# Velocity P-wave (km/s) = 5.49275 6.28353 5.90140
#
# Compressibility (1/GPa) = 0.02242795
#
# Stress axis : x y z
#
# Youngs Moduli (GPa) = 134.10203 60.28191 101.27463
#
# Poissons Ratio (x) = 0.22453 0.16767
# Poissons Ratio (y) = 0.49949 0.03703
# Poissons Ratio (z) = 0.22202 0.02204
#
# Static dielectric constant tensor:
#      x y z
#    x 2.008290 0.000000 0.012230 
#    y 0.000000 2.020780 0.000000 
#    z 0.012230 0.000000 1.867690 
# 
# From -- ./inp_files/30422.got.cif
#   From: 2010.05.17/outbox.cif.g08.bks.cpg/sg9_16_cif.got.tgz:30422.got - 2010.06.03 20:04:27.
