data_PCOD9135306
_publ_section_title
;
Structure prediction by ZEFSAII (Michael W. Deem and Ramdas Pophale) SiO2 
 PCOD9135306
Probable space group: C C
;
_chemical_formula_sum "Si O2"
_cell_formula_units_Z 32
_cell_length_a 17.909431
_cell_length_b 9.161224
_cell_length_c 9.023184
_cell_angle_alpha 90.000000
_cell_angle_beta 100.484020
_cell_angle_gamma 90.000000
_cell_volume 1455.739474
_symmetry_space_group_name_H-M "C C"
_symmetry_group_IT_number 9
_symmetry_cell_setting 'monoclinic'
loop_
_space_group_symop_operation_xyz
x,y,z
x,-y,1/2+z
1/2+x,1/2+y,z
1/2+x,1/2-y,1/2+z
loop_
_atom_site_type_symbol
_atom_site_label
_atom_site_fract_x
_atom_site_fract_y
_atom_site_fract_z
Si Si1 0.560800 0.311565 0.679410
Si Si2 0.488900 0.473252 0.935941
Si Si3 0.243248 0.873496 0.324689
Si Si4 0.938587 0.409970 0.186050
Si Si5 0.333105 0.403841 0.303141
Si Si6 0.795767 0.192604 0.109769
Si Si7 0.722076 0.675499 0.147242
Si Si8 0.914808 0.319137 0.493339
O O1 0.530974 0.389621 0.818464
O O2 0.547460 0.438813 0.555508
O O3 0.506009 0.175509 0.630369
O O4 0.647328 0.262144 0.700049
O O5 0.423403 0.588169 0.863559
O O6 0.444222 0.346201 0.010954
O O7 0.227707 0.768249 0.177622
O O8 0.201817 0.857888 0.467481
O O9 0.328032 0.833962 0.409753
O O10 0.240954 0.032524 0.251176
O O11 0.861858 0.316823 0.121774
O O12 0.955277 0.393649 0.365841
O O13 0.928903 0.575793 0.135534
O O14 0.319732 0.559695 0.223211
O O15 0.291246 0.375227 0.445054
O O16 0.294073 0.283124 0.185498
#
# Coordination Sequence:
#
# PCOD9135306 Si02
#       8
#     4   4   4   4   4   4   4   4
#     4  11  24  43  62 100 134 182 222 282 346 422
#     4  11  22  41  71  92 136 173 239 279 343 411
#     4  11  22  41  61  99 136 176 228 280 349 411
#     4  10  20  39  61  91 127 161 220 277 334 404
#     4  12  21  41  66 103 126 181 225 298 330 416
#     4  11  22  40  66 102 129 167 232 289 342 400
#     4  12  26  40  67  96 145 183 227 287 357 416
#     4  10  21  37  64  95 119 163 221 284 321 396
#
# _framework density 21.981953000000001
#
# number of rings (size 3 to 8) (size 9 to 14) (size 15 to 20)
#    0.000    1.000    5.000    4.500    1.750    1.000 
#    0.000    6.250    0.000    0.000    0.000    0.000 
#    0.000    0.000    0.000    0.000    0.000    0.000 
#
# Total GULP energy -89279.177013 kJ/mol
# GULP energy per Si atom -5579.948563 kJ/mol
# Density = 2.193192 g / cm^3
# Si number density = 21.981953 Si / 1000 Ang^3
#
#
#
# Elastic Constant Matrix: (Units=GPa)
#
#
# Indices 1 2 3 4 5 6 
#
# 1 64.9512 22.6706 18.7321 0.0000 -23.3083 0.0000
# 2 22.6706 53.7629 24.2075 0.0000 -7.0743 0.0000
# 3 18.7321 24.2075 77.8663 0.0000 -18.4668 0.0000
# 4 0.0000 0.0000 0.0000 47.1636 0.0000 -3.9407
# 5 -23.3083 -7.0743 -18.4668 0.0000 19.6304 0.0000
# 6 0.0000 0.0000 0.0000 -3.9407 0.0000 15.9957
#
#
#
# Elastic Compliance Matrix: (Units=1/GPa)
#
#
# Indices 1 2 3 4 5 6 
#
# 1 0.031153 -0.010266 0.004624 0.000000 0.037640 0.000000
# 2 -0.010266 0.025065 -0.007815 0.000000 -0.010508 0.000000
# 3 0.004624 -0.007815 0.019042 0.000000 0.020587 0.000000
# 4 0.000000 0.000000 0.000000 0.021648 0.000000 0.005333
# 5 0.037640 -0.010508 0.020587 0.000000 0.111214 0.000000
# 6 0.000000 0.000000 0.000000 0.005333 0.000000 0.063831
#
#
# Mechanical properties :
#
#
# Convention : Reuss Voigt Hill
#
# Bulk Modulus (GPa) = 20.68383 36.42233 28.55308
# Shear Modulus (GPa) = 15.87390 25.28930 20.58160
#
# Velocity S-wave (km/s) = 2.69017 3.39552 3.06321
# Velocity P-wave (km/s) = 4.36798 5.65490 5.05258
#
# Compressibility (1/GPa) = 0.04834695
#
# Stress axis : x y z
#
# Youngs Moduli (GPa) = 32.09929 39.89615 52.51507
#
# Poissons Ratio (x) = 0.40956 -0.24282
# Poissons Ratio (y) = 0.32952 0.41039
# Poissons Ratio (z) = -0.14842 0.31178
#
# Static dielectric constant tensor:
#      x y z
#    x 1.824680 0.000000 -0.058920 
#    y 0.000000 1.791180 0.000000 
#    z -0.058920 0.000000 1.915510 
# 
# From -- ./inp_files/11342.got.cif
#   From: 2010.05.17/outbox.cif.g08.bks.cpg/sg9_6_cif.got.tgz:11342.got - 2010.06.03 20:04:27.
