data_PCOD9135619
_publ_section_title
;
Structure prediction by ZEFSAII (Michael W. Deem and Ramdas Pophale) SiO2 
 PCOD9135619
Probable space group: C C
;
_chemical_formula_sum "Si O2"
_cell_formula_units_Z 24
_cell_length_a 13.226227
_cell_length_b 6.572352
_cell_length_c 22.135005
_cell_angle_alpha 90.000000
_cell_angle_beta 29.987039
_cell_angle_gamma 90.000000
_cell_volume 961.692458
_symmetry_space_group_name_H-M "C C"
_symmetry_group_IT_number 9
_symmetry_cell_setting 'monoclinic'
loop_
_space_group_symop_operation_xyz
x,y,z
x,-y,1/2+z
1/2+x,1/2+y,z
1/2+x,1/2-y,1/2+z
loop_
_atom_site_type_symbol
_atom_site_label
_atom_site_fract_x
_atom_site_fract_y
_atom_site_fract_z
Si Si1 0.390040 0.877551 0.702440
Si Si2 0.516635 0.483814 0.066936
Si Si3 0.362604 0.299821 0.875919
Si Si4 0.545189 0.332063 0.338692
Si Si5 0.152752 0.522170 0.180793
Si Si6 0.205138 0.521741 0.333077
O O1 0.514424 0.752418 0.587101
O O2 0.253592 0.051328 0.745474
O O3 0.544782 0.954446 0.672882
O O4 0.225116 0.722328 0.819244
O O5 0.392690 0.518705 0.069173
O O6 0.377516 0.565373 0.193646
O O7 0.719205 0.610419 0.965335
O O8 0.394278 0.479201 0.907248
O O9 0.268928 0.397604 0.864402
O O10 0.568383 0.210949 0.263945
O O11 0.518519 0.153345 0.402825
O O12 0.074572 0.310188 0.250592
#
# Coordination Sequence:
#
# PCOD9135619 Si02
#       6
#     4   4   4   4   4   4
#     4  10  20  42  62  89 128 162 206 266 313 364
#     4   9  23  43  60 100 129 166 216 259 322 381
#     4  12  21  43  67  95 129 171 215 258 326 379
#     4  11  19  40  67  84 129 168 200 270 313 365
#     4  11  22  42  65  91 129 168 208 272 310 372
#     4   9  21  40  63  93 124 161 213 261 310 375
#
# _framework density 24.956004
#
# number of rings (size 3 to 8) (size 9 to 14) (size 15 to 20)
#    1.000    0.667    5.000    0.000    0.000    0.000 
#   18.000    0.000    0.000    0.000    0.000    0.000 
#    0.000    0.000    0.000    0.000    0.000    0.000 
#
# Total GULP energy -66994.188788 kJ/mol
# GULP energy per Si atom -5582.849066 kJ/mol
# Density = 2.489920 g / cm^3
# Si number density = 24.956004 Si / 1000 Ang^3
#
#
#
# Elastic Constant Matrix: (Units=GPa)
#
#
# Indices 1 2 3 4 5 6 
#
# 1 150.7515 39.7424 27.7219 0.0000 -19.2339 0.0000
# 2 39.7424 127.3489 27.9926 0.0000 -15.2547 0.0001
# 3 27.7219 27.9926 36.8880 -0.0001 -9.5503 0.0000
# 4 0.0000 0.0000 -0.0001 37.1300 0.0000 -13.8136
# 5 -19.2339 -15.2547 -9.5503 0.0000 21.7690 0.0000
# 6 0.0000 0.0001 0.0000 -13.8136 0.0000 43.3674
#
#
#
# Elastic Compliance Matrix: (Units=1/GPa)
#
#
# Indices 1 2 3 4 5 6 
#
# 1 0.008295 -0.001106 -0.004171 0.000000 0.004724 0.000000
# 2 -0.001106 0.009877 -0.005782 0.000000 0.003408 0.000000
# 3 -0.004171 -0.005782 0.036809 0.000000 0.008411 0.000000
# 4 0.000000 0.000000 0.000000 0.030553 0.000000 0.009732
# 5 0.004724 0.003408 0.008411 0.000000 0.056189 0.000000
# 6 0.000000 0.000000 0.000000 0.009732 0.000000 0.026159
#
#
# Mechanical properties :
#
#
# Convention : Reuss Voigt Hill
#
# Bulk Modulus (GPa) = 30.42976 56.21137 43.32057
# Shear Modulus (GPa) = 24.88146 35.08871 29.98508
#
# Velocity S-wave (km/s) = 3.16098 3.75376 3.47005
# Velocity P-wave (km/s) = 5.05393 6.43123 5.78373
#
# Compressibility (1/GPa) = 0.03286257
#
# Stress axis : x y z
#
# Youngs Moduli (GPa) = 120.55813 101.24968 27.16719
#
# Poissons Ratio (x) = 0.11196 0.11333
# Poissons Ratio (y) = 0.13331 0.15707
# Poissons Ratio (z) = 0.50291 0.58539
#
# Static dielectric constant tensor:
#      x y z
#    x 1.970170 0.000000 -0.043010 
#    y 0.000000 2.018410 0.000000 
#    z -0.043010 0.000000 2.055530 
# 
# From -- ./inp_files/35208.got.cif
#   From: 2010.05.17/outbox.cif.g08.bks.cpg/sg9_18_cif.got.tgz:35208.got - 2010.06.03 20:04:27.
