data_PCOD9135762
_publ_section_title
;
Structure prediction by ZEFSAII (Michael W. Deem and Ramdas Pophale) SiO2 
 PCOD9135762
Probable space group: C C
;
_chemical_formula_sum "Si O2"
_cell_formula_units_Z 32
_cell_length_a 8.293255
_cell_length_b 11.532744
_cell_length_c 16.644313
_cell_angle_alpha 90.000000
_cell_angle_beta 65.125705
_cell_angle_gamma 90.000000
_cell_volume 1444.249733
_symmetry_space_group_name_H-M "C C"
_symmetry_group_IT_number 9
_symmetry_cell_setting 'monoclinic'
loop_
_space_group_symop_operation_xyz
x,y,z
x,-y,1/2+z
1/2+x,1/2+y,z
1/2+x,1/2-y,1/2+z
loop_
_atom_site_type_symbol
_atom_site_label
_atom_site_fract_x
_atom_site_fract_y
_atom_site_fract_z
Si Si1 0.458950 0.197169 0.697870
Si Si2 0.961627 0.615158 0.254489
Si Si3 0.368707 0.558971 0.185639
Si Si4 0.219393 0.075057 0.869210
Si Si5 0.984529 0.493538 0.079632
Si Si6 0.390910 0.547561 0.505857
Si Si7 0.400821 0.819286 0.470545
Si Si8 0.233756 0.343153 0.282859
O O1 0.487539 0.333558 0.685449
O O2 0.282110 0.154545 0.781802
O O3 0.623630 0.155803 0.720492
O O4 0.447272 0.139813 0.612013
O O5 0.863765 0.530503 0.338315
O O6 0.864101 0.736433 0.268651
O O7 0.171776 0.615692 0.222607
O O8 0.939383 0.554947 0.172977
O O9 0.349736 0.459035 0.255369
O O10 0.419935 0.501896 0.089889
O O11 0.244813 0.159226 0.939591
O O12 0.033417 0.010015 0.916186
O O13 0.195444 0.493500 0.021293
O O14 0.893390 0.572652 0.032718
O O15 0.398990 0.688181 0.504375
O O16 0.582508 0.834145 0.381641
#
# Coordination Sequence:
#
# PCOD9135762 Si02
#       8
#     4   4   4   4   4   4   4   4
#     4  10  23  46  64  91 132 172 213 262 320 386
#     4  10  20  44  65  87 128 164 209 261 313 381
#     4  11  23  43  64  94 126 169 215 262 316 385
#     4  10  22  44  65  92 129 167 212 265 318 377
#     4  10  23  42  62  93 130 164 210 267 316 377
#     4  11  23  42  65  95 128 166 216 267 319 376
#     4  11  23  41  67  95 130 168 209 271 320 370
#     4  11  21  44  68  89 129 170 212 263 316 384
#
# _framework density 22.156835000000001
#
# number of rings (size 3 to 8) (size 9 to 14) (size 15 to 20)
#    0.000    1.500    6.250    0.750    1.750    3.000 
#   11.250    0.000    0.000    0.000    0.000    0.000 
#    0.000    0.000    0.000    0.000    0.000    0.000 
#
# Total GULP energy -89318.774293 kJ/mol
# GULP energy per Si atom -5582.423393 kJ/mol
# Density = 2.210640 g / cm^3
# Si number density = 22.156835 Si / 1000 Ang^3
#
#
#
# Elastic Constant Matrix: (Units=GPa)
#
#
# Indices 1 2 3 4 5 6 
#
# 1 20.3374 26.9618 29.0890 0.0000 -3.5482 0.0000
# 2 26.9618 163.1715 37.4014 0.0000 0.5852 0.0000
# 3 29.0890 37.4014 77.5369 0.0000 -10.9329 0.0000
# 4 0.0000 0.0000 0.0000 32.7457 0.0000 0.0845
# 5 -3.5482 0.5852 -10.9329 0.0000 18.0793 0.0000
# 6 0.0000 0.0000 0.0000 0.0845 0.0000 34.5252
#
#
#
# Elastic Compliance Matrix: (Units=1/GPa)
#
#
# Indices 1 2 3 4 5 6 
#
# 1 0.120886 -0.010761 -0.040194 0.000000 -0.000233 0.000000
# 2 -0.010761 0.007948 -0.000143 0.000000 -0.002456 0.000000
# 3 -0.040194 -0.000143 0.029445 0.000000 0.009922 0.000000
# 4 0.000000 0.000000 0.000000 0.030539 0.000000 -0.000075
# 5 -0.000233 -0.002456 0.009922 0.000000 0.061346 0.000000
# 6 0.000000 0.000000 0.000000 -0.000075 0.000000 0.028965
#
#
# Mechanical properties :
#
#
# Convention : Reuss Voigt Hill
#
# Bulk Modulus (GPa) = 17.83085 49.77224 33.80155
# Shear Modulus (GPa) = 12.49943 28.24293 20.37118
#
# Velocity S-wave (km/s) = 2.37773 3.57414 3.03546
# Velocity P-wave (km/s) = 3.95008 6.28848 5.25110
#
# Compressibility (1/GPa) = 0.05608256
#
# Stress axis : x y z
#
# Youngs Moduli (GPa) = 8.27225 125.81435 33.96210
#
# Poissons Ratio (x) = 1.35386 1.36508
# Poissons Ratio (y) = 0.08902 0.00486
# Poissons Ratio (z) = 0.33250 0.01802
#
# Static dielectric constant tensor:
#      x y z
#    x 1.816830 0.000000 -0.002730 
#    y 0.000000 1.851750 0.000000 
#    z -0.002730 0.000000 1.843850 
# 
# From -- ./inp_files/29252.got.cif
#   From: 2010.05.17/outbox.cif.g08.bks.cpg/sg9_15_cif.got.tgz:29252.got - 2010.06.03 20:04:27.
