data_PCOD9135426
_publ_section_title
;
Structure prediction by ZEFSAII (Michael W. Deem and Ramdas Pophale) SiO2 
 PCOD9135426
Probable space group: C C
;
_chemical_formula_sum "Si O2"
_cell_formula_units_Z 32
_cell_length_a 32.043013
_cell_length_b 7.826343
_cell_length_c 12.901180
_cell_angle_alpha 90.000000
_cell_angle_beta 21.959183
_cell_angle_gamma 90.000000
_cell_volume 1209.847212
_symmetry_space_group_name_H-M "C C"
_symmetry_group_IT_number 9
_symmetry_cell_setting 'monoclinic'
loop_
_space_group_symop_operation_xyz
x,y,z
x,-y,1/2+z
1/2+x,1/2+y,z
1/2+x,1/2-y,1/2+z
loop_
_atom_site_type_symbol
_atom_site_label
_atom_site_fract_x
_atom_site_fract_y
_atom_site_fract_z
Si Si1 0.914750 0.923596 0.893190
Si Si2 0.063281 0.197468 0.202174
Si Si3 0.296377 0.390196 0.976765
Si Si4 0.248090 0.650099 0.361978
Si Si5 0.150202 0.159263 0.571381
Si Si6 0.550264 0.216060 0.108295
Si Si7 0.345033 0.972803 0.013502
Si Si8 0.227293 0.218833 0.626595
O O1 0.943234 0.811338 0.928471
O O2 0.898973 0.842433 0.816227
O O3 0.992906 0.097632 0.712371
O O4 0.789952 0.988559 0.203449
O O5 0.115066 0.336033 0.159656
O O6 0.129138 0.206931 0.939020
O O7 0.085122 0.021731 0.212286
O O8 0.174491 0.307540 0.277813
O O9 0.283394 0.596180 0.008600
O O10 0.311418 0.345906 0.823072
O O11 0.293268 0.812451 0.196471
O O12 0.072511 0.280609 0.680381
O O13 0.179270 0.199835 0.622358
O O14 0.265729 0.119458 0.241990
O O15 0.474235 0.059538 0.242134
O O16 0.313011 0.928373 0.968261
#
# Coordination Sequence:
#
# PCOD9135426 Si02
#       8
#     4   4   4   4   4   4   4   4
#     4  10  21  43  65  88 126 168 206 259 310 367
#     4   9  20  40  65  88 130 164 207 262 306 370
#     4  12  23  38  67  92 129 165 208 260 314 374
#     4   9  20  38  62  92 125 163 205 262 309 365
#     4   9  20  36  69  90 119 172 204 253 313 370
#     4  10  22  42  62  92 127 162 204 259 313 365
#     4   9  20  45  62  85 136 158 205 268 301 367
#     4  10  20  40  62  93 130 160 209 265 304 370
#
# _framework density 26.449621
#
# number of rings (size 3 to 8) (size 9 to 14) (size 15 to 20)
#    0.000    2.500    3.750    0.000    1.750   10.000 
#    4.500    0.000    0.000    0.000    0.000    0.000 
#    0.000    0.000    0.000    0.000    0.000    0.000 
#
# Total GULP energy -89315.435650 kJ/mol
# GULP energy per Si atom -5582.214728 kJ/mol
# Density = 2.638942 g / cm^3
# Si number density = 26.449621 Si / 1000 Ang^3
#
#
#
# Elastic Constant Matrix: (Units=GPa)
#
#
# Indices 1 2 3 4 5 6 
#
# 1 244.7443 14.3048 22.0839 0.0000 -14.0707 0.0000
# 2 14.3048 55.2910 6.0964 0.0000 -15.5151 0.0000
# 3 22.0839 6.0964 42.5208 0.0000 -17.3684 0.0000
# 4 0.0000 0.0000 0.0000 24.8149 0.0000 -15.1543
# 5 -14.0707 -15.5151 -17.3684 0.0000 45.1469 0.0000
# 6 0.0000 0.0000 0.0000 -15.1543 0.0000 45.8202
#
#
#
# Elastic Compliance Matrix: (Units=1/GPa)
#
#
# Indices 1 2 3 4 5 6 
#
# 1 0.004332 -0.000816 -0.002012 0.000000 0.000296 0.000000
# 2 -0.000816 0.020170 0.000308 0.000000 0.006796 0.000000
# 3 -0.002012 0.000308 0.028837 0.000000 0.010573 0.000000
# 4 0.000000 0.000000 0.000000 0.050498 0.000000 0.016701
# 5 0.000296 0.006796 0.010573 0.000000 0.028645 0.000000
# 6 0.000000 0.000000 0.000000 0.016701 0.000000 0.027348
#
#
# Mechanical properties :
#
#
# Convention : Reuss Voigt Hill
#
# Bulk Modulus (GPa) = 20.70440 47.50293 34.10366
# Shear Modulus (GPa) = 27.62870 43.16113 35.39491
#
# Velocity S-wave (km/s) = 3.23550 4.04397 3.66211
# Velocity P-wave (km/s) = 4.66935 6.30901 5.55007
#
# Compressibility (1/GPa) = 0.04829891
#
# Stress axis : x y z
#
# Youngs Moduli (GPa) = 230.83205 49.57802 34.67713
#
# Poissons Ratio (x) = 0.04045 0.06978
# Poissons Ratio (y) = 0.18835 -0.01067
# Poissons Ratio (z) = 0.46449 -0.01526
#
# Static dielectric constant tensor:
#      x y z
#    x 2.157250 0.000000 -0.126160 
#    y 0.000000 2.191590 0.000000 
#    z -0.126160 0.000000 2.307030 
# 
# From -- ./inp_files/21419.got.cif
#   From: 2010.05.17/outbox.cif.g08.bks.cpg/sg9_11_cif.got.tgz:21419.got - 2010.06.03 20:04:27.
