data_PCOD9135923
_publ_section_title
;
Structure prediction by ZEFSAII (Michael W. Deem and Ramdas Pophale) SiO2 
 PCOD9135923
Probable space group: C C
;
_chemical_formula_sum "Si O2"
_cell_formula_units_Z 32
_cell_length_a 16.367293
_cell_length_b 17.077628
_cell_length_c 5.533969
_cell_angle_alpha 90.000000
_cell_angle_beta 117.951472
_cell_angle_gamma 90.000000
_cell_volume 1366.379813
_symmetry_space_group_name_H-M "C C"
_symmetry_group_IT_number 9
_symmetry_cell_setting 'monoclinic'
loop_
_space_group_symop_operation_xyz
x,y,z
x,-y,1/2+z
1/2+x,1/2+y,z
1/2+x,1/2-y,1/2+z
loop_
_atom_site_type_symbol
_atom_site_label
_atom_site_fract_x
_atom_site_fract_y
_atom_site_fract_z
Si Si1 0.919370 0.260182 0.291080
Si Si2 0.546666 0.688673 0.114870
Si Si3 0.878071 0.855725 0.079311
Si Si4 0.765089 0.535865 0.124087
Si Si5 0.269249 0.203031 0.888831
Si Si6 0.055298 0.025337 0.349060
Si Si7 0.106530 0.710966 0.304932
Si Si8 0.705034 0.954497 0.923204
O O1 0.828077 0.308765 0.223826
O O2 0.998612 0.286876 0.590716
O O3 0.979633 0.253631 0.138933
O O4 0.978625 0.144519 0.832282
O O5 0.389039 0.670146 0.313881
O O6 0.573572 0.617193 0.325532
O O7 0.620450 0.737610 0.066038
O O8 0.822917 0.776292 0.088177
O O9 0.811714 0.925982 0.053401
O O10 0.802740 0.487743 0.941392
O O11 0.771967 0.625635 0.050785
O O12 0.655663 0.516402 0.999663
O O13 0.168584 0.239654 0.702093
O O14 0.009096 0.989073 0.044605
O O15 0.143756 0.623787 0.361434
O O16 0.687393 0.995717 0.640648
#
# Coordination Sequence:
#
# PCOD9135923 Si02
#       8
#     4   4   4   4   4   4   4   4
#     4   9  22  40  66  99 125 172 238 281 336 403
#     4  11  22  39  71  97 137 172 236 286 345 414
#     4   8  22  42  62  94 126 176 222 282 337 393
#     4  10  21  37  59  93 129 168 208 256 333 397
#     4   9  20  43  64  89 133 172 225 276 325 417
#     4  10  23  36  57  96 138 169 206 260 341 410
#     4  10  22  44  68  96 131 184 231 288 341 408
#     4  11  26  45  69 100 139 185 238 287 354 420
#
# _framework density 23.419549
#
# number of rings (size 3 to 8) (size 9 to 14) (size 15 to 20)
#    0.750    1.500    0.000    1.500   10.500    2.000 
#    2.250    1.250    0.000    0.000    0.000    0.000 
#    0.000    0.000    0.000    0.000    0.000    0.000 
#
# Total GULP energy -89166.123758 kJ/mol
# GULP energy per Si atom -5572.882735 kJ/mol
# Density = 2.336624 g / cm^3
# Si number density = 23.419549 Si / 1000 Ang^3
#
#
#
# Elastic Constant Matrix: (Units=GPa)
#
#
# Indices 1 2 3 4 5 6 
#
# 1 102.5539 39.6381 18.4010 0.0000 -20.4241 0.0000
# 2 39.6381 122.4508 36.6313 0.0000 -15.1515 0.0000
# 3 18.4010 36.6313 78.8320 0.0000 -31.7291 0.0000
# 4 0.0000 0.0000 0.0000 29.6553 0.0000 -11.4085
# 5 -20.4241 -15.1515 -31.7291 0.0000 28.4250 0.0000
# 6 0.0000 0.0000 0.0000 -11.4085 0.0000 34.9941
#
#
#
# Elastic Compliance Matrix: (Units=1/GPa)
#
#
# Indices 1 2 3 4 5 6 
#
# 1 0.012745 -0.003717 0.002979 0.000000 0.010501 0.000000
# 2 -0.003717 0.010570 -0.005177 0.000000 -0.002816 0.000000
# 3 0.002979 -0.005177 0.025687 0.000000 0.028054 0.000000
# 4 0.000000 0.000000 0.000000 0.038556 0.000000 0.012570
# 5 0.010501 -0.002816 0.028054 0.000000 0.072539 0.000000
# 6 0.000000 0.000000 0.000000 0.012570 0.000000 0.032674
#
#
# Mechanical properties :
#
#
# Convention : Reuss Voigt Hill
#
# Bulk Modulus (GPa) = 26.90294 54.79751 40.85023
# Shear Modulus (GPa) = 23.04219 32.55930 27.80074
#
# Velocity S-wave (km/s) = 3.14010 3.73267 3.44913
# Velocity P-wave (km/s) = 4.96581 6.48275 5.77431
#
# Compressibility (1/GPa) = 0.03717065
#
# Stress axis : x y z
#
# Youngs Moduli (GPa) = 78.46459 94.60493 38.93034
#
# Poissons Ratio (x) = 0.35168 -0.11598
# Poissons Ratio (y) = 0.29168 0.20156
# Poissons Ratio (z) = -0.23376 0.48981
#
# Static dielectric constant tensor:
#      x y z
#    x 1.918670 0.000000 -0.030360 
#    y 0.000000 1.904720 0.000000 
#    z -0.030360 0.000000 2.034360 
# 
# From -- ./inp_files/2949.got.cif
#   From: 2010.05.17/outbox.cif.g08.bks.cpg/sg9_2_cif.got.tgz:2949.got - 2010.06.03 20:04:27.
