data_PCOD9135935
_publ_section_title
;
Structure prediction by ZEFSAII (Michael W. Deem and Ramdas Pophale) SiO2 
 PCOD9135935
Probable space group: C C
;
_chemical_formula_sum "Si O2"
_cell_formula_units_Z 24
_cell_length_a 5.229083
_cell_length_b 23.230415
_cell_length_c 8.941850
_cell_angle_alpha 90.000000
_cell_angle_beta 112.041445
_cell_angle_gamma 90.000000
_cell_volume 1006.812707
_symmetry_space_group_name_H-M "C C"
_symmetry_group_IT_number 9
_symmetry_cell_setting 'monoclinic'
loop_
_space_group_symop_operation_xyz
x,y,z
x,-y,1/2+z
1/2+x,1/2+y,z
1/2+x,1/2-y,1/2+z
loop_
_atom_site_type_symbol
_atom_site_label
_atom_site_fract_x
_atom_site_fract_y
_atom_site_fract_z
Si Si1 0.372800 0.427891 0.412150
Si Si2 0.481106 0.873364 0.857202
Si Si3 0.827083 0.714673 0.562591
Si Si4 0.794260 0.625526 0.802803
Si Si5 0.885022 0.039449 0.587603
Si Si6 0.413367 0.326325 0.741143
O O1 0.599695 0.382980 0.402809
O O2 0.462938 0.477826 0.542401
O O3 0.299257 0.461706 0.241793
O O4 0.099142 0.396114 0.404679
O O5 0.522484 0.826090 0.001984
O O6 0.636872 0.930731 0.942184
O O7 0.629127 0.850632 0.740796
O O8 0.150870 0.873992 0.766511
O O9 0.801480 0.685378 0.718868
O O10 0.544000 0.708166 0.410809
O O11 0.902325 0.780581 0.605353
O O12 0.646380 0.582756 0.648627
#
# Coordination Sequence:
#
# PCOD9135935 Si02
#       6
#     4   4   4   4   4   4
#     4  10  22  33  65  83 117 152 210 233 301 348
#     4  10  21  37  61  83 114 163 194 240 302 360
#     4  10  21  40  61  85 119 161 196 246 295 367
#     4  10  21  37  61  83 114 163 194 240 302 360
#     4  10  21  40  61  85 119 161 196 246 295 367
#     4  10  22  33  65  83 117 152 210 233 301 348
#
# _framework density 23.837605
#
# number of rings (size 3 to 8) (size 9 to 14) (size 15 to 20)
#    2.000    0.000    3.333    0.000    4.667    0.000 
#    0.000    1.667    0.000    0.000    0.000    0.000 
#    0.000    0.000    0.000    0.000    0.000    0.000 
#
# Total GULP energy -66979.870606 kJ/mol
# GULP energy per Si atom -5581.655884 kJ/mol
# Density = 2.378335 g / cm^3
# Si number density = 23.837605 Si / 1000 Ang^3
#
#
#
# Elastic Constant Matrix: (Units=GPa)
#
#
# Indices 1 2 3 4 5 6 
#
# 1 142.2649 34.9107 21.6967 0.0000 3.3555 0.0000
# 2 34.9107 92.4622 48.9898 0.0000 -11.3099 0.0000
# 3 21.6967 48.9898 36.9763 0.0000 -14.6396 0.0000
# 4 0.0000 0.0000 0.0000 54.4271 0.0000 -5.8526
# 5 3.3555 -11.3099 -14.6396 0.0000 30.4945 0.0000
# 6 0.0000 0.0000 0.0000 -5.8526 0.0000 24.4105
#
#
#
# Elastic Compliance Matrix: (Units=1/GPa)
#
#
# Indices 1 2 3 4 5 6 
#
# 1 0.008094 -0.000732 -0.005234 0.000000 -0.003675 0.000000
# 2 -0.000732 0.040213 -0.057921 0.000000 -0.012811 0.000000
# 3 -0.005234 -0.057921 0.121711 0.000000 0.037524 0.000000
# 4 0.000000 0.000000 0.000000 0.018859 0.000000 0.004522
# 5 -0.003675 -0.012811 0.037524 0.000000 0.046460 0.000000
# 6 0.000000 0.000000 0.000000 0.004522 0.000000 0.042050
#
#
# Mechanical properties :
#
#
# Convention : Reuss Voigt Hill
#
# Bulk Modulus (GPa) = 23.67199 53.65532 38.66365
# Shear Modulus (GPa) = 11.92623 32.94016 22.43320
#
# Velocity S-wave (km/s) = 2.23919 3.72137 3.07104
# Velocity P-wave (km/s) = 4.07890 6.40487 5.36934
#
# Compressibility (1/GPa) = 0.04224402
#
# Stress axis : x y z
#
# Youngs Moduli (GPa) = 123.55222 24.86735 8.21616
#
# Poissons Ratio (x) = 0.01821 0.04300
# Poissons Ratio (y) = 0.09049 0.47589
# Poissons Ratio (z) = 0.64665 1.44034
#
# Static dielectric constant tensor:
#      x y z
#    x 1.869330 0.000000 -0.005540 
#    y 0.000000 1.858990 0.000000 
#    z -0.005540 0.000000 1.967530 
# 
# From -- ./inp_files/13154.got.cif
#   From: 2010.05.17/outbox.cif.g08.bks.cpg/sg9_7_cif.got.tgz:13154.got - 2010.06.03 20:04:27.
