data_PCOD9135599
_publ_section_title
;
Structure prediction by ZEFSAII (Michael W. Deem and Ramdas Pophale) SiO2 
 PCOD9135599
Probable space group: C C
;
_chemical_formula_sum "Si O2"
_cell_formula_units_Z 32
_cell_length_a 28.804725
_cell_length_b 5.183907
_cell_length_c 10.625275
_cell_angle_alpha 90.000000
_cell_angle_beta 49.499619
_cell_angle_gamma 90.000000
_cell_volume 1206.435652
_symmetry_space_group_name_H-M "C C"
_symmetry_group_IT_number 9
_symmetry_cell_setting 'monoclinic'
loop_
_space_group_symop_operation_xyz
x,y,z
x,-y,1/2+z
1/2+x,1/2+y,z
1/2+x,1/2-y,1/2+z
loop_
_atom_site_type_symbol
_atom_site_label
_atom_site_fract_x
_atom_site_fract_y
_atom_site_fract_z
Si Si1 0.507410 0.127341 0.764590
Si Si2 0.183761 0.947430 0.511757
Si Si3 0.621256 0.872008 0.916635
Si Si4 0.228228 0.469498 0.554075
Si Si5 0.060384 0.007296 0.848106
Si Si6 0.393071 0.098032 0.606337
Si Si7 0.947921 0.955747 0.684299
Si Si8 0.848495 0.301891 0.931653
O O1 0.572741 0.011432 0.603024
O O2 0.526111 0.413345 0.783135
O O3 0.466392 0.188486 0.716371
O O4 0.461090 0.997158 0.943562
O O5 0.153691 0.871589 0.431176
O O6 0.232564 0.731862 0.466938
O O7 0.126908 0.898047 0.706510
O O8 0.205180 0.237107 0.502414
O O9 0.679081 0.006337 0.752761
O O10 0.578789 0.783954 0.873530
O O11 0.289423 0.368196 0.509712
O O12 0.011342 0.911127 0.035840
O O13 0.407183 0.385189 0.634559
O O14 0.348370 0.056560 0.565977
O O15 0.363394 0.957589 0.778811
O O16 0.906713 0.117799 0.847634
#
# Coordination Sequence:
#
# PCOD9135599 Si02
#       8
#     4   4   4   4   4   4   4   4
#     4  10  20  41  71 106 148 193 245 320 388 469
#     4  10  24  46  69 104 140 192 249 314 381 461
#     4   9  22  42  72 105 142 194 245 320 384 465
#     4  11  27  47  71 103 143 199 256 314 389 458
#     4   9  19  40  68 103 146 181 248 304 390 455
#     4  12  26  47  72 115 152 200 271 319 407 473
#     4  11  23  44  70 110 148 199 246 317 395 470
#     4  12  29  45  75 106 153 208 258 334 384 481
#
# _framework density 26.524414
#
# number of rings (size 3 to 8) (size 9 to 14) (size 15 to 20)
#    0.000    1.500    2.500    0.750    3.500    9.000 
#    0.000    2.500    0.000    0.000    0.000    0.000 
#    0.000    0.000    0.000    0.000    0.000    0.000 
#
# Total GULP energy -89283.183639 kJ/mol
# GULP energy per Si atom -5580.198977 kJ/mol
# Density = 2.646404 g / cm^3
# Si number density = 26.524414 Si / 1000 Ang^3
#
#
#
# Elastic Constant Matrix: (Units=GPa)
#
#
# Indices 1 2 3 4 5 6 
#
# 1 108.9479 17.1302 39.4365 0.0000 14.5534 0.0000
# 2 17.1302 58.4754 21.7402 -0.0001 7.4649 0.0001
# 3 39.4365 21.7402 97.4628 0.0000 13.0057 0.0000
# 4 0.0000 -0.0001 0.0000 29.7999 0.0000 2.5844
# 5 14.5534 7.4649 13.0057 0.0000 47.3603 0.0000
# 6 0.0000 0.0001 0.0000 2.5844 0.0000 40.6841
#
#
#
# Elastic Compliance Matrix: (Units=1/GPa)
#
#
# Indices 1 2 3 4 5 6 
#
# 1 0.011103 -0.001546 -0.003867 0.000000 -0.002106 0.000000
# 2 -0.001546 0.019023 -0.003406 0.000000 -0.001588 0.000000
# 3 -0.003867 -0.003406 0.012824 0.000000 -0.001797 0.000000
# 4 0.000000 0.000000 0.000000 0.033743 0.000000 -0.002143
# 5 -0.002106 -0.001588 -0.001797 0.000000 0.022506 0.000000
# 6 0.000000 0.000000 0.000000 -0.002143 0.000000 0.024716
#
#
# Mechanical properties :
#
#
# Convention : Reuss Voigt Hill
#
# Bulk Modulus (GPa) = 39.50506 46.83331 43.16918
# Shear Modulus (GPa) = 33.33568 36.00748 34.67158
#
# Velocity S-wave (km/s) = 3.54897 3.68845 3.61939
# Velocity P-wave (km/s) = 5.63203 5.98620 5.81182
#
# Compressibility (1/GPa) = 0.02531321
#
# Stress axis : x y z
#
# Youngs Moduli (GPa) = 90.06768 52.56768 77.97675
#
# Poissons Ratio (x) = 0.08128 0.30150
# Poissons Ratio (y) = 0.13925 0.26557
# Poissons Ratio (z) = 0.34825 0.17904
#
# Static dielectric constant tensor:
#      x y z
#    x 2.100050 0.000000 0.052430 
#    y 0.000000 2.151950 0.000000 
#    z 0.052430 0.000000 2.067140 
# 
# From -- ./inp_files/21350.got.cif
#   From: 2010.05.17/outbox.cif.g08.bks.cpg/sg9_11_cif.got.tgz:21350.got - 2010.06.03 20:04:27.
