data_PCOD9135524
_publ_section_title
;
Structure prediction by ZEFSAII (Michael W. Deem and Ramdas Pophale) SiO2 
 PCOD9135524
Probable space group: C C
;
_chemical_formula_sum "Si O2"
_cell_formula_units_Z 28
_cell_length_a 24.013647
_cell_length_b 4.819610
_cell_length_c 24.156651
_cell_angle_alpha 90.000000
_cell_angle_beta 158.647112
_cell_angle_gamma 90.000000
_cell_volume 1017.983298
_symmetry_space_group_name_H-M "C C"
_symmetry_group_IT_number 9
_symmetry_cell_setting 'monoclinic'
loop_
_space_group_symop_operation_xyz
x,y,z
x,-y,1/2+z
1/2+x,1/2+y,z
1/2+x,1/2-y,1/2+z
loop_
_atom_site_type_symbol
_atom_site_label
_atom_site_fract_x
_atom_site_fract_y
_atom_site_fract_z
Si Si1 0.409800 0.979318 0.651100
Si Si2 0.688215 0.617148 0.859932
Si Si3 0.439761 0.204633 0.363725
Si Si4 0.756887 0.991175 0.774263
Si Si5 0.991847 0.185982 0.582606
Si Si6 0.356132 0.529204 0.174009
Si Si7 0.134471 0.203867 0.550465
O O1 0.563728 0.832685 0.769650
O O2 0.276242 0.080485 0.484981
O O3 0.485054 0.111225 0.900775
O O4 0.452474 0.241146 0.729117
O O5 0.841634 0.760512 0.979469
O O6 0.601466 0.502877 0.724505
O O7 0.322886 0.233685 0.306499
O O8 0.325573 0.279723 0.103343
O O9 0.404737 0.346351 0.272485
O O10 0.907876 0.906486 0.948706
O O11 0.605975 0.939739 0.671745
O O12 0.708015 0.823638 0.674026
O O13 0.590018 0.386489 0.516607
O O14 0.228874 0.727098 0.083074
#
# Coordination Sequence:
#
# PCOD9135524 Si02
#       7
#     4   4   4   4   4   4   4
#     4  11  24  44  72 101 143 194 239 301 362 435
#     4   9  22  41  74 103 145 185 255 302 370 421
#     4  11  24  43  70 109 147 186 236 289 354 452
#     4  10  20  40  77 106 145 193 235 296 374 433
#     4   9  18  44  76 103 147 187 246 308 367 430
#     4  11  26  41  71 103 144 191 237 290 369 429
#     4  11  24  43  70 109 147 186 236 290 352 452
#
# _framework density 27.505365000000001
#
# number of rings (size 3 to 8) (size 9 to 14) (size 15 to 20)
#    0.000    1.714    1.429    1.714    6.000    3.429 
#    0.000    0.000   47.143    0.000    0.000    0.000 
#    0.000    0.000    0.000    0.000    0.000    0.000 
#
# Total GULP energy -78101.242362 kJ/mol
# GULP energy per Si atom -5578.660169 kJ/mol
# Density = 2.744276 g / cm^3
# Si number density = 27.505365 Si / 1000 Ang^3
#
#
#
# Elastic Constant Matrix: (Units=GPa)
#
#
# Indices 1 2 3 4 5 6 
#
# 1 122.8893 30.9469 63.5273 0.0010 9.9153 0.0004
# 2 30.9469 111.6712 40.1091 0.0017 0.4470 0.0110
# 3 63.5273 40.1091 176.5421 -0.0031 -5.0219 -0.0012
# 4 0.0010 0.0017 -0.0031 27.5770 -0.0013 3.4462
# 5 9.9153 0.4470 -5.0219 -0.0013 42.8019 -0.0001
# 6 0.0004 0.0110 -0.0012 3.4462 -0.0001 11.0895
#
#
#
# Elastic Compliance Matrix: (Units=1/GPa)
#
#
# Indices 1 2 3 4 5 6 
#
# 1 0.010606 -0.001664 -0.003520 -0.000001 -0.002853 0.000001
# 2 -0.001664 0.010017 -0.001675 0.000001 0.000084 -0.000010
# 3 -0.003520 -0.001675 0.007360 0.000001 0.001696 0.000002
# 4 -0.000001 0.000001 0.000001 0.037727 0.000001 -0.011724
# 5 -0.002853 0.000084 0.001696 0.000001 0.024222 0.000000
# 6 0.000001 -0.000010 0.000002 -0.011724 0.000000 0.093819
#
#
# Mechanical properties :
#
#
# Convention : Reuss Voigt Hill
#
# Bulk Modulus (GPa) = 70.09370 75.58547 72.83959
# Shear Modulus (GPa) = 24.72517 34.72830 29.72674
#
# Velocity S-wave (km/s) = 3.00145 3.55716 3.29106
# Velocity P-wave (km/s) = 6.12786 6.66417 6.40163
#
# Compressibility (1/GPa) = 0.01426662
#
# Stress axis : x y z
#
# Youngs Moduli (GPa) = 94.28641 99.82948 135.87605
#
# Poissons Ratio (x) = 0.16608 0.47824
# Poissons Ratio (y) = 0.15686 0.22756
# Poissons Ratio (z) = 0.33186 0.16719
#
# Static dielectric constant tensor:
#      x y z
#    x 2.241250 0.000000 -0.040030 
#    y 0.000000 2.085670 0.000000 
#    z -0.040030 0.000000 2.239090 
# 
# From -- ./inp_files/34504.got.cif
#   From: 2010.05.17/outbox.cif.g08.bks.cpg/sg9_18_cif.got.tgz:34504.got - 2010.06.03 20:04:27.
