data_PCOD9135315
_publ_section_title
;
Structure prediction by ZEFSAII (Michael W. Deem and Ramdas Pophale) SiO2 
 PCOD9135315
Probable space group: C C
;
_chemical_formula_sum "Si O2"
_cell_formula_units_Z 32
_cell_length_a 5.778627
_cell_length_b 33.017810
_cell_length_c 6.866813
_cell_angle_alpha 90.000000
_cell_angle_beta 70.095598
_cell_angle_gamma 90.000000
_cell_volume 1231.904437
_symmetry_space_group_name_H-M "C C"
_symmetry_group_IT_number 9
_symmetry_cell_setting 'monoclinic'
loop_
_space_group_symop_operation_xyz
x,y,z
x,-y,1/2+z
1/2+x,1/2+y,z
1/2+x,1/2-y,1/2+z
loop_
_atom_site_type_symbol
_atom_site_label
_atom_site_fract_x
_atom_site_fract_y
_atom_site_fract_z
Si Si1 0.100880 0.112335 0.946870
Si Si2 0.304696 0.539167 0.127039
Si Si3 0.286437 0.985471 0.906854
Si Si4 0.548922 0.062919 0.796207
Si Si5 0.525855 0.402384 0.003245
Si Si6 0.613394 0.299068 0.367509
Si Si7 0.551126 0.689899 0.427831
Si Si8 0.591550 0.238660 0.648391
O O1 0.373286 0.098280 0.924445
O O2 0.090075 0.103084 0.716576
O O3 0.043929 0.158912 0.982605
O O4 0.915954 0.083755 0.114955
O O5 0.075556 0.529492 0.330085
O O6 0.537381 0.507615 0.072851
O O7 0.184914 0.543077 0.943920
O O8 0.369361 0.027186 0.761865
O O9 0.170725 0.941937 0.888201
O O10 0.742124 0.083630 0.599043
O O11 0.576333 0.358565 0.893144
O O12 0.599269 0.303632 0.142482
O O13 0.462866 0.263422 0.509994
O O14 0.895376 0.286662 0.325642
O O15 0.684514 0.723465 0.254937
O O16 0.270607 0.706114 0.499713
#
# Coordination Sequence:
#
# PCOD9135315 Si02
#       8
#     4   4   4   4   4   4   4   4
#     4   9  21  39  59  86 120 168 210 271 333 386
#     4  10  23  37  60  85 121 161 214 264 333 385
#     4  11  22  38  58  89 118 164 212 268 320 398
#     4  10  21  37  59  82 120 163 208 266 327 388
#     4  10  21  38  60  88 123 165 215 271 329 391
#     4  10  20  39  62  91 132 166 220 275 330 399
#     4  10  21  39  62  94 128 169 219 274 334 402
#     4  10  21  37  64  93 126 176 216 271 342 401
#
# _framework density 25.976042
#
# number of rings (size 3 to 8) (size 9 to 14) (size 15 to 20)
#    0.000    2.000    1.250    1.500    5.250    1.000 
#    0.000   10.000    0.000    0.000    0.000    0.000 
#    0.000    0.000    0.000    0.000    0.000    0.000 
#
# Total GULP energy -89125.197134 kJ/mol
# GULP energy per Si atom -5570.324821 kJ/mol
# Density = 2.591692 g / cm^3
# Si number density = 25.976042 Si / 1000 Ang^3
#
#
#
# Elastic Constant Matrix: (Units=GPa)
#
#
# Indices 1 2 3 4 5 6 
#
# 1 91.5384 51.4368 34.1480 0.0000 -20.5599 0.0000
# 2 51.4368 178.4925 16.0249 0.0000 9.4209 0.0000
# 3 34.1480 16.0249 103.1894 0.0000 -8.3732 0.0000
# 4 0.0000 0.0000 0.0000 26.8073 0.0000 3.5097
# 5 -20.5599 9.4209 -8.3732 0.0000 41.6752 0.0000
# 6 0.0000 0.0000 0.0000 3.5097 0.0000 24.0113
#
#
#
# Elastic Compliance Matrix: (Units=1/GPa)
#
#
# Indices 1 2 3 4 5 6 
#
# 1 0.017353 -0.005088 -0.004233 0.000000 0.008860 0.000000
# 2 -0.005088 0.007266 0.000222 0.000000 -0.004108 0.000000
# 3 -0.004233 0.000222 0.011064 0.000000 0.000084 0.000000
# 4 0.000000 0.000000 0.000000 0.038031 0.000000 -0.005559
# 5 0.008860 -0.004108 0.000084 0.000000 0.029312 0.000000
# 6 0.000000 0.000000 0.000000 -0.005559 0.000000 0.042460
#
#
# Mechanical properties :
#
#
# Convention : Reuss Voigt Hill
#
# Bulk Modulus (GPa) = 57.19560 64.04884 60.62222
# Shear Modulus (GPa) = 29.49645 36.60614 33.05130
#
# Velocity S-wave (km/s) = 3.37341 3.75804 3.57091
# Velocity P-wave (km/s) = 6.10243 6.59855 6.35533
#
# Compressibility (1/GPa) = 0.01748386
#
# Stress axis : x y z
#
# Youngs Moduli (GPa) = 57.62742 137.63408 90.38181
#
# Poissons Ratio (x) = 0.70031 0.38262
# Poissons Ratio (y) = 0.29322 -0.02008
# Poissons Ratio (z) = 0.24396 -0.03058
#
# Static dielectric constant tensor:
#      x y z
#    x 2.146040 0.000000 0.139540 
#    y 0.000000 2.028550 0.000000 
#    z 0.139540 0.000000 2.188380 
# 
# From -- ./inp_files/4486.got.cif
#   From: 2010.05.17/outbox.cif.g08.bks.cpg/sg9_3_cif.got.tgz:4486.got - 2010.06.03 20:04:27.
