data_PCOD9135265
_publ_section_title
;
Structure prediction by ZEFSAII (Michael W. Deem and Ramdas Pophale) SiO2 
 PCOD9135265
Probable space group: C C
;
_chemical_formula_sum "Si O2"
_cell_formula_units_Z 32
_cell_length_a 21.438771
_cell_length_b 9.931761
_cell_length_c 6.872038
_cell_angle_alpha 90.000000
_cell_angle_beta 67.853789
_cell_angle_gamma 90.000000
_cell_volume 1355.277243
_symmetry_space_group_name_H-M "C C"
_symmetry_group_IT_number 9
_symmetry_cell_setting 'monoclinic'
loop_
_space_group_symop_operation_xyz
x,y,z
x,-y,1/2+z
1/2+x,1/2+y,z
1/2+x,1/2-y,1/2+z
loop_
_atom_site_type_symbol
_atom_site_label
_atom_site_fract_x
_atom_site_fract_y
_atom_site_fract_z
Si Si1 0.395500 0.875866 0.942210
Si Si2 0.250665 0.160365 0.473295
Si Si3 0.629372 0.996303 0.380790
Si Si4 0.069239 0.722608 0.695659
Si Si5 0.931507 0.677835 0.004132
Si Si6 0.321008 0.270679 0.867239
Si Si7 0.695270 0.608343 0.118457
Si Si8 0.735849 0.969128 0.507993
O O1 0.373126 0.779930 0.142978
O O2 0.439281 0.805454 0.725316
O O3 0.324045 0.907147 0.917176
O O4 0.428358 0.016349 0.968679
O O5 0.218005 0.165272 0.299084
O O6 0.256656 0.315645 0.523041
O O7 0.201798 0.051091 0.628570
O O8 0.588102 0.131027 0.486813
O O9 0.715033 0.981577 0.276429
O O10 0.587074 0.866380 0.367789
O O11 0.649061 0.968015 0.607947
O O12 0.122337 0.842933 0.640285
O O13 0.990681 0.745662 0.811214
O O14 0.860210 0.735982 0.018757
O O15 0.253340 0.180086 0.920273
O O16 0.295735 0.422654 0.910375
#
# Coordination Sequence:
#
# PCOD9135265 Si02
#       8
#     4   4   4   4   4   4   4   4
#     4  12  23  39  74 104 141 191 238 299 358 426
#     4  12  23  40  69 105 134 180 234 304 365 423
#     4  10  20  38  66  99 132 182 224 291 358 417
#     4  11  24  42  67 103 147 185 237 297 357 438
#     4  12  24  44  68 106 151 193 239 292 359 441
#     4  12  23  44  67 108 142 181 243 298 360 429
#     4  12  23  41  69 104 137 175 239 309 355 422
#     4  11  22  40  66 103 140 173 232 304 366 420
#
# _framework density 23.611404
#
# number of rings (size 3 to 8) (size 9 to 14) (size 15 to 20)
#    0.000    0.500    7.500    2.250    1.750    0.000 
#    0.000    0.000    2.750    0.000    0.000    0.000 
#    0.000    0.000    0.000    0.000    0.000    0.000 
#
# Total GULP energy -89289.570856 kJ/mol
# GULP energy per Si atom -5580.598178 kJ/mol
# Density = 2.355766 g / cm^3
# Si number density = 23.611404 Si / 1000 Ang^3
#
#
#
# Elastic Constant Matrix: (Units=GPa)
#
#
# Indices 1 2 3 4 5 6 
#
# 1 77.4510 25.5180 25.7333 0.0000 -13.1754 0.0000
# 2 25.5180 138.7946 30.7605 0.0000 -8.2960 0.0000
# 3 25.7333 30.7605 121.4461 0.0000 0.3711 0.0000
# 4 0.0000 0.0000 0.0000 31.5152 0.0000 4.7488
# 5 -13.1754 -8.2960 0.3711 0.0000 41.8670 0.0000
# 6 0.0000 0.0000 0.0000 4.7488 0.0000 22.1938
#
#
#
# Elastic Compliance Matrix: (Units=1/GPa)
#
#
# Indices 1 2 3 4 5 6 
#
# 1 0.015212 -0.001923 -0.002750 0.000000 0.004431 0.000000
# 2 -0.001923 0.007976 -0.001616 0.000000 0.000990 0.000000
# 3 -0.002750 -0.001616 0.009230 0.000000 -0.001267 0.000000
# 4 0.000000 0.000000 0.000000 0.032788 0.000000 -0.007016
# 5 0.004431 0.000990 -0.001267 0.000000 0.025487 0.000000
# 6 0.000000 0.000000 0.000000 -0.007016 0.000000 0.046559
#
#
# Mechanical properties :
#
#
# Convention : Reuss Voigt Hill
#
# Bulk Modulus (GPa) = 50.40001 55.74615 53.07308
# Shear Modulus (GPa) = 31.96090 36.16054 34.06072
#
# Velocity S-wave (km/s) = 3.68315 3.91767 3.80222
# Velocity P-wave (km/s) = 6.28327 6.64268 6.46547
#
# Compressibility (1/GPa) = 0.01984127
#
# Stress axis : x y z
#
# Youngs Moduli (GPa) = 65.73679 125.38234 108.34344
#
# Poissons Ratio (x) = 0.24105 0.29793
# Poissons Ratio (y) = 0.12638 0.17506
# Poissons Ratio (z) = 0.18077 0.20259
#
# Static dielectric constant tensor:
#      x y z
#    x 1.933890 0.000000 0.126060 
#    y 0.000000 1.832400 0.000000 
#    z 0.126060 0.000000 2.264500 
# 
# From -- ./inp_files/12000.got.cif
#   From: 2010.05.17/outbox.cif.g08.bks.cpg/sg9_6_cif.got.tgz:12000.got - 2010.06.03 20:04:27.
