data_PCOD9135364
_publ_section_title
;
Structure prediction by ZEFSAII (Michael W. Deem and Ramdas Pophale) SiO2 
 PCOD9135364
Probable space group: C C
;
_chemical_formula_sum "Si O2"
_cell_formula_units_Z 28
_cell_length_a 12.418234
_cell_length_b 23.594314
_cell_length_c 7.958788
_cell_angle_alpha 90.000000
_cell_angle_beta 34.846112
_cell_angle_gamma 90.000000
_cell_volume 1332.400521
_symmetry_space_group_name_H-M "C C"
_symmetry_group_IT_number 9
_symmetry_cell_setting 'monoclinic'
loop_
_space_group_symop_operation_xyz
x,y,z
x,-y,1/2+z
1/2+x,1/2+y,z
1/2+x,1/2-y,1/2+z
loop_
_atom_site_type_symbol
_atom_site_label
_atom_site_fract_x
_atom_site_fract_y
_atom_site_fract_z
Si Si1 0.389790 0.827078 0.264950
Si Si2 0.702317 0.331531 0.139833
Si Si3 0.008900 0.445103 0.082768
Si Si4 0.491731 0.928354 0.710553
Si Si5 0.260958 0.342104 0.203802
Si Si6 0.800127 0.137672 0.273832
Si Si7 0.388964 0.233068 0.118707
O O1 0.286337 0.817059 0.219601
O O2 0.343973 0.788130 0.484157
O O3 0.373822 0.894989 0.329256
O O4 0.618574 0.824940 0.948926
O O5 0.485176 0.347373 0.436999
O O6 0.743545 0.283587 0.951166
O O7 0.816804 0.385603 0.920241
O O8 0.014758 0.435489 0.878261
O O9 0.217379 0.426157 0.873583
O O10 0.958817 0.509264 0.181862
O O11 0.676166 0.897812 0.397543
O O12 0.408379 0.300842 0.102900
O O13 0.078379 0.301292 0.418191
O O14 0.337816 0.352728 0.920801
#
# Coordination Sequence:
#
# PCOD9135364 Si02
#       7
#     4   4   4   4   4   4   4
#     4   8  20  42  62  90 125 170 203 259 323 370
#     4  10  21  41  64  94 126 160 218 257 317 379
#     4   9  19  38  65  88 124 163 211 259 321 374
#     4  10  20  39  67  88 128 168 205 268 325 370
#     4  10  22  40  60  89 129 168 210 261 320 377
#     4   9  20  41  63  91 125 163 213 255 317 380
#     4  10  22  41  61  92 129 168 214 261 315 374
#
# _framework density 21.014703000000001
#
# number of rings (size 3 to 8) (size 9 to 14) (size 15 to 20)
#    0.857    1.714    0.000    0.857    4.000    1.143 
#   10.286    5.714    0.000    0.000    0.000    0.000 
#    0.000    0.000    0.000    0.000    0.000    0.000 
#
# Total GULP energy -78012.065286 kJ/mol
# GULP energy per Si atom -5572.290378 kJ/mol
# Density = 2.096687 g / cm^3
# Si number density = 21.014703 Si / 1000 Ang^3
#
#
#
# Elastic Constant Matrix: (Units=GPa)
#
#
# Indices 1 2 3 4 5 6 
#
# 1 50.6133 17.9618 9.9471 0.0000 2.5066 0.0000
# 2 17.9618 82.2893 15.7741 0.0000 8.5749 0.0000
# 3 9.9471 15.7741 88.4685 0.0000 -1.6218 0.0000
# 4 0.0000 0.0000 0.0000 16.2644 0.0000 -1.2271
# 5 2.5066 8.5749 -1.6218 0.0000 16.0651 0.0000
# 6 0.0000 0.0000 0.0000 -1.2271 0.0000 24.4053
#
#
#
# Elastic Compliance Matrix: (Units=1/GPa)
#
#
# Indices 1 2 3 4 5 6 
#
# 1 0.021671 -0.004272 -0.001698 0.000000 -0.001272 0.000000
# 2 -0.004272 0.014251 -0.002192 0.000000 -0.007161 0.000000
# 3 -0.001698 -0.002192 0.011934 0.000000 0.002640 0.000000
# 4 0.000000 0.000000 0.000000 0.061718 0.000000 0.003103
# 5 -0.001272 -0.007161 0.002640 0.000000 0.066534 0.000000
# 6 0.000000 0.000000 0.000000 0.003103 0.000000 0.041131
#
#
# Mechanical properties :
#
#
# Convention : Reuss Voigt Hill
#
# Bulk Modulus (GPa) = 31.71488 34.30412 33.00950
# Shear Modulus (GPa) = 20.48568 23.19283 21.83925
#
# Velocity S-wave (km/s) = 3.12561 3.32572 3.22722
# Velocity P-wave (km/s) = 5.30570 5.57732 5.44321
#
# Compressibility (1/GPa) = 0.03153094
#
# Stress axis : x y z
#
# Youngs Moduli (GPa) = 46.14567 70.16975 83.79696
#
# Poissons Ratio (x) = 0.29977 0.14230
# Poissons Ratio (y) = 0.19714 0.18368
# Poissons Ratio (z) = 0.07836 0.15381
#
# Static dielectric constant tensor:
#      x y z
#    x 1.814000 0.000000 -0.031260 
#    y 0.000000 1.879460 0.000000 
#    z -0.031260 0.000000 1.754750 
# 
# From -- ./inp_files/10133.got.cif
#   From: 2010.05.17/outbox.cif.g08.bks.cpg/sg9_6_cif.got.tgz:10133.got - 2010.06.03 20:04:27.
