data_PCOD9135647
_publ_section_title
;
Structure prediction by ZEFSAII (Michael W. Deem and Ramdas Pophale) SiO2 
 PCOD9135647
Probable space group: C C
;
_chemical_formula_sum "Si O2"
_cell_formula_units_Z 24
_cell_length_a 11.866352
_cell_length_b 8.287443
_cell_length_c 9.745028
_cell_angle_alpha 90.000000
_cell_angle_beta 98.025420
_cell_angle_gamma 90.000000
_cell_volume 948.956981
_symmetry_space_group_name_H-M "C C"
_symmetry_group_IT_number 9
_symmetry_cell_setting 'monoclinic'
loop_
_space_group_symop_operation_xyz
x,y,z
x,-y,1/2+z
1/2+x,1/2+y,z
1/2+x,1/2-y,1/2+z
loop_
_atom_site_type_symbol
_atom_site_label
_atom_site_fract_x
_atom_site_fract_y
_atom_site_fract_z
Si Si1 0.806630 0.888529 0.795580
Si Si2 0.154552 0.814043 0.773017
Si Si3 0.972190 0.324281 0.458737
Si Si4 0.798794 0.157132 0.997842
Si Si5 0.535667 0.189714 0.508241
Si Si6 0.017396 0.879334 0.235957
O O1 0.758660 0.995628 0.911784
O O2 0.910567 0.012943 0.771607
O O3 0.854496 0.723648 0.866259
O O4 0.746380 0.848560 0.641443
O O5 0.266820 0.794752 0.881927
O O6 0.064564 0.732552 0.862433
O O7 0.141067 0.719545 0.628268
O O8 0.119759 0.995568 0.736259
O O9 0.992387 0.507551 0.502953
O O10 0.983112 0.209591 0.592143
O O11 0.933058 0.192046 0.044265
O O12 0.553106 0.251125 0.357321
#
# Coordination Sequence:
#
# PCOD9135647 Si02
#       6
#     4   4   4   4   4   4
#     4  10  20  42  66  90 127 167 208 257 325 376
#     4  11  23  41  63  91 127 170 215 258 318 378
#     4  11  21  41  67  91 127 167 212 268 317 374
#     4  11  23  42  66  93 126 169 211 259 321 384
#     4  11  23  42  63  94 127 164 219 262 315 380
#     4  10  20  42  67  87 124 173 207 262 320 370
#
# _framework density 25.290921999999998
#
# number of rings (size 3 to 8) (size 9 to 14) (size 15 to 20)
#    0.000    1.333    5.000    3.000    2.333    0.000 
#    6.000    0.000    0.000    0.000    0.000    0.000 
#    0.000    0.000    0.000    0.000    0.000    0.000 
#
# Total GULP energy -67157.196784 kJ/mol
# GULP energy per Si atom -5596.433065 kJ/mol
# Density = 2.523336 g / cm^3
# Si number density = 25.290922 Si / 1000 Ang^3
#
#
#
# Elastic Constant Matrix: (Units=GPa)
#
#
# Indices 1 2 3 4 5 6 
#
# 1 31.8671 7.6584 17.5450 0.0000 12.8698 0.0000
# 2 7.6584 151.4576 59.4794 0.0000 9.2376 0.0000
# 3 17.5450 59.4794 222.4931 0.0000 19.4115 0.0000
# 4 0.0000 0.0000 0.0000 46.1414 0.0000 4.7005
# 5 12.8698 9.2376 19.4115 0.0000 36.6459 0.0000
# 6 0.0000 0.0000 0.0000 4.7005 0.0000 30.7171
#
#
#
# Elastic Compliance Matrix: (Units=1/GPa)
#
#
# Indices 1 2 3 4 5 6 
#
# 1 0.037335 -0.000457 -0.001770 0.000000 -0.012059 0.000000
# 2 -0.000457 0.007408 -0.001882 0.000000 -0.000710 0.000000
# 3 -0.001770 -0.001882 0.005286 0.000000 -0.001704 0.000000
# 4 0.000000 0.000000 0.000000 0.022016 0.000000 -0.003369
# 5 -0.012059 -0.000710 -0.001704 0.000000 0.032605 0.000000
# 6 0.000000 0.000000 0.000000 -0.003369 0.000000 0.033071
#
#
# Mechanical properties :
#
#
# Convention : Reuss Voigt Hill
#
# Bulk Modulus (GPa) = 23.91777 63.90928 43.91352
# Shear Modulus (GPa) = 31.27428 44.10988 37.69208
#
# Velocity S-wave (km/s) = 3.52032 4.18077 3.86468
# Velocity P-wave (km/s) = 5.09913 6.97350 6.10863
#
# Compressibility (1/GPa) = 0.04180992
#
# Stress axis : x y z
#
# Youngs Moduli (GPa) = 26.78466 134.98585 189.17967
#
# Poissons Ratio (x) = 0.06173 0.33480
# Poissons Ratio (y) = 0.01225 0.35612
# Poissons Ratio (z) = 0.04740 0.25411
#
# Static dielectric constant tensor:
#      x y z
#    x 2.148160 0.000000 0.032350 
#    y 0.000000 1.972070 0.000000 
#    z 0.032350 0.000000 1.976350 
# 
# From -- ./inp_files/10338.got.cif
#   From: 2010.05.17/outbox.cif.g08.bks.cpg/sg9_6_cif.got.tgz:10338.got - 2010.06.03 20:04:27.
