data_PCOD9135436
_publ_section_title
;
Structure prediction by ZEFSAII (Michael W. Deem and Ramdas Pophale) SiO2 
 PCOD9135436
Probable space group: C C
;
_chemical_formula_sum "Si O2"
_cell_formula_units_Z 32
_cell_length_a 17.290743
_cell_length_b 7.919550
_cell_length_c 16.301214
_cell_angle_alpha 90.000000
_cell_angle_beta 33.416091
_cell_angle_gamma 90.000000
_cell_volume 1229.309267
_symmetry_space_group_name_H-M "C C"
_symmetry_group_IT_number 9
_symmetry_cell_setting 'monoclinic'
loop_
_space_group_symop_operation_xyz
x,y,z
x,-y,1/2+z
1/2+x,1/2+y,z
1/2+x,1/2-y,1/2+z
loop_
_atom_site_type_symbol
_atom_site_label
_atom_site_fract_x
_atom_site_fract_y
_atom_site_fract_z
Si Si1 0.824370 0.380077 0.493530
Si Si2 0.696691 0.064840 0.023124
Si Si3 0.327825 0.898636 0.750654
Si Si4 0.593031 0.972961 0.937594
Si Si5 0.044363 0.790918 0.682930
Si Si6 0.432686 0.802244 0.832552
Si Si7 0.553211 0.600646 0.989292
Si Si8 0.820930 0.884977 0.141421
O O1 0.658288 0.408923 0.626224
O O2 0.898811 0.563194 0.433763
O O3 0.837471 0.253610 0.557713
O O4 0.905270 0.273972 0.350551
O O5 0.593915 0.193353 0.162515
O O6 0.638184 0.881345 0.097683
O O7 0.853105 0.123820 0.907155
O O8 0.666949 0.059546 0.952003
O O9 0.358302 0.894142 0.819727
O O10 0.369934 0.717276 0.678429
O O11 0.431495 0.019412 0.608082
O O12 0.169268 0.954826 0.878096
O O13 0.625507 0.775975 0.899965
O O14 0.659678 0.065991 0.800756
O O15 0.015079 0.865292 0.618712
O O16 0.420564 0.546813 0.052273
#
# Coordination Sequence:
#
# PCOD9135436 Si02
#       8
#     4   4   4   4   4   4   4   4
#     4  11  26  44  69 102 146 196 236 304 379 434
#     4   9  20  36  66 100 133 176 236 297 345 429
#     4  11  22  39  67 103 138 186 245 298 357 445
#     4  10  22  40  67 102 143 183 245 303 365 432
#     4  10  24  44  71  99 142 190 245 294 371 442
#     4  10  20  40  64 103 135 179 238 293 352 437
#     4  11  24  43  73 105 138 191 250 306 361 447
#     4  12  26  42  73 106 147 191 245 309 378 438
#
# _framework density 26.030877
#
# number of rings (size 3 to 8) (size 9 to 14) (size 15 to 20)
#    0.000    1.500    2.500    2.250    8.750    1.000 
#    0.000    2.500    0.000    0.000    0.000    0.000 
#    0.000    0.000    0.000    0.000    0.000    0.000 
#
# Total GULP energy -89481.704791 kJ/mol
# GULP energy per Si atom -5592.606549 kJ/mol
# Density = 2.597163 g / cm^3
# Si number density = 26.030877 Si / 1000 Ang^3
#
#
#
# Elastic Constant Matrix: (Units=GPa)
#
#
# Indices 1 2 3 4 5 6 
#
# 1 60.5125 19.6065 25.6775 0.0000 -0.4696 0.0000
# 2 19.6065 93.8458 19.8800 0.0000 8.4765 0.0000
# 3 25.6775 19.8800 85.8031 0.0000 -12.9247 0.0000
# 4 0.0000 0.0000 0.0000 39.9556 0.0000 -4.1287
# 5 -0.4696 8.4765 -12.9247 0.0000 33.5138 0.0000
# 6 0.0000 0.0000 0.0000 -4.1287 0.0000 42.5699
#
#
#
# Elastic Compliance Matrix: (Units=1/GPa)
#
#
# Indices 1 2 3 4 5 6 
#
# 1 0.019744 -0.002883 -0.005403 0.000000 -0.001078 0.000000
# 2 -0.002883 0.012176 -0.002578 0.000000 -0.004114 0.000000
# 3 -0.005403 -0.002578 0.014816 0.000000 0.006290 0.000000
# 4 0.000000 0.000000 0.000000 0.025281 0.000000 0.002452
# 5 -0.001078 -0.004114 0.006290 0.000000 0.033290 0.000000
# 6 0.000000 0.000000 0.000000 0.002452 0.000000 0.023729
#
#
# Mechanical properties :
#
#
# Convention : Reuss Voigt Hill
#
# Bulk Modulus (GPa) = 39.98713 41.16550 40.57631
# Shear Modulus (GPa) = 31.42684 34.87435 33.15060
#
# Velocity S-wave (km/s) = 3.47838 3.66420 3.57250
# Velocity P-wave (km/s) = 5.61488 5.80950 5.71302
#
# Compressibility (1/GPa) = 0.02500805
#
# Stress axis : x y z
#
# Youngs Moduli (GPa) = 50.64850 82.12983 67.49316
#
# Poissons Ratio (x) = 0.23678 0.36466
# Poissons Ratio (y) = 0.14602 0.17400
# Poissons Ratio (z) = 0.27365 0.21173
#
# Static dielectric constant tensor:
#      x y z
#    x 2.079100 0.000000 0.030630 
#    y 0.000000 2.049180 0.000000 
#    z 0.030630 0.000000 2.001950 
# 
# From -- ./inp_files/31223.got.cif
#   From: 2010.05.17/outbox.cif.g08.bks.cpg/sg9_16_cif.got.tgz:31223.got - 2010.06.03 20:04:27.
