data_PCOD9135667
_publ_section_title
;
Structure prediction by ZEFSAII (Michael W. Deem and Ramdas Pophale) SiO2 
 PCOD9135667
Probable space group: C C
;
_chemical_formula_sum "Si O2"
_cell_formula_units_Z 28
_cell_length_a 5.640912
_cell_length_b 18.832544
_cell_length_c 10.917237
_cell_angle_alpha 90.000000
_cell_angle_beta 63.635201
_cell_angle_gamma 90.000000
_cell_volume 1039.134295
_symmetry_space_group_name_H-M "C C"
_symmetry_group_IT_number 9
_symmetry_cell_setting 'monoclinic'
loop_
_space_group_symop_operation_xyz
x,y,z
x,-y,1/2+z
1/2+x,1/2+y,z
1/2+x,1/2-y,1/2+z
loop_
_atom_site_type_symbol
_atom_site_label
_atom_site_fract_x
_atom_site_fract_y
_atom_site_fract_z
Si Si1 0.807790 0.190843 0.784910
Si Si2 0.087234 0.767233 0.640811
Si Si3 0.736387 0.416570 0.081349
Si Si4 0.913771 0.875645 0.501587
Si Si5 0.816822 0.962817 0.731389
Si Si6 0.420531 0.926807 0.288809
Si Si7 0.680680 0.164800 0.390801
O O1 0.771110 0.262528 0.717998
O O2 0.552771 0.147300 0.794070
O O3 0.053253 0.146721 0.676778
O O4 0.805330 0.182059 0.931257
O O5 0.105176 0.836773 0.554152
O O6 0.160289 0.705371 0.525830
O O7 0.789263 0.777729 0.766781
O O8 0.548485 0.485755 0.126471
O O9 0.952226 0.435224 0.136378
O O10 0.898389 0.375024 0.939324
O O11 0.108624 0.927615 0.383627
O O12 0.722196 0.918521 0.633303
O O13 0.871759 0.903800 0.822966
O O14 0.584019 0.015355 0.825215
#
# Coordination Sequence:
#
# PCOD9135667 Si02
#       7
#     4   4   4   4   4   4   4
#     4  10  22  45  71 102 143 204 241 313 368 436
#     4  11  24  48  73 102 152 196 253 301 366 453
#     4  10  22  43  74 106 145 196 251 308 374 441
#     4  10  23  43  71 106 146 193 251 303 373 445
#     4  10  23  42  71 110 143 193 244 308 382 443
#     4  10  20  42  68 102 146 185 245 314 361 443
#     4  11  24  47  74 106 151 197 245 313 368 443
#
# _framework density 26.945509000000001
#
# number of rings (size 3 to 8) (size 9 to 14) (size 15 to 20)
#    0.000    1.714    1.429    1.714    2.000    4.571 
#    7.714    1.429    0.000    0.000    0.000    0.000 
#    0.000    0.000    0.000    0.000    0.000    0.000 
#
# Total GULP energy -78058.102740 kJ/mol
# GULP energy per Si atom -5575.578767 kJ/mol
# Density = 2.688418 g / cm^3
# Si number density = 26.945509 Si / 1000 Ang^3
#
#
#
# Elastic Constant Matrix: (Units=GPa)
#
#
# Indices 1 2 3 4 5 6 
#
# 1 61.7432 17.2617 28.2014 0.0000 7.9725 0.0000
# 2 17.2617 111.5321 44.2725 0.0000 2.3036 0.0000
# 3 28.2014 44.2725 173.7261 0.0000 -7.9590 0.0000
# 4 0.0000 0.0000 0.0000 51.1356 0.0000 2.4273
# 5 7.9725 2.3036 -7.9590 0.0000 33.0205 0.0000
# 6 0.0000 0.0000 0.0000 2.4273 0.0000 34.7156
#
#
#
# Elastic Compliance Matrix: (Units=1/GPa)
#
#
# Indices 1 2 3 4 5 6 
#
# 1 0.018604 -0.001651 -0.002831 0.000000 -0.005059 0.000000
# 2 -0.001651 0.010179 -0.002366 0.000000 -0.000882 0.000000
# 3 -0.002831 -0.002366 0.006934 0.000000 0.002520 0.000000
# 4 0.000000 0.000000 0.000000 0.019621 0.000000 -0.001372
# 5 -0.005059 -0.000882 0.002520 0.000000 0.032175 0.000000
# 6 0.000000 0.000000 0.000000 -0.001372 0.000000 0.028901
#
#
# Mechanical properties :
#
#
# Convention : Reuss Voigt Hill
#
# Bulk Modulus (GPa) = 45.41259 58.49698 51.95478
# Shear Modulus (GPa) = 36.37644 40.92540 38.65092
#
# Velocity S-wave (km/s) = 3.67822 3.90143 3.79147
# Velocity P-wave (km/s) = 5.91009 6.48470 6.20405
#
# Compressibility (1/GPa) = 0.02202033
#
# Stress axis : x y z
#
# Youngs Moduli (GPa) = 53.75180 98.24022 144.21118
#
# Poissons Ratio (x) = 0.16220 0.40827
# Poissons Ratio (y) = 0.08875 0.34127
# Poissons Ratio (z) = 0.15217 0.23248
#
# Static dielectric constant tensor:
#      x y z
#    x 2.159540 0.000000 0.000320 
#    y 0.000000 2.275690 0.000000 
#    z 0.000320 0.000000 2.246640 
# 
# From -- ./inp_files/13433.got.cif
#   From: 2010.05.17/outbox.cif.g08.bks.cpg/sg9_7_cif.got.tgz:13433.got - 2010.06.03 20:04:27.
