data_PCOD9135016
_publ_section_title
;
Structure prediction by ZEFSAII (Michael W. Deem and Ramdas Pophale) SiO2 
 PCOD9135016
Probable space group: C C
;
_chemical_formula_sum "Si O2"
_cell_formula_units_Z 20
_cell_length_a 14.867035
_cell_length_b 9.897178
_cell_length_c 5.540562
_cell_angle_alpha 90.000000
_cell_angle_beta 112.752412
_cell_angle_gamma 90.000000
_cell_volume 751.808917
_symmetry_space_group_name_H-M "C C"
_symmetry_group_IT_number 9
_symmetry_cell_setting 'monoclinic'
loop_
_space_group_symop_operation_xyz
x,y,z
x,-y,1/2+z
1/2+x,1/2+y,z
1/2+x,1/2-y,1/2+z
loop_
_atom_site_type_symbol
_atom_site_label
_atom_site_fract_x
_atom_site_fract_y
_atom_site_fract_z
Si Si1 0.370970 0.456774 0.610380
Si Si2 0.386040 0.836134 0.971796
Si Si3 0.012759 0.806537 0.259583
Si Si4 0.662997 0.424164 0.755322
Si Si5 0.568580 0.959973 0.645511
O O1 0.322682 0.488172 0.302615
O O2 0.389653 0.296625 0.647282
O O3 0.470836 0.544911 0.664452
O O4 0.416718 0.771066 0.750093
O O5 0.276200 0.885006 0.855373
O O6 0.466358 0.954591 0.084307
O O7 0.087712 0.815781 0.564579
O O8 0.057842 0.701766 0.119859
O O9 0.651310 0.536515 0.525907
O O10 0.616499 0.011693 0.452530
#
# Coordination Sequence:
#
# PCOD9135016 Si02
#       5
#     4   4   4   4   4
#     4  10  20  36  61  89 122 164 210 259 316 378
#     4  10  22  42  66  96 131 174 219 271 328 392
#     4  10  22  42  66  96 131 174 219 271 328 392
#     4  12  26  44  68 100 134 176 224 270 328 404
#     4  10  20  36  61  89 122 164 210 259 316 378
#
# _framework density 26.602504
#
# number of rings (size 3 to 8) (size 9 to 14) (size 15 to 20)
#    0.000    1.600    0.000    6.000    0.000    6.400 
#    0.000    8.000    0.000    2.400    0.000    0.000 
#    0.000    0.000    0.000    0.000    0.000    0.000 
#
# Total GULP energy -55773.631126 kJ/mol
# GULP energy per Si atom -5577.363113 kJ/mol
# Density = 2.654196 g / cm^3
# Si number density = 26.602504 Si / 1000 Ang^3
#
#
#
# Elastic Constant Matrix: (Units=GPa)
#
#
# Indices 1 2 3 4 5 6 
#
# 1 60.4872 15.8244 48.0639 0.0000 14.3825 0.0000
# 2 15.8244 142.7736 74.2224 0.0000 15.0926 0.0000
# 3 48.0639 74.2224 151.0464 0.0000 -17.9291 0.0000
# 4 0.0000 0.0000 0.0000 58.1723 0.0000 -11.9634
# 5 14.3825 15.0926 -17.9291 0.0000 52.5700 0.0000
# 6 0.0000 0.0000 0.0000 -11.9634 0.0000 25.3050
#
#
#
# Elastic Compliance Matrix: (Units=1/GPa)
#
#
# Indices 1 2 3 4 5 6 
#
# 1 0.029379 0.005355 -0.013670 0.000000 -0.014238 0.000000
# 2 0.005355 0.011505 -0.008258 0.000000 -0.007585 0.000000
# 3 -0.013670 -0.008258 0.016418 0.000000 0.011710 0.000000
# 4 0.000000 0.000000 0.000000 0.019042 0.000000 0.009002
# 5 -0.014238 -0.007585 0.011710 0.000000 0.029089 0.000000
# 6 0.000000 0.000000 0.000000 0.009002 0.000000 0.043774
#
#
# Mechanical properties :
#
#
# Convention : Reuss Voigt Hill
#
# Bulk Modulus (GPa) = 41.39546 70.05872 55.72709
# Shear Modulus (GPa) = 26.25978 41.62255 33.94116
#
# Velocity S-wave (km/s) = 3.14525 3.95981 3.57580
# Velocity P-wave (km/s) = 5.36513 6.87745 6.16782
#
# Compressibility (1/GPa) = 0.02415724
#
# Stress axis : x y z
#
# Youngs Moduli (GPa) = 34.03762 86.91648 60.90764
#
# Poissons Ratio (x) = -0.46547 0.83262
# Poissons Ratio (y) = -0.18228 0.50297
# Poissons Ratio (z) = 0.46530 0.71775
#
# Static dielectric constant tensor:
#      x y z
#    x 2.034000 0.000000 -0.003310 
#    y 0.000000 2.164160 0.000000 
#    z -0.003310 0.000000 2.175900 
# 
# From -- ./inp_files/2292.got.cif
#   From: 2010.05.17/outbox.cif.g08.bks.cpg/sg9_2_cif.got.tgz:2292.got - 2010.06.03 20:04:27.
