data_PCOD9135124
_publ_section_title
;
Structure prediction by ZEFSAII (Michael W. Deem and Ramdas Pophale) SiO2 
 PCOD9135124
Probable space group: C C
;
_chemical_formula_sum "Si O2"
_cell_formula_units_Z 24
_cell_length_a 6.920080
_cell_length_b 17.644096
_cell_length_c 9.165754
_cell_angle_alpha 90.000000
_cell_angle_beta 69.608965
_cell_angle_gamma 90.000000
_cell_volume 1048.997038
_symmetry_space_group_name_H-M "C C"
_symmetry_group_IT_number 9
_symmetry_cell_setting 'monoclinic'
loop_
_space_group_symop_operation_xyz
x,y,z
x,-y,1/2+z
1/2+x,1/2+y,z
1/2+x,1/2-y,1/2+z
loop_
_atom_site_type_symbol
_atom_site_label
_atom_site_fract_x
_atom_site_fract_y
_atom_site_fract_z
Si Si1 0.235050 0.360980 0.538520
Si Si2 0.063174 0.498736 0.272054
Si Si3 0.606409 0.544566 0.915743
Si Si4 0.767006 0.076525 0.488609
Si Si5 0.392747 0.278171 0.769064
Si Si6 0.288569 0.831134 0.535241
O O1 0.162190 0.431144 0.658959
O O2 0.434583 0.395137 0.401406
O O3 0.309283 0.295281 0.629001
O O4 0.025359 0.336688 0.517524
O O5 0.118765 0.524892 0.421564
O O6 0.826591 0.481811 0.299542
O O7 0.170935 0.424510 0.175110
O O8 0.479577 0.467691 0.954358
O O9 0.675395 0.587649 0.046661
O O10 0.812582 0.154920 0.397148
O O11 0.303720 0.204258 0.869293
O O12 0.640163 0.284292 0.682279
#
# Coordination Sequence:
#
# PCOD9135124 Si02
#       6
#     4   4   4   4   4   4
#     4   9  21  42  64  91 133 167 208 270 325 382
#     4  10  20  37  65  93 126 162 217 271 327 380
#     4  10  20  37  63  92 122 166 214 262 320 379
#     4  10  22  40  62  96 130 166 216 274 325 390
#     4  10  24  42  64  93 132 170 220 262 327 391
#     4  11  23  42  66  91 133 175 211 269 326 390
#
# _framework density 22.878993999999999
#
# number of rings (size 3 to 8) (size 9 to 14) (size 15 to 20)
#    0.000    2.000    0.000    4.000    2.333    6.667 
#    3.000    0.000    0.000    0.000    0.000    0.000 
#    0.000    0.000    0.000    0.000    0.000    0.000 
#
# Total GULP energy -66828.054259 kJ/mol
# GULP energy per Si atom -5569.004522 kJ/mol
# Density = 2.282692 g / cm^3
# Si number density = 22.878994 Si / 1000 Ang^3
#
#
#
# Elastic Constant Matrix: (Units=GPa)
#
#
# Indices 1 2 3 4 5 6 
#
# 1 157.6543 24.7078 23.6683 0.0000 -25.2967 0.0000
# 2 24.7078 37.8754 10.5086 0.0000 5.0257 0.0000
# 3 23.6683 10.5086 34.3438 0.0000 -8.1257 0.0000
# 4 0.0000 0.0000 0.0000 35.5043 0.0000 -1.6577
# 5 -25.2967 5.0257 -8.1257 0.0000 35.9869 0.0000
# 6 0.0000 0.0000 0.0000 -1.6577 0.0000 23.2384
#
#
#
# Elastic Compliance Matrix: (Units=1/GPa)
#
#
# Indices 1 2 3 4 5 6 
#
# 1 0.008655 -0.005719 -0.002732 0.000000 0.006266 0.000000
# 2 -0.005719 0.034079 -0.009047 0.000000 -0.010822 0.000000
# 3 -0.002732 -0.009047 0.035510 0.000000 0.007361 0.000000
# 4 0.000000 0.000000 0.000000 0.028260 0.000000 0.002016
# 5 0.006266 -0.010822 0.007361 0.000000 0.035366 0.000000
# 6 0.000000 0.000000 0.000000 0.002016 0.000000 0.043176
#
#
# Mechanical properties :
#
#
# Convention : Reuss Voigt Hill
#
# Bulk Modulus (GPa) = 23.12253 38.62699 30.87476
# Shear Modulus (GPa) = 21.32582 30.34519 25.83550
#
# Velocity S-wave (km/s) = 3.05637 3.64584 3.36404
# Velocity P-wave (km/s) = 4.75221 5.88580 5.34912
#
# Compressibility (1/GPa) = 0.04324786
#
# Stress axis : x y z
#
# Youngs Moduli (GPa) = 115.54194 29.34332 28.16117
#
# Poissons Ratio (x) = 0.16782 0.07694
# Poissons Ratio (y) = 0.66082 0.25476
# Poissons Ratio (z) = 0.31568 0.26546
#
# Static dielectric constant tensor:
#      x y z
#    x 1.878540 0.000000 0.003260 
#    y 0.000000 1.886810 0.000000 
#    z 0.003260 0.000000 1.896160 
# 
# From -- ./inp_files/3754.got.cif
#   From: 2010.05.17/outbox.cif.g08.bks.cpg/sg9_2_cif.got.tgz:3754.got - 2010.06.03 20:04:27.
