data_PCOD9135896
_publ_section_title
;
Structure prediction by ZEFSAII (Michael W. Deem and Ramdas Pophale) SiO2 
 PCOD9135896
Probable space group: C C
;
_chemical_formula_sum "Si O2"
_cell_formula_units_Z 28
_cell_length_a 11.142897
_cell_length_b 9.530940
_cell_length_c 9.763388
_cell_angle_alpha 90.000000
_cell_angle_beta 71.903095
_cell_angle_gamma 90.000000
_cell_volume 985.601547
_symmetry_space_group_name_H-M "C C"
_symmetry_group_IT_number 9
_symmetry_cell_setting 'monoclinic'
loop_
_space_group_symop_operation_xyz
x,y,z
x,-y,1/2+z
1/2+x,1/2+y,z
1/2+x,1/2-y,1/2+z
loop_
_atom_site_type_symbol
_atom_site_label
_atom_site_fract_x
_atom_site_fract_y
_atom_site_fract_z
Si Si1 0.875000 0.370427 0.476540
Si Si2 0.831316 0.403422 0.827973
Si Si3 0.279824 0.380636 0.616275
Si Si4 0.418685 0.096577 0.625106
Si Si5 0.470178 0.380637 0.336802
Si Si6 0.165558 0.678718 0.425773
Si Si7 0.584442 0.678718 0.527305
O O1 0.890720 0.423254 0.302374
O O2 0.756963 0.267025 0.490135
O O3 0.874998 0.559925 0.476541
O O4 0.993037 0.267023 0.462943
O O5 0.879150 0.243231 0.816404
O O6 0.859283 0.423252 0.650704
O O7 0.679916 0.409229 0.899858
O O8 0.370854 0.256770 0.636674
O O9 0.375000 0.461207 0.476539
O O10 0.219591 0.422773 0.784707
O O11 0.168130 0.297650 0.576451
O O12 0.570085 0.090769 0.553217
O O13 0.581872 0.297651 0.376626
O O14 0.530409 0.422774 0.168370
#
# Coordination Sequence:
#
# PCOD9135896 Si02
#       7
#     4   4   4   4   4   4   4
#     4  12  22  38  70  98 132 174 222 278 326 390
#     4  11  21  40  67  98 131 182 220 265 342 394
#     4   9  18  38  63  90 131 179 215 265 333 385
#     4  11  21  40  67  98 131 182 220 265 342 394
#     4   9  18  38  63  90 131 179 215 265 333 385
#     4  10  21  36  65  99 130 170 226 274 323 397
#     4  10  21  36  65  99 130 170 226 274 323 397
#
# _framework density 28.409044999999999
#
# number of rings (size 3 to 8) (size 9 to 14) (size 15 to 20)
#    0.000    1.714    7.143    0.000    0.000    1.143 
#    0.000    0.000    9.429    8.571    0.000    0.000 
#    0.000    0.000    0.000    0.000    0.000    0.000 
#
# Total GULP energy -78133.815827 kJ/mol
# GULP energy per Si atom -5580.986845 kJ/mol
# Density = 2.834438 g / cm^3
# Si number density = 28.409045 Si / 1000 Ang^3
#
#
#
# Elastic Constant Matrix: (Units=GPa)
#
#
# Indices 1 2 3 4 5 6 
#
# 1 125.9053 25.4706 76.4303 0.0000 -17.7076 0.0000
# 2 25.4706 79.2323 63.4250 0.0000 -6.0572 0.0000
# 3 76.4303 63.4250 264.6321 0.0000 -22.6878 0.0000
# 4 0.0000 0.0000 0.0000 51.6187 0.0000 -8.9926
# 5 -17.7076 -6.0572 -22.6878 0.0000 55.0951 0.0000
# 6 0.0000 0.0000 0.0000 -8.9926 0.0000 -114.1488
#
#
#
# Elastic Compliance Matrix: (Units=1/GPa)
#
#
# Indices 1 2 3 4 5 6 
#
# 1 0.009929 -0.001089 -0.002429 0.000000 0.002071 0.000000
# 2 -0.001089 0.015739 -0.003461 0.000000 -0.000045 0.000000
# 3 -0.002429 -0.003461 0.005401 0.000000 0.001063 0.000000
# 4 0.000000 0.000000 0.000000 0.019111 0.000000 -0.001506
# 5 0.002071 -0.000045 0.001063 0.000000 0.019249 0.000000
# 6 0.000000 0.000000 0.000000 -0.001506 0.000000 -0.008642
#
#
# Mechanical properties :
#
#
# Convention : Reuss Voigt Hill
#
# Bulk Modulus (GPa) = 58.44730 88.93572 73.69151
# Shear Modulus (GPa) = 62.15215 18.80926 40.48071
#
# Velocity S-wave (km/s) = 4.68242 2.57590 3.77891
# Velocity P-wave (km/s) = 7.06057 6.34195 6.71089
#
# Compressibility (1/GPa) = 0.01710943
#
# Stress axis : x y z
#
# Youngs Moduli (GPa) = 100.71950 63.53803 185.14744
#
# Poissons Ratio (x) = 0.06919 0.44972
# Poissons Ratio (y) = 0.10968 0.64088
# Poissons Ratio (z) = 0.24465 0.21993
#
# Static dielectric constant tensor:
#      x y z
#    x 2.211810 0.000000 -0.096220 
#    y 0.000000 2.114460 0.000000 
#    z -0.096220 0.000000 2.357820 
# 
# From -- ./inp_files/16116.got.cif
#   From: 2010.05.17/outbox.cif.g08.bks.cpg/sg9_9_cif.got.tgz:16116.got - 2010.06.03 20:04:27.
