data_PCOD9135609
_publ_section_title
;
Structure prediction by ZEFSAII (Michael W. Deem and Ramdas Pophale) SiO2 
 PCOD9135609
Probable space group: C C
;
_chemical_formula_sum "Si O2"
_cell_formula_units_Z 24
_cell_length_a 19.205545
_cell_length_b 6.532598
_cell_length_c 10.356995
_cell_angle_alpha 90.000000
_cell_angle_beta 44.713783
_cell_angle_gamma 90.000000
_cell_volume 914.220545
_symmetry_space_group_name_H-M "C C"
_symmetry_group_IT_number 9
_symmetry_cell_setting 'monoclinic'
loop_
_space_group_symop_operation_xyz
x,y,z
x,-y,1/2+z
1/2+x,1/2+y,z
1/2+x,1/2-y,1/2+z
loop_
_atom_site_type_symbol
_atom_site_label
_atom_site_fract_x
_atom_site_fract_y
_atom_site_fract_z
Si Si1 0.093690 0.342558 0.355640
Si Si2 0.925308 0.003923 0.660064
Si Si3 0.354184 0.875544 0.853811
Si Si4 0.749578 0.554205 0.235377
Si Si5 0.006464 0.727520 0.356987
Si Si6 0.587544 0.386835 0.616243
O O1 0.192195 0.272860 0.300816
O O2 0.114157 0.285982 0.180123
O O3 0.054604 0.571591 0.394689
O O4 0.005494 0.182900 0.512655
O O5 0.920782 0.861753 0.541404
O O6 0.978695 0.870851 0.699419
O O7 0.840503 0.132044 0.841829
O O8 0.284690 0.986347 0.048682
O O9 0.332887 0.955217 0.737087
O O10 0.457013 0.883270 0.799180
O O11 0.665380 0.405340 0.400142
O O12 0.081980 0.895721 0.200651
#
# Coordination Sequence:
#
# PCOD9135609 Si02
#       6
#     4   4   4   4   4   4
#     4  10  20  41  72  99 139 192 249 303 358 443
#     4   9  21  41  69 102 142 190 247 296 363 450
#     4  11  23  43  73 110 155 193 242 316 383 438
#     4  11  22  42  71 110 153 192 240 312 383 439
#     4  10  22  43  73 105 138 199 256 296 364 461
#     4   9  20  40  68  98 139 188 246 301 357 445
#
# _framework density 26.251871999999999
#
# number of rings (size 3 to 8) (size 9 to 14) (size 15 to 20)
#    0.000    2.000    1.667    1.000    0.000    5.333 
#    3.000    5.000    0.000    0.000    0.000    0.000 
#    0.000    0.000    0.000    0.000    0.000    0.000 
#
# Total GULP energy -66977.545157 kJ/mol
# GULP energy per Si atom -5581.462096 kJ/mol
# Density = 2.619212 g / cm^3
# Si number density = 26.251872 Si / 1000 Ang^3
#
#
#
# Elastic Constant Matrix: (Units=GPa)
#
#
# Indices 1 2 3 4 5 6 
#
# 1 142.8438 41.3191 31.7579 0.0000 22.9749 0.0000
# 2 41.3191 106.4524 43.7918 0.0000 7.0876 0.0000
# 3 31.7579 43.7918 64.3634 0.0000 17.7192 0.0000
# 4 0.0000 0.0000 0.0000 34.9585 0.0000 7.4569
# 5 22.9749 7.0876 17.7192 0.0000 39.1492 0.0000
# 6 0.0000 0.0000 0.0000 7.4569 0.0000 37.1617
#
#
#
# Elastic Compliance Matrix: (Units=1/GPa)
#
#
# Indices 1 2 3 4 5 6 
#
# 1 0.008694 -0.002493 -0.001500 0.000000 -0.003972 0.000000
# 2 -0.002493 0.013884 -0.009055 0.000000 0.003048 0.000000
# 3 -0.001500 -0.009055 0.024839 0.000000 -0.008723 0.000000
# 4 0.000000 0.000000 0.000000 0.029884 0.000000 -0.005997
# 5 -0.003972 0.003048 -0.008723 0.000000 0.031270 0.000000
# 6 0.000000 0.000000 0.000000 -0.005997 0.000000 0.028113
#
#
# Mechanical properties :
#
#
# Convention : Reuss Voigt Hill
#
# Bulk Modulus (GPa) = 46.90354 60.82190 53.86272
# Shear Modulus (GPa) = 29.43110 35.37328 32.40219
#
# Velocity S-wave (km/s) = 3.35192 3.67476 3.51704
# Velocity P-wave (km/s) = 5.73464 6.42059 6.08728
#
# Compressibility (1/GPa) = 0.02132035
#
# Stress axis : x y z
#
# Youngs Moduli (GPa) = 115.01987 72.02700 40.25867
#
# Poissons Ratio (x) = 0.17957 0.06039
# Poissons Ratio (y) = 0.28675 0.36455
# Poissons Ratio (z) = 0.17255 0.65222
#
# Static dielectric constant tensor:
#      x y z
#    x 2.088470 0.000000 -0.031210 
#    y 0.000000 2.135520 0.000000 
#    z -0.031210 0.000000 2.157020 
# 
# From -- ./inp_files/20534.got.cif
#   From: 2010.05.17/outbox.cif.g08.bks.cpg/sg9_11_cif.got.tgz:20534.got - 2010.06.03 20:04:27.
