data_PCOD9135724
_publ_section_title
;
Structure prediction by ZEFSAII (Michael W. Deem and Ramdas Pophale) SiO2 
 PCOD9135724
Probable space group: C C
;
_chemical_formula_sum "Si O2"
_cell_formula_units_Z 28
_cell_length_a 14.465063
_cell_length_b 6.923637
_cell_length_c 13.639768
_cell_angle_alpha 90.000000
_cell_angle_beta 111.955267
_cell_angle_gamma 90.000000
_cell_volume 1266.964082
_symmetry_space_group_name_H-M "C C"
_symmetry_group_IT_number 9
_symmetry_cell_setting 'monoclinic'
loop_
_space_group_symop_operation_xyz
x,y,z
x,-y,1/2+z
1/2+x,1/2+y,z
1/2+x,1/2-y,1/2+z
loop_
_atom_site_type_symbol
_atom_site_label
_atom_site_fract_x
_atom_site_fract_y
_atom_site_fract_z
Si Si1 0.810050 0.534548 0.321000
Si Si2 0.127495 0.975501 0.609604
Si Si3 0.017694 0.642103 0.450832
Si Si4 0.627215 0.941636 0.321838
Si Si5 0.922911 0.348481 0.201909
Si Si6 0.533468 0.851346 0.629829
Si Si7 0.260105 0.167695 0.493118
O O1 0.713940 0.592802 0.218948
O O2 0.860473 0.365685 0.276307
O O3 0.779723 0.498504 0.421271
O O4 0.904343 0.679123 0.371758
O O5 0.066237 0.805213 0.536110
O O6 0.053213 0.127078 0.630931
O O7 0.184281 0.093306 0.545506
O O8 0.084532 0.593993 0.383668
O O9 0.017095 0.449794 0.518403
O O10 0.535628 0.787544 0.269152
O O11 0.631527 0.052789 0.220636
O O12 0.717271 0.835334 0.407719
O O13 0.857204 0.259954 0.090288
O O14 0.945968 0.564376 0.164969
#
# Coordination Sequence:
#
# PCOD9135724 Si02
#       7
#     4   4   4   4   4   4   4
#     4  10  21  38  61  91 128 160 206 268 309 368
#     4  11  25  38  68  97 119 173 218 256 321 389
#     4  11  21  44  62  89 133 163 210 268 319 375
#     4   9  20  37  66  87 127 169 199 264 319 366
#     4   8  20  36  63  88 126 167 205 264 312 371
#     4  10  20  43  65  90 127 166 213 263 315 378
#     4  11  19  38  65  92 122 170 209 253 327 371
#
# _framework density 22.100075
#
# number of rings (size 3 to 8) (size 9 to 14) (size 15 to 20)
#    0.857    1.143    2.857    0.857    2.000    0.000 
#    0.000    7.143    0.000    0.000    0.000    0.000 
#    0.000    0.000    0.000    0.000    0.000    0.000 
#
# Total GULP energy -77969.121586 kJ/mol
# GULP energy per Si atom -5569.222970 kJ/mol
# Density = 2.204977 g / cm^3
# Si number density = 22.100075 Si / 1000 Ang^3
#
#
#
# Elastic Constant Matrix: (Units=GPa)
#
#
# Indices 1 2 3 4 5 6 
#
# 1 56.7382 13.8985 15.7560 0.0000 16.7358 0.0000
# 2 13.8985 46.5299 19.0336 0.0000 26.3883 0.0000
# 3 15.7560 19.0336 120.5898 0.0000 27.5955 0.0000
# 4 0.0000 0.0000 0.0000 26.1427 0.0000 0.6642
# 5 16.7358 26.3883 27.5955 0.0000 55.8810 0.0000
# 6 0.0000 0.0000 0.0000 0.6642 0.0000 15.6720
#
#
#
# Elastic Compliance Matrix: (Units=1/GPa)
#
#
# Indices 1 2 3 4 5 6 
#
# 1 0.019889 -0.003287 -0.001208 0.000000 -0.003807 0.000000
# 2 -0.003287 0.030189 -0.001464 0.000000 -0.012548 0.000000
# 3 -0.001208 -0.001464 0.009516 0.000000 -0.003646 0.000000
# 4 0.000000 0.000000 0.000000 0.038293 0.000000 -0.001623
# 5 -0.003807 -0.012548 -0.003646 0.000000 0.026762 0.000000
# 6 0.000000 0.000000 0.000000 -0.001623 0.000000 0.063877
#
#
# Mechanical properties :
#
#
# Convention : Reuss Voigt Hill
#
# Bulk Modulus (GPa) = 20.97563 35.69268 28.33415
# Shear Modulus (GPa) = 23.11229 31.21713 27.16471
#
# Velocity S-wave (km/s) = 3.23739 3.76245 3.50975
# Velocity P-wave (km/s) = 4.84625 5.92117 5.41047
#
# Compressibility (1/GPa) = 0.04767437
#
# Stress axis : x y z
#
# Youngs Moduli (GPa) = 50.27992 33.12490 105.08767
#
# Poissons Ratio (x) = 0.10888 0.12700
# Poissons Ratio (y) = 0.16527 0.15384
# Poissons Ratio (z) = 0.06076 0.04849
#
# Static dielectric constant tensor:
#      x y z
#    x 1.881580 0.000000 0.002460 
#    y 0.000000 1.826390 0.000000 
#    z 0.002460 0.000000 1.834960 
# 
# From -- ./inp_files/18108.got.cif
#   From: 2010.05.17/outbox.cif.g08.bks.cpg/sg9_10_cif.got.tgz:18108.got - 2010.06.03 20:04:27.
