data_PCOD9135252
_publ_section_title
;
Structure prediction by ZEFSAII (Michael W. Deem and Ramdas Pophale) SiO2 
 PCOD9135252
Probable space group: C C
;
_chemical_formula_sum "Si O2"
_cell_formula_units_Z 32
_cell_length_a 15.088123
_cell_length_b 11.096188
_cell_length_c 13.591259
_cell_angle_alpha 90.000000
_cell_angle_beta 36.348945
_cell_angle_gamma 90.000000
_cell_volume 1348.666855
_symmetry_space_group_name_H-M "C C"
_symmetry_group_IT_number 9
_symmetry_cell_setting 'monoclinic'
loop_
_space_group_symop_operation_xyz
x,y,z
x,-y,1/2+z
1/2+x,1/2+y,z
1/2+x,1/2-y,1/2+z
loop_
_atom_site_type_symbol
_atom_site_label
_atom_site_fract_x
_atom_site_fract_y
_atom_site_fract_z
Si Si1 0.300100 0.312674 0.052960
Si Si2 0.339788 0.967398 0.482836
Si Si3 0.149363 0.062443 0.492032
Si Si4 0.127093 0.099625 0.820954
Si Si5 0.843584 0.952983 0.819868
Si Si6 0.549019 0.989622 0.960547
Si Si7 0.062008 0.257784 0.434375
Si Si8 0.892309 0.240969 0.119656
O O1 0.166979 0.299192 0.250349
O O2 0.328698 0.177284 0.984366
O O3 0.287728 0.409765 0.977177
O O4 0.445000 0.335344 0.991605
O O5 0.295474 0.033626 0.423576
O O6 0.202950 0.011352 0.675465
O O7 0.493107 0.013370 0.395951
O O8 0.146186 0.193231 0.446729
O O9 0.148746 0.966813 0.404710
O O10 0.990411 0.037656 0.689869
O O11 0.229765 0.218786 0.731191
O O12 0.962079 0.153931 0.973936
O O13 0.713149 0.998963 0.862346
O O14 0.893029 0.830630 0.720507
O O15 0.479963 0.121495 0.045971
O O16 0.480944 0.865184 0.058961
#
# Coordination Sequence:
#
# PCOD9135252 Si02
#       8
#     4   4   4   4   4   4   4   4
#     4  11  23  42  71 106 136 184 244 295 352 436
#     4  10  22  42  69 104 136 189 236 285 368 437
#     4  11  23  43  73 102 142 192 235 295 373 433
#     4  10  20  39  68  95 138 173 237 290 353 416
#     4  11  23  40  75 106 135 180 251 299 347 424
#     4  10  23  43  65 103 140 183 233 298 354 423
#     4  11  24  45  68  99 151 184 230 303 368 431
#     4  10  20  38  65  97 132 177 226 295 347 408
#
# _framework density 23.727135000000001
#
# number of rings (size 3 to 8) (size 9 to 14) (size 15 to 20)
#    0.000    1.500    2.500    2.250    3.500    0.000 
#    2.250    6.250    0.000    0.000    0.000    0.000 
#    0.000    0.000    0.000    0.000    0.000    0.000 
#
# Total GULP energy -89256.738579 kJ/mol
# GULP energy per Si atom -5578.546161 kJ/mol
# Density = 2.367313 g / cm^3
# Si number density = 23.727135 Si / 1000 Ang^3
#
#
#
# Elastic Constant Matrix: (Units=GPa)
#
#
# Indices 1 2 3 4 5 6 
#
# 1 118.9759 32.5075 12.5853 0.0000 -8.8705 0.0000
# 2 32.5075 78.0524 13.8248 0.0000 6.5388 0.0000
# 3 12.5853 13.8248 77.0657 0.0000 4.0216 0.0000
# 4 0.0000 0.0000 0.0000 21.6956 0.0000 -0.1318
# 5 -8.8705 6.5388 4.0216 0.0000 25.3378 0.0000
# 6 0.0000 0.0000 0.0000 -0.1318 0.0000 34.7782
#
#
#
# Elastic Compliance Matrix: (Units=1/GPa)
#
#
# Indices 1 2 3 4 5 6 
#
# 1 0.010089 -0.004411 -0.001109 0.000000 0.004847 0.000000
# 2 -0.004411 0.015401 -0.001769 0.000000 -0.005238 0.000000
# 3 -0.001109 -0.001769 0.013583 0.000000 -0.002088 0.000000
# 4 0.000000 0.000000 0.000000 0.046093 0.000000 0.000175
# 5 0.004847 -0.005238 -0.002088 0.000000 0.042847 0.000000
# 6 0.000000 0.000000 0.000000 0.000175 0.000000 0.028754
#
#
# Mechanical properties :
#
#
# Convention : Reuss Voigt Hill
#
# Bulk Modulus (GPa) = 40.82566 43.54769 42.18668
# Shear Modulus (GPa) = 27.85326 30.70743 29.28035
#
# Velocity S-wave (km/s) = 3.42994 3.60139 3.51671
# Velocity P-wave (km/s) = 5.73844 5.97384 5.85732
#
# Compressibility (1/GPa) = 0.02449440
#
# Stress axis : x y z
#
# Youngs Moduli (GPa) = 99.11719 64.92925 73.61941
#
# Poissons Ratio (x) = 0.28643 0.08165
# Poissons Ratio (y) = 0.43725 0.13024
# Poissons Ratio (z) = 0.10993 0.11487
#
# Static dielectric constant tensor:
#      x y z
#    x 1.923000 0.000000 -0.011160 
#    y 0.000000 1.922550 0.000000 
#    z -0.011160 0.000000 2.010390 
# 
# From -- ./inp_files/25905.got.cif
#   From: 2010.05.17/outbox.cif.g08.bks.cpg/sg9_13_cif.got.tgz:25905.got - 2010.06.03 20:04:27.
