data_PCOD9135130
_publ_section_title
;
Structure prediction by ZEFSAII (Michael W. Deem and Ramdas Pophale) SiO2 
 PCOD9135130
Probable space group: C C
;
_chemical_formula_sum "Si O2"
_cell_formula_units_Z 32
_cell_length_a 7.447387
_cell_length_b 16.888203
_cell_length_c 12.699024
_cell_angle_alpha 90.000000
_cell_angle_beta 104.692172
_cell_angle_gamma 90.000000
_cell_volume 1544.969742
_symmetry_space_group_name_H-M "C C"
_symmetry_group_IT_number 9
_symmetry_cell_setting 'monoclinic'
loop_
_space_group_symop_operation_xyz
x,y,z
x,-y,1/2+z
1/2+x,1/2+y,z
1/2+x,1/2-y,1/2+z
loop_
_atom_site_type_symbol
_atom_site_label
_atom_site_fract_x
_atom_site_fract_y
_atom_site_fract_z
Si Si1 0.357970 0.449847 0.012820
Si Si2 0.016608 0.749634 0.518589
Si Si3 0.790756 0.386360 0.620264
Si Si4 0.547926 0.119596 0.349318
Si Si5 0.867649 0.456315 0.410822
Si Si6 0.707633 0.539561 0.683664
Si Si7 0.251030 0.617274 0.917227
Si Si8 0.603875 0.897062 0.169625
O O1 0.557796 0.422536 0.084017
O O2 0.220437 0.438790 0.093461
O O3 0.262408 0.402984 0.902282
O O4 0.359228 0.539862 0.973770
O O5 0.190928 0.807273 0.567050
O O6 0.020307 0.699054 0.411686
O O7 0.023948 0.684329 0.610815
O O8 0.840734 0.806414 0.482444
O O9 0.814534 0.441665 0.521841
O O10 0.669499 0.445032 0.675763
O O11 0.972405 0.372143 0.719652
O O12 0.438783 0.044593 0.388457
O O13 0.705393 0.434598 0.304813
O O14 0.040123 0.397723 0.419998
O O15 0.922277 0.555554 0.682734
O O16 0.237221 0.618239 0.788677
#
# Coordination Sequence:
#
# PCOD9135130 Si02
#       8
#     4   4   4   4   4   4   4   4
#     4  10  20  37  64  88 111 155 207 237 285 353
#     4  11  21  37  59  86 119 162 189 235 306 353
#     4  11  20  38  62  88 120 152 197 249 288 346
#     4   9  21  39  59  84 121 155 193 239 300 346
#     4   9  21  39  63  84 116 155 199 249 286 344
#     4  10  20  38  64  90 111 156 207 238 289 350
#     4  10  20  39  60  88 118 154 200 239 297 349
#     4  10  23  41  61  84 126 155 188 254 293 341
#
# _framework density 20.71238
#
# number of rings (size 3 to 8) (size 9 to 14) (size 15 to 20)
#    0.000    2.000    1.250    3.750    1.750    0.000 
#    4.500    1.250    5.500    0.000    0.000    0.000 
#    0.000    0.000    0.000    0.000    0.000    0.000 
#
# Total GULP energy -89154.662339 kJ/mol
# GULP energy per Si atom -5572.166396 kJ/mol
# Density = 2.066524 g / cm^3
# Si number density = 20.712380 Si / 1000 Ang^3
#
#
#
# Elastic Constant Matrix: (Units=GPa)
#
#
# Indices 1 2 3 4 5 6 
#
# 1 51.3814 18.4515 40.0755 0.0000 26.5182 0.0000
# 2 18.4515 109.8544 45.5634 0.0000 8.3407 0.0000
# 3 40.0755 45.5634 167.4365 0.0000 34.0801 0.0000
# 4 0.0000 0.0000 0.0000 29.6869 0.0000 2.2439
# 5 26.5182 8.3407 34.0801 0.0000 38.6781 0.0000
# 6 0.0000 0.0000 0.0000 2.2439 0.0000 13.0475
#
#
#
# Elastic Compliance Matrix: (Units=1/GPa)
#
#
# Indices 1 2 3 4 5 6 
#
# 1 0.032790 -0.002721 -0.003231 0.000000 -0.019048 0.000000
# 2 -0.002721 0.010490 -0.002586 0.000000 0.001883 0.000000
# 3 -0.003231 -0.002586 0.008390 0.000000 -0.004620 0.000000
# 4 0.000000 0.000000 0.000000 0.034129 0.000000 -0.005869
# 5 -0.019048 0.001883 -0.004620 0.000000 0.042578 0.000000
# 6 0.000000 0.000000 0.000000 -0.005869 0.000000 0.077652
#
#
# Mechanical properties :
#
#
# Convention : Reuss Voigt Hill
#
# Bulk Modulus (GPa) = 28.90774 59.65036 44.27905
# Shear Modulus (GPa) = 21.30958 31.25463 26.28211
#
# Velocity S-wave (km/s) = 3.21102 3.88878 3.56604
# Velocity P-wave (km/s) = 5.26636 7.00181 6.19516
#
# Compressibility (1/GPa) = 0.03459281
#
# Stress axis : x y z
#
# Youngs Moduli (GPa) = 30.49710 95.33037 119.19281
#
# Poissons Ratio (x) = 0.25943 0.38507
# Poissons Ratio (y) = 0.08299 0.30828
# Poissons Ratio (z) = 0.09853 0.24656
#
# Static dielectric constant tensor:
#      x y z
#    x 1.788890 0.000000 0.007500 
#    y 0.000000 1.761770 0.000000 
#    z 0.007500 0.000000 1.817460 
# 
# From -- ./inp_files/14773.got.cif
#   From: 2010.05.17/outbox.cif.g08.bks.cpg/sg9_8_cif.got.tgz:14773.got - 2010.06.03 20:04:27.
