data_PCOD9135094
_publ_section_title
;
Structure prediction by ZEFSAII (Michael W. Deem and Ramdas Pophale) SiO2 
 PCOD9135094
Probable space group: C C
;
_chemical_formula_sum "Si O2"
_cell_formula_units_Z 32
_cell_length_a 16.346718
_cell_length_b 7.207132
_cell_length_c 11.681715
_cell_angle_alpha 90.000000
_cell_angle_beta 112.006635
_cell_angle_gamma 90.000000
_cell_volume 1275.983890
_symmetry_space_group_name_H-M "C C"
_symmetry_group_IT_number 9
_symmetry_cell_setting 'monoclinic'
loop_
_space_group_symop_operation_xyz
x,y,z
x,-y,1/2+z
1/2+x,1/2+y,z
1/2+x,1/2-y,1/2+z
loop_
_atom_site_type_symbol
_atom_site_label
_atom_site_fract_x
_atom_site_fract_y
_atom_site_fract_z
Si Si1 0.169700 0.325972 0.920730
Si Si2 0.858343 0.135380 0.628782
Si Si3 0.986268 0.874021 0.999359
Si Si4 0.521455 0.860550 0.290613
Si Si5 0.573278 0.140411 0.571766
Si Si6 0.665900 0.261378 0.166074
Si Si7 0.341120 0.790151 0.114278
Si Si8 0.391755 0.237683 0.396398
O O1 0.187269 0.227837 0.810988
O O2 0.097625 0.487429 0.856332
O O3 0.264379 0.378466 0.018046
O O4 0.123153 0.233275 0.005319
O O5 0.927077 0.213367 0.571110
O O6 0.854810 0.238496 0.749417
O O7 0.877986 0.917534 0.659749
O O8 0.006927 0.767779 0.892408
O O9 0.934583 0.060911 0.943510
O O10 0.082164 0.888453 0.103399
O O11 0.557000 0.778302 0.188726
O O12 0.421683 0.917157 0.200782
O O13 0.476486 0.106176 0.464194
O O14 0.630048 0.949910 0.619060
O O15 0.750401 0.308881 0.134465
O O16 0.328168 0.805722 0.970249
#
# Coordination Sequence:
#
# PCOD9135094 Si02
#       8
#     4   4   4   4   4   4   4   4
#     4  11  22  37  64  96 123 162 214 262 304 379
#     4  11  21  35  61  93 122 163 214 251 303 380
#     4  11  21  38  62  89 125 168 210 257 314 374
#     4  10  20  37  60  93 124 158 210 266 314 362
#     4  10  21  38  61  90 125 163 207 262 310 370
#     4  11  22  38  67  93 123 168 212 258 313 375
#     4  10  20  37  62  93 121 163 209 262 306 378
#     4  10  23  38  63  91 129 163 206 262 316 370
#
# _framework density 25.078686999999999
#
# number of rings (size 3 to 8) (size 9 to 14) (size 15 to 20)
#    0.000    1.500    3.750    1.500    1.750    1.000 
#    0.000    0.000   11.000    1.500    0.000    0.000 
#    0.000    0.000    0.000    0.000    0.000    0.000 
#
# Total GULP energy -89347.393171 kJ/mol
# GULP energy per Si atom -5584.212073 kJ/mol
# Density = 2.502161 g / cm^3
# Si number density = 25.078687 Si / 1000 Ang^3
#
#
#
# Elastic Constant Matrix: (Units=GPa)
#
#
# Indices 1 2 3 4 5 6 
#
# 1 225.9775 29.5222 96.2094 0.0000 -30.5010 0.0000
# 2 29.5222 60.8482 38.3346 0.0000 -0.9946 0.0000
# 3 96.2094 38.3346 198.4768 0.0000 -11.8392 0.0000
# 4 0.0000 0.0000 0.0000 19.0856 0.0000 -1.4495
# 5 -30.5010 -0.9946 -11.8392 0.0000 42.2028 0.0000
# 6 0.0000 0.0000 0.0000 -1.4495 0.0000 24.4679
#
#
#
# Elastic Compliance Matrix: (Units=1/GPa)
#
#
# Indices 1 2 3 4 5 6 
#
# 1 0.006173 -0.001354 -0.002509 0.000000 0.003726 0.000000
# 2 -0.001354 0.019022 -0.003101 0.000000 -0.001400 0.000000
# 3 -0.002509 -0.003101 0.006856 0.000000 0.000037 0.000000
# 4 0.000000 0.000000 0.000000 0.052632 0.000000 0.003118
# 5 0.003726 -0.001400 0.000037 0.000000 0.026365 0.000000
# 6 0.000000 0.000000 0.000000 0.003118 0.000000 0.041055
#
#
# Mechanical properties :
#
#
# Convention : Reuss Voigt Hill
#
# Bulk Modulus (GPa) = 55.17711 90.38167 72.77939
# Shear Modulus (GPa) = 29.05779 38.56703 33.81241
#
# Velocity S-wave (km/s) = 3.40761 3.92579 3.67584
# Velocity P-wave (km/s) = 6.12632 7.52772 6.86288
#
# Compressibility (1/GPa) = 0.01812346
#
# Stress axis : x y z
#
# Youngs Moduli (GPa) = 161.99685 52.57049 145.86620
#
# Poissons Ratio (x) = 0.07116 0.36592
# Poissons Ratio (y) = 0.21929 0.45238
# Poissons Ratio (z) = 0.40638 0.16304
#
# Static dielectric constant tensor:
#      x y z
#    x 1.974810 0.000000 -0.031170 
#    y 0.000000 2.140920 0.000000 
#    z -0.031170 0.000000 2.021920 
# 
# From -- ./inp_files/17961.got.cif
#   From: 2010.05.17/outbox.cif.g08.bks.cpg/sg9_9_cif.got.tgz:17961.got - 2010.06.03 20:04:27.
