data_PCOD9135050
_publ_section_title
;
Structure prediction by ZEFSAII (Michael W. Deem and Ramdas Pophale) SiO2 
 PCOD9135050
Probable space group: C C
;
_chemical_formula_sum "Si O2"
_cell_formula_units_Z 32
_cell_length_a 15.879039
_cell_length_b 11.336419
_cell_length_c 9.412100
_cell_angle_alpha 90.000000
_cell_angle_beta 49.698570
_cell_angle_gamma 90.000000
_cell_volume 1292.150670
_symmetry_space_group_name_H-M "C C"
_symmetry_group_IT_number 9
_symmetry_cell_setting 'monoclinic'
loop_
_space_group_symop_operation_xyz
x,y,z
x,-y,1/2+z
1/2+x,1/2+y,z
1/2+x,1/2-y,1/2+z
loop_
_atom_site_type_symbol
_atom_site_label
_atom_site_fract_x
_atom_site_fract_y
_atom_site_fract_z
Si Si1 0.423130 0.833441 0.450270
Si Si2 0.536065 0.413743 0.480768
Si Si3 0.203550 0.399747 0.661728
Si Si4 0.910542 0.055681 0.392846
Si Si5 0.345384 0.168747 0.482421
Si Si6 0.058795 0.299860 0.568839
Si Si7 0.502196 0.865413 0.053675
Si Si8 0.719664 0.418650 0.855239
O O1 0.416539 0.691736 0.433180
O O2 0.516244 0.853310 0.467878
O O3 0.461634 0.885648 0.257313
O O4 0.307365 0.876645 0.641334
O O5 0.501566 0.477088 0.374349
O O6 0.443235 0.454615 0.693518
O O7 0.526035 0.273592 0.497915
O O8 0.656558 0.459835 0.393649
O O9 0.290805 0.503157 0.551317
O O10 0.271501 0.278417 0.612583
O O11 0.134671 0.375672 0.592480
O O12 0.117709 0.419966 0.881521
O O13 0.445594 0.221638 0.278786
O O14 0.404427 0.105563 0.549910
O O15 0.277490 0.088943 0.446266
O O16 0.124578 0.180988 0.464152
#
# Coordination Sequence:
#
# PCOD9135050 Si02
#       8
#     4   4   4   4   4   4   4   4
#     4  10  22  39  61  98 133 165 217 278 328 374
#     4  11  23  40  62 102 132 164 220 278 315 389
#     4  10  20  36  66  90 130 183 213 259 330 394
#     4  11  23  40  62 102 132 164 220 278 315 389
#     4   9  18  34  59  92 125 171 218 253 319 397
#     4   9  18  34  59  92 125 171 218 253 319 397
#     4  10  22  39  61  98 133 165 217 278 328 374
#     4  10  20  36  66  90 130 183 213 259 330 394
#
# _framework density 24.764914999999998
#
# number of rings (size 3 to 8) (size 9 to 14) (size 15 to 20)
#    0.000    2.000    2.500    0.750    7.000    1.000 
#    0.000    0.000    0.000    9.000    0.000    0.000 
#    0.000    0.000    0.000    0.000    0.000    0.000 
#
# Total GULP energy -89743.386805 kJ/mol
# GULP energy per Si atom -5608.961675 kJ/mol
# Density = 2.470855 g / cm^3
# Si number density = 24.764915 Si / 1000 Ang^3
#
#
#
# Elastic Constant Matrix: (Units=GPa)
#
#
# Indices 1 2 3 4 5 6 
#
# 1 110.0786 13.6031 63.5925 0.0000 -18.2000 0.0000
# 2 13.6031 84.0620 28.9807 0.0000 -16.8450 0.0000
# 3 63.5925 28.9807 134.7284 0.0000 0.0059 0.0000
# 4 0.0000 0.0000 0.0000 22.9023 0.0000 -12.4300
# 5 -18.2000 -16.8450 0.0059 0.0000 43.2544 0.0000
# 6 0.0000 0.0000 0.0000 -12.4300 0.0000 46.4104
#
#
#
# Elastic Compliance Matrix: (Units=1/GPa)
#
#
# Indices 1 2 3 4 5 6 
#
# 1 0.013951 0.001403 -0.006887 0.000000 0.006417 0.000000
# 2 0.001403 0.014173 -0.003711 0.000000 0.006110 0.000000
# 3 -0.006887 -0.003711 0.011471 0.000000 -0.004344 0.000000
# 4 0.000000 0.000000 0.000000 0.051090 0.000000 0.013683
# 5 0.006417 0.006110 -0.004344 0.000000 0.028199 0.000000
# 6 0.000000 0.000000 0.000000 0.013683 0.000000 0.025212
#
#
# Mechanical properties :
#
#
# Convention : Reuss Voigt Hill
#
# Bulk Modulus (GPa) = 47.15969 60.13573 53.64771
# Shear Modulus (GPa) = 29.48915 37.35962 33.42439
#
# Velocity S-wave (km/s) = 3.45449 3.88825 3.67777
# Velocity P-wave (km/s) = 5.91571 6.67033 6.30432
#
# Compressibility (1/GPa) = 0.02120455
#
# Stress axis : x y z
#
# Youngs Moduli (GPa) = 71.68192 70.55790 87.17385
#
# Poissons Ratio (x) = -0.09897 0.60034
# Poissons Ratio (y) = -0.10054 0.32350
# Poissons Ratio (z) = 0.49365 0.26184
#
# Static dielectric constant tensor:
#      x y z
#    x 1.927940 0.000000 0.009340 
#    y 0.000000 1.973430 0.000000 
#    z 0.009340 0.000000 1.925010 
# 
# From -- ./inp_files/9674.got.cif
#   From: 2010.05.17/outbox.cif.g08.bks.cpg/sg9_5_cif.got.tgz:9674.got - 2010.06.03 20:04:27.
