data_PCOD9135533
_publ_section_title
;
Structure prediction by ZEFSAII (Michael W. Deem and Ramdas Pophale) SiO2 
 PCOD9135533
Probable space group: C C
;
_chemical_formula_sum "Si O2"
_cell_formula_units_Z 24
_cell_length_a 7.526738
_cell_length_b 11.768538
_cell_length_c 13.994391
_cell_angle_alpha 90.000000
_cell_angle_beta 119.395547
_cell_angle_gamma 90.000000
_cell_volume 1080.008281
_symmetry_space_group_name_H-M "C C"
_symmetry_group_IT_number 9
_symmetry_cell_setting 'monoclinic'
loop_
_space_group_symop_operation_xyz
x,y,z
x,-y,1/2+z
1/2+x,1/2+y,z
1/2+x,1/2-y,1/2+z
loop_
_atom_site_type_symbol
_atom_site_label
_atom_site_fract_x
_atom_site_fract_y
_atom_site_fract_z
Si Si1 0.140540 0.677387 0.275800
Si Si2 0.486590 0.957576 0.018125
Si Si3 0.364742 0.583091 0.153166
Si Si4 0.680158 0.752975 0.153835
Si Si5 0.690401 0.581279 0.812424
Si Si6 0.529467 0.061391 0.745906
O O1 0.279047 0.659333 0.217957
O O2 0.200239 0.789043 0.352089
O O3 0.138900 0.550205 0.318252
O O4 0.905651 0.710726 0.191424
O O5 0.668859 0.044094 0.041635
O O6 0.578179 0.831035 0.044761
O O7 0.447372 0.977928 0.120268
O O8 0.289616 0.987471 0.906935
O O9 0.531569 0.649131 0.137344
O O10 0.472663 0.469553 0.223694
O O11 0.665585 0.831665 0.247498
O O12 0.838973 0.588086 0.760768
#
# Coordination Sequence:
#
# PCOD9135533 Si02
#       6
#     4   4   4   4   4   4
#     4  11  19  39  67  83 128 169 199 258 318 362
#     4   9  23  41  60  97 121 161 219 246 316 378
#     4  11  22  40  65  90 131 165 201 269 312 362
#     4  10  20  41  62  87 128 165 204 259 310 369
#     4  12  21  41  67  92 124 168 212 258 313 381
#     4   9  21  40  59  91 124 162 203 260 311 362
#
# _framework density 22.222052000000001
#
# number of rings (size 3 to 8) (size 9 to 14) (size 15 to 20)
#    1.000    0.667    5.000    0.000    0.000    1.333 
#    6.000    5.000    0.000    0.000    0.000    0.000 
#    0.000    0.000    0.000    0.000    0.000    0.000 
#
# Total GULP energy -66821.181379 kJ/mol
# GULP energy per Si atom -5568.431782 kJ/mol
# Density = 2.217147 g / cm^3
# Si number density = 22.222052 Si / 1000 Ang^3
#
#
#
# Elastic Constant Matrix: (Units=GPa)
#
#
# Indices 1 2 3 4 5 6 
#
# 1 88.1377 10.9022 4.2099 0.0000 1.0447 0.0000
# 2 10.9022 96.7965 -7.0004 0.0000 -5.9973 0.0000
# 3 4.2099 -7.0004 29.8897 0.0000 3.4285 0.0000
# 4 0.0000 0.0000 0.0000 7.8194 0.0000 -4.4512
# 5 1.0447 -5.9973 3.4285 0.0000 16.5898 0.0000
# 6 0.0000 0.0000 0.0000 -4.4512 0.0000 37.9340
#
#
#
# Elastic Compliance Matrix: (Units=1/GPa)
#
#
# Indices 1 2 3 4 5 6 
#
# 1 0.011632 -0.001502 -0.001889 0.000000 -0.000885 0.000000
# 2 -0.001502 0.010890 0.002355 0.000000 0.003545 0.000000
# 3 -0.001889 0.002355 0.034992 0.000000 -0.006261 0.000000
# 4 0.000000 0.000000 0.000000 0.137042 0.000000 0.016081
# 5 -0.000885 0.003545 -0.006261 0.000000 0.062909 0.000000
# 6 0.000000 0.000000 0.000000 0.016081 0.000000 0.028248
#
#
# Mechanical properties :
#
#
# Convention : Reuss Voigt Hill
#
# Bulk Modulus (GPa) = 18.03582 25.67192 21.85387
# Shear Modulus (GPa) = 16.32575 26.24946 21.28760
#
# Velocity S-wave (km/s) = 2.71341 3.44064 3.09843
# Velocity P-wave (km/s) = 4.23681 5.23082 4.75984
#
# Compressibility (1/GPa) = 0.05544522
#
# Stress axis : x y z
#
# Youngs Moduli (GPa) = 85.96744 91.82701 28.57781
#
# Poissons Ratio (x) = 0.13788 0.05397
# Poissons Ratio (y) = 0.12909 -0.06731
# Poissons Ratio (z) = 0.16235 -0.21629
#
# Static dielectric constant tensor:
#      x y z
#    x 1.818400 0.000000 -0.028720 
#    y 0.000000 1.931570 0.000000 
#    z -0.028720 0.000000 1.803350 
# 
# From -- ./inp_files/14176.got.cif
#   From: 2010.05.17/outbox.cif.g08.bks.cpg/sg9_8_cif.got.tgz:14176.got - 2010.06.03 20:04:27.
