data_PCOD9135477
_publ_section_title
;
Structure prediction by ZEFSAII (Michael W. Deem and Ramdas Pophale) SiO2 
 PCOD9135477
Probable space group: C C
;
_chemical_formula_sum "Si O2"
_cell_formula_units_Z 32
_cell_length_a 17.114265
_cell_length_b 7.016365
_cell_length_c 27.641599
_cell_angle_alpha 90.000000
_cell_angle_beta 23.033340
_cell_angle_gamma 90.000000
_cell_volume 1298.692920
_symmetry_space_group_name_H-M "C C"
_symmetry_group_IT_number 9
_symmetry_cell_setting 'monoclinic'
loop_
_space_group_symop_operation_xyz
x,y,z
x,-y,1/2+z
1/2+x,1/2+y,z
1/2+x,1/2-y,1/2+z
loop_
_atom_site_type_symbol
_atom_site_label
_atom_site_fract_x
_atom_site_fract_y
_atom_site_fract_z
Si Si1 0.145210 0.116129 0.453760
Si Si2 0.988569 0.634109 0.320153
Si Si3 0.916476 0.925409 0.249672
Si Si4 0.233502 0.041900 0.638326
Si Si5 0.680209 0.093998 0.050091
Si Si6 0.509117 0.478934 0.927501
Si Si7 0.848370 0.359149 0.674425
Si Si8 0.109156 0.412029 0.854756
O O1 0.334506 0.020902 0.373141
O O2 0.246292 0.309490 0.375306
O O3 0.040339 0.026108 0.466969
O O4 0.975857 0.173884 0.587893
O O5 0.847996 0.805742 0.421224
O O6 0.163132 0.741884 0.191573
O O7 0.069548 0.530303 0.321568
O O8 0.048365 0.040336 0.213107
O O9 0.065928 0.765453 0.142846
O O10 0.811345 0.040518 0.267463
O O11 0.424998 0.029724 0.494675
O O12 0.276243 0.944426 0.664980
O O13 0.510031 0.011976 0.111807
O O14 0.793436 0.964935 0.024985
O O15 0.662516 0.330471 0.815967
O O16 0.592090 0.682751 0.863362
#
# Coordination Sequence:
#
# PCOD9135477 Si02
#       8
#     4   4   4   4   4   4   4   4
#     4  10  22  39  68  94 128 176 223 270 335 395
#     4   9  20  39  62  93 125 175 210 268 336 386
#     4  11  21  39  66  90 133 172 219 272 333 388
#     4  11  20  39  64  91 129 178 218 257 338 396
#     4  10  20  40  67  87 129 179 210 269 338 388
#     4  11  22  44  68  97 134 177 223 272 336 394
#     4  11  21  40  67  96 128 177 222 264 336 400
#     4  11  22  40  66  96 130 176 221 272 328 401
#
# _framework density 24.640159000000001
#
# number of rings (size 3 to 8) (size 9 to 14) (size 15 to 20)
#    0.000    1.500    7.500    0.000    0.000    0.000 
#    6.750    1.250    2.750    0.000    0.000    0.000 
#    0.000    0.000    0.000    0.000    0.000    0.000 
#
# Total GULP energy -89402.294472 kJ/mol
# GULP energy per Si atom -5587.643405 kJ/mol
# Density = 2.458408 g / cm^3
# Si number density = 24.640159 Si / 1000 Ang^3
#
#
#
# Elastic Constant Matrix: (Units=GPa)
#
#
# Indices 1 2 3 4 5 6 
#
# 1 278.7929 28.3701 69.9758 -0.0139 -44.7955 0.0345
# 2 28.3701 16.7563 13.2502 -0.0186 -11.6797 0.0236
# 3 69.9758 13.2502 116.4288 -0.0162 -12.1087 0.0040
# 4 -0.0139 -0.0186 -0.0162 31.4034 0.0034 -4.3913
# 5 -44.7955 -11.6797 -12.1087 0.0034 57.9978 -0.0100
# 6 0.0345 0.0236 0.0040 -4.3913 -0.0100 44.8175
#
#
#
# Elastic Compliance Matrix: (Units=1/GPa)
#
#
# Indices 1 2 3 4 5 6 
#
# 1 0.005048 -0.005129 -0.002200 -0.000002 0.002406 -0.000001
# 2 -0.005129 0.079962 -0.004860 0.000037 0.011127 -0.000032
# 3 -0.002200 -0.004860 0.010412 0.000002 -0.000504 0.000003
# 4 -0.000002 0.000037 0.000002 0.032286 0.000005 0.003163
# 5 0.002406 0.011127 -0.000504 0.000005 0.021236 -0.000002
# 6 -0.000001 -0.000032 0.000003 0.003163 -0.000002 0.022623
#
#
# Mechanical properties :
#
#
# Convention : Reuss Voigt Hill
#
# Bulk Modulus (GPa) = 14.07591 70.57448 42.32519
# Shear Modulus (GPa) = 22.76595 46.86918 34.81757
#
# Velocity S-wave (km/s) = 3.04293 4.36609 3.76312
# Velocity P-wave (km/s) = 4.25099 7.35671 6.00800
#
# Compressibility (1/GPa) = 0.07104338
#
# Stress axis : x y z
#
# Youngs Moduli (GPa) = 198.11302 12.50587 96.04587
#
# Poissons Ratio (x) = 0.06415 0.21127
# Poissons Ratio (y) = 1.01619 0.46680
# Poissons Ratio (z) = 0.43579 0.06078
#
# Static dielectric constant tensor:
#      x y z
#    x 2.037460 0.000000 -0.025860 
#    y 0.000000 2.036840 0.000010 
#    z -0.025860 0.000010 1.992180 
# 
# From -- ./inp_files/26693.got.cif
#   From: 2010.05.17/outbox.cif.g08.bks.cpg/sg9_14_cif.got.tgz:26693.got - 2010.06.03 20:04:27.
