data_PCOD9135920
_publ_section_title
;
Structure prediction by ZEFSAII (Michael W. Deem and Ramdas Pophale) SiO2 
 PCOD9135920
Probable space group: C C
;
_chemical_formula_sum "Si O2"
_cell_formula_units_Z 32
_cell_length_a 7.442595
_cell_length_b 11.594535
_cell_length_c 15.200741
_cell_angle_alpha 90.000000
_cell_angle_beta 77.613969
_cell_angle_gamma 90.000000
_cell_volume 1281.193154
_symmetry_space_group_name_H-M "C C"
_symmetry_group_IT_number 9
_symmetry_cell_setting 'monoclinic'
loop_
_space_group_symop_operation_xyz
x,y,z
x,-y,1/2+z
1/2+x,1/2+y,z
1/2+x,1/2-y,1/2+z
loop_
_atom_site_type_symbol
_atom_site_label
_atom_site_fract_x
_atom_site_fract_y
_atom_site_fract_z
Si Si1 0.975460 0.562618 0.770040
Si Si2 0.874044 0.757312 0.034119
Si Si3 0.052128 0.872038 0.339741
Si Si4 0.975548 0.617668 0.413015
Si Si5 0.505942 0.451958 0.152847
Si Si6 0.442849 0.011378 0.083641
Si Si7 0.067907 0.105588 0.384540
Si Si8 0.061316 0.184710 0.191861
O O1 0.764112 0.589215 0.816074
O O2 0.049921 0.483571 0.840975
O O3 0.005149 0.492859 0.677021
O O4 0.032679 0.689755 0.735213
O O5 0.982404 0.638069 0.041269
O O6 0.680681 0.715326 0.093337
O O7 0.932207 0.867526 0.086329
O O8 0.923029 0.798338 0.931371
O O9 0.981412 0.882882 0.247094
O O10 0.032011 0.745392 0.379335
O O11 0.972918 0.980111 0.402654
O O12 0.020518 0.581620 0.507425
O O13 0.753327 0.616527 0.421880
O O14 0.723708 0.478349 0.114194
O O15 0.426438 0.582270 0.172151
O O16 0.127274 0.123890 0.276417
#
# Coordination Sequence:
#
# PCOD9135920 Si02
#       8
#     4   4   4   4   4   4   4   4
#     4  10  22  40  58  89 128 157 205 262 311 372
#     4  11  20  38  63  85 121 161 205 255 310 372
#     4   9  20  37  61  84 117 163 203 252 314 366
#     4  11  20  40  64  86 123 166 207 255 318 367
#     4   9  18  37  59  81 115 159 202 247 309 364
#     4  10  21  37  59  89 117 160 206 250 309 373
#     4  10  21  39  61  90 119 164 209 256 312 374
#     4  10  22  38  59  90 124 160 207 259 313 370
#
# _framework density 24.976717000000001
#
# number of rings (size 3 to 8) (size 9 to 14) (size 15 to 20)
#    0.000    2.000    1.250    4.500    0.000    2.000 
#    6.750    1.250    0.000    0.000    0.000    0.000 
#    0.000    0.000    0.000    0.000    0.000    0.000 
#
# Total GULP energy -89246.922084 kJ/mol
# GULP energy per Si atom -5577.932630 kJ/mol
# Density = 2.491987 g / cm^3
# Si number density = 24.976717 Si / 1000 Ang^3
#
#
#
# Elastic Constant Matrix: (Units=GPa)
#
#
# Indices 1 2 3 4 5 6 
#
# 1 41.9720 9.2036 15.1993 0.0000 -2.9799 0.0000
# 2 9.2036 204.9351 68.9448 0.0000 -9.4086 0.0000
# 3 15.1993 68.9448 137.5782 0.0000 -3.3564 0.0000
# 4 0.0000 0.0000 0.0000 47.9768 0.0000 -3.8507
# 5 -2.9799 -9.4086 -3.3564 0.0000 19.9974 0.0000
# 6 0.0000 0.0000 0.0000 -3.8507 0.0000 25.9194
#
#
#
# Elastic Compliance Matrix: (Units=1/GPa)
#
#
# Indices 1 2 3 4 5 6 
#
# 1 0.025032 -0.000086 -0.002643 0.000000 0.003246 0.000000
# 2 -0.000086 0.005974 -0.002928 0.000000 0.002307 0.000000
# 3 -0.002643 -0.002928 0.009022 0.000000 -0.000257 0.000000
# 4 0.000000 0.000000 0.000000 0.021095 0.000000 0.003134
# 5 0.003246 0.002307 -0.000257 0.000000 0.051532 0.000000
# 6 0.000000 0.000000 0.000000 0.003134 0.000000 0.039047
#
#
# Mechanical properties :
#
#
# Convention : Reuss Voigt Hill
#
# Bulk Modulus (GPa) = 34.82696 63.46454 49.14575
# Shear Modulus (GPa) = 28.97075 38.18790 33.57933
#
# Velocity S-wave (km/s) = 3.40944 3.91441 3.67062
# Velocity P-wave (km/s) = 5.42891 6.77457 6.13872
#
# Compressibility (1/GPa) = 0.02871339
#
# Stress axis : x y z
#
# Youngs Moduli (GPa) = 39.94904 167.37870 110.84305
#
# Poissons Ratio (x) = 0.01438 0.29298
# Poissons Ratio (y) = 0.00343 0.32457
# Poissons Ratio (z) = 0.10559 0.49012
#
# Static dielectric constant tensor:
#      x y z
#    x 2.091860 0.000000 -0.047910 
#    y 0.000000 2.142320 0.000000 
#    z -0.047910 0.000000 1.995680 
# 
# From -- ./inp_files/22869.got.cif
#   From: 2010.05.17/outbox.cif.g08.bks.cpg/sg9_12_cif.got.tgz:22869.got - 2010.06.03 20:04:27.
