data_PCOD9135939
_publ_section_title
;
Structure prediction by ZEFSAII (Michael W. Deem and Ramdas Pophale) SiO2 
 PCOD9135939
Probable space group: C C
;
_chemical_formula_sum "Si O2"
_cell_formula_units_Z 32
_cell_length_a 8.144022
_cell_length_b 32.807847
_cell_length_c 5.327109
_cell_angle_alpha 90.000000
_cell_angle_beta 75.945626
_cell_angle_gamma 90.000000
_cell_volume 1380.732041
_symmetry_space_group_name_H-M "C C"
_symmetry_group_IT_number 9
_symmetry_cell_setting 'monoclinic'
loop_
_space_group_symop_operation_xyz
x,y,z
x,-y,1/2+z
1/2+x,1/2+y,z
1/2+x,1/2-y,1/2+z
loop_
_atom_site_type_symbol
_atom_site_label
_atom_site_fract_x
_atom_site_fract_y
_atom_site_fract_z
Si Si1 0.599040 0.115588 0.069320
Si Si2 0.392063 0.846754 0.261339
Si Si3 0.130896 0.523648 0.120824
Si Si4 0.996932 0.812657 0.008181
Si Si5 0.716448 0.521685 0.276804
Si Si6 0.216855 0.890014 0.938664
Si Si7 0.166735 0.689543 0.367122
Si Si8 0.147699 0.218582 0.964569
O O1 0.678709 0.071315 0.078704
O O2 0.406872 0.113269 0.254600
O O3 0.695486 0.154135 0.152145
O O4 0.546649 0.126708 0.806908
O O5 0.306324 0.811536 0.456375
O O6 0.255178 0.879229 0.215288
O O7 0.473096 0.818631 0.015417
O O8 0.186269 0.502387 0.358444
O O9 0.923483 0.522762 0.199200
O O10 0.090637 0.854716 0.903939
O O11 0.057404 0.780484 0.769707
O O12 0.799168 0.817445 0.040674
O O13 0.042378 0.801942 0.276641
O O14 0.664976 0.490280 0.515081
O O15 0.654787 0.565635 0.391254
O O16 0.185383 0.737734 0.326537
#
# Coordination Sequence:
#
# PCOD9135939 Si02
#       8
#     4   4   4   4   4   4   4   4
#     4  10  21  37  61  89 124 160 202 254 309 360
#     4  10  22  40  61  89 124 164 202 259 306 362
#     4   9  19  32  54  86 119 151 196 250 301 357
#     4  11  25  43  63  90 121 165 207 251 305 365
#     4   9  18  28  52  87 116 147 195 249 298 354
#     4   9  20  37  59  85 123 160 199 250 309 361
#     4  11  26  38  63  91 124 162 208 255 303 366
#     4  11  25  43  63  87 123 165 209 254 305 355
#
# _framework density 23.176110000000001
#
# number of rings (size 3 to 8) (size 9 to 14) (size 15 to 20)
#    0.000    2.000    1.250    0.750   15.750    0.000 
#    0.000    0.000    0.000    1.500    0.000    0.000 
#    0.000    0.000    0.000    0.000    0.000    0.000 
#
# Total GULP energy -89155.656812 kJ/mol
# GULP energy per Si atom -5572.228551 kJ/mol
# Density = 2.312336 g / cm^3
# Si number density = 23.176110 Si / 1000 Ang^3
#
#
#
# Elastic Constant Matrix: (Units=GPa)
#
#
# Indices 1 2 3 4 5 6 
#
# 1 17.2369 14.3594 -0.1921 0.0000 4.4688 0.0000
# 2 14.3594 154.5345 30.4289 0.0000 8.8451 0.0000
# 3 -0.1921 30.4289 75.0276 0.0000 14.4605 0.0000
# 4 0.0000 0.0000 0.0000 19.1824 0.0000 11.4695
# 5 4.4688 8.8451 14.4605 0.0000 19.3943 0.0000
# 6 0.0000 0.0000 0.0000 11.4695 0.0000 8.3675
#
#
#
# Elastic Compliance Matrix: (Units=1/GPa)
#
#
# Indices 1 2 3 4 5 6 
#
# 1 0.068015 -0.006544 0.006158 0.000000 -0.017280 0.000000
# 2 -0.006544 0.007689 -0.003211 0.000000 0.000396 0.000000
# 3 0.006158 -0.003211 0.017094 0.000000 -0.012700 0.000000
# 4 0.000000 0.000000 0.000000 0.288957 0.000000 -0.396081
# 5 -0.017280 0.000396 -0.012700 0.000000 0.064832 0.000000
# 6 0.000000 0.000000 0.000000 -0.396081 0.000000 0.662431
#
#
# Mechanical properties :
#
#
# Convention : Reuss Voigt Hill
#
# Bulk Modulus (GPa) = 11.68153 37.33238 24.50696
# Shear Modulus (GPa) = 4.36778 22.86901 13.61840
#
# Velocity S-wave (km/s) = 1.37430 3.14466 2.42669
# Velocity P-wave (km/s) = 2.75128 5.41556 4.29522
#
# Compressibility (1/GPa) = 0.08560520
#
# Stress axis : x y z
#
# Youngs Moduli (GPa) = 14.70264 130.05974 58.49870
#
# Poissons Ratio (x) = 0.85106 -0.36026
# Poissons Ratio (y) = 0.09621 0.18786
# Poissons Ratio (z) = -0.09055 0.41767
#
# Static dielectric constant tensor:
#      x y z
#    x 1.913940 0.000000 0.014340 
#    y 0.000000 1.863850 0.000000 
#    z 0.014340 0.000000 2.040870 
# 
# From -- ./inp_files/1269.got.cif
#   From: 2010.05.17/outbox.cif.g08.bks.cpg/sg9_1_cif.got.tgz:1269.got - 2010.06.03 20:04:27.
