data_PCOD9135940
_publ_section_title
;
Structure prediction by ZEFSAII (Michael W. Deem and Ramdas Pophale) SiO2 
 PCOD9135940
Probable space group: C C
;
_chemical_formula_sum "Si O2"
_cell_formula_units_Z 24
_cell_length_a 5.066769
_cell_length_b 22.993625
_cell_length_c 8.465334
_cell_angle_alpha 90.000000
_cell_angle_beta 114.697998
_cell_angle_gamma 90.000000
_cell_volume 896.021575
_symmetry_space_group_name_H-M "C C"
_symmetry_group_IT_number 9
_symmetry_cell_setting 'monoclinic'
loop_
_space_group_symop_operation_xyz
x,y,z
x,-y,1/2+z
1/2+x,1/2+y,z
1/2+x,1/2-y,1/2+z
loop_
_atom_site_type_symbol
_atom_site_label
_atom_site_fract_x
_atom_site_fract_y
_atom_site_fract_z
Si Si1 0.179660 0.833560 0.931900
Si Si2 0.293363 0.383489 0.119731
Si Si3 0.436569 0.487829 0.775592
Si Si4 0.194088 0.825152 0.439757
Si Si5 0.721130 0.235623 0.166292
Si Si6 0.816805 0.553432 0.108004
O O1 0.941672 0.817749 0.741042
O O2 0.472883 0.868313 0.980594
O O3 0.275983 0.769510 0.017733
O O4 0.006612 0.863737 0.032501
O O5 0.352846 0.450180 0.176883
O O6 0.372960 0.346694 0.300698
O O7 0.683998 0.502998 0.963482
O O8 0.576842 0.444317 0.684695
O O9 0.129629 0.462940 0.754543
O O10 0.391170 0.787052 0.610548
O O11 0.270212 0.784782 0.309325
O O12 0.331243 0.888627 0.507603
#
# Coordination Sequence:
#
# PCOD9135940 Si02
#       6
#     4   4   4   4   4   4
#     4  10  21  37  61  90 126 167 214 264 325 391
#     4  10  22  41  63  90 125 168 215 272 329 388
#     4  11  24  43  67  96 134 175 222 277 337 398
#     4   9  21  40  65  94 130 170 217 271 330 393
#     4   9  20  40  62  93 130 170 215 269 328 393
#     4  11  24  43  68  99 135 176 223 277 335 399
#
# _framework density 26.785070999999999
#
# number of rings (size 3 to 8) (size 9 to 14) (size 15 to 20)
#    0.000    2.000    0.000    2.000    0.000   16.000 
#    0.000    8.333    0.000    0.000    0.000    0.000 
#    0.000    0.000    0.000    0.000    0.000    0.000 
#
# Total GULP energy -67035.131504 kJ/mol
# GULP energy per Si atom -5586.260959 kJ/mol
# Density = 2.672411 g / cm^3
# Si number density = 26.785071 Si / 1000 Ang^3
#
#
#
# Elastic Constant Matrix: (Units=GPa)
#
#
# Indices 1 2 3 4 5 6 
#
# 1 132.9253 42.2460 33.7678 0.0000 34.9445 0.0000
# 2 42.2460 140.0007 43.6526 0.0000 17.6607 0.0000
# 3 33.7678 43.6526 71.7383 0.0000 22.2077 0.0000
# 4 0.0000 0.0000 0.0000 42.2665 0.0000 9.6816
# 5 34.9445 17.6607 22.2077 0.0000 29.7491 0.0000
# 6 0.0000 0.0000 0.0000 9.6816 0.0000 26.9470
#
#
#
# Elastic Compliance Matrix: (Units=1/GPa)
#
#
# Indices 1 2 3 4 5 6 
#
# 1 0.011342 -0.001737 -0.000620 0.000000 -0.011829 0.000000
# 2 -0.001737 0.009140 -0.004807 0.000000 0.000203 0.000000
# 3 -0.000620 -0.004807 0.020871 0.000000 -0.011998 0.000000
# 4 0.000000 0.000000 0.000000 0.025781 0.000000 -0.009263
# 5 -0.011829 0.000203 -0.011998 0.000000 0.056345 0.000000
# 6 0.000000 0.000000 0.000000 -0.009263 0.000000 0.040438
#
#
# Mechanical properties :
#
#
# Convention : Reuss Voigt Hill
#
# Bulk Modulus (GPa) = 37.00270 64.88855 50.94562
# Shear Modulus (GPa) = 26.70171 34.79237 30.74704
#
# Velocity S-wave (km/s) = 3.16078 3.60800 3.39177
# Velocity P-wave (km/s) = 5.21204 6.45253 5.86517
#
# Compressibility (1/GPa) = 0.02702505
#
# Stress axis : x y z
#
# Youngs Moduli (GPa) = 88.16520 109.40645 47.91449
#
# Poissons Ratio (x) = 0.19005 0.02971
# Poissons Ratio (y) = 0.15315 0.23032
# Poissons Ratio (z) = 0.05467 0.52590
#
# Static dielectric constant tensor:
#      x y z
#    x 2.110190 0.000000 -0.070860 
#    y 0.000000 2.070950 0.000000 
#    z -0.070860 0.000000 2.178350 
# 
# From -- ./inp_files/3900.got.cif
#   From: 2010.05.17/outbox.cif.g08.bks.cpg/sg9_2_cif.got.tgz:3900.got - 2010.06.03 20:04:27.
