data_PCOD9135351
_publ_section_title
;
Structure prediction by ZEFSAII (Michael W. Deem and Ramdas Pophale) SiO2 
 PCOD9135351
Probable space group: C C
;
_chemical_formula_sum "Si O2"
_cell_formula_units_Z 32
_cell_length_a 11.199159
_cell_length_b 25.018598
_cell_length_c 5.493121
_cell_angle_alpha 90.000000
_cell_angle_beta 71.258491
_cell_angle_gamma 90.000000
_cell_volume 1457.495835
_symmetry_space_group_name_H-M "C C"
_symmetry_group_IT_number 9
_symmetry_cell_setting 'monoclinic'
loop_
_space_group_symop_operation_xyz
x,y,z
x,-y,1/2+z
1/2+x,1/2+y,z
1/2+x,1/2-y,1/2+z
loop_
_atom_site_type_symbol
_atom_site_label
_atom_site_fract_x
_atom_site_fract_y
_atom_site_fract_z
Si Si1 0.946450 0.865564 0.429770
Si Si2 0.137093 0.780804 0.097929
Si Si3 0.855006 0.355361 0.749019
Si Si4 0.074093 0.680445 0.400195
Si Si5 0.932437 0.263098 0.368136
Si Si6 0.745962 0.471414 0.725759
Si Si7 0.802183 0.840662 0.028099
Si Si8 0.965805 0.012956 0.902936
O O1 0.882365 0.860139 0.738377
O O2 0.052887 0.821000 0.317899
O O3 0.002530 0.925004 0.378646
O O4 0.852074 0.860684 0.256493
O O5 0.162392 0.721140 0.186986
O O6 0.049406 0.765316 0.926141
O O7 0.255891 0.816559 0.949852
O O8 0.895710 0.320822 0.491030
O O9 0.790321 0.410918 0.728583
O O10 0.986070 0.359767 0.811062
O O11 0.156976 0.651816 0.550748
O O12 0.976137 0.723954 0.570695
O O13 0.821339 0.223225 0.506879
O O14 0.788004 0.496018 0.439438
O O15 0.593093 0.477385 0.822811
O O16 0.895438 0.999663 0.699498
#
# Coordination Sequence:
#
# PCOD9135351 Si02
#       8
#     4   4   4   4   4   4   4   4
#     4  11  23  41  66  96 128 173 215 271 338 379
#     4  10  21  37  60  96 134 172 218 268 323 397
#     4  11  24  39  67  97 134 179 218 276 339 391
#     4  11  23  39  61  91 138 181 220 260 314 411
#     4  10  22  38  60  96 134 181 221 266 320 396
#     4  10  23  42  64  97 130 163 213 280 339 389
#     4  11  24  41  63  95 136 178 220 261 316 406
#     4  10  20  39  65  94 128 151 209 276 335 383
#
# _framework density 21.955463999999999
#
# number of rings (size 3 to 8) (size 9 to 14) (size 15 to 20)
#    0.000    1.500    1.250    3.750    8.750    3.000 
#    4.500    0.000    0.000    4.500    0.000    0.000 
#    0.000    0.000    0.000    0.000    0.000    0.000 
#
# Total GULP energy -89272.560451 kJ/mol
# GULP energy per Si atom -5579.535028 kJ/mol
# Density = 2.190549 g / cm^3
# Si number density = 21.955464 Si / 1000 Ang^3
#
#
#
# Elastic Constant Matrix: (Units=GPa)
#
#
# Indices 1 2 3 4 5 6 
#
# 1 71.8400 34.8011 21.2328 0.0000 8.8469 0.0000
# 2 34.8011 75.2250 28.5484 0.0000 -1.6489 0.0000
# 3 21.2328 28.5484 103.0056 0.0000 16.0239 0.0000
# 4 0.0000 0.0000 0.0000 12.3791 0.0000 -9.2237
# 5 8.8469 -1.6489 16.0239 0.0000 31.2952 0.0000
# 6 0.0000 0.0000 0.0000 -9.2237 0.0000 24.3397
#
#
#
# Elastic Compliance Matrix: (Units=1/GPa)
#
#
# Indices 1 2 3 4 5 6 
#
# 1 0.018981 -0.008650 -0.000662 0.000000 -0.005482 0.000000
# 2 -0.008650 0.019088 -0.004394 0.000000 0.005701 0.000000
# 3 -0.000662 -0.004394 0.012027 0.000000 -0.006203 0.000000
# 4 0.000000 0.000000 0.000000 0.112565 0.000000 0.042658
# 5 -0.005482 0.005701 -0.006203 0.000000 0.036980 0.000000
# 6 0.000000 0.000000 0.000000 0.042658 0.000000 0.057251
#
#
# Mechanical properties :
#
#
# Convention : Reuss Voigt Hill
#
# Bulk Modulus (GPa) = 44.08496 46.58168 45.33332
# Shear Modulus (GPa) = 17.13117 24.63537 20.88327
#
# Velocity S-wave (km/s) = 2.79636 3.35335 3.08744
# Velocity P-wave (km/s) = 5.52712 6.02128 5.77948
#
# Compressibility (1/GPa) = 0.02268347
#
# Stress axis : x y z
#
# Youngs Moduli (GPa) = 52.68437 52.38994 83.14299
#
# Poissons Ratio (x) = 0.45317 0.05507
# Poissons Ratio (y) = 0.45571 0.36533
# Poissons Ratio (z) = 0.03490 0.23020
#
# Static dielectric constant tensor:
#      x y z
#    x 1.862190 0.000000 0.013140 
#    y 0.000000 1.778190 0.000000 
#    z 0.013140 0.000000 1.928210 
# 
# From -- ./inp_files/1840.got.cif
#   From: 2010.05.17/outbox.cif.g08.bks.cpg/sg9_1_cif.got.tgz:1840.got - 2010.06.03 20:04:27.
