data_PCOD9135233
_publ_section_title
;
Structure prediction by ZEFSAII (Michael W. Deem and Ramdas Pophale) SiO2 
 PCOD9135233
Probable space group: C C
;
_chemical_formula_sum "Si O2"
_cell_formula_units_Z 20
_cell_length_a 5.485198
_cell_length_b 13.341170
_cell_length_c 13.271683
_cell_angle_alpha 90.000000
_cell_angle_beta 57.233553
_cell_angle_gamma 90.000000
_cell_volume 816.672921
_symmetry_space_group_name_H-M "C C"
_symmetry_group_IT_number 9
_symmetry_cell_setting 'monoclinic'
loop_
_space_group_symop_operation_xyz
x,y,z
x,-y,1/2+z
1/2+x,1/2+y,z
1/2+x,1/2-y,1/2+z
loop_
_atom_site_type_symbol
_atom_site_label
_atom_site_fract_x
_atom_site_fract_y
_atom_site_fract_z
Si Si1 0.970230 0.101986 0.745280
Si Si2 0.756085 0.010315 0.045034
Si Si3 0.976823 0.332577 0.240761
Si Si4 0.814691 0.877194 0.723595
Si Si5 0.342588 0.928068 0.978294
O O1 0.656908 0.151485 0.801866
O O2 0.139526 0.138255 0.805444
O O3 0.173105 0.133168 0.603396
O O4 0.958612 0.981780 0.729454
O O5 0.725652 0.103150 0.128033
O O6 0.624353 0.916387 0.137462
O O7 0.566354 0.003084 0.986823
O O8 0.097047 0.983838 0.967924
O O9 0.007990 0.219892 0.195270
O O10 0.538394 0.865881 0.858133
#
# Coordination Sequence:
#
# PCOD9135233 Si02
#       5
#     4   4   4   4   4
#     4   9  21  38  52  84 120 136 187 245 264 326
#     4   9  21  38  53  85 121 137 186 245 266 326
#     4   9  19  36  56  78 109 149 183 228 281 322
#     4  10  20  38  64  79 112 160 185 221 293 337
#     4   9  19  36  57  82 114 148 183 233 278 325
#
# _framework density 24.489608
#
# number of rings (size 3 to 8) (size 9 to 14) (size 15 to 20)
#    0.000    3.200    0.000    0.000    0.000   14.400 
#    0.000   28.000    0.000    0.000    0.000    0.000 
#    0.000    0.000    0.000    0.000    0.000    0.000 
#
# Total GULP energy -55765.011513 kJ/mol
# GULP energy per Si atom -5576.501151 kJ/mol
# Density = 2.443387 g / cm^3
# Si number density = 24.489608 Si / 1000 Ang^3
#
#
#
# Elastic Constant Matrix: (Units=GPa)
#
#
# Indices 1 2 3 4 5 6 
#
# 1 211.9906 43.3613 -1.1511 0.0000 -28.7184 0.0000
# 2 43.3613 137.1146 -7.3595 0.0000 0.8785 0.0000
# 3 -1.1511 -7.3595 46.2359 0.0000 11.4744 0.0000
# 4 0.0000 0.0000 0.0000 -6.6578 0.0000 -0.8880
# 5 -28.7184 0.8785 11.4744 0.0000 22.5793 0.0000
# 6 0.0000 0.0000 0.0000 -0.8880 0.0000 28.1899
#
#
#
# Elastic Compliance Matrix: (Units=1/GPa)
#
#
# Indices 1 2 3 4 5 6 
#
# 1 0.006466 -0.002245 -0.002585 0.000000 0.009626 0.000000
# 2 -0.002245 0.008156 0.002323 0.000000 -0.004354 0.000000
# 3 -0.002585 0.002323 0.026058 0.000000 -0.016621 0.000000
# 4 0.000000 0.000000 0.000000 -0.149570 0.000000 -0.004712
# 5 0.009626 -0.004354 -0.016621 0.000000 0.065147 0.000000
# 6 0.000000 0.000000 0.000000 -0.004712 0.000000 0.035325
#
#
# Mechanical properties :
#
#
# Convention : Reuss Voigt Hill
#
# Bulk Modulus (GPa) = 28.03882 51.67136 39.85509
# Shear Modulus (GPa) = 589.18040 32.85497 311.01769
#
# Velocity S-wave (km/s) = 15.52759 3.66674 11.28165
# Velocity P-wave (km/s) = 18.24689 6.25074 13.63856
#
# Compressibility (1/GPa) = 0.03566483
#
# Stress axis : x y z
#
# Youngs Moduli (GPa) = 154.64506 122.61189 38.37537
#
# Poissons Ratio (x) = 0.27531 0.09921
# Poissons Ratio (y) = 0.34724 -0.08913
# Poissons Ratio (z) = 0.39979 -0.28479
#
# Static dielectric constant tensor:
#      x y z
#    x 2.085970 0.000000 -0.009600 
#    y 0.000000 1.930530 0.000000 
#    z -0.009600 0.000000 2.026890 
# 
# From -- ./inp_files/12903.got.cif
#   From: 2010.05.17/outbox.cif.g08.bks.cpg/sg9_7_cif.got.tgz:12903.got - 2010.06.03 20:04:27.
