data_PCOD9135583
_publ_section_title
;
Structure prediction by ZEFSAII (Michael W. Deem and Ramdas Pophale) SiO2 
 PCOD9135583
Probable space group: C C
;
_chemical_formula_sum "Si O2"
_cell_formula_units_Z 32
_cell_length_a 11.768816
_cell_length_b 7.294659
_cell_length_c 17.754587
_cell_angle_alpha 90.000000
_cell_angle_beta 51.103815
_cell_angle_gamma 90.000000
_cell_volume 1186.279375
_symmetry_space_group_name_H-M "C C"
_symmetry_group_IT_number 9
_symmetry_cell_setting 'monoclinic'
loop_
_space_group_symop_operation_xyz
x,y,z
x,-y,1/2+z
1/2+x,1/2+y,z
1/2+x,1/2-y,1/2+z
loop_
_atom_site_type_symbol
_atom_site_label
_atom_site_fract_x
_atom_site_fract_y
_atom_site_fract_z
Si Si1 0.320450 0.747492 0.929110
Si Si2 0.723313 0.178307 0.326057
Si Si3 0.657223 0.599225 0.986969
Si Si4 0.523245 0.112340 0.970999
Si Si5 0.821306 0.539819 0.687824
Si Si6 0.593285 0.172133 0.640261
Si Si7 0.378856 0.476350 0.040449
Si Si8 0.514615 0.478202 0.771557
O O1 0.286590 0.961955 0.954159
O O2 0.350601 0.640813 0.994268
O O3 0.451896 0.677862 0.820000
O O4 0.165331 0.681212 0.959004
O O5 0.667634 0.355951 0.394007
O O6 0.597638 0.027375 0.381683
O O7 0.774700 0.248025 0.223027
O O8 0.858922 0.123006 0.324303
O O9 0.495260 0.513963 0.056470
O O10 0.649045 0.793404 0.032408
O O11 0.404789 0.018881 0.076909
O O12 0.446475 0.295262 0.971493
O O13 0.663045 0.443699 0.758009
O O14 0.952793 0.540592 0.694532
O O15 0.720909 0.084859 0.634846
O O16 0.578077 0.387176 0.668726
#
# Coordination Sequence:
#
# PCOD9135583 Si02
#       8
#     4   4   4   4   4   4   4   4
#     4  10  22  43  65  96 138 175 235 284 343 426
#     4  10  22  41  67  99 139 182 232 289 357 420
#     4  11  24  42  66 102 132 179 234 283 347 428
#     4  10  20  41  68 100 138 182 232 283 344 423
#     4  11  20  39  71 100 139 179 227 287 342 425
#     4  11  22  41  66  96 137 176 225 286 344 409
#     4  11  22  40  69  94 126 188 226 280 355 399
#     4  10  22  41  64  97 135 179 221 288 352 408
#
# _framework density 26.975096000000001
#
# number of rings (size 3 to 8) (size 9 to 14) (size 15 to 20)
#    0.000    1.500    3.750    1.500    0.000    3.000 
#    4.500    6.250    0.000    0.000    0.000    0.000 
#    0.000    0.000    0.000    0.000    0.000    0.000 
#
# Total GULP energy -89081.162735 kJ/mol
# GULP energy per Si atom -5567.572671 kJ/mol
# Density = 2.691370 g / cm^3
# Si number density = 26.975096 Si / 1000 Ang^3
#
#
#
# Elastic Constant Matrix: (Units=GPa)
#
#
# Indices 1 2 3 4 5 6 
#
# 1 150.9205 18.8767 18.7060 0.0000 -53.8075 0.0000
# 2 18.8767 81.8387 1.6512 0.0000 -4.4771 0.0000
# 3 18.7060 1.6512 59.5676 0.0000 -33.8813 0.0000
# 4 0.0000 0.0000 0.0000 30.0965 0.0000 -7.6194
# 5 -53.8075 -4.4771 -33.8813 0.0000 53.7092 0.0000
# 6 0.0000 0.0000 0.0000 -7.6194 0.0000 52.1370
#
#
#
# Elastic Compliance Matrix: (Units=1/GPa)
#
#
# Indices 1 2 3 4 5 6 
#
# 1 0.011292 -0.001931 0.004446 0.000000 0.013957 0.000000
# 2 -0.001931 0.012611 -0.000383 0.000000 -0.001125 0.000000
# 3 0.004446 -0.000383 0.027944 0.000000 0.022050 0.000000
# 4 0.000000 0.000000 0.000000 0.034503 0.000000 0.005042
# 5 0.013957 -0.001125 0.022050 0.000000 0.046417 0.000000
# 6 0.000000 0.000000 0.000000 0.005042 0.000000 0.019917
#
#
# Mechanical properties :
#
#
# Convention : Reuss Voigt Hill
#
# Bulk Modulus (GPa) = 17.82192 41.19940 29.51066
# Shear Modulus (GPa) = 29.91796 44.06140 36.98968
#
# Velocity S-wave (km/s) = 3.33392 4.04593 3.70706
# Velocity P-wave (km/s) = 4.63046 6.09363 5.41173
#
# Compressibility (1/GPa) = 0.05611066
#
# Stress axis : x y z
#
# Youngs Moduli (GPa) = 88.55489 79.29761 35.78613
#
# Poissons Ratio (x) = 0.15311 -0.15910
# Poissons Ratio (y) = 0.17099 0.01371
# Poissons Ratio (z) = -0.39369 0.03037
#
# Static dielectric constant tensor:
#      x y z
#    x 2.116430 0.000000 -0.014960 
#    y 0.000000 2.173540 0.000000 
#    z -0.014960 0.000000 2.207500 
# 
# From -- ./inp_files/33207.got.cif
#   From: 2010.05.17/outbox.cif.g08.bks.cpg/sg9_17_cif.got.tgz:33207.got - 2010.06.03 20:04:27.
