data_PCOD9135222
_publ_section_title
;
Structure prediction by ZEFSAII (Michael W. Deem and Ramdas Pophale) SiO2 
 PCOD9135222
Probable space group: C C
;
_chemical_formula_sum "Si O2"
_cell_formula_units_Z 32
_cell_length_a 12.458847
_cell_length_b 8.161577
_cell_length_c 14.108412
_cell_angle_alpha 90.000000
_cell_angle_beta 121.329348
_cell_angle_gamma 90.000000
_cell_volume 1225.422580
_symmetry_space_group_name_H-M "C C"
_symmetry_group_IT_number 9
_symmetry_cell_setting 'monoclinic'
loop_
_space_group_symop_operation_xyz
x,y,z
x,-y,1/2+z
1/2+x,1/2+y,z
1/2+x,1/2-y,1/2+z
loop_
_atom_site_type_symbol
_atom_site_label
_atom_site_fract_x
_atom_site_fract_y
_atom_site_fract_z
Si Si1 0.494750 0.028036 0.972330
Si Si2 0.725704 0.543325 0.393962
Si Si3 0.954524 0.351673 0.662941
Si Si4 0.469643 0.462719 0.669705
Si Si5 0.111779 0.712429 0.405935
Si Si6 0.218857 0.918263 0.100685
Si Si7 0.852873 0.804867 0.800169
Si Si8 0.447323 0.572146 0.961063
O O1 0.360882 0.930234 0.910147
O O2 0.458258 0.181703 0.890271
O O3 0.613392 0.924808 0.988798
O O4 0.501262 0.077752 0.084596
O O5 0.614255 0.568495 0.268485
O O6 0.713436 0.348764 0.421313
O O7 0.712877 0.638509 0.487432
O O8 0.938436 0.155872 0.645037
O O9 0.061282 0.375267 0.790205
O O10 0.831734 0.447712 0.645953
O O11 0.399323 0.395838 0.728489
O O12 0.421612 0.366242 0.554909
O O13 0.997484 0.823770 0.395536
O O14 0.244579 0.804310 0.203185
O O15 0.079920 0.985979 0.049730
O O16 0.843950 0.944780 0.876272
#
# Coordination Sequence:
#
# PCOD9135222 Si02
#       8
#     4   4   4   4   4   4   4   4
#     4  11  22  38  70  92 128 185 226 280 357 408
#     4   9  21  42  65  92 133 178 221 281 347 414
#     4  10  20  38  63  91 128 176 221 279 342 416
#     4  11  22  40  66  92 136 170 224 291 346 411
#     4  10  21  41  66  93 134 176 235 281 344 421
#     4  10  21  40  66  91 129 178 233 269 349 422
#     4  12  22  39  68  99 132 181 228 289 349 429
#     4  11  23  42  64  96 134 182 222 288 362 407
#
# _framework density 26.113440000000001
#
# number of rings (size 3 to 8) (size 9 to 14) (size 15 to 20)
#    0.000    1.500    6.250    0.750    3.500    0.000 
#    0.000    3.750    5.500    0.000    0.000    0.000 
#    0.000    0.000    0.000    0.000    0.000    0.000 
#
# Total GULP energy -89347.680687 kJ/mol
# GULP energy per Si atom -5584.230043 kJ/mol
# Density = 2.605400 g / cm^3
# Si number density = 26.113440 Si / 1000 Ang^3
#
#
#
# Elastic Constant Matrix: (Units=GPa)
#
#
# Indices 1 2 3 4 5 6 
#
# 1 74.7795 27.6365 34.1545 0.0000 8.7637 0.0000
# 2 27.6365 37.8918 24.5503 0.0000 -0.0241 0.0000
# 3 34.1545 24.5503 175.2263 0.0000 -23.5737 0.0000
# 4 0.0000 0.0000 0.0000 38.6563 0.0000 -1.3962
# 5 8.7637 -0.0241 -23.5737 0.0000 37.0154 0.0000
# 6 0.0000 0.0000 0.0000 -1.3962 0.0000 53.6460
#
#
#
# Elastic Compliance Matrix: (Units=1/GPa)
#
#
# Indices 1 2 3 4 5 6 
#
# 1 0.020311 -0.012827 -0.003073 0.000000 -0.006774 0.000000
# 2 -0.012827 0.037396 -0.002546 0.000000 0.001440 0.000000
# 3 -0.003073 -0.002546 0.007394 0.000000 0.005435 0.000000
# 4 0.000000 0.000000 0.000000 0.025893 0.000000 0.000674
# 5 -0.006774 0.001440 0.005435 0.000000 0.032082 0.000000
# 6 0.000000 0.000000 0.000000 0.000674 0.000000 0.018658
#
#
# Mechanical properties :
#
#
# Convention : Reuss Voigt Hill
#
# Bulk Modulus (GPa) = 35.44880 51.17558 43.31219
# Shear Modulus (GPa) = 26.59175 39.30062 32.94619
#
# Velocity S-wave (km/s) = 3.19457 3.88364 3.55583
# Velocity P-wave (km/s) = 5.21646 6.30477 5.78626
#
# Compressibility (1/GPa) = 0.02820970
#
# Stress axis : x y z
#
# Youngs Moduli (GPa) = 49.23538 26.74055 135.25021
#
# Poissons Ratio (x) = 0.34300 0.41564
# Poissons Ratio (y) = 0.63153 0.34429
# Poissons Ratio (z) = 0.15131 0.06807
#
# Static dielectric constant tensor:
#      x y z
#    x 2.109250 0.000000 -0.045130 
#    y 0.000000 2.243930 0.000000 
#    z -0.045130 0.000000 2.062550 
# 
# From -- ./inp_files/25697.got.cif
#   From: 2010.05.17/outbox.cif.g08.bks.cpg/sg9_13_cif.got.tgz:25697.got - 2010.06.03 20:04:27.
