data_PCOD9135069
_publ_section_title
;
Structure prediction by ZEFSAII (Michael W. Deem and Ramdas Pophale) SiO2 
 PCOD9135069
Probable space group: C C
;
_chemical_formula_sum "Si O2"
_cell_formula_units_Z 28
_cell_length_a 10.474202
_cell_length_b 8.406519
_cell_length_c 16.112880
_cell_angle_alpha 90.000000
_cell_angle_beta 128.732908
_cell_angle_gamma 90.000000
_cell_volume 1106.737291
_symmetry_space_group_name_H-M "C C"
_symmetry_group_IT_number 9
_symmetry_cell_setting 'monoclinic'
loop_
_space_group_symop_operation_xyz
x,y,z
x,-y,1/2+z
1/2+x,1/2+y,z
1/2+x,1/2-y,1/2+z
loop_
_atom_site_type_symbol
_atom_site_label
_atom_site_fract_x
_atom_site_fract_y
_atom_site_fract_z
Si Si1 0.820900 0.173586 0.981210
Si Si2 0.506616 0.906852 0.447802
Si Si3 0.776368 0.993219 0.694293
Si Si4 0.371826 0.825719 0.165048
Si Si5 0.497151 0.655835 0.571720
Si Si6 0.582429 0.858676 0.761031
Si Si7 0.404043 0.788688 0.834482
O O1 0.876253 0.206353 0.910980
O O2 0.629017 0.161327 0.927388
O O3 0.880863 0.306119 0.069576
O O4 0.902457 0.006642 0.036115
O O5 0.631708 0.986415 0.566398
O O6 0.381117 0.028198 0.354499
O O7 0.427271 0.771698 0.471852
O O8 0.805319 0.177103 0.730328
O O9 0.902491 0.856260 0.711031
O O10 0.733075 0.914470 0.766048
O O11 0.186747 0.862262 0.120071
O O12 0.478252 0.979196 0.225729
O O13 0.498188 0.736391 0.662306
O O14 0.575321 0.795129 0.852688
#
# Coordination Sequence:
#
# PCOD9135069 Si02
#       7
#     4   4   4   4   4   4   4
#     4  10  20  37  58  84 117 151 190 239 285 338
#     4   9  21  40  57  82 120 154 189 238 285 335
#     4   9  21  40  57  82 120 154 189 238 285 335
#     4   9  20  39  61  84 115 155 193 234 287 342
#     4   9  20  39  61  84 115 155 193 234 287 342
#     4  10  20  37  58  84 117 151 190 239 285 338
#     4  12  22  36  62  90 116 152 192 236 290 340
#
# _framework density 25.299589999999998
#
# number of rings (size 3 to 8) (size 9 to 14) (size 15 to 20)
#    0.000    2.857    0.000    4.286    0.000    4.571 
#    0.000    7.143    0.000    0.000    0.000    0.000 
#    0.000    0.000    0.000    0.000    0.000    0.000 
#
# Total GULP energy -78024.344968 kJ/mol
# GULP energy per Si atom -5573.167498 kJ/mol
# Density = 2.524201 g / cm^3
# Si number density = 25.299590 Si / 1000 Ang^3
#
#
#
# Elastic Constant Matrix: (Units=GPa)
#
#
# Indices 1 2 3 4 5 6 
#
# 1 94.6802 24.5591 56.4932 0.0000 -52.3069 0.0000
# 2 24.5591 52.5711 26.1934 0.0000 -6.1611 0.0000
# 3 56.4932 26.1934 113.5812 0.0000 -48.5073 0.0000
# 4 0.0000 0.0000 0.0000 48.0184 0.0000 -7.0720
# 5 -52.3069 -6.1611 -48.5073 0.0000 50.4277 0.0000
# 6 0.0000 0.0000 0.0000 -7.0720 0.0000 42.0956
#
#
#
# Elastic Compliance Matrix: (Units=1/GPa)
#
#
# Indices 1 2 3 4 5 6 
#
# 1 0.029378 -0.010481 0.000462 0.000000 0.029636 0.000000
# 2 -0.010481 0.025630 -0.006795 0.000000 -0.014276 0.000000
# 3 0.000462 -0.006795 0.016958 0.000000 0.015961 0.000000
# 4 0.000000 0.000000 0.000000 0.021354 0.000000 0.003587
# 5 0.029636 -0.014276 0.015961 0.000000 0.064180 0.000000
# 6 0.000000 0.000000 0.000000 0.003587 0.000000 0.024358
#
#
# Mechanical properties :
#
#
# Convention : Reuss Voigt Hill
#
# Bulk Modulus (GPa) = 26.08306 52.81376 39.44841
# Shear Modulus (GPa) = 21.90433 38.34748 30.12591
#
# Velocity S-wave (km/s) = 2.94564 3.89747 3.45449
# Velocity P-wave (km/s) = 4.67986 6.41672 5.61584
#
# Compressibility (1/GPa) = 0.03833906
#
# Stress axis : x y z
#
# Youngs Moduli (GPa) = 34.03926 39.01609 58.96925
#
# Poissons Ratio (x) = 0.40893 -0.02724
# Poissons Ratio (y) = 0.35677 0.40067
# Poissons Ratio (z) = -0.01572 0.26509
#
# Static dielectric constant tensor:
#      x y z
#    x 2.016390 0.000000 0.052890 
#    y 0.000000 2.048560 0.000000 
#    z 0.052890 0.000000 2.087390 
# 
# From -- ./inp_files/24272.got.cif
#   From: 2010.05.17/outbox.cif.g08.bks.cpg/sg9_13_cif.got.tgz:24272.got - 2010.06.03 20:04:27.
