data_PCOD9135516
_publ_section_title
;
Structure prediction by ZEFSAII (Michael W. Deem and Ramdas Pophale) SiO2 
 PCOD9135516
Probable space group: C C
;
_chemical_formula_sum "Si O2"
_cell_formula_units_Z 24
_cell_length_a 6.856843
_cell_length_b 16.900806
_cell_length_c 12.878333
_cell_angle_alpha 90.000000
_cell_angle_beta 44.699923
_cell_angle_gamma 90.000000
_cell_volume 1049.759410
_symmetry_space_group_name_H-M "C C"
_symmetry_group_IT_number 9
_symmetry_cell_setting 'monoclinic'
loop_
_space_group_symop_operation_xyz
x,y,z
x,-y,1/2+z
1/2+x,1/2+y,z
1/2+x,1/2-y,1/2+z
loop_
_atom_site_type_symbol
_atom_site_label
_atom_site_fract_x
_atom_site_fract_y
_atom_site_fract_z
Si Si1 0.898670 0.674662 0.911420
Si Si2 0.353263 0.917233 0.068213
Si Si3 0.829866 0.695436 0.174332
Si Si4 0.512346 0.890619 0.788374
Si Si5 0.261295 0.521775 0.809697
Si Si6 0.353287 0.740104 0.080139
O O1 0.075459 0.595046 0.841446
O O2 0.100860 0.747099 0.808159
O O3 0.786921 0.679340 0.071301
O O4 0.619684 0.687703 0.952133
O O5 0.425633 0.829857 0.081891
O O6 0.068918 0.950724 0.219465
O O7 0.305747 0.904417 0.961577
O O8 0.608772 0.978155 0.964239
O O9 0.865334 0.617960 0.233400
O O10 0.129464 0.737714 0.072433
O O11 0.674507 0.807024 0.734608
O O12 0.741028 0.957766 0.723987
#
# Coordination Sequence:
#
# PCOD9135516 Si02
#       6
#     4   4   4   4   4   4
#     4  12  24  40  73 100 144 186 243 286 364 416
#     4  10  20  40  71 100 137 188 230 299 346 428
#     4  10  24  41  67 104 136 185 238 287 346 436
#     4   8  21  39  70  91 142 174 232 282 356 402
#     4  10  21  40  73  98 141 189 227 298 365 404
#     4  10  22  40  66  99 134 188 232 288 341 430
#
# _framework density 22.862383000000001
#
# number of rings (size 3 to 8) (size 9 to 14) (size 15 to 20)
#    2.000    0.000    1.667    2.000    2.333    0.000 
#    0.000    1.667   14.667    0.000    0.000    0.000 
#    0.000    0.000    0.000    0.000    0.000    0.000 
#
# Total GULP energy -66844.537972 kJ/mol
# GULP energy per Si atom -5570.378164 kJ/mol
# Density = 2.281035 g / cm^3
# Si number density = 22.862383 Si / 1000 Ang^3
#
#
#
# Elastic Constant Matrix: (Units=GPa)
#
#
# Indices 1 2 3 4 5 6 
#
# 1 25.6433 -5.8480 18.5178 0.0000 -1.6071 0.0000
# 2 -5.8480 95.3531 32.9273 0.0001 -1.7321 0.0000
# 3 18.5178 32.9273 84.1613 0.0000 -18.5093 0.0000
# 4 0.0000 0.0001 0.0000 41.3040 0.0000 0.0386
# 5 -1.6071 -1.7321 -18.5093 0.0000 36.7693 0.0000
# 6 0.0000 0.0000 0.0000 0.0386 0.0000 27.5868
#
#
#
# Elastic Compliance Matrix: (Units=1/GPa)
#
#
# Indices 1 2 3 4 5 6 
#
# 1 0.052232 0.008653 -0.016065 0.000000 -0.005396 0.000000
# 2 0.008653 0.013697 -0.007914 0.000000 -0.002960 0.000000
# 3 -0.016065 -0.007914 0.020552 0.000000 0.009271 0.000000
# 4 0.000000 0.000000 0.000000 0.024211 0.000000 -0.000034
# 5 -0.005396 -0.002960 0.009271 0.000000 0.031488 0.000000
# 6 0.000000 0.000000 0.000000 -0.000034 0.000000 0.036249
#
#
# Mechanical properties :
#
#
# Convention : Reuss Voigt Hill
#
# Bulk Modulus (GPa) = 17.91155 32.92801 25.41978
# Shear Modulus (GPa) = 21.95967 31.76941 26.86454
#
# Velocity S-wave (km/s) = 3.10258 3.73177 3.43163
# Velocity P-wave (km/s) = 4.54821 5.74475 5.18113
#
# Compressibility (1/GPa) = 0.05582991
#
# Stress axis : x y z
#
# Youngs Moduli (GPa) = 19.14520 73.00860 48.65794
#
# Poissons Ratio (x) = -0.63173 0.78168
# Poissons Ratio (y) = -0.16566 0.38507
# Poissons Ratio (z) = 0.30756 0.57777
#
# Static dielectric constant tensor:
#      x y z
#    x 1.899030 0.000000 0.014640 
#    y 0.000000 1.900230 0.000000 
#    z 0.014640 0.000000 1.855540 
# 
# From -- ./inp_files/29407.got.cif
#   From: 2010.05.17/outbox.cif.g08.bks.cpg/sg9_15_cif.got.tgz:29407.got - 2010.06.03 20:04:27.
