data_PCOD9135921
_publ_section_title
;
Structure prediction by ZEFSAII (Michael W. Deem and Ramdas Pophale) SiO2 
 PCOD9135921
Probable space group: C C
;
_chemical_formula_sum "Si O2"
_cell_formula_units_Z 28
_cell_length_a 9.519050
_cell_length_b 22.967412
_cell_length_c 5.548023
_cell_angle_alpha 90.000000
_cell_angle_beta 125.628456
_cell_angle_gamma 90.000000
_cell_volume 985.902091
_symmetry_space_group_name_H-M "C C"
_symmetry_group_IT_number 9
_symmetry_cell_setting 'monoclinic'
loop_
_space_group_symop_operation_xyz
x,y,z
x,-y,1/2+z
1/2+x,1/2+y,z
1/2+x,1/2-y,1/2+z
loop_
_atom_site_type_symbol
_atom_site_label
_atom_site_fract_x
_atom_site_fract_y
_atom_site_fract_z
Si Si1 0.475690 0.732420 0.731190
Si Si2 0.341607 0.127829 0.535443
Si Si3 0.677590 0.743978 0.435214
Si Si4 0.921497 0.977923 0.796985
Si Si5 0.531294 0.020389 0.797769
Si Si6 0.753385 0.858908 0.790641
Si Si7 0.861619 0.364339 0.548716
O O1 0.575884 0.725176 0.576336
O O2 0.345069 0.678467 0.593790
O O3 0.384031 0.794854 0.608270
O O4 0.580554 0.734967 0.084560
O O5 0.335794 0.197462 0.564190
O O6 0.515088 0.088908 0.717059
O O7 0.273296 0.114653 0.204220
O O8 0.261748 0.112848 0.714156
O O9 0.727855 0.809774 0.555442
O O10 0.725308 0.001632 0.541373
O O11 0.871614 0.911631 0.817587
O O12 0.001691 0.990036 0.611886
O O13 0.449244 0.992303 0.477417
O O14 0.566899 0.878069 0.715255
#
# Coordination Sequence:
#
# PCOD9135921 Si02
#       7
#     4   4   4   4   4   4   4
#     4  11  25  41  61  92 129 169 215 245 318 387
#     4  12  22  41  63  90 131 161 201 265 311 380
#     4  11  26  42  63  96 129 166 214 258 315 387
#     4  10  23  38  59  92 127 162 214 262 315 378
#     4  10  21  37  59  92 124 160 206 257 320 378
#     4  11  24  44  67  92 137 171 206 272 326 383
#     4  11  23  37  60  96 121 165 200 253 323 373
#
# _framework density 28.400388
#
# number of rings (size 3 to 8) (size 9 to 14) (size 15 to 20)
#    0.000    1.143    2.857    3.429    6.000    3.429 
#    0.000    0.000    0.000    5.143    0.000    0.000 
#    0.000    0.000    0.000    0.000    0.000    0.000 
#
# Total GULP energy -78077.022195 kJ/mol
# GULP energy per Si atom -5576.930157 kJ/mol
# Density = 2.833575 g / cm^3
# Si number density = 28.400388 Si / 1000 Ang^3
#
#
#
# Elastic Constant Matrix: (Units=GPa)
#
#
# Indices 1 2 3 4 5 6 
#
# 1 114.1527 33.4350 69.0707 0.0000 -30.7188 0.0000
# 2 33.4350 143.2412 32.2973 0.0000 3.8325 0.0000
# 3 69.0707 32.2973 243.1219 0.0000 -72.4835 0.0000
# 4 0.0000 0.0000 0.0000 36.2553 0.0000 2.5397
# 5 -30.7188 3.8325 -72.4835 0.0000 62.8607 0.0000
# 6 0.0000 0.0000 0.0000 2.5397 0.0000 26.5444
#
#
#
# Elastic Compliance Matrix: (Units=1/GPa)
#
#
# Indices 1 2 3 4 5 6 
#
# 1 0.011574 -0.002371 -0.001896 0.000000 0.003615 0.000000
# 2 -0.002371 0.007917 -0.001322 0.000000 -0.003166 0.000000
# 3 -0.001896 -0.001322 0.006972 0.000000 0.007194 0.000000
# 4 0.000000 0.000000 0.000000 0.027768 0.000000 -0.002657
# 5 0.003615 -0.003166 0.007194 0.000000 0.026163 0.000000
# 6 0.000000 0.000000 0.000000 -0.002657 0.000000 0.037927
#
#
# Mechanical properties :
#
#
# Convention : Reuss Voigt Hill
#
# Bulk Modulus (GPa) = 65.41624 85.56909 75.49266
# Shear Modulus (GPa) = 37.14871 49.51294 43.33083
#
# Velocity S-wave (km/s) = 3.62060 4.17992 3.91027
# Velocity P-wave (km/s) = 6.36882 7.31373 6.85757
#
# Compressibility (1/GPa) = 0.01528672
#
# Stress axis : x y z
#
# Youngs Moduli (GPa) = 86.39751 126.30334 143.43175
#
# Poissons Ratio (x) = 0.29946 0.27188
# Poissons Ratio (y) = 0.20485 0.18962
# Poissons Ratio (z) = 0.16377 0.16698
#
# Static dielectric constant tensor:
#      x y z
#    x 2.367590 0.000000 0.041520 
#    y 0.000000 2.281440 0.000000 
#    z 0.041520 0.000000 2.321440 
# 
# From -- ./inp_files/1756.got.cif
#   From: 2010.05.17/outbox.cif.g08.bks.cpg/sg9_1_cif.got.tgz:1756.got - 2010.06.03 20:04:27.
