data_PCOD9135791
_publ_section_title
;
Structure prediction by ZEFSAII (Michael W. Deem and Ramdas Pophale) SiO2 
 PCOD9135791
Probable space group: C C
;
_chemical_formula_sum "Si O2"
_cell_formula_units_Z 32
_cell_length_a 13.571056
_cell_length_b 10.400853
_cell_length_c 9.158519
_cell_angle_alpha 90.000000
_cell_angle_beta 70.971567
_cell_angle_gamma 90.000000
_cell_volume 1222.091288
_symmetry_space_group_name_H-M "C C"
_symmetry_group_IT_number 9
_symmetry_cell_setting 'monoclinic'
loop_
_space_group_symop_operation_xyz
x,y,z
x,-y,1/2+z
1/2+x,1/2+y,z
1/2+x,1/2-y,1/2+z
loop_
_atom_site_type_symbol
_atom_site_label
_atom_site_fract_x
_atom_site_fract_y
_atom_site_fract_z
Si Si1 0.569960 0.226746 0.293680
Si Si2 0.678250 0.450088 0.052829
Si Si3 0.571561 0.616260 0.308287
Si Si4 0.893864 0.907577 0.341108
Si Si5 0.534665 0.960294 0.249631
Si Si6 0.400313 0.737765 0.538852
Si Si7 0.718352 0.889823 0.974015
Si Si8 0.394522 0.015576 0.580608
O O1 0.623095 0.342852 0.179887
O O2 0.455309 0.287660 0.392049
O O3 0.554927 0.109646 0.188720
O O4 0.650297 0.171073 0.375620
O O5 0.632215 0.587680 0.129676
O O6 0.647245 0.428336 0.901578
O O7 0.798306 0.435923 0.034003
O O8 0.471414 0.523444 0.342310
O O9 0.511295 0.741578 0.398090
O O10 0.901976 0.868030 0.166811
O O11 0.778717 0.971027 0.422298
O O12 0.493003 0.998239 0.427484
O O13 0.437081 0.911321 0.200300
O O14 0.641500 0.895571 0.150744
O O15 0.311389 0.705290 0.467140
O O16 0.366330 0.869088 0.631745
#
# Coordination Sequence:
#
# PCOD9135791 Si02
#       8
#     4   4   4   4   4   4   4   4
#     4  11  23  48  74 103 148 196 241 309 380 442
#     4  11  24  43  74 105 145 192 250 307 371 450
#     4  10  20  44  72 103 144 184 242 307 367 445
#     4  10  22  45  75 106 145 191 248 307 372 451
#     4  12  25  49  67 103 148 191 243 312 370 457
#     4  11  23  45  70 107 144 191 241 307 381 448
#     4  11  26  44  78 108 149 193 255 306 380 454
#     4  12  27  44  70 103 147 186 246 305 379 449
#
# _framework density 26.184623999999999
#
# number of rings (size 3 to 8) (size 9 to 14) (size 15 to 20)
#    0.000    1.000    5.000    1.500    5.250    2.000 
#    2.250    1.250    0.000    0.000    0.000    0.000 
#    0.000    0.000    0.000    0.000    0.000    0.000 
#
# Total GULP energy -89298.641775 kJ/mol
# GULP energy per Si atom -5581.165111 kJ/mol
# Density = 2.612503 g / cm^3
# Si number density = 26.184624 Si / 1000 Ang^3
#
#
#
# Elastic Constant Matrix: (Units=GPa)
#
#
# Indices 1 2 3 4 5 6 
#
# 1 158.1164 31.4812 48.3273 0.0000 28.0987 0.0000
# 2 31.4812 15.6807 -6.4494 0.0000 -14.5204 0.0000
# 3 48.3273 -6.4494 83.7602 0.0000 -0.0098 0.0000
# 4 0.0000 0.0000 0.0000 36.6758 0.0000 -2.9165
# 5 28.0987 -14.5204 -0.0098 0.0000 52.8977 0.0000
# 6 0.0000 0.0000 0.0000 -2.9165 0.0000 48.6760
#
#
#
# Elastic Compliance Matrix: (Units=1/GPa)
#
#
# Indices 1 2 3 4 5 6 
#
# 1 -0.020331 0.077922 0.017734 0.000000 0.032193 0.000000
# 2 0.077922 -0.209345 -0.061090 0.000000 -0.098868 0.000000
# 3 0.017734 -0.061090 -0.003000 0.000000 -0.026190 0.000000
# 4 0.000000 0.000000 0.000000 0.027397 0.000000 0.001641
# 5 0.032193 -0.098868 -0.026190 0.000000 -0.025340 0.000000
# 6 0.000000 0.000000 0.000000 0.001641 0.000000 0.020642
#
#
# Mechanical properties :
#
#
# Convention : Reuss Voigt Hill
#
# Bulk Modulus (GPa) = -6.11460 44.91950 19.40245
# Shear Modulus (GPa) = -14.98686 39.92976 12.47145
#
# Velocity S-wave (km/s) = -2.39499 3.90927 2.18477
# Velocity P-wave (km/s) = 3.16041 6.12933 3.71352
#
# Compressibility (1/GPa) = -0.16354299
#
# Stress axis : x y z
#
# Youngs Moduli (GPa) = -49.18545 -4.77680 -333.32371
#
# Poissons Ratio (x) = 0.37222 5.91121
# Poissons Ratio (y) = 3.83264 -20.36262
# Poissons Ratio (z) = 0.87226 -0.29181
#
# Static dielectric constant tensor:
#      x y z
#    x 2.054930 0.000000 -0.034170 
#    y 0.000000 2.310880 0.000000 
#    z -0.034170 0.000000 2.090090 
# 
# From -- ./inp_files/9263.got.cif
#   From: 2010.05.17/outbox.cif.g08.bks.cpg/sg9_5_cif.got.tgz:9263.got - 2010.06.03 20:04:27.
