data_PCOD9135051
_publ_section_title
;
Structure prediction by ZEFSAII (Michael W. Deem and Ramdas Pophale) SiO2 
 PCOD9135051
Probable space group: C C
;
_chemical_formula_sum "Si O2"
_cell_formula_units_Z 28
_cell_length_a 9.512255
_cell_length_b 11.832981
_cell_length_c 12.397041
_cell_angle_alpha 90.000000
_cell_angle_beta 126.637371
_cell_angle_gamma 90.000000
_cell_volume 1119.700804
_symmetry_space_group_name_H-M "C C"
_symmetry_group_IT_number 9
_symmetry_cell_setting 'monoclinic'
loop_
_space_group_symop_operation_xyz
x,y,z
x,-y,1/2+z
1/2+x,1/2+y,z
1/2+x,1/2-y,1/2+z
loop_
_atom_site_type_symbol
_atom_site_label
_atom_site_fract_x
_atom_site_fract_y
_atom_site_fract_z
Si Si1 0.523550 0.785174 0.194810
Si Si2 0.373744 0.001777 0.525213
Si Si3 0.364138 0.365329 0.932899
Si Si4 0.347283 0.365253 0.461334
Si Si5 0.671334 0.881244 0.058082
Si Si6 0.592645 0.222819 0.165688
Si Si7 0.507214 0.603900 0.817034
O O1 0.657953 0.807724 0.352696
O O2 0.645954 0.792611 0.142945
O O3 0.407389 0.899073 0.127471
O O4 0.414275 0.676724 0.107576
O O5 0.466482 0.886127 0.604517
O O6 0.172008 0.978687 0.408285
O O7 0.491552 0.046941 0.477904
O O8 0.234270 0.335079 0.973495
O O9 0.543057 0.300228 0.041028
O O10 0.357136 0.499992 0.946065
O O11 0.284328 0.321359 0.784957
O O12 0.463367 0.333980 0.409239
O O13 0.831219 0.951802 0.186177
O O14 0.552217 0.307269 0.245075
#
# Coordination Sequence:
#
# PCOD9135051 Si02
#       7
#     4   4   4   4   4   4   4
#     4   9  21  39  60  88 126 161 205 259 303 373
#     4  10  20  38  62  90 124 160 207 259 308 370
#     4  11  21  39  63  90 129 160 208 267 305 373
#     4  11  22  39  62  95 127 163 208 258 315 364
#     4   8  20  39  60  90 122 161 203 264 302 363
#     4  11  20  36  65  91 119 160 213 259 307 354
#     4  10  20  36  66  94 115 163 212 260 300 371
#
# _framework density 25.006678999999998
#
# number of rings (size 3 to 8) (size 9 to 14) (size 15 to 20)
#    0.857    1.143    2.857    0.857    4.000    2.286 
#    0.000    1.429    3.143    0.000    0.000    0.000 
#    0.000    0.000    0.000    0.000    0.000    0.000 
#
# Total GULP energy -77992.481663 kJ/mol
# GULP energy per Si atom -5570.891547 kJ/mol
# Density = 2.494976 g / cm^3
# Si number density = 25.006679 Si / 1000 Ang^3
#
#
#
# Elastic Constant Matrix: (Units=GPa)
#
#
# Indices 1 2 3 4 5 6 
#
# 1 64.1480 -5.4976 40.3611 0.0000 5.4801 0.0000
# 2 -5.4976 100.9913 60.8433 0.0000 9.4377 0.0000
# 3 40.3611 60.8433 153.1755 0.0000 35.0044 0.0000
# 4 0.0000 0.0000 0.0000 29.9306 0.0000 -1.7619
# 5 5.4801 9.4377 35.0044 0.0000 35.0967 0.0000
# 6 0.0000 0.0000 0.0000 -1.7619 0.0000 32.7075
#
#
#
# Elastic Compliance Matrix: (Units=1/GPa)
#
#
# Indices 1 2 3 4 5 6 
#
# 1 0.021482 0.006253 -0.009058 0.000000 0.003998 0.000000
# 2 0.006253 0.014963 -0.008352 0.000000 0.003330 0.000000
# 3 -0.009058 -0.008352 0.014761 0.000000 -0.011061 0.000000
# 4 0.000000 0.000000 0.000000 0.033517 0.000000 0.001805
# 5 0.003998 0.003330 -0.011061 0.000000 0.038005 0.000000
# 6 0.000000 0.000000 0.000000 0.001805 0.000000 0.030671
#
#
# Mechanical properties :
#
#
# Convention : Reuss Voigt Hill
#
# Bulk Modulus (GPa) = 34.61235 56.63648 45.62441
# Shear Modulus (GPa) = 26.97687 34.38750 30.68218
#
# Velocity S-wave (km/s) = 3.28805 3.71230 3.50660
# Velocity P-wave (km/s) = 5.31849 6.40879 5.88893
#
# Compressibility (1/GPa) = 0.02889143
#
# Stress axis : x y z
#
# Youngs Moduli (GPa) = 46.54973 66.83240 67.74813
#
# Poissons Ratio (x) = -0.41789 0.61366
# Poissons Ratio (y) = -0.29107 0.56584
# Poissons Ratio (z) = 0.42165 0.55819
#
# Static dielectric constant tensor:
#      x y z
#    x 2.116450 0.000000 0.061000 
#    y 0.000000 2.092280 0.000000 
#    z 0.061000 0.000000 2.065330 
# 
# From -- ./inp_files/24571.got.cif
#   From: 2010.05.17/outbox.cif.g08.bks.cpg/sg9_13_cif.got.tgz:24571.got - 2010.06.03 20:04:27.
