data_PCOD9135895
_publ_section_title
;
Structure prediction by ZEFSAII (Michael W. Deem and Ramdas Pophale) SiO2 
 PCOD9135895
Probable space group: C C
;
_chemical_formula_sum "Si O2"
_cell_formula_units_Z 32
_cell_length_a 5.808262
_cell_length_b 18.171095
_cell_length_c 14.194004
_cell_angle_alpha 90.000000
_cell_angle_beta 52.271584
_cell_angle_gamma 90.000000
_cell_volume 1184.854055
_symmetry_space_group_name_H-M "C C"
_symmetry_group_IT_number 9
_symmetry_cell_setting 'monoclinic'
loop_
_space_group_symop_operation_xyz
x,y,z
x,-y,1/2+z
1/2+x,1/2+y,z
1/2+x,1/2-y,1/2+z
loop_
_atom_site_type_symbol
_atom_site_label
_atom_site_fract_x
_atom_site_fract_y
_atom_site_fract_z
Si Si1 0.385560 0.014110 0.103740
Si Si2 0.433219 0.776645 0.067601
Si Si3 0.576386 0.377405 0.289787
Si Si4 0.862965 0.234400 0.614547
Si Si5 0.329983 0.588511 0.420792
Si Si6 0.075893 0.400796 0.286343
Si Si7 0.335554 0.559337 0.200327
Si Si8 0.880691 0.353922 0.745638
O O1 0.434420 0.086962 0.150044
O O2 0.151261 0.036419 0.082192
O O3 0.225617 0.946624 0.197651
O O4 0.697194 0.983172 0.999385
O O5 0.206962 0.805593 0.204729
O O6 0.703755 0.742115 0.058367
O O7 0.210156 0.750567 0.041134
O O8 0.592053 0.848325 0.986189
O O9 0.237748 0.384448 0.345396
O O10 0.739009 0.380550 0.349957
O O11 0.762587 0.150923 0.665529
O O12 0.746248 0.283426 0.730620
O O13 0.378195 0.569412 0.300767
O O14 0.641919 0.616142 0.378618
O O15 0.132431 0.486541 0.245420
O O16 0.199919 0.638186 0.207906
#
# Coordination Sequence:
#
# PCOD9135895 Si02
#       8
#     4   4   4   4   4   4   4   4
#     4   9  19  38  59  89 131 175 217 280 349 400
#     4   9  20  38  62  88 125 176 225 264 341 420
#     4   8  14  29  55  82 107 161 217 253 300 400
#     4  10  22  38  65  93 128 181 226 275 351 426
#     4  10  23  40  67  98 133 180 239 288 345 419
#     4   9  16  33  55  85 120 165 211 258 333 398
#     4  10  21  36  65  97 131 171 235 293 340 405
#     4  11  23  38  66 102 137 173 234 301 341 414
#
# _framework density 27.007543999999999
#
# number of rings (size 3 to 8) (size 9 to 14) (size 15 to 20)
#    0.000    2.500    1.250    0.750    5.250    1.000 
#    0.000    1.250    2.750    0.000    0.000    0.000 
#    0.000    0.000    0.000    0.000    0.000    0.000 
#
# Total GULP energy -89204.971746 kJ/mol
# GULP energy per Si atom -5575.310734 kJ/mol
# Density = 2.694607 g / cm^3
# Si number density = 27.007544 Si / 1000 Ang^3
#
#
#
# Elastic Constant Matrix: (Units=GPa)
#
#
# Indices 1 2 3 4 5 6 
#
# 1 212.8246 31.8679 25.2736 0.0000 -29.3895 0.0000
# 2 31.8679 83.9035 12.1716 0.0000 -3.3913 0.0000
# 3 25.2736 12.1716 40.1767 0.0000 -14.1891 0.0000
# 4 0.0000 0.0000 0.0000 26.3290 0.0000 -9.5047
# 5 -29.3895 -3.3913 -14.1891 0.0000 27.5922 0.0000
# 6 0.0000 0.0000 0.0000 -9.5047 0.0000 47.3437
#
#
#
# Elastic Compliance Matrix: (Units=1/GPa)
#
#
# Indices 1 2 3 4 5 6 
#
# 1 0.005863 -0.001830 -0.001231 0.000000 0.005387 0.000000
# 2 -0.001830 0.013044 -0.003571 0.000000 -0.002183 0.000000
# 3 -0.001231 -0.003571 0.031927 0.000000 0.014668 0.000000
# 4 0.000000 0.000000 0.000000 0.040949 0.000000 0.008221
# 5 0.005387 -0.002183 0.014668 0.000000 0.049254 0.000000
# 6 0.000000 0.000000 0.000000 0.008221 0.000000 0.022773
#
#
# Mechanical properties :
#
#
# Convention : Reuss Voigt Hill
#
# Bulk Modulus (GPa) = 26.61870 52.83679 39.72774
# Shear Modulus (GPa) = 26.37186 38.09242 32.23214
#
# Velocity S-wave (km/s) = 3.12823 3.75965 3.45838
# Velocity P-wave (km/s) = 4.78803 6.20103 5.53977
#
# Compressibility (1/GPa) = 0.03756758
#
# Stress axis : x y z
#
# Youngs Moduli (GPa) = 170.56514 76.66650 31.32190
#
# Poissons Ratio (x) = 0.14034 0.03856
# Poissons Ratio (y) = 0.31222 0.11185
# Poissons Ratio (z) = 0.20999 0.27378
#
# Static dielectric constant tensor:
#      x y z
#    x 2.431910 0.000000 -0.106550 
#    y 0.000000 2.143760 0.000000 
#    z -0.106550 0.000000 2.171290 
# 
# From -- ./inp_files/22246.got.cif
#   From: 2010.05.17/outbox.cif.g08.bks.cpg/sg9_12_cif.got.tgz:22246.got - 2010.06.03 20:04:27.
