data_PCOD9135483
_publ_section_title
;
Structure prediction by ZEFSAII (Michael W. Deem and Ramdas Pophale) SiO2 
 PCOD9135483
Probable space group: C C
;
_chemical_formula_sum "Si O2"
_cell_formula_units_Z 28
_cell_length_a 19.853511
_cell_length_b 8.032657
_cell_length_c 14.341652
_cell_angle_alpha 90.000000
_cell_angle_beta 35.278006
_cell_angle_gamma 90.000000
_cell_volume 1320.933701
_symmetry_space_group_name_H-M "C C"
_symmetry_group_IT_number 9
_symmetry_cell_setting 'monoclinic'
loop_
_space_group_symop_operation_xyz
x,y,z
x,-y,1/2+z
1/2+x,1/2+y,z
1/2+x,1/2-y,1/2+z
loop_
_atom_site_type_symbol
_atom_site_label
_atom_site_fract_x
_atom_site_fract_y
_atom_site_fract_z
Si Si1 0.335530 0.561919 0.050050
Si Si2 0.983772 0.909759 0.728369
Si Si3 0.237637 0.765904 0.734143
Si Si4 0.079059 0.511272 0.350869
Si Si5 0.916830 0.256587 0.128258
Si Si6 0.889042 0.442204 0.415450
Si Si7 0.245379 0.987661 0.907419
O O1 0.327148 0.388517 0.118705
O O2 0.199716 0.599808 0.187302
O O3 0.394060 0.691574 0.051213
O O4 0.403716 0.532126 0.878387
O O5 0.954064 0.893055 0.653126
O O6 0.945237 0.726423 0.808396
O O7 0.117861 0.960426 0.587491
O O8 0.117567 0.674987 0.839137
O O9 0.283598 0.895612 0.605237
O O10 0.237562 0.847772 0.835869
O O11 0.018242 0.605980 0.504957
O O12 0.992214 0.509698 0.362665
O O13 0.802095 0.348867 0.295094
O O14 0.832672 0.547027 0.395091
#
# Coordination Sequence:
#
# PCOD9135483 Si02
#       7
#     4   4   4   4   4   4   4
#     4   9  23  46  65  96 132 180 220 274 345 400
#     4  10  23  40  66  97 138 172 219 278 341 399
#     4   9  21  42  67  98 135 179 221 277 346 397
#     4  10  21  43  70  93 138 178 223 276 335 416
#     4  11  22  43  69  98 130 182 226 279 336 405
#     4  10  20  40  68 101 137 181 222 275 350 397
#     4  11  22  40  69 103 130 180 233 279 337 414
#
# _framework density 21.197127999999999
#
# number of rings (size 3 to 8) (size 9 to 14) (size 15 to 20)
#    0.857    1.143    1.429    1.714    2.000    3.429 
#    5.143    1.429    0.000    0.000    0.000    0.000 
#    0.000    0.000    0.000    0.000    0.000    0.000 
#
# Total GULP energy -78063.975984 kJ/mol
# GULP energy per Si atom -5575.998285 kJ/mol
# Density = 2.114888 g / cm^3
# Si number density = 21.197128 Si / 1000 Ang^3
#
#
#
# Elastic Constant Matrix: (Units=GPa)
#
#
# Indices 1 2 3 4 5 6 
#
# 1 158.1894 44.1274 47.8711 -0.0001 1.4284 0.0000
# 2 44.1274 31.3602 16.8996 -0.0001 -1.4508 -0.0001
# 3 47.8711 16.8996 129.2530 0.0000 -5.7875 -0.0001
# 4 -0.0001 -0.0001 0.0000 15.5618 0.0000 3.9553
# 5 1.4284 -1.4508 -5.7875 0.0000 21.9202 0.0001
# 6 0.0000 -0.0001 -0.0001 3.9553 0.0001 34.4056
#
#
#
# Elastic Compliance Matrix: (Units=1/GPa)
#
#
# Indices 1 2 3 4 5 6 
#
# 1 0.011069 -0.014434 -0.002315 0.000000 -0.002288 0.000000
# 2 -0.014434 0.053152 -0.001421 0.000000 0.004083 0.000000
# 3 -0.002315 -0.001421 0.008888 0.000000 0.002403 0.000000
# 4 0.000000 0.000000 0.000000 0.066194 0.000000 -0.007610
# 5 -0.002288 0.004083 0.002403 0.000000 0.046674 0.000000
# 6 0.000000 0.000000 0.000000 -0.007610 0.000000 0.029940
#
#
# Mechanical properties :
#
#
# Convention : Reuss Voigt Hill
#
# Bulk Modulus (GPa) = 27.19635 59.62210 43.40922
# Shear Modulus (GPa) = 18.90269 28.37116 23.63692
#
# Velocity S-wave (km/s) = 2.98947 3.66244 3.34293
# Velocity P-wave (km/s) = 4.97735 6.78772 5.95177
#
# Compressibility (1/GPa) = 0.03676964
#
# Stress axis : x y z
#
# Youngs Moduli (GPa) = 90.34160 18.81385 112.51748
#
# Poissons Ratio (x) = 0.27156 0.26046
# Poissons Ratio (y) = 1.30398 0.15988
# Poissons Ratio (z) = 0.20913 0.02673
#
# Static dielectric constant tensor:
#      x y z
#    x 1.762480 0.000000 0.002050 
#    y 0.000000 1.856990 0.000000 
#    z 0.002050 0.000000 1.757510 
# 
# From -- ./inp_files/27331.got.cif
#   From: 2010.05.17/outbox.cif.g08.bks.cpg/sg9_14_cif.got.tgz:27331.got - 2010.06.03 20:04:27.
