data_PCOD9135008
_publ_section_title
;
Structure prediction by ZEFSAII (Michael W. Deem and Ramdas Pophale) SiO2 
 PCOD9135008
Probable space group: C C
;
_chemical_formula_sum "Si O2"
_cell_formula_units_Z 32
_cell_length_a 12.727920
_cell_length_b 26.441799
_cell_length_c 8.319960
_cell_angle_alpha 90.000000
_cell_angle_beta 146.233693
_cell_angle_gamma 90.000000
_cell_volume 1556.300920
_symmetry_space_group_name_H-M "C C"
_symmetry_group_IT_number 9
_symmetry_cell_setting 'monoclinic'
loop_
_space_group_symop_operation_xyz
x,y,z
x,-y,1/2+z
1/2+x,1/2+y,z
1/2+x,1/2-y,1/2+z
loop_
_atom_site_type_symbol
_atom_site_label
_atom_site_fract_x
_atom_site_fract_y
_atom_site_fract_z
Si Si1 0.972060 0.573772 0.742870
Si Si2 0.602205 0.819185 0.469907
Si Si3 0.488687 0.649070 0.513425
Si Si4 0.441944 0.470138 0.376590
Si Si5 0.049952 0.523733 0.184094
Si Si6 0.158234 0.946051 0.351189
Si Si7 0.190523 0.789163 0.022092
Si Si8 0.048783 0.111011 0.247368
O O1 0.750548 0.582382 0.499061
O O2 0.011272 0.536228 0.646855
O O3 0.054412 0.629291 0.817238
O O4 0.052495 0.548433 0.010189
O O5 0.408811 0.804156 0.309434
O O6 0.661348 0.769348 0.446060
O O7 0.783429 0.833384 0.807588
O O8 0.602289 0.612889 0.773479
O O9 0.599823 0.696549 0.579326
O O10 0.470901 0.614133 0.329193
O O11 0.618515 0.462962 0.481049
O O12 0.507790 0.519096 0.560959
O O13 0.425317 0.421712 0.471761
O O14 0.249831 0.471143 0.029583
O O15 0.868031 0.546254 0.048362
O O16 0.094039 0.829383 0.776880
#
# Coordination Sequence:
#
# PCOD9135008 Si02
#       8
#     4   4   4   4   4   4   4   4
#     4  11  23  39  62  88 132 162 216 250 315 368
#     4  11  18  36  61  97 114 163 202 269 303 366
#     4  10  20  36  60  87 123 155 206 260 309 358
#     4  12  24  37  60  87 127 168 210 251 312 377
#     4  12  23  41  57  93 128 173 205 258 308 384
#     4  12  23  39  58  89 127 169 209 261 307 375
#     4   9  19  34  60  91 123 145 213 265 306 353
#     4   9  20  40  56  90 122 159 201 266 298 375
#
# _framework density 20.561575999999999
#
# number of rings (size 3 to 8) (size 9 to 14) (size 15 to 20)
#    0.750    0.500    3.750    3.750    0.000    1.000 
#    2.250    0.000    0.000    0.000   22.750    0.000 
#    0.000    0.000    0.000    0.000    0.000    0.000 
#
# Total GULP energy -89163.647571 kJ/mol
# GULP energy per Si atom -5572.727973 kJ/mol
# Density = 2.051478 g / cm^3
# Si number density = 20.561576 Si / 1000 Ang^3
#
#
#
# Elastic Constant Matrix: (Units=GPa)
#
#
# Indices 1 2 3 4 5 6 
#
# 1 44.5915 14.3474 12.8048 0.0000 9.6648 0.0000
# 2 14.3474 145.8882 25.2282 0.0000 -1.6921 0.0000
# 3 12.8048 25.2282 79.5649 0.0000 18.6646 0.0000
# 4 0.0000 0.0000 0.0000 29.5479 0.0000 7.7257
# 5 9.6648 -1.6921 18.6646 0.0000 35.3287 0.0000
# 6 0.0000 0.0000 0.0000 7.7257 0.0000 22.4224
#
#
#
# Elastic Compliance Matrix: (Units=1/GPa)
#
#
# Indices 1 2 3 4 5 6 
#
# 1 0.024968 -0.002189 -0.001937 0.000000 -0.005912 0.000000
# 2 -0.002189 0.007544 -0.002585 0.000000 0.002326 0.000000
# 3 -0.001937 -0.002585 0.015529 0.000000 -0.007798 0.000000
# 4 0.000000 0.000000 0.000000 0.037194 0.000000 -0.012815
# 5 -0.005912 0.002326 -0.007798 0.000000 0.034154 0.000000
# 6 0.000000 0.000000 0.000000 -0.012815 0.000000 0.049014
#
#
# Mechanical properties :
#
#
# Convention : Reuss Voigt Hill
#
# Bulk Modulus (GPa) = 28.88712 41.64505 35.26609
# Shear Modulus (GPa) = 25.85777 31.97074 28.91426
#
# Velocity S-wave (km/s) = 3.55008 3.94747 3.75404
# Velocity P-wave (km/s) = 5.55731 6.40894 5.99826
#
# Compressibility (1/GPa) = 0.03461751
#
# Stress axis : x y z
#
# Youngs Moduli (GPa) = 40.05169 132.55737 64.39476
#
# Poissons Ratio (x) = 0.29017 0.12475
# Poissons Ratio (y) = 0.08767 0.16648
# Poissons Ratio (z) = 0.07759 0.34271
#
# Static dielectric constant tensor:
#      x y z
#    x 1.762980 0.000000 0.031550 
#    y 0.000000 1.786120 0.000000 
#    z 0.031550 0.000000 1.774650 
# 
# From -- ./inp_files/10183.got.cif
#   From: 2010.05.17/outbox.cif.g08.bks.cpg/sg9_6_cif.got.tgz:10183.got - 2010.06.03 20:04:27.
