data_PCOD9135638
_publ_section_title
;
Structure prediction by ZEFSAII (Michael W. Deem and Ramdas Pophale) SiO2 
 PCOD9135638
Probable space group: C C
;
_chemical_formula_sum "Si O2"
_cell_formula_units_Z 32
_cell_length_a 6.781121
_cell_length_b 11.317988
_cell_length_c 21.573143
_cell_angle_alpha 90.000000
_cell_angle_beta 119.193766
_cell_angle_gamma 90.000000
_cell_volume 1445.393270
_symmetry_space_group_name_H-M "C C"
_symmetry_group_IT_number 9
_symmetry_cell_setting 'monoclinic'
loop_
_space_group_symop_operation_xyz
x,y,z
x,-y,1/2+z
1/2+x,1/2+y,z
1/2+x,1/2-y,1/2+z
loop_
_atom_site_type_symbol
_atom_site_label
_atom_site_fract_x
_atom_site_fract_y
_atom_site_fract_z
Si Si1 0.495230 0.751082 0.410690
Si Si2 0.641802 0.254766 0.143151
Si Si3 0.134753 0.136990 0.219877
Si Si4 0.033665 0.990570 0.585744
Si Si5 0.240092 0.116738 0.774122
Si Si6 0.042152 0.576657 0.030690
Si Si7 0.738065 0.819802 0.330104
Si Si8 0.552386 0.492822 0.447660
O O1 0.290513 0.819697 0.346149
O O2 0.440860 0.620706 0.424218
O O3 0.573835 0.829157 0.480217
O O4 0.676699 0.744005 0.382466
O O5 0.888050 0.195717 0.182639
O O6 0.597845 0.300291 0.205971
O O7 0.774907 0.005062 0.071143
O O8 0.499897 0.155639 0.085640
O O9 0.280112 0.234470 0.278595
O O10 0.167989 0.093425 0.154301
O O11 0.142908 0.014434 0.259679
O O12 0.135090 0.122414 0.604003
O O13 0.019232 0.950020 0.512997
O O14 0.498184 0.109841 0.785001
O O15 0.822114 0.501145 0.981528
O O16 0.932465 0.907582 0.380666
#
# Coordination Sequence:
#
# PCOD9135638 Si02
#       8
#     4   4   4   4   4   4   4   4
#     4  10  22  39  61  94 131 162 215 265 314 383
#     4   9  18  38  63  93 128 163 215 265 316 382
#     4   9  18  37  73  91 124 175 214 259 332 377
#     4  10  20  42  65  92 133 168 213 274 319 375
#     4   8  18  37  65  87 126 172 201 273 322 370
#     4  11  23  38  63  93 126 177 210 265 326 378
#     4   9  21  39  61  92 130 169 212 272 319 378
#     4  12  24  40  65  96 130 170 222 261 320 393
#
# _framework density 22.139303000000002
#
# number of rings (size 3 to 8) (size 9 to 14) (size 15 to 20)
#    0.750    1.500    2.500    0.000    1.750    2.000 
#    0.000    5.000    0.000    0.000    0.000    0.000 
#    0.000    0.000    0.000    0.000    0.000    0.000 
#
# Total GULP energy -89168.257696 kJ/mol
# GULP energy per Si atom -5573.016106 kJ/mol
# Density = 2.208891 g / cm^3
# Si number density = 22.139303 Si / 1000 Ang^3
#
#
#
# Elastic Constant Matrix: (Units=GPa)
#
#
# Indices 1 2 3 4 5 6 
#
# 1 56.2360 24.8649 22.7916 0.0000 3.1033 0.0000
# 2 24.8649 118.2732 71.3265 0.0000 8.9121 0.0000
# 3 22.7916 71.3265 123.7342 0.0000 9.1275 0.0000
# 4 0.0000 0.0000 0.0000 46.8215 0.0000 4.3515
# 5 3.1033 8.9121 9.1275 0.0000 22.9473 0.0000
# 6 0.0000 0.0000 0.0000 4.3515 0.0000 18.8302
#
#
#
# Elastic Compliance Matrix: (Units=1/GPa)
#
#
# Indices 1 2 3 4 5 6 
#
# 1 0.019912 -0.002989 -0.001887 0.000000 -0.000781 0.000000
# 2 -0.002989 0.013511 -0.007088 0.000000 -0.002023 0.000000
# 3 -0.001887 -0.007088 0.012665 0.000000 -0.002030 0.000000
# 4 0.000000 0.000000 0.000000 0.021827 0.000000 -0.005044
# 5 -0.000781 -0.002023 -0.002030 0.000000 0.045277 0.000000
# 6 0.000000 0.000000 0.000000 -0.005044 0.000000 0.054272
#
#
# Mechanical properties :
#
#
# Convention : Reuss Voigt Hill
#
# Bulk Modulus (GPa) = 45.12927 59.57882 52.35404
# Shear Modulus (GPa) = 25.15367 29.67048 27.41207
#
# Velocity S-wave (km/s) = 3.37435 3.66481 3.52257
# Velocity P-wave (km/s) = 5.96742 6.69903 6.34378
#
# Compressibility (1/GPa) = 0.02215857
#
# Stress axis : x y z
#
# Youngs Moduli (GPa) = 50.22150 74.01581 78.95674
#
# Poissons Ratio (x) = 0.22126 0.14898
# Poissons Ratio (y) = 0.15013 0.55967
# Poissons Ratio (z) = 0.09476 0.52465
#
# Static dielectric constant tensor:
#      x y z
#    x 1.870100 0.000000 -0.015850 
#    y 0.000000 1.779970 0.000000 
#    z -0.015850 0.000000 1.833980 
# 
# From -- ./inp_files/34985.got.cif
#   From: 2010.05.17/outbox.cif.g08.bks.cpg/sg9_18_cif.got.tgz:34985.got - 2010.06.03 20:04:27.
