data_PCOD9135149
_publ_section_title
;
Structure prediction by ZEFSAII (Michael W. Deem and Ramdas Pophale) SiO2 
 PCOD9135149
Probable space group: C C
;
_chemical_formula_sum "Si O2"
_cell_formula_units_Z 32
_cell_length_a 11.911642
_cell_length_b 7.131754
_cell_length_c 14.888865
_cell_angle_alpha 90.000000
_cell_angle_beta 109.958977
_cell_angle_gamma 90.000000
_cell_volume 1188.853787
_symmetry_space_group_name_H-M "C C"
_symmetry_group_IT_number 9
_symmetry_cell_setting 'monoclinic'
loop_
_space_group_symop_operation_xyz
x,y,z
x,-y,1/2+z
1/2+x,1/2+y,z
1/2+x,1/2-y,1/2+z
loop_
_atom_site_type_symbol
_atom_site_label
_atom_site_fract_x
_atom_site_fract_y
_atom_site_fract_z
Si Si1 0.578730 0.004275 0.834610
Si Si2 0.982126 0.587078 0.633146
Si Si3 0.714800 0.642017 0.181753
Si Si4 0.303536 0.491848 0.273247
Si Si5 0.848427 0.940039 0.587598
Si Si6 0.067374 0.179555 0.615623
Si Si7 0.198584 0.253004 0.974446
Si Si8 0.570383 0.408710 0.906454
O O1 0.470167 0.026617 0.734741
O O2 0.690923 0.939895 0.802216
O O3 0.604674 0.210163 0.876539
O O4 0.574608 0.863934 0.917855
O O5 0.020905 0.393169 0.598578
O O6 0.093388 0.731666 0.660136
O O7 0.877673 0.725031 0.571597
O O8 0.800956 0.764773 0.266814
O O9 0.684624 0.425104 0.187972
O O10 0.738864 0.675874 0.082520
O O11 0.280648 0.559903 0.164087
O O12 0.434870 0.552077 0.338472
O O13 0.965101 0.064002 0.639899
O O14 0.785400 0.065596 0.494676
O O15 0.066154 0.108268 0.512784
O O16 0.169522 0.066163 0.910804
#
# Coordination Sequence:
#
# PCOD9135149 Si02
#       8
#     4   4   4   4   4   4   4   4
#     4  11  23  39  64  98 138 183 235 308 367 430
#     4  10  20  37  65  95 133 181 230 291 352 436
#     4   8  19  39  60  91 131 184 223 292 354 425
#     4  10  21  41  66  93 139 185 236 300 365 428
#     4  10  21  42  65  96 137 185 236 290 366 441
#     4  10  21  38  69 100 136 181 242 291 366 437
#     4  10  22  39  63  92 137 182 234 295 361 419
#     4  11  23  43  66 101 141 185 244 309 361 436
#
# _framework density 26.916681000000001
#
# number of rings (size 3 to 8) (size 9 to 14) (size 15 to 20)
#    0.000    2.000    1.250    1.500    1.750    1.000 
#    0.000   12.500    0.000    0.000    0.000    0.000 
#    0.000    0.000    0.000    0.000    0.000    0.000 
#
# Total GULP energy -89222.895590 kJ/mol
# GULP energy per Si atom -5576.430974 kJ/mol
# Density = 2.685542 g / cm^3
# Si number density = 26.916681 Si / 1000 Ang^3
#
#
#
# Elastic Constant Matrix: (Units=GPa)
#
#
# Indices 1 2 3 4 5 6 
#
# 1 71.1284 26.7986 -1.5918 0.0000 -4.9840 0.0000
# 2 26.7986 202.4057 4.7115 0.0000 7.7003 0.0000
# 3 -1.5918 4.7115 51.7810 0.0000 -2.1837 0.0000
# 4 0.0000 0.0000 0.0000 36.3297 0.0000 2.7416
# 5 -4.9840 7.7003 -2.1837 0.0000 29.9033 0.0000
# 6 0.0000 0.0000 0.0000 2.7416 0.0000 34.8902
#
#
#
# Elastic Compliance Matrix: (Units=1/GPa)
#
#
# Indices 1 2 3 4 5 6 
#
# 1 0.015101 -0.002137 0.000790 0.000000 0.003125 0.000000
# 2 -0.002137 0.005305 -0.000623 0.000000 -0.001768 0.000000
# 3 0.000790 -0.000623 0.019465 0.000000 0.001714 0.000000
# 4 0.000000 0.000000 0.000000 0.027690 0.000000 -0.002176
# 5 0.003125 -0.001768 0.001714 0.000000 0.034542 0.000000
# 6 0.000000 0.000000 0.000000 -0.002176 0.000000 0.028832
#
#
# Mechanical properties :
#
#
# Convention : Reuss Voigt Hill
#
# Bulk Modulus (GPa) = 27.82960 42.79464 35.31212
# Shear Modulus (GPa) = 34.04795 39.91776 36.98286
#
# Velocity S-wave (km/s) = 3.56046 3.85517 3.71074
# Velocity P-wave (km/s) = 5.22150 5.97912 5.61311
#
# Compressibility (1/GPa) = 0.03593296
#
# Stress axis : x y z
#
# Youngs Moduli (GPa) = 66.22202 188.49389 51.37331
#
# Poissons Ratio (x) = 0.40274 -0.04061
# Poissons Ratio (y) = 0.14149 0.03200
# Poissons Ratio (z) = -0.05234 0.11742
#
# Static dielectric constant tensor:
#      x y z
#    x 2.229240 0.000000 0.038140 
#    y 0.000000 2.103460 0.000000 
#    z 0.038140 0.000000 2.227300 
# 
# From -- ./inp_files/30498.got.cif
#   From: 2010.05.17/outbox.cif.g08.bks.cpg/sg9_16_cif.got.tgz:30498.got - 2010.06.03 20:04:27.
