data_PCOD9135656
_publ_section_title
;
Structure prediction by ZEFSAII (Michael W. Deem and Ramdas Pophale) SiO2 
 PCOD9135656
Probable space group: C C
;
_chemical_formula_sum "Si O2"
_cell_formula_units_Z 28
_cell_length_a 13.155377
_cell_length_b 14.498159
_cell_length_c 5.405834
_cell_angle_alpha 90.000000
_cell_angle_beta 96.014427
_cell_angle_gamma 90.000000
_cell_volume 1025.372589
_symmetry_space_group_name_H-M "C C"
_symmetry_group_IT_number 9
_symmetry_cell_setting 'monoclinic'
loop_
_space_group_symop_operation_xyz
x,y,z
x,-y,1/2+z
1/2+x,1/2+y,z
1/2+x,1/2-y,1/2+z
loop_
_atom_site_type_symbol
_atom_site_label
_atom_site_fract_x
_atom_site_fract_y
_atom_site_fract_z
Si Si1 0.050580 0.946342 0.044810
Si Si2 0.242293 0.268625 0.995450
Si Si3 0.294601 0.052052 0.540941
Si Si4 0.535430 0.711147 0.913709
Si Si5 0.604606 0.131612 0.133971
Si Si6 0.426764 0.207104 0.780088
Si Si7 0.756239 0.031513 0.690907
O O1 0.173456 0.936986 0.046866
O O2 0.016803 0.850321 0.167570
O O3 0.023902 0.016294 0.264993
O O4 0.353616 0.228981 0.992948
O O5 0.240360 0.359628 0.164709
O O6 0.153409 0.195449 0.034022
O O7 0.206865 0.306999 0.713040
O O8 0.353473 0.146016 0.593857
O O9 0.324445 0.009547 0.286368
O O10 0.542414 0.820192 0.842680
O O11 0.460539 0.706294 0.123228
O O12 0.529602 0.154356 0.891861
O O13 0.650431 0.029368 0.158349
O O14 0.809797 0.000277 0.953630
#
# Coordination Sequence:
#
# PCOD9135656 Si02
#       7
#     4   4   4   4   4   4   4
#     4  10  22  44  71  94 135 184 235 297 363 422
#     4   9  22  45  64 105 142 187 232 304 360 440
#     4  10  23  41  65 102 137 182 235 298 361 431
#     4  10  23  44  65 103 135 187 237 298 361 436
#     4   9  23  41  68  98 140 189 236 297 351 434
#     4  12  23  43  70 106 140 194 242 298 372 441
#     4  10  20  42  67 100 143 191 233 292 366 428
#
# _framework density 27.307147000000001
#
# number of rings (size 3 to 8) (size 9 to 14) (size 15 to 20)
#    0.857    1.143    1.429    0.857    4.000    3.429 
#   10.286    2.857    0.000    0.000    0.000    0.000 
#    0.000    0.000    0.000    0.000    0.000    0.000 
#
# Total GULP energy -78205.597628 kJ/mol
# GULP energy per Si atom -5586.114116 kJ/mol
# Density = 2.724500 g / cm^3
# Si number density = 27.307147 Si / 1000 Ang^3
#
#
#
# Elastic Constant Matrix: (Units=GPa)
#
#
# Indices 1 2 3 4 5 6 
#
# 1 119.0526 45.2072 37.4776 0.0000 -5.5772 0.0000
# 2 45.2072 88.0687 18.6210 0.0000 -3.2511 0.0000
# 3 37.4776 18.6210 123.5091 0.0000 17.4911 0.0000
# 4 0.0000 0.0000 0.0000 49.1163 0.0000 -5.6445
# 5 -5.5772 -3.2511 17.4911 0.0000 19.4209 0.0000
# 6 0.0000 0.0000 0.0000 -5.6445 0.0000 28.2219
#
#
#
# Elastic Compliance Matrix: (Units=1/GPa)
#
#
# Indices 1 2 3 4 5 6 
#
# 1 0.011722 -0.005039 -0.003616 0.000000 0.005779 0.000000
# 2 -0.005039 0.014183 -0.000849 0.000000 0.001692 0.000000
# 3 -0.003616 -0.000849 0.010876 0.000000 -0.010976 0.000000
# 4 0.000000 0.000000 0.000000 0.020839 0.000000 0.004168
# 5 0.005779 0.001692 -0.010976 0.000000 0.063319 0.000000
# 6 0.000000 0.000000 0.000000 0.004168 0.000000 0.036267
#
#
# Mechanical properties :
#
#
# Convention : Reuss Voigt Hill
#
# Bulk Modulus (GPa) = 56.26176 59.24911 57.75544
# Shear Modulus (GPa) = 27.45164 34.64014 31.04589
#
# Velocity S-wave (km/s) = 3.17407 3.56552 3.37547
# Velocity P-wave (km/s) = 5.83790 6.22053 6.03225
#
# Compressibility (1/GPa) = 0.01777406
#
# Stress axis : x y z
#
# Youngs Moduli (GPa) = 85.30872 70.50457 91.94536
#
# Poissons Ratio (x) = 0.35530 0.33244
# Poissons Ratio (y) = 0.42990 0.07804
# Poissons Ratio (z) = 0.30844 0.05985
#
# Static dielectric constant tensor:
#      x y z
#    x 2.120850 0.000000 0.007290 
#    y 0.000000 2.180610 0.000000 
#    z 0.007290 0.000000 2.218690 
# 
# From -- ./inp_files/2409.got.cif
#   From: 2010.05.17/outbox.cif.g08.bks.cpg/sg9_2_cif.got.tgz:2409.got - 2010.06.03 20:04:27.
