data_PCOD9135546
_publ_section_title
;
Structure prediction by ZEFSAII (Michael W. Deem and Ramdas Pophale) SiO2 
 PCOD9135546
Probable space group: C C
;
_chemical_formula_sum "Si O2"
_cell_formula_units_Z 28
_cell_length_a 6.272817
_cell_length_b 20.055887
_cell_length_c 12.192678
_cell_angle_alpha 90.000000
_cell_angle_beta 49.554062
_cell_angle_gamma 90.000000
_cell_volume 1167.343758
_symmetry_space_group_name_H-M "C C"
_symmetry_group_IT_number 9
_symmetry_cell_setting 'monoclinic'
loop_
_space_group_symop_operation_xyz
x,y,z
x,-y,1/2+z
1/2+x,1/2+y,z
1/2+x,1/2-y,1/2+z
loop_
_atom_site_type_symbol
_atom_site_label
_atom_site_fract_x
_atom_site_fract_y
_atom_site_fract_z
Si Si1 0.000000 0.191018 0.367710
Si Si2 0.530981 0.741986 0.133179
Si Si3 0.107720 0.101286 0.530305
Si Si4 0.642414 0.006629 0.578212
Si Si5 0.334095 0.382850 0.589306
Si Si6 0.746250 0.064399 0.334567
Si Si7 0.692102 0.620698 0.748318
O O1 0.789086 0.250445 0.465676
O O2 0.822242 0.128411 0.382210
O O3 0.154677 0.215788 0.207394
O O4 0.119299 0.163632 0.441770
O O5 0.314138 0.689399 0.151335
O O6 0.390762 0.814093 0.189486
O O7 0.417113 0.070003 0.419094
O O8 0.049143 0.123882 0.675212
O O9 0.877588 0.047750 0.567824
O O10 0.762001 0.004120 0.413896
O O11 0.374293 0.053193 0.679669
O O12 0.582551 0.930955 0.634392
O O13 0.429705 0.426725 0.664302
O O14 0.520388 0.379073 0.418775
#
# Coordination Sequence:
#
# PCOD9135546 Si02
#       7
#     4   4   4   4   4   4   4
#     4  10  20  41  64  92 131 179 222 281 342 398
#     4  11  20  44  65  97 139 175 229 290 334 408
#     4  10  20  42  69  89 133 181 218 276 351 401
#     4  10  23  43  66  98 135 178 226 285 346 403
#     4  11  25  40  73 101 134 185 229 282 352 406
#     4   9  21  43  64  93 137 173 222 286 340 403
#     4  11  23  45  69  98 139 179 228 288 343 415
#
# _framework density 23.986080000000001
#
# number of rings (size 3 to 8) (size 9 to 14) (size 15 to 20)
#    0.000    1.714    5.714    0.000    4.000    0.000 
#    7.714    4.286    0.000    0.000    0.000    0.000 
#    0.000    0.000    0.000    0.000    0.000    0.000 
#
# Total GULP energy -78027.498890 kJ/mol
# GULP energy per Si atom -5573.392778 kJ/mol
# Density = 2.393149 g / cm^3
# Si number density = 23.986080 Si / 1000 Ang^3
#
#
#
# Elastic Constant Matrix: (Units=GPa)
#
#
# Indices 1 2 3 4 5 6 
#
# 1 70.4882 7.2960 19.4730 0.0000 23.7110 0.0000
# 2 7.2960 95.1416 19.4548 0.0000 11.5450 0.0000
# 3 19.4730 19.4548 149.5261 0.0000 49.1515 0.0000
# 4 0.0000 0.0000 0.0000 16.8692 0.0000 4.5020
# 5 23.7110 11.5450 49.1515 0.0000 37.6943 0.0000
# 6 0.0000 0.0000 0.0000 4.5020 0.0000 33.2004
#
#
#
# Elastic Compliance Matrix: (Units=1/GPa)
#
#
# Indices 1 2 3 4 5 6 
#
# 1 0.018506 -0.000126 0.002486 0.000000 -0.014844 0.000000
# 2 -0.000126 0.010944 -0.000581 0.000000 -0.002515 0.000000
# 3 0.002486 -0.000581 0.012068 0.000000 -0.017121 0.000000
# 4 0.000000 0.000000 0.000000 0.061506 0.000000 -0.008340
# 5 -0.014844 -0.002515 -0.017121 0.000000 0.058962 0.000000
# 6 0.000000 0.000000 0.000000 -0.008340 0.000000 0.031251
#
#
# Mechanical properties :
#
#
# Convention : Reuss Voigt Hill
#
# Bulk Modulus (GPa) = 22.18489 45.28927 33.73708
# Shear Modulus (GPa) = 24.42541 35.48157 29.95349
#
# Velocity S-wave (km/s) = 3.19457 3.85028 3.53765
# Velocity P-wave (km/s) = 4.78290 6.22003 5.54819
#
# Compressibility (1/GPa) = 0.04507572
#
# Stress axis : x y z
#
# Youngs Moduli (GPa) = 54.03576 91.37178 82.86592
#
# Poissons Ratio (x) = 0.01153 -0.20597
# Poissons Ratio (y) = 0.00682 0.04812
# Poissons Ratio (z) = -0.13431 0.05305
#
# Static dielectric constant tensor:
#      x y z
#    x 1.962770 0.000000 0.043440 
#    y 0.000000 1.932440 0.000000 
#    z 0.043440 0.000000 1.960740 
# 
# From -- ./inp_files/13273.got.cif
#   From: 2010.05.17/outbox.cif.g08.bks.cpg/sg9_7_cif.got.tgz:13273.got - 2010.06.03 20:04:27.
