data_PCOD9135972
_publ_section_title
;
Structure prediction by ZEFSAII (Michael W. Deem and Ramdas Pophale) SiO2 
 PCOD9135972
Probable space group: C C
;
_chemical_formula_sum "Si O2"
_cell_formula_units_Z 28
_cell_length_a 10.560379
_cell_length_b 21.004832
_cell_length_c 8.469925
_cell_angle_alpha 90.000000
_cell_angle_beta 136.452115
_cell_angle_gamma 90.000000
_cell_volume 1294.412350
_symmetry_space_group_name_H-M "C C"
_symmetry_group_IT_number 9
_symmetry_cell_setting 'monoclinic'
loop_
_space_group_symop_operation_xyz
x,y,z
x,-y,1/2+z
1/2+x,1/2+y,z
1/2+x,1/2-y,1/2+z
loop_
_atom_site_type_symbol
_atom_site_label
_atom_site_fract_x
_atom_site_fract_y
_atom_site_fract_z
Si Si1 0.697240 0.666121 0.714490
Si Si2 0.377906 0.954754 0.314003
Si Si3 0.865654 0.783662 0.749074
Si Si4 0.732134 0.827115 0.151710
Si Si5 0.593479 0.688995 0.138883
Si Si6 0.559193 0.149625 0.158671
Si Si7 0.416664 0.911402 0.993210
O O1 0.699846 0.590800 0.685883
O O2 0.812140 0.709310 0.691708
O O3 0.499877 0.696482 0.515773
O O4 0.846369 0.674051 0.989533
O O5 0.524438 0.921947 0.565989
O O6 0.371149 0.028740 0.339976
O O7 0.420036 0.938672 0.172408
O O8 0.966918 0.804391 0.682006
O O9 0.676138 0.818035 0.623651
O O10 0.949197 0.833930 0.375560
O O11 0.673315 0.757474 0.161554
O O12 0.666858 0.837423 0.914265
O O13 0.611735 0.878965 0.135953
O O14 0.757583 0.640345 0.319737
#
# Coordination Sequence:
#
# PCOD9135972 Si02
#       7
#     4   4   4   4   4   4   4
#     4  10  21  37  67  97 132 175 227 276 343 399
#     4  10  23  47  69  96 138 185 224 278 348 414
#     4  12  20  40  70  98 133 179 231 286 343 408
#     4  12  26  42  69 103 141 180 232 291 350 403
#     4  12  25  42  70 103 138 182 230 293 347 405
#     4  10  25  41  65 101 136 179 228 286 339 416
#     4  12  24  49  70 100 142 180 236 282 348 421
#
# _framework density 21.631437999999999
#
# number of rings (size 3 to 8) (size 9 to 14) (size 15 to 20)
#    0.857    0.000    4.286    3.429    2.000    1.143 
#    2.571    0.000    0.000    0.000    0.000    0.000 
#    0.000    0.000    0.000    0.000    0.000    0.000 
#
# Total GULP energy -78067.544921 kJ/mol
# GULP energy per Si atom -5576.253209 kJ/mol
# Density = 2.158220 g / cm^3
# Si number density = 21.631438 Si / 1000 Ang^3
#
#
#
# Elastic Constant Matrix: (Units=GPa)
#
#
# Indices 1 2 3 4 5 6 
#
# 1 45.1796 17.0767 20.4656 0.0000 -1.8912 0.0000
# 2 17.0767 130.4510 22.8613 0.0000 1.2414 0.0000
# 3 20.4656 22.8613 116.6078 0.0000 5.9730 0.0000
# 4 0.0000 0.0000 0.0000 33.8409 0.0000 -2.4941
# 5 -1.8912 1.2414 5.9730 0.0000 45.1961 0.0000
# 6 0.0000 0.0000 0.0000 -2.4941 0.0000 18.1213
#
#
#
# Elastic Compliance Matrix: (Units=1/GPa)
#
#
# Indices 1 2 3 4 5 6 
#
# 1 0.024975 -0.002591 -0.003959 0.000000 0.001640 0.000000
# 2 -0.002591 0.008207 -0.001145 0.000000 -0.000183 0.000000
# 3 -0.003959 -0.001145 0.009567 0.000000 -0.001399 0.000000
# 4 0.000000 0.000000 0.000000 0.029853 0.000000 0.004109
# 5 0.001640 -0.000183 -0.001399 0.000000 0.022384 0.000000
# 6 0.000000 0.000000 0.000000 0.004109 0.000000 0.055749
#
#
# Mechanical properties :
#
#
# Convention : Reuss Voigt Hill
#
# Bulk Modulus (GPa) = 36.55161 45.89394 41.22277
# Shear Modulus (GPa) = 28.53131 34.88731 31.70931
#
# Velocity S-wave (km/s) = 3.63571 4.02033 3.83285
# Velocity P-wave (km/s) = 5.87866 6.54317 6.21980
#
# Compressibility (1/GPa) = 0.02735858
#
# Stress axis : x y z
#
# Youngs Moduli (GPa) = 40.03939 121.84287 104.52854
#
# Poissons Ratio (x) = 0.31571 0.41387
# Poissons Ratio (y) = 0.10375 0.11968
# Poissons Ratio (z) = 0.15853 0.13950
#
# Static dielectric constant tensor:
#      x y z
#    x 1.812960 0.000000 -0.040880 
#    y 0.000000 1.772930 0.000000 
#    z -0.040880 0.000000 1.876040 
# 
# From -- ./inp_files/8348.got.cif
#   From: 2010.05.17/outbox.cif.g08.bks.cpg/sg9_5_cif.got.tgz:8348.got - 2010.06.03 20:04:27.
