data_PCOD9135409
_publ_section_title
;
Structure prediction by ZEFSAII (Michael W. Deem and Ramdas Pophale) SiO2 
 PCOD9135409
Probable space group: C C
;
_chemical_formula_sum "Si O2"
_cell_formula_units_Z 32
_cell_length_a 9.141060
_cell_length_b 10.412559
_cell_length_c 23.452467
_cell_angle_alpha 90.000000
_cell_angle_beta 138.445551
_cell_angle_gamma 90.000000
_cell_volume 1480.720826
_symmetry_space_group_name_H-M "C C"
_symmetry_group_IT_number 9
_symmetry_cell_setting 'monoclinic'
loop_
_space_group_symop_operation_xyz
x,y,z
x,-y,1/2+z
1/2+x,1/2+y,z
1/2+x,1/2-y,1/2+z
loop_
_atom_site_type_symbol
_atom_site_label
_atom_site_fract_x
_atom_site_fract_y
_atom_site_fract_z
Si Si1 0.531720 0.108795 0.881850
Si Si2 0.993073 0.102288 0.976732
Si Si3 0.412454 0.690494 0.434723
Si Si4 0.448353 0.569598 0.624306
Si Si5 0.431834 0.069939 0.721492
Si Si6 0.262489 0.315025 0.624925
Si Si7 0.565005 0.840880 0.925709
Si Si8 0.490159 0.158099 0.162189
O O1 0.798730 0.113735 0.966948
O O2 0.426722 0.230774 0.880902
O O3 0.508108 0.098894 0.807425
O O4 0.439095 0.975362 0.880666
O O5 0.953160 0.216552 0.919712
O O6 0.978652 0.958275 0.948321
O O7 0.239584 0.122652 0.071342
O O8 0.582102 0.761815 0.527477
O O9 0.178533 0.692174 0.398685
O O10 0.670273 0.543495 0.653834
O O11 0.369958 0.443526 0.632963
O O12 0.261418 0.621028 0.526747
O O13 0.491589 0.691223 0.678626
O O14 0.435765 0.199812 0.685657
O O15 0.547210 0.948747 0.725695
O O16 0.141904 0.345039 0.649890
#
# Coordination Sequence:
#
# PCOD9135409 Si02
#       8
#     4   4   4   4   4   4   4   4
#     4  11  25  37  62  87 128 160 193 247 308 355
#     4  10  21  38  61  90 115 154 201 248 289 355
#     4  11  20  38  60  91 115 155 196 253 293 350
#     4  10  21  38  63  89 116 152 205 248 293 353
#     4  11  23  43  56  89 127 160 194 249 305 352
#     4  11  21  37  65  88 115 153 209 249 293 352
#     4  10  20  40  59  88 118 151 201 248 295 353
#     4  10  21  39  62  86 116 153 201 252 292 352
#
# _framework density 21.611097999999998
#
# number of rings (size 3 to 8) (size 9 to 14) (size 15 to 20)
#    0.000    1.500    6.250    0.750    0.000    9.000 
#    0.000    2.500    0.000    0.000    0.000    0.000 
#    0.000    0.000    0.000    0.000    0.000    0.000 
#
# Total GULP energy -89385.927192 kJ/mol
# GULP energy per Si atom -5586.620449 kJ/mol
# Density = 2.156191 g / cm^3
# Si number density = 21.611098 Si / 1000 Ang^3
#
#
#
# Elastic Constant Matrix: (Units=GPa)
#
#
# Indices 1 2 3 4 5 6 
#
# 1 56.0489 83.0850 2.2924 0.0000 -7.5198 0.0000
# 2 83.0850 194.6654 2.1833 0.0000 -3.3005 0.0000
# 3 2.2924 2.1833 34.8809 0.0000 0.6955 0.0000
# 4 0.0000 0.0000 0.0000 17.7338 0.0000 -15.7507
# 5 -7.5198 -3.3005 0.6955 0.0000 6.7814 0.0000
# 6 0.0000 0.0000 0.0000 -15.7507 0.0000 55.3811
#
#
#
# Elastic Compliance Matrix: (Units=1/GPa)
#
#
# Indices 1 2 3 4 5 6 
#
# 1 0.067039 -0.027529 -0.003906 0.000000 0.061341 0.000000
# 2 -0.027529 0.016489 0.001228 0.000000 -0.022627 0.000000
# 3 -0.003906 0.001228 0.028982 0.000000 -0.006706 0.000000
# 4 0.000000 0.000000 0.000000 0.075447 0.000000 0.021458
# 5 0.061341 -0.022627 -0.006706 0.000000 0.205158 0.000000
# 6 0.000000 0.000000 0.000000 0.021458 0.000000 0.024159
#
#
# Mechanical properties :
#
#
# Convention : Reuss Voigt Hill
#
# Bulk Modulus (GPa) = 19.19466 51.19074 35.19270
# Shear Modulus (GPa) = 10.09988 29.18158 19.64073
#
# Velocity S-wave (km/s) = 2.16417 3.67864 3.01794
# Velocity P-wave (km/s) = 3.89178 6.46389 5.33516
#
# Compressibility (1/GPa) = 0.05209782
#
# Stress axis : x y z
#
# Youngs Moduli (GPa) = 14.91659 60.64529 34.50364
#
# Poissons Ratio (x) = 1.66952 0.13476
# Poissons Ratio (y) = 0.41064 -0.04238
# Poissons Ratio (z) = 0.05826 -0.07449
#
# Static dielectric constant tensor:
#      x y z
#    x 1.747950 0.000000 0.011060 
#    y 0.000000 1.797310 0.000000 
#    z 0.011060 0.000000 1.900030 
# 
# From -- ./inp_files/32576.got.cif
#   From: 2010.05.17/outbox.cif.g08.bks.cpg/sg9_17_cif.got.tgz:32576.got - 2010.06.03 20:04:27.
