data_PCOD9135251
_publ_section_title
;
Structure prediction by ZEFSAII (Michael W. Deem and Ramdas Pophale) SiO2 
 PCOD9135251
Probable space group: C C
;
_chemical_formula_sum "Si O2"
_cell_formula_units_Z 24
_cell_length_a 9.379966
_cell_length_b 25.001266
_cell_length_c 5.258781
_cell_angle_alpha 90.000000
_cell_angle_beta 126.021650
_cell_angle_gamma 90.000000
_cell_volume 997.439858
_symmetry_space_group_name_H-M "C C"
_symmetry_group_IT_number 9
_symmetry_cell_setting 'monoclinic'
loop_
_space_group_symop_operation_xyz
x,y,z
x,-y,1/2+z
1/2+x,1/2+y,z
1/2+x,1/2-y,1/2+z
loop_
_atom_site_type_symbol
_atom_site_label
_atom_site_fract_x
_atom_site_fract_y
_atom_site_fract_z
Si Si1 0.892040 0.205773 0.214030
Si Si2 0.634335 0.018685 0.122494
Si Si3 0.897066 0.720609 0.221381
Si Si4 0.565482 0.856980 0.549278
Si Si5 0.732577 0.474816 0.662490
Si Si6 0.708543 0.643122 0.346226
O O1 0.886547 0.242085 0.461903
O O2 0.713541 0.172115 0.039093
O O3 0.051660 0.164455 0.355446
O O4 0.914586 0.243666 0.991864
O O5 0.607986 0.081250 0.142003
O O6 0.728198 0.990519 0.454257
O O7 0.445170 0.987652 0.881945
O O8 0.733832 0.683078 0.132903
O O9 0.041688 0.676846 0.284259
O O10 0.384006 0.855578 0.202162
O O11 0.666345 0.484727 0.309651
O O12 0.693821 0.416071 0.721533
#
# Coordination Sequence:
#
# PCOD9135251 Si02
#       6
#     4   4   4   4   4   4
#     4  12  30  44  64 108 136 170 238 274 324 406
#     4  10  20  38  65  97 125 166 225 265 324 404
#     4  12  26  48  68  98 140 182 222 278 330 400
#     4  12  26  44  75  96 137 183 219 278 341 390
#     4  10  20  38  65  97 125 166 225 265 324 404
#     4  12  26  44  75  96 137 183 219 278 341 390
#
# _framework density 24.061602000000001
#
# number of rings (size 3 to 8) (size 9 to 14) (size 15 to 20)
#    0.000    0.667    5.000    4.000    4.667    0.000 
#    0.000    1.667    0.000    0.000    0.000    0.000 
#    0.000    0.000    0.000    0.000    0.000    0.000 
#
# Total GULP energy -67144.352304 kJ/mol
# GULP energy per Si atom -5595.362692 kJ/mol
# Density = 2.400684 g / cm^3
# Si number density = 24.061602 Si / 1000 Ang^3
#
#
#
# Elastic Constant Matrix: (Units=GPa)
#
#
# Indices 1 2 3 4 5 6 
#
# 1 98.1154 27.7863 33.5835 0.0000 -12.1835 0.0000
# 2 27.7863 129.3526 16.9947 0.0000 -5.3054 0.0000
# 3 33.5835 16.9947 86.6942 0.0000 -40.2567 0.0000
# 4 0.0000 0.0000 0.0000 4.0936 0.0000 -18.7834
# 5 -12.1835 -5.3054 -40.2567 0.0000 39.1201 0.0000
# 6 0.0000 0.0000 0.0000 -18.7834 0.0000 -10.8480
#
#
#
# Elastic Compliance Matrix: (Units=1/GPa)
#
#
# Indices 1 2 3 4 5 6 
#
# 1 0.012330 -0.002038 -0.005213 0.000000 -0.001801 0.000000
# 2 -0.002038 0.008293 -0.001166 0.000000 -0.000710 0.000000
# 3 -0.005213 -0.001166 0.024812 0.000000 0.023751 0.000000
# 4 0.000000 0.000000 0.000000 0.027310 0.000000 -0.047287
# 5 -0.001801 -0.000710 0.023751 0.000000 0.049346 0.000000
# 6 0.000000 0.000000 0.000000 -0.047287 0.000000 -0.010306
#
#
# Mechanical properties :
#
#
# Convention : Reuss Voigt Hill
#
# Bulk Modulus (GPa) = 34.96404 52.32126 43.64265
# Shear Modulus (GPa) = 36.19240 22.19299 29.19270
#
# Velocity S-wave (km/s) = 3.88255 3.04030 3.48695
# Velocity P-wave (km/s) = 5.88741 5.84093 5.86422
#
# Compressibility (1/GPa) = 0.02860081
#
# Stress axis : x y z
#
# Youngs Moduli (GPa) = 81.10382 120.59010 40.30389
#
# Poissons Ratio (x) = 0.24571 0.21011
# Poissons Ratio (y) = 0.16525 0.04699
# Poissons Ratio (z) = 0.42281 0.14059
#
# Static dielectric constant tensor:
#      x y z
#    x 1.969090 0.000000 0.002450 
#    y 0.000000 1.904870 0.000000 
#    z 0.002450 0.000000 2.015450 
# 
# From -- ./inp_files/658.got.cif
#   From: 2010.05.17/outbox.cif.g08.bks.cpg/sg9_1_cif.got.tgz:658.got - 2010.06.03 20:04:27.
