data_PCOD9135771
_publ_section_title
;
Structure prediction by ZEFSAII (Michael W. Deem and Ramdas Pophale) SiO2 
 PCOD9135771
Probable space group: C C
;
_chemical_formula_sum "Si O2"
_cell_formula_units_Z 32
_cell_length_a 8.871345
_cell_length_b 11.313669
_cell_length_c 26.962610
_cell_angle_alpha 90.000000
_cell_angle_beta 29.809646
_cell_angle_gamma 90.000000
_cell_volume 1345.290712
_symmetry_space_group_name_H-M "C C"
_symmetry_group_IT_number 9
_symmetry_cell_setting 'monoclinic'
loop_
_space_group_symop_operation_xyz
x,y,z
x,-y,1/2+z
1/2+x,1/2+y,z
1/2+x,1/2-y,1/2+z
loop_
_atom_site_type_symbol
_atom_site_label
_atom_site_fract_x
_atom_site_fract_y
_atom_site_fract_z
Si Si1 0.865750 0.387387 0.404270
Si Si2 0.097191 0.787006 0.032182
Si Si3 0.763988 0.783376 0.721696
Si Si4 0.339028 0.520564 0.122328
Si Si5 0.038741 0.809786 0.934567
Si Si6 0.754302 0.897071 0.821415
Si Si7 0.198886 0.970026 0.262605
Si Si8 0.451515 0.421607 0.437844
O O1 0.573365 0.451698 0.511664
O O2 0.748924 0.372226 0.381753
O O3 0.931245 0.277772 0.421689
O O4 0.142021 0.479149 0.328656
O O5 0.973336 0.778014 0.010880
O O6 0.442814 0.839426 0.930229
O O7 0.161036 0.657023 0.034703
O O8 0.911958 0.884763 0.115381
O O9 0.894202 0.878329 0.646641
O O10 0.404133 0.811860 0.826799
O O11 0.888307 0.813919 0.740646
O O12 0.787701 0.644224 0.704256
O O13 0.997933 0.525711 0.200510
O O14 0.918968 0.940697 0.958639
O O15 0.992886 0.934830 0.794274
O O16 0.006264 0.915316 0.363265
#
# Coordination Sequence:
#
# PCOD9135771 Si02
#       8
#     4   4   4   4   4   4   4   4
#     4  11  23  42  69  97 136 173 224 277 330 404
#     4  10  23  45  64  97 137 169 222 276 332 400
#     4  11  22  43  66  99 135 173 221 282 334 399
#     4  11  25  45  63 100 145 165 213 292 343 378
#     4  11  21  43  68  94 130 179 223 269 324 412
#     4  10  20  44  68  94 127 178 223 261 326 413
#     4  12  24  42  70  98 134 180 221 280 334 397
#     4  12  22  42  70  97 128 179 233 263 325 409
#
# _framework density 23.78668
#
# number of rings (size 3 to 8) (size 9 to 14) (size 15 to 20)
#    0.000    1.000    8.750    0.000    3.500    0.000 
#    4.500    0.000    0.000    0.000    0.000    0.000 
#    0.000    0.000    0.000    0.000    0.000    0.000 
#
# Total GULP energy -89508.552942 kJ/mol
# GULP energy per Si atom -5594.284559 kJ/mol
# Density = 2.373254 g / cm^3
# Si number density = 23.786680 Si / 1000 Ang^3
#
#
#
# Elastic Constant Matrix: (Units=GPa)
#
#
# Indices 1 2 3 4 5 6 
#
# 1 54.3942 45.0153 7.1409 -0.0072 -20.1014 0.0040
# 2 45.0153 129.0385 -9.2867 0.0000 -10.3161 0.0039
# 3 7.1409 -9.2867 45.7910 -0.0219 -4.8638 0.0073
# 4 -0.0072 0.0000 -0.0219 32.9390 0.0107 -9.1384
# 5 -20.1014 -10.3161 -4.8638 0.0107 29.3505 -0.0028
# 6 0.0040 0.0039 0.0073 -9.1384 -0.0028 57.9666
#
#
#
# Elastic Compliance Matrix: (Units=1/GPa)
#
#
# Indices 1 2 3 4 5 6 
#
# 1 0.035732 -0.011320 -0.005793 -0.000003 0.019533 0.000000
# 2 -0.011320 0.011735 0.003827 0.000001 -0.002994 0.000000
# 3 -0.005793 0.003827 0.023656 0.000014 0.001298 -0.000001
# 4 -0.000003 0.000001 0.000014 0.031748 -0.000010 0.005005
# 5 0.019533 -0.002994 0.001298 -0.000010 0.046611 -0.000001
# 6 0.000000 0.000000 -0.000001 0.005005 -0.000001 0.018040
#
#
# Mechanical properties :
#
#
# Convention : Reuss Voigt Hill
#
# Bulk Modulus (GPa) = 22.44710 34.99586 28.72148
# Shear Modulus (GPa) = 23.92982 36.47484 30.20233
#
# Velocity S-wave (km/s) = 3.17522 3.92013 3.56717
# Velocity P-wave (km/s) = 4.78540 5.93584 5.39139
#
# Compressibility (1/GPa) = 0.04454919
#
# Stress axis : x y z
#
# Youngs Moduli (GPa) = 27.98635 85.21635 42.27292
#
# Poissons Ratio (x) = 0.96469 0.24490
# Poissons Ratio (y) = 0.31682 -0.16179
# Poissons Ratio (z) = 0.16214 -0.32614
#
# Static dielectric constant tensor:
#      x y z
#    x 1.910070 0.000000 0.022320 
#    y 0.000000 1.939570 -0.000010 
#    z 0.022320 -0.000010 1.930240 
# 
# From -- ./inp_files/22749.got.cif
#   From: 2010.05.17/outbox.cif.g08.bks.cpg/sg9_12_cif.got.tgz:22749.got - 2010.06.03 20:04:27.
