data_PCOD9135295
_publ_section_title
;
Structure prediction by ZEFSAII (Michael W. Deem and Ramdas Pophale) SiO2 
 PCOD9135295
Probable space group: C C
;
_chemical_formula_sum "Si O2"
_cell_formula_units_Z 24
_cell_length_a 23.359906
_cell_length_b 6.577324
_cell_length_c 13.596501
_cell_angle_alpha 90.000000
_cell_angle_beta 28.676276
_cell_angle_gamma 90.000000
_cell_volume 1002.448970
_symmetry_space_group_name_H-M "C C"
_symmetry_group_IT_number 9
_symmetry_cell_setting 'monoclinic'
loop_
_space_group_symop_operation_xyz
x,y,z
x,-y,1/2+z
1/2+x,1/2+y,z
1/2+x,1/2-y,1/2+z
loop_
_atom_site_type_symbol
_atom_site_label
_atom_site_fract_x
_atom_site_fract_y
_atom_site_fract_z
Si Si1 0.196630 0.485632 0.538950
Si Si2 0.211803 0.733296 0.320029
Si Si3 0.005164 0.746825 0.889255
Si Si4 0.068732 0.909343 0.978922
Si Si5 0.294993 0.369064 0.074556
Si Si6 0.164786 0.053499 0.529659
O O1 0.178429 0.577244 0.457733
O O2 0.073256 0.532933 0.783122
O O3 0.295123 0.598455 0.457340
O O4 0.218117 0.248829 0.498441
O O5 0.286578 0.594683 0.134677
O O6 0.108058 0.852900 0.416668
O O7 0.254153 0.925039 0.324083
O O8 0.971688 0.836637 0.046358
O O9 0.104180 0.906644 0.699022
O O10 0.903254 0.756081 0.962311
O O11 0.179499 0.763795 0.779356
O O12 0.061503 0.878126 0.107131
#
# Coordination Sequence:
#
# PCOD9135295 Si02
#       6
#     4   4   4   4   4   4
#     4  10  20  39  59  81 121 152 186 236 291 340
#     4   9  18  37  60  79 113 153 186 232 286 341
#     4  10  22  36  58  86 113 148 196 236 281 339
#     4   9  20  38  58  79 116 150 190 233 290 335
#     4  11  21  36  61  87 111 152 194 238 280 340
#     4   9  19  38  58  80 112 157 182 231 294 335
#
# _framework density 23.941369000000002
#
# number of rings (size 3 to 8) (size 9 to 14) (size 15 to 20)
#    1.000    1.333    1.667    1.000    0.000    2.667 
#    0.000    1.667    0.000    0.000    0.000    0.000 
#    0.000    0.000    0.000    0.000    0.000    0.000 
#
# Total GULP energy -66805.945487 kJ/mol
# GULP energy per Si atom -5567.162124 kJ/mol
# Density = 2.388688 g / cm^3
# Si number density = 23.941369 Si / 1000 Ang^3
#
#
#
# Elastic Constant Matrix: (Units=GPa)
#
#
# Indices 1 2 3 4 5 6 
#
# 1 100.6520 10.5734 19.1437 -0.0002 10.7800 0.0000
# 2 10.5734 91.0906 20.0070 -0.0009 4.9833 0.0001
# 3 19.1437 20.0070 43.7906 -0.0004 8.5255 0.0001
# 4 -0.0002 -0.0009 -0.0004 13.5987 0.0001 14.2745
# 5 10.7800 4.9833 8.5255 0.0001 33.9068 0.0000
# 6 0.0000 0.0001 0.0001 14.2745 0.0000 33.1007
#
#
#
# Elastic Compliance Matrix: (Units=1/GPa)
#
#
# Indices 1 2 3 4 5 6 
#
# 1 0.011024 -0.000214 -0.004254 0.000000 -0.002404 0.000000
# 2 -0.000214 0.012212 -0.005415 0.000001 -0.000365 -0.000001
# 3 -0.004254 -0.005415 0.028128 0.000001 -0.004924 0.000000
# 4 0.000000 0.000001 0.000001 0.134356 -0.000001 -0.057940
# 5 -0.002404 -0.000365 -0.004924 -0.000001 0.031549 0.000000
# 6 0.000000 -0.000001 0.000000 -0.057940 0.000000 0.055197
#
#
# Mechanical properties :
#
#
# Convention : Reuss Voigt Hill
#
# Bulk Modulus (GPa) = 31.64583 37.22015 34.43299
# Shear Modulus (GPa) = 16.51446 28.50849 22.51148
#
# Velocity S-wave (km/s) = 2.62923 3.45449 3.06972
# Velocity P-wave (km/s) = 4.73961 5.61172 5.19400
#
# Compressibility (1/GPa) = 0.03159974
#
# Stress axis : x y z
#
# Youngs Moduli (GPa) = 90.70962 81.88525 35.55157
#
# Poissons Ratio (x) = 0.01751 0.15122
# Poissons Ratio (y) = 0.01940 0.19251
# Poissons Ratio (z) = 0.38585 0.44340
#
# Static dielectric constant tensor:
#      x y z
#    x 2.012040 0.000000 -0.015990 
#    y 0.000000 1.924320 0.000000 
#    z -0.015990 0.000000 1.964970 
# 
# From -- ./inp_files/26230.got.cif
#   From: 2010.05.17/outbox.cif.g08.bks.cpg/sg9_14_cif.got.tgz:26230.got - 2010.06.03 20:04:27.
