data_PCOD9135740
_publ_section_title
;
Structure prediction by ZEFSAII (Michael W. Deem and Ramdas Pophale) SiO2 
 PCOD9135740
Probable space group: C C
;
_chemical_formula_sum "Si O2"
_cell_formula_units_Z 32
_cell_length_a 15.054683
_cell_length_b 7.558328
_cell_length_c 19.476822
_cell_angle_alpha 90.000000
_cell_angle_beta 143.348671
_cell_angle_gamma 90.000000
_cell_volume 1322.966739
_symmetry_space_group_name_H-M "C C"
_symmetry_group_IT_number 9
_symmetry_cell_setting 'monoclinic'
loop_
_space_group_symop_operation_xyz
x,y,z
x,-y,1/2+z
1/2+x,1/2+y,z
1/2+x,1/2-y,1/2+z
loop_
_atom_site_type_symbol
_atom_site_label
_atom_site_fract_x
_atom_site_fract_y
_atom_site_fract_z
Si Si1 0.237090 0.434303 0.409030
Si Si2 0.742350 0.904589 0.113456
Si Si3 0.066347 0.696684 0.928568
Si Si4 0.736870 0.400540 0.236815
Si Si5 0.956845 0.565962 0.670340
Si Si6 0.705479 0.017495 0.739208
Si Si7 0.985072 0.020900 0.170774
Si Si8 0.140622 0.039625 0.030774
O O1 0.166332 0.300839 0.421475
O O2 0.278360 0.403784 0.354632
O O3 0.376866 0.507914 0.537046
O O4 0.081583 0.534181 0.294364
O O5 0.632577 0.749369 0.020418
O O6 0.757843 0.886512 0.203912
O O7 0.902708 0.902964 0.176440
O O8 0.667795 0.091708 0.046533
O O9 0.913130 0.588778 0.831660
O O10 0.031962 0.897547 0.929085
O O11 0.716752 0.191553 0.236578
O O12 0.652386 0.486207 0.249635
O O13 0.659904 0.478851 0.121302
O O14 0.970530 0.777587 0.688091
O O15 0.796467 0.502490 0.589157
O O16 0.026419 0.545452 0.638031
#
# Coordination Sequence:
#
# PCOD9135740 Si02
#       8
#     4   4   4   4   4   4   4   4
#     4   9  22  42  69  98 140 186 234 287 357 421
#     4  11  24  47  72 106 142 188 242 293 360 429
#     4  11  24  48  70 104 147 187 242 296 363 432
#     4  12  24  44  69 106 146 186 240 299 358 426
#     4  10  20  43  68 104 138 182 230 299 344 424
#     4  10  22  42  69 102 142 181 236 293 353 424
#     4  11  23  45  71 102 146 189 233 298 354 424
#     4  12  23  45  76 100 143 189 231 301 363 418
#
# _framework density 24.18806
#
# number of rings (size 3 to 8) (size 9 to 14) (size 15 to 20)
#    0.750    0.500    5.000    1.500    1.750    0.000 
#    9.000    2.500    0.000    0.000    0.000    0.000 
#    0.000    0.000    0.000    0.000    0.000    0.000 
#
# Total GULP energy -89130.156514 kJ/mol
# GULP energy per Si atom -5570.634782 kJ/mol
# Density = 2.413301 g / cm^3
# Si number density = 24.188060 Si / 1000 Ang^3
#
#
#
# Elastic Constant Matrix: (Units=GPa)
#
#
# Indices 1 2 3 4 5 6 
#
# 1 165.1848 26.2480 32.5889 0.0000 -18.1694 0.0000
# 2 26.2480 104.5628 -1.3295 0.0000 -1.5950 0.0000
# 3 32.5889 -1.3295 44.9484 0.0000 -2.7029 0.0000
# 4 0.0000 0.0000 0.0000 23.9260 0.0000 7.9753
# 5 -18.1694 -1.5950 -2.7029 0.0000 40.4466 0.0000
# 6 0.0000 0.0000 0.0000 7.9753 0.0000 29.0340
#
#
#
# Elastic Compliance Matrix: (Units=1/GPa)
#
#
# Indices 1 2 3 4 5 6 
#
# 1 0.007795 -0.001980 -0.005526 0.000000 0.003054 0.000000
# 2 -0.001980 0.010077 0.001711 0.000000 -0.000378 0.000000
# 3 -0.005526 0.001711 0.026265 0.000000 -0.000660 0.000000
# 4 0.000000 0.000000 0.000000 0.046008 0.000000 -0.012638
# 5 0.003054 -0.000378 -0.000660 0.000000 0.026037 0.000000
# 6 0.000000 0.000000 0.000000 -0.012638 0.000000 0.037914
#
#
# Mechanical properties :
#
#
# Convention : Reuss Voigt Hill
#
# Bulk Modulus (GPa) = 30.72592 47.74564 39.23578
# Shear Modulus (GPa) = 28.32289 35.82721 32.07505
#
# Velocity S-wave (km/s) = 3.42562 3.85280 3.64547
# Velocity P-wave (km/s) = 5.32701 6.29081 5.82886
#
# Compressibility (1/GPa) = 0.03254581
#
# Stress axis : x y z
#
# Youngs Moduli (GPa) = 128.29192 99.23837 38.07285
#
# Poissons Ratio (x) = 0.19653 0.21040
# Poissons Ratio (y) = 0.25406 -0.06515
# Poissons Ratio (z) = 0.70898 -0.16981
#
# Static dielectric constant tensor:
#      x y z
#    x 2.004750 0.000000 0.008670 
#    y 0.000000 1.930470 0.000000 
#    z 0.008670 0.000000 2.005420 
# 
# From -- ./inp_files/33632.got.cif
#   From: 2010.05.17/outbox.cif.g08.bks.cpg/sg9_17_cif.got.tgz:33632.got - 2010.06.03 20:04:27.
