data_PCOD9135726
_publ_section_title
;
Structure prediction by ZEFSAII (Michael W. Deem and Ramdas Pophale) SiO2 
 PCOD9135726
Probable space group: C C
;
_chemical_formula_sum "Si O2"
_cell_formula_units_Z 24
_cell_length_a 15.127587
_cell_length_b 12.565282
_cell_length_c 5.363223
_cell_angle_alpha 90.000000
_cell_angle_beta 66.992706
_cell_angle_gamma 90.000000
_cell_volume 938.361897
_symmetry_space_group_name_H-M "C C"
_symmetry_group_IT_number 9
_symmetry_cell_setting 'monoclinic'
loop_
_space_group_symop_operation_xyz
x,y,z
x,-y,1/2+z
1/2+x,1/2+y,z
1/2+x,1/2-y,1/2+z
loop_
_atom_site_type_symbol
_atom_site_label
_atom_site_fract_x
_atom_site_fract_y
_atom_site_fract_z
Si Si1 0.899750 0.069883 0.546760
Si Si2 0.680229 0.860783 0.749901
Si Si3 0.290769 0.764460 0.474875
Si Si4 0.893137 0.456126 0.530411
Si Si5 0.108754 0.589909 0.832101
Si Si6 0.119942 0.928276 0.769344
O O1 0.821408 0.162905 0.605038
O O2 0.009600 0.112613 0.403952
O O3 0.890061 0.991350 0.319091
O O4 0.769266 0.786742 0.727090
O O5 0.618604 0.845342 0.068715
O O6 0.683802 0.990164 0.741123
O O7 0.626769 0.838818 0.553349
O O8 0.378678 0.844450 0.408061
O O9 0.203945 0.840888 0.658731
O O10 0.853936 0.535114 0.357275
O O11 0.006238 0.465999 0.453319
O O12 0.129709 0.999026 0.506351
#
# Coordination Sequence:
#
# PCOD9135726 Si02
#       6
#     4   4   4   4   4   4
#     4  10  26  49  71 101 149 192 237 297 368 436
#     4  10  22  38  65  98 132 174 223 286 352 412
#     4  12  28  42  78 111 138 188 255 298 358 440
#     4  12  24  45  70 105 143 182 234 301 356 425
#     4  10  20  43  65  92 137 180 218 286 359 402
#     4  10  24  51  71  99 149 196 233 296 369 439
#
# _framework density 25.576485999999999
#
# number of rings (size 3 to 8) (size 9 to 14) (size 15 to 20)
#    0.000    1.333    3.333    1.000    7.000    5.333 
#    6.000    0.000    0.000    0.000    0.000    0.000 
#    0.000    0.000    0.000    0.000    0.000    0.000 
#
# Total GULP energy -66994.609012 kJ/mol
# GULP energy per Si atom -5582.884084 kJ/mol
# Density = 2.551827 g / cm^3
# Si number density = 25.576486 Si / 1000 Ang^3
#
#
#
# Elastic Constant Matrix: (Units=GPa)
#
#
# Indices 1 2 3 4 5 6 
#
# 1 147.0414 63.3781 60.8979 0.0000 14.5115 0.0000
# 2 63.3781 97.3736 20.6844 0.0000 0.9570 0.0000
# 3 60.8979 20.6844 171.8408 0.0000 45.2160 0.0000
# 4 0.0000 0.0000 0.0000 32.3672 0.0000 3.7382
# 5 14.5115 0.9570 45.2160 0.0000 42.3905 0.0000
# 6 0.0000 0.0000 0.0000 3.7382 0.0000 61.6286
#
#
#
# Elastic Compliance Matrix: (Units=1/GPa)
#
#
# Indices 1 2 3 4 5 6 
#
# 1 0.010833 -0.006418 -0.002959 0.000000 -0.000407 0.000000
# 2 -0.006418 0.014416 0.000065 0.000000 0.001802 0.000000
# 3 -0.002959 0.000065 0.009167 0.000000 -0.008766 0.000000
# 4 0.000000 0.000000 0.000000 0.031113 0.000000 -0.001887
# 5 -0.000407 0.001802 -0.008766 0.000000 0.033039 0.000000
# 6 0.000000 0.000000 0.000000 -0.001887 0.000000 0.016341
#
#
# Mechanical properties :
#
#
# Convention : Reuss Voigt Hill
#
# Bulk Modulus (GPa) = 63.32959 78.46406 70.89682
# Shear Modulus (GPa) = 36.02359 45.36364 40.69361
#
# Velocity S-wave (km/s) = 3.75702 4.21604 3.99313
# Velocity P-wave (km/s) = 6.60567 7.37867 7.00285
#
# Compressibility (1/GPa) = 0.01579041
#
# Stress axis : x y z
#
# Youngs Moduli (GPa) = 92.30993 69.36876 109.08769
#
# Poissons Ratio (x) = 0.44523 0.32284
# Poissons Ratio (y) = 0.59248 -0.00710
# Poissons Ratio (z) = 0.27319 -0.00452
#
# Static dielectric constant tensor:
#      x y z
#    x 2.066950 0.000000 -0.013630 
#    y 0.000000 2.068500 0.000000 
#    z -0.013630 0.000000 2.053330 
# 
# From -- ./inp_files/2324.got.cif
#   From: 2010.05.17/outbox.cif.g08.bks.cpg/sg9_2_cif.got.tgz:2324.got - 2010.06.03 20:04:27.
