data_PCOD9135517
_publ_section_title
;
Structure prediction by ZEFSAII (Michael W. Deem and Ramdas Pophale) SiO2 
 PCOD9135517
Probable space group: C C
;
_chemical_formula_sum "Si O2"
_cell_formula_units_Z 28
_cell_length_a 20.559965
_cell_length_b 9.160621
_cell_length_c 11.266125
_cell_angle_alpha 90.000000
_cell_angle_beta 41.070036
_cell_angle_gamma 90.000000
_cell_volume 1394.038296
_symmetry_space_group_name_H-M "C C"
_symmetry_group_IT_number 9
_symmetry_cell_setting 'monoclinic'
loop_
_space_group_symop_operation_xyz
x,y,z
x,-y,1/2+z
1/2+x,1/2+y,z
1/2+x,1/2-y,1/2+z
loop_
_atom_site_type_symbol
_atom_site_label
_atom_site_fract_x
_atom_site_fract_y
_atom_site_fract_z
Si Si1 0.994540 0.682836 0.479350
Si Si2 0.788734 0.814737 0.109583
Si Si3 0.879115 0.110243 0.974203
Si Si4 0.799793 0.415478 0.388687
Si Si5 0.636842 0.994592 0.165028
Si Si6 0.180535 0.283803 0.887984
Si Si7 0.785912 0.244159 0.891922
O O1 0.962757 0.813365 0.436323
O O2 0.903246 0.629749 0.684939
O O3 0.148780 0.597449 0.529715
O O4 0.087282 0.732694 0.431047
O O5 0.796638 0.674678 0.015087
O O6 0.875236 0.935479 0.973336
O O7 0.692428 0.902322 0.191610
O O8 0.789450 0.773843 0.245949
O O9 0.874141 0.171644 0.847468
O O10 0.777984 0.160638 0.182921
O O11 0.715666 0.355787 0.414536
O O12 0.785490 0.586654 0.425621
O O13 0.693601 0.146324 0.061153
O O14 0.529486 0.042924 0.354667
#
# Coordination Sequence:
#
# PCOD9135517 Si02
#       7
#     4   4   4   4   4   4   4
#     4  11  22  39  67  90 125 162 218 262 305 375
#     4  10  21  43  66  88 128 173 209 253 324 379
#     4  10  22  39  65  91 120 172 211 252 315 380
#     4  10  26  38  65  95 125 166 212 267 315 366
#     4  10  20  40  71  92 119 173 212 252 323 386
#     4  10  20  43  64  89 128 165 209 259 317 380
#     4  11  21  40  66  91 127 165 209 263 313 376
#
# _framework density 20.085531
#
# number of rings (size 3 to 8) (size 9 to 14) (size 15 to 20)
#    0.000    1.714    4.286    0.000    8.000    0.000 
#    2.571    0.000    0.000    0.000    0.000    0.000 
#    0.000    0.000    0.000    0.000    0.000    0.000 
#
# Total GULP energy -78132.856325 kJ/mol
# GULP energy per Si atom -5580.918309 kJ/mol
# Density = 2.003982 g / cm^3
# Si number density = 20.085531 Si / 1000 Ang^3
#
#
#
# Elastic Constant Matrix: (Units=GPa)
#
#
# Indices 1 2 3 4 5 6 
#
# 1 139.3825 46.8847 50.0134 0.0000 17.3131 0.0000
# 2 46.8847 143.9244 32.9856 0.0000 19.9625 0.0000
# 3 50.0134 32.9856 59.2140 0.0000 20.6228 0.0000
# 4 0.0000 0.0000 0.0000 22.4706 0.0000 8.9721
# 5 17.3131 19.9625 20.6228 0.0000 36.2313 0.0000
# 6 0.0000 0.0000 0.0000 8.9721 0.0000 19.5382
#
#
#
# Elastic Compliance Matrix: (Units=1/GPa)
#
#
# Indices 1 2 3 4 5 6 
#
# 1 0.010617 -0.001644 -0.008232 0.000000 0.000518 0.000000
# 2 -0.001644 0.008379 -0.002426 0.000000 -0.002450 0.000000
# 3 -0.008232 -0.002426 0.029132 0.000000 -0.011311 0.000000
# 4 0.000000 0.000000 0.000000 0.054494 0.000000 -0.025024
# 5 0.000518 -0.002450 -0.011311 0.000000 0.035141 0.000000
# 6 0.000000 0.000000 0.000000 -0.025024 0.000000 0.062673
#
#
# Mechanical properties :
#
#
# Convention : Reuss Voigt Hill
#
# Bulk Modulus (GPa) = 42.50891 66.92093 54.71492
# Shear Modulus (GPa) = 21.47011 29.82383 25.64697
#
# Velocity S-wave (km/s) = 3.27300 3.85754 3.57723
# Velocity P-wave (km/s) = 5.95762 7.29597 6.66050
#
# Compressibility (1/GPa) = 0.02352448
#
# Stress axis : x y z
#
# Youngs Moduli (GPa) = 94.18958 119.33941 34.32678
#
# Poissons Ratio (x) = 0.19616 0.28258
# Poissons Ratio (y) = 0.15482 0.08328
# Poissons Ratio (z) = 0.77537 0.28953
#
# Static dielectric constant tensor:
#      x y z
#    x 1.730720 0.000000 -0.005550 
#    y 0.000000 1.706090 0.000000 
#    z -0.005550 0.000000 1.725690 
# 
# From -- ./inp_files/18911.got.cif
#   From: 2010.05.17/outbox.cif.g08.bks.cpg/sg9_10_cif.got.tgz:18911.got - 2010.06.03 20:04:27.
