data_PCOD9135287
_publ_section_title
;
Structure prediction by ZEFSAII (Michael W. Deem and Ramdas Pophale) SiO2 
 PCOD9135287
Probable space group: C C
;
_chemical_formula_sum "Si O2"
_cell_formula_units_Z 24
_cell_length_a 9.747810
_cell_length_b 24.220004
_cell_length_c 5.288673
_cell_angle_alpha 90.000000
_cell_angle_beta 44.105048
_cell_angle_gamma 90.000000
_cell_volume 869.005019
_symmetry_space_group_name_H-M "C C"
_symmetry_group_IT_number 9
_symmetry_cell_setting 'monoclinic'
loop_
_space_group_symop_operation_xyz
x,y,z
x,-y,1/2+z
1/2+x,1/2+y,z
1/2+x,1/2-y,1/2+z
loop_
_atom_site_type_symbol
_atom_site_label
_atom_site_fract_x
_atom_site_fract_y
_atom_site_fract_z
Si Si1 0.996450 0.316657 0.594600
Si Si2 0.776050 0.471392 0.267303
Si Si3 0.810571 0.023295 0.295543
Si Si4 0.577905 0.712230 0.833363
Si Si5 0.837928 0.126733 0.899770
Si Si6 0.720508 0.351551 0.560583
O O1 0.922501 0.324974 0.405275
O O2 0.073635 0.263084 0.646567
O O3 0.159306 0.360902 0.450513
O O4 0.777682 0.320936 0.001924
O O5 0.857140 0.506937 0.394023
O O6 0.544115 0.483295 0.535312
O O7 0.787431 0.406787 0.321435
O O8 0.791581 0.078264 0.155137
O O9 0.739345 0.020815 0.678560
O O10 0.604594 0.702373 0.096997
O O11 0.382770 0.679212 0.019744
O O12 0.044862 0.122253 0.471141
#
# Coordination Sequence:
#
# PCOD9135287 Si02
#       6
#     4   4   4   4   4   4
#     4  11  26  47  67 102 140 182 247 299 361 430
#     4  10  20  38  74 108 145 192 241 295 363 441
#     4  10  20  38  71 111 144 191 244 292 363 442
#     4  11  24  46  68  99 139 185 242 294 363 429
#     4  11  23  45  71 101 145 186 238 302 359 431
#     4  11  25  44  73 105 141 190 242 298 367 433
#
# _framework density 27.617792000000001
#
# number of rings (size 3 to 8) (size 9 to 14) (size 15 to 20)
#    0.000    1.333    3.333    3.000    2.333    4.000 
#    0.000    1.667    0.000    0.000    0.000    0.000 
#    0.000    0.000    0.000    0.000    0.000    0.000 
#
# Total GULP energy -66921.470479 kJ/mol
# GULP energy per Si atom -5576.789207 kJ/mol
# Density = 2.755493 g / cm^3
# Si number density = 27.617792 Si / 1000 Ang^3
#
#
#
# Elastic Constant Matrix: (Units=GPa)
#
#
# Indices 1 2 3 4 5 6 
#
# 1 249.2353 104.8180 43.1954 0.0000 22.7212 0.0000
# 2 104.8180 199.6598 49.0361 0.0000 37.5661 0.0000
# 3 43.1954 49.0361 81.8306 0.0000 -2.6335 0.0000
# 4 0.0000 0.0000 0.0000 20.8828 0.0000 18.5376
# 5 22.7212 37.5661 -2.6335 0.0000 53.1705 0.0000
# 6 0.0000 0.0000 0.0000 18.5376 0.0000 34.1339
#
#
#
# Elastic Compliance Matrix: (Units=1/GPa)
#
#
# Indices 1 2 3 4 5 6 
#
# 1 0.005290 -0.002288 -0.001445 0.000000 -0.000716 0.000000
# 2 -0.002288 0.008061 -0.003781 0.000000 -0.004905 0.000000
# 3 -0.001445 -0.003781 0.015379 0.000000 0.004050 0.000000
# 4 0.000000 0.000000 0.000000 0.092461 0.000000 -0.050214
# 5 -0.000716 -0.004905 0.004050 0.000000 0.022779 0.000000
# 6 0.000000 0.000000 0.000000 -0.050214 0.000000 0.056567
#
#
# Mechanical properties :
#
#
# Convention : Reuss Voigt Hill
#
# Bulk Modulus (GPa) = 72.97233 102.75829 87.86531
# Shear Modulus (GPa) = 22.71374 43.88253 33.29814
#
# Velocity S-wave (km/s) = 2.87092 3.99045 3.47605
# Velocity P-wave (km/s) = 6.12120 7.64982 6.92780
#
# Compressibility (1/GPa) = 0.01370382
#
# Stress axis : x y z
#
# Youngs Moduli (GPa) = 189.03595 124.05567 65.02476
#
# Poissons Ratio (x) = 0.28380 0.09393
# Poissons Ratio (y) = 0.43246 0.24584
# Poissons Ratio (z) = 0.27307 0.46901
#
# Static dielectric constant tensor:
#      x y z
#    x 2.481510 0.000000 0.426520 
#    y 0.000000 2.246440 0.000000 
#    z 0.426520 0.000000 2.556350 
# 
# From -- ./inp_files/947.got.cif
#   From: 2010.05.17/outbox.cif.g08.bks.cpg/sg9_1_cif.got.tgz:947.got - 2010.06.03 20:04:27.
