data_PCOD9135494
_publ_section_title
;
Structure prediction by ZEFSAII (Michael W. Deem and Ramdas Pophale) SiO2 
 PCOD9135494
Probable space group: C C
;
_chemical_formula_sum "Si O2"
_cell_formula_units_Z 32
_cell_length_a 16.694965
_cell_length_b 5.521747
_cell_length_c 20.395076
_cell_angle_alpha 90.000000
_cell_angle_beta 42.951880
_cell_angle_gamma 90.000000
_cell_volume 1281.088717
_symmetry_space_group_name_H-M "C C"
_symmetry_group_IT_number 9
_symmetry_cell_setting 'monoclinic'
loop_
_space_group_symop_operation_xyz
x,y,z
x,-y,1/2+z
1/2+x,1/2+y,z
1/2+x,1/2-y,1/2+z
loop_
_atom_site_type_symbol
_atom_site_label
_atom_site_fract_x
_atom_site_fract_y
_atom_site_fract_z
Si Si1 0.205410 0.768275 0.697940
Si Si2 0.866967 0.003438 0.687995
Si Si3 0.692017 0.015735 0.412291
Si Si4 0.936765 0.495561 0.591834
Si Si5 0.344928 0.135234 0.869634
Si Si6 0.564444 0.909028 0.713208
Si Si7 0.259817 0.251968 0.509113
Si Si8 0.987683 0.028137 0.860011
O O1 0.268178 0.535213 0.691218
O O2 0.313180 0.955566 0.627454
O O3 0.138367 0.657078 0.676299
O O4 0.104238 0.876152 0.806807
O O5 0.790188 0.037820 0.799351
O O6 0.927611 0.744118 0.639361
O O7 0.943902 0.244443 0.629220
O O8 0.724446 0.294926 0.407950
O O9 0.555139 0.998464 0.478105
O O10 0.718029 0.875519 0.465052
O O11 0.423277 0.366325 0.842700
O O12 0.432108 0.977228 0.773443
O O13 0.311322 0.003369 0.956585
O O14 0.645837 0.741133 0.621469
O O15 0.539448 0.770297 0.796223
O O16 0.373314 0.397283 0.470614
#
# Coordination Sequence:
#
# PCOD9135494 Si02
#       8
#     4   4   4   4   4   4   4   4
#     4   9  21  42  68  93 136 173 228 278 350 395
#     4  10  25  44  67  98 137 179 227 288 336 400
#     4  11  25  42  66  94 141 181 236 277 348 413
#     4  10  25  44  69 103 132 186 230 283 344 410
#     4   9  22  38  60  94 133 176 222 282 347 397
#     4  10  20  40  68  95 135 176 227 288 343 412
#     4  10  23  38  61 101 128 182 229 281 340 417
#     4   9  19  40  61  92 132 167 221 281 346 398
#
# _framework density 24.978753000000001
#
# number of rings (size 3 to 8) (size 9 to 14) (size 15 to 20)
#    0.750    1.500    0.000    0.750    5.250    7.000 
#    0.000    7.500    0.000    0.000    0.000    0.000 
#    0.000    0.000    0.000    0.000    0.000    0.000 
#
# Total GULP energy -89106.811941 kJ/mol
# GULP energy per Si atom -5569.175746 kJ/mol
# Density = 2.492190 g / cm^3
# Si number density = 24.978753 Si / 1000 Ang^3
#
#
#
# Elastic Constant Matrix: (Units=GPa)
#
#
# Indices 1 2 3 4 5 6 
#
# 1 20.4259 13.4829 9.4454 -0.0007 -15.5851 0.0002
# 2 13.4829 112.9484 50.8892 -0.0051 -14.9280 0.0037
# 3 9.4454 50.8892 154.9321 -0.0019 -18.5680 0.0016
# 4 -0.0007 -0.0051 -0.0019 31.4538 0.0013 -7.4130
# 5 -15.5851 -14.9280 -18.5680 0.0013 30.8547 -0.0004
# 6 0.0002 0.0037 0.0016 -7.4130 -0.0004 26.3104
#
#
#
# Elastic Compliance Matrix: (Units=1/GPa)
#
#
# Indices 1 2 3 4 5 6 
#
# 1 0.082112 -0.005201 0.001478 -0.000001 0.039849 0.000000
# 2 -0.005201 0.011023 -0.003211 0.000001 0.000774 -0.000001
# 3 0.001478 -0.003211 0.007891 0.000000 0.003942 0.000000
# 4 -0.000001 0.000001 0.000000 0.034054 -0.000001 0.009595
# 5 0.039849 0.000774 0.003942 -0.000001 0.055285 0.000000
# 6 0.000000 -0.000001 0.000000 0.009595 0.000000 0.040711
#
#
# Mechanical properties :
#
#
# Convention : Reuss Voigt Hill
#
# Bulk Modulus (GPa) = 11.47323 48.43794 29.95559
# Shear Modulus (GPa) = 18.24827 32.02302 25.13565
#
# Velocity S-wave (km/s) = 2.70580 3.58440 3.17563
# Velocity P-wave (km/s) = 3.79012 6.04685 5.04625
#
# Compressibility (1/GPa) = 0.08715940
#
# Stress axis : x y z
#
# Youngs Moduli (GPa) = 12.17843 90.71562 126.71944
#
# Poissons Ratio (x) = 0.47183 -0.18732
# Poissons Ratio (y) = 0.06334 0.40689
# Poissons Ratio (z) = -0.01800 0.29128
#
# Static dielectric constant tensor:
#      x y z
#    x 2.050720 0.000000 0.017350 
#    y 0.000000 2.060360 0.000000 
#    z 0.017350 0.000000 1.947560 
# 
# From -- ./inp_files/35905.got.cif
#   From: 2010.05.17/outbox.cif.g08.bks.cpg/sg9_18_cif.got.tgz:35905.got - 2010.06.03 20:04:27.
