data_PCOD9135430
_publ_section_title
;
Structure prediction by ZEFSAII (Michael W. Deem and Ramdas Pophale) SiO2 
 PCOD9135430
Probable space group: C C
;
_chemical_formula_sum "Si O2"
_cell_formula_units_Z 32
_cell_length_a 8.215324
_cell_length_b 22.457514
_cell_length_c 11.937901
_cell_angle_alpha 90.000000
_cell_angle_beta 36.044201
_cell_angle_gamma 90.000000
_cell_volume 1295.966572
_symmetry_space_group_name_H-M "C C"
_symmetry_group_IT_number 9
_symmetry_cell_setting 'monoclinic'
loop_
_space_group_symop_operation_xyz
x,y,z
x,-y,1/2+z
1/2+x,1/2+y,z
1/2+x,1/2-y,1/2+z
loop_
_atom_site_type_symbol
_atom_site_label
_atom_site_fract_x
_atom_site_fract_y
_atom_site_fract_z
Si Si1 0.893060 0.116029 0.036860
Si Si2 0.218125 0.137398 0.152961
Si Si3 0.482343 0.357264 0.011913
Si Si4 0.230042 0.694248 0.319886
Si Si5 0.841581 0.115057 0.812505
Si Si6 0.116791 0.005096 0.428389
Si Si7 0.920905 0.323204 0.214541
Si Si8 0.149122 0.007138 0.158238
O O1 0.708690 0.155341 0.220847
O O2 0.877792 0.045345 0.060497
O O3 0.852049 0.136245 0.933056
O O4 0.222070 0.125822 0.870647
O O5 0.199841 0.156611 0.293173
O O6 0.052185 0.185671 0.176772
O O7 0.053560 0.075667 0.220117
O O8 0.527822 0.122840 0.948652
O O9 0.524976 0.349162 0.120439
O O10 0.477388 0.429509 0.006452
O O11 0.201591 0.324593 0.130334
O O12 0.223299 0.765230 0.321826
O O13 0.034052 0.669323 0.525761
O O14 0.927388 0.045956 0.773868
O O15 0.269395 0.999442 0.220265
O O16 0.273548 0.998900 0.461965
#
# Coordination Sequence:
#
# PCOD9135430 Si02
#       8
#     4   4   4   4   4   4   4   4
#     4  11  22  41  62  96 134 171 218 271 337 393
#     4  10  20  40  63  89 128 169 221 270 319 399
#     4   9  21  40  60  98 124 163 223 263 328 402
#     4  11  22  40  70  95 119 173 229 274 327 384
#     4  10  22  39  61  90 132 172 206 274 341 387
#     4   9  18  37  58  89 133 167 212 267 330 394
#     4  11  23  41  71  94 126 168 230 278 318 401
#     4   9  18  36  55  93 126 169 217 261 332 400
#
# _framework density 24.691994000000001
#
# number of rings (size 3 to 8) (size 9 to 14) (size 15 to 20)
#    0.000    2.000    2.500    0.750    0.000    1.000 
#   27.000    3.750    0.000    0.000    0.000    0.000 
#    0.000    0.000    0.000    0.000    0.000    0.000 
#
# Total GULP energy -89141.800605 kJ/mol
# GULP energy per Si atom -5571.362538 kJ/mol
# Density = 2.463579 g / cm^3
# Si number density = 24.691994 Si / 1000 Ang^3
#
#
#
# Elastic Constant Matrix: (Units=GPa)
#
#
# Indices 1 2 3 4 5 6 
#
# 1 76.7375 -4.5159 46.5328 0.0000 44.2876 0.0000
# 2 -4.5159 37.9400 -2.9087 0.0000 10.2607 0.0000
# 3 46.5328 -2.9087 108.5546 0.0000 39.1509 0.0000
# 4 0.0000 0.0000 0.0000 17.9224 0.0000 2.9020
# 5 44.2876 10.2607 39.1509 0.0000 63.7652 0.0000
# 6 0.0000 0.0000 0.0000 2.9020 0.0000 9.8334
#
#
#
# Elastic Compliance Matrix: (Units=1/GPa)
#
#
# Indices 1 2 3 4 5 6 
#
# 1 0.025657 0.006933 -0.005116 0.000000 -0.015795 0.000000
# 2 0.006933 0.030214 0.001705 0.000000 -0.010724 0.000000
# 3 -0.005116 0.001705 0.013189 0.000000 -0.004819 0.000000
# 4 0.000000 0.000000 0.000000 0.058596 0.000000 -0.017293
# 5 -0.015795 -0.010724 -0.004819 0.000000 0.031337 0.000000
# 6 0.000000 0.000000 0.000000 -0.017293 0.000000 0.106797
#
#
# Mechanical properties :
#
#
# Convention : Reuss Voigt Hill
#
# Bulk Modulus (GPa) = 13.13979 33.49429 23.31704
# Shear Modulus (GPa) = 17.59862 30.57912 24.08887
#
# Velocity S-wave (km/s) = 2.67259 3.52294 3.12681
# Velocity P-wave (km/s) = 3.85444 5.49021 4.74337
#
# Compressibility (1/GPa) = 0.07610471
#
# Stress axis : x y z
#
# Youngs Moduli (GPa) = 38.97527 33.09759 75.82325
#
# Poissons Ratio (x) = -0.22947 0.38791
# Poissons Ratio (y) = -0.27022 -0.12931
# Poissons Ratio (z) = 0.19940 -0.05644
#
# Static dielectric constant tensor:
#      x y z
#    x 2.042250 0.000000 0.070360 
#    y 0.000000 1.920870 0.000000 
#    z 0.070360 0.000000 1.997150 
# 
# From -- ./inp_files/15633.got.cif
#   From: 2010.05.17/outbox.cif.g08.bks.cpg/sg9_8_cif.got.tgz:15633.got - 2010.06.03 20:04:27.
