data_PCOD9135219
_publ_section_title
;
Structure prediction by ZEFSAII (Michael W. Deem and Ramdas Pophale) SiO2 
 PCOD9135219
Probable space group: C C
;
_chemical_formula_sum "Si O2"
_cell_formula_units_Z 32
_cell_length_a 10.472537
_cell_length_b 9.842401
_cell_length_c 19.750951
_cell_angle_alpha 90.000000
_cell_angle_beta 38.528051
_cell_angle_gamma 90.000000
_cell_volume 1268.112275
_symmetry_space_group_name_H-M "C C"
_symmetry_group_IT_number 9
_symmetry_cell_setting 'monoclinic'
loop_
_space_group_symop_operation_xyz
x,y,z
x,-y,1/2+z
1/2+x,1/2+y,z
1/2+x,1/2-y,1/2+z
loop_
_atom_site_type_symbol
_atom_site_label
_atom_site_fract_x
_atom_site_fract_y
_atom_site_fract_z
Si Si1 0.000000 0.782949 0.468250
Si Si2 0.742221 0.621399 0.389892
Si Si3 0.345124 0.763638 0.181791
Si Si4 0.307730 0.995315 0.998004
Si Si5 0.425321 0.486999 0.738453
Si Si6 0.639497 0.215242 0.815566
Si Si7 0.971028 0.379971 0.255027
Si Si8 0.900502 0.896271 0.380429
O O1 0.237892 0.825039 0.364726
O O2 0.927562 0.770192 0.574426
O O3 0.939351 0.638290 0.460316
O O4 0.884814 0.892937 0.467829
O O5 0.674286 0.539999 0.485635
O O6 0.638935 0.646452 0.359236
O O7 0.950553 0.537981 0.284317
O O8 0.760731 0.773273 0.411004
O O9 0.324560 0.624458 0.232243
O O10 0.500971 0.852361 0.163514
O O11 0.131445 0.843568 0.268450
O O12 0.163139 0.024519 0.121243
O O13 0.455403 0.119740 0.919245
O O14 0.348208 0.634585 0.746123
O O15 0.369891 0.480308 0.841118
O O16 0.613762 0.206002 0.745521
#
# Coordination Sequence:
#
# PCOD9135219 Si02
#       8
#     4   4   4   4   4   4   4   4
#     4  10  20  38  63  88 124 170 210 276 330 377
#     4   9  19  38  62  86 127 166 207 276 325 378
#     4  11  20  35  63  90 125 167 212 261 330 394
#     4  10  20  41  65  91 124 168 229 264 327 395
#     4  11  21  39  66  93 122 176 219 268 329 389
#     4  10  21  40  63  89 131 170 211 275 327 383
#     4  10  21  37  58  92 129 165 211 268 329 393
#     4   9  20  38  64  87 122 166 223 262 325 391
#
# _framework density 25.234359000000001
#
# number of rings (size 3 to 8) (size 9 to 14) (size 15 to 20)
#    0.000    2.000    1.250    4.500    0.000    2.000 
#    4.500    2.500   13.750    0.000    0.000    0.000 
#    0.000    0.000    0.000    0.000    0.000    0.000 
#
# Total GULP energy -89304.631498 kJ/mol
# GULP energy per Si atom -5581.539469 kJ/mol
# Density = 2.517692 g / cm^3
# Si number density = 25.234359 Si / 1000 Ang^3
#
#
#
# Elastic Constant Matrix: (Units=GPa)
#
#
# Indices 1 2 3 4 5 6 
#
# 1 103.8677 -0.2630 11.7739 0.0000 36.3905 0.0000
# 2 -0.2630 79.0937 -5.2007 0.0000 5.5088 0.0000
# 3 11.7739 -5.2007 81.3673 -0.0001 30.1492 0.0000
# 4 0.0000 0.0000 -0.0001 27.2454 0.0000 5.4762
# 5 36.3905 5.5088 30.1492 0.0000 52.7408 0.0000
# 6 0.0000 0.0000 0.0000 5.4762 0.0000 39.4593
#
#
#
# Elastic Compliance Matrix: (Units=1/GPa)
#
#
# Indices 1 2 3 4 5 6 
#
# 1 0.012965 0.000877 0.001939 0.000000 -0.010146 0.000000
# 2 0.000877 0.012974 0.001813 0.000000 -0.002997 0.000000
# 3 0.001939 0.001813 0.016102 0.000000 -0.010732 0.000000
# 4 0.000000 0.000000 0.000000 0.037757 0.000000 -0.005240
# 5 -0.010146 -0.002997 -0.010732 0.000000 0.032409 0.000000
# 6 0.000000 0.000000 0.000000 -0.005240 0.000000 0.026070
#
#
# Mechanical properties :
#
#
# Convention : Reuss Voigt Hill
#
# Bulk Modulus (GPa) = 19.49353 30.77212 25.13282
# Shear Modulus (GPa) = 34.21917 41.09032 37.65474
#
# Velocity S-wave (km/s) = 3.68646 4.03966 3.86709
# Velocity P-wave (km/s) = 5.08544 5.82919 5.46997
#
# Compressibility (1/GPa) = 0.05129908
#
# Stress axis : x y z
#
# Youngs Moduli (GPa) = 77.13302 77.07690 62.10508
#
# Poissons Ratio (x) = -0.06762 -0.12045
# Poissons Ratio (y) = -0.06767 -0.11258
# Poissons Ratio (z) = -0.14959 -0.13971
#
# Static dielectric constant tensor:
#      x y z
#    x 2.101280 0.000000 0.042100 
#    y 0.000000 2.076670 0.000000 
#    z 0.042100 0.000000 1.973340 
# 
# From -- ./inp_files/24521.got.cif
#   From: 2010.05.17/outbox.cif.g08.bks.cpg/sg9_13_cif.got.tgz:24521.got - 2010.06.03 20:04:27.
