data_PCOD9135155
_publ_section_title
;
Structure prediction by ZEFSAII (Michael W. Deem and Ramdas Pophale) SiO2 
 PCOD9135155
Probable space group: C C
;
_chemical_formula_sum "Si O2"
_cell_formula_units_Z 28
_cell_length_a 7.212919
_cell_length_b 18.453403
_cell_length_c 14.897708
_cell_angle_alpha 90.000000
_cell_angle_beta 36.377786
_cell_angle_gamma 90.000000
_cell_volume 1176.088130
_symmetry_space_group_name_H-M "C C"
_symmetry_group_IT_number 9
_symmetry_cell_setting 'monoclinic'
loop_
_space_group_symop_operation_xyz
x,y,z
x,-y,1/2+z
1/2+x,1/2+y,z
1/2+x,1/2-y,1/2+z
loop_
_atom_site_type_symbol
_atom_site_label
_atom_site_fract_x
_atom_site_fract_y
_atom_site_fract_z
Si Si1 0.857920 0.697428 0.223150
Si Si2 0.661647 0.193731 0.573310
Si Si3 0.123684 0.543651 0.533246
Si Si4 0.806138 0.993173 0.762215
Si Si5 0.813781 0.852200 0.218801
Si Si6 0.715517 0.349385 0.579321
Si Si7 0.837785 0.548225 0.297417
O O1 0.492889 0.703455 0.393276
O O2 0.989110 0.778295 0.180678
O O3 0.866908 0.670088 0.117143
O O4 0.968406 0.630119 0.239276
O O5 0.502510 0.126206 0.585964
O O6 0.723864 0.166345 0.651000
O O7 0.526809 0.274983 0.629951
O O8 0.187490 0.512967 0.410231
O O9 0.914783 0.492223 0.674845
O O10 0.465128 0.546776 0.448183
O O11 0.513150 0.989893 0.809356
O O12 0.014615 0.921890 0.664549
O O13 0.970024 0.069773 0.674318
O O14 0.494521 0.858708 0.400198
#
# Coordination Sequence:
#
# PCOD9135155 Si02
#       7
#     4   4   4   4   4   4   4
#     4   9  19  42  64  90 135 176 212 274 341 396
#     4   9  18  39  64  89 128 178 209 268 339 398
#     4  11  24  44  66 102 139 177 221 288 340 396
#     4  12  24  37  71  99 129 176 228 275 336 400
#     4  10  21  36  68  95 127 182 218 266 348 398
#     4  10  20  37  66  92 128 178 224 256 341 408
#     4  11  24  41  69  99 138 173 226 283 335 398
#
# _framework density 23.807739000000002
#
# number of rings (size 3 to 8) (size 9 to 14) (size 15 to 20)
#    0.000    1.714    4.286    0.857    2.000    0.000 
#    0.000    1.429   12.571    0.000    0.000    0.000 
#    0.000    0.000    0.000    0.000    0.000    0.000 
#
# Total GULP energy -78259.064234 kJ/mol
# GULP energy per Si atom -5589.933160 kJ/mol
# Density = 2.375355 g / cm^3
# Si number density = 23.807739 Si / 1000 Ang^3
#
#
#
# Elastic Constant Matrix: (Units=GPa)
#
#
# Indices 1 2 3 4 5 6 
#
# 1 61.7027 19.9482 12.1858 -0.0025 6.0068 -0.0009
# 2 19.9482 230.1035 13.5310 -0.0004 -6.0198 -0.0004
# 3 12.1858 13.5310 107.8199 -0.0144 15.5732 -0.0086
# 4 -0.0025 -0.0004 -0.0144 31.5397 0.0043 -4.4226
# 5 6.0068 -6.0198 15.5732 0.0043 21.2233 0.0022
# 6 -0.0009 -0.0004 -0.0086 -4.4226 0.0022 32.9388
#
#
#
# Elastic Compliance Matrix: (Units=1/GPa)
#
#
# Indices 1 2 3 4 5 6 
#
# 1 0.017373 -0.001560 -0.001111 0.000002 -0.004544 0.000001
# 2 -0.001560 0.004583 -0.000728 -0.000001 0.002275 0.000000
# 3 -0.001111 -0.000728 0.010599 0.000006 -0.007669 0.000004
# 4 0.000002 -0.000001 0.000006 0.032314 -0.000012 0.004339
# 5 -0.004544 0.002275 -0.007669 -0.000012 0.054677 -0.000007
# 6 0.000001 0.000000 0.000004 0.004339 -0.000007 0.030942
#
#
# Mechanical properties :
#
#
# Convention : Reuss Voigt Hill
#
# Bulk Modulus (GPa) = 38.82237 54.55066 46.68652
# Shear Modulus (GPa) = 30.14367 40.73778 35.44072
#
# Velocity S-wave (km/s) = 3.56213 4.14105 3.86245
# Velocity P-wave (km/s) = 5.76718 6.76957 6.28838
#
# Compressibility (1/GPa) = 0.02575834
#
# Stress axis : x y z
#
# Youngs Moduli (GPa) = 57.56123 218.17937 94.34496
#
# Poissons Ratio (x) = 0.34027 0.10486
# Poissons Ratio (y) = 0.08977 0.06864
# Poissons Ratio (z) = 0.06398 0.15874
#
# Static dielectric constant tensor:
#      x y z
#    x 1.898670 0.000000 -0.003340 
#    y 0.000000 2.022980 0.000000 
#    z -0.003340 0.000000 1.841400 
# 
# From -- ./inp_files/23639.got.cif
#   From: 2010.05.17/outbox.cif.g08.bks.cpg/sg9_12_cif.got.tgz:23639.got - 2010.06.03 20:04:27.
