data_PCOD9135754
_publ_section_title
;
Structure prediction by ZEFSAII (Michael W. Deem and Ramdas Pophale) SiO2 
 PCOD9135754
Probable space group: C C
;
_chemical_formula_sum "Si O2"
_cell_formula_units_Z 28
_cell_length_a 25.908719
_cell_length_b 7.600158
_cell_length_c 18.291905
_cell_angle_alpha 90.000000
_cell_angle_beta 17.879128
_cell_angle_gamma 90.000000
_cell_volume 1105.808551
_symmetry_space_group_name_H-M "C C"
_symmetry_group_IT_number 9
_symmetry_cell_setting 'monoclinic'
loop_
_space_group_symop_operation_xyz
x,y,z
x,-y,1/2+z
1/2+x,1/2+y,z
1/2+x,1/2-y,1/2+z
loop_
_atom_site_type_symbol
_atom_site_label
_atom_site_fract_x
_atom_site_fract_y
_atom_site_fract_z
Si Si1 0.190760 0.243088 0.494120
Si Si2 0.142848 0.803319 0.340454
Si Si3 0.031185 0.437950 0.518161
Si Si4 0.834071 0.206644 0.528704
Si Si5 0.002167 0.113587 0.882338
Si Si6 0.003434 0.950257 0.676203
Si Si7 0.079353 0.404145 0.117714
O O1 0.207754 0.451241 0.470495
O O2 0.141095 0.192562 0.642011
O O3 0.045360 0.149228 0.641183
O O4 0.356151 0.152723 0.243835
O O5 0.057243 0.614809 0.437596
O O6 0.049414 0.901295 0.532498
O O7 0.091749 0.910369 0.338255
O O8 0.332835 0.736614 0.104809
O O9 0.169905 0.302764 0.299775
O O10 0.041981 0.517740 0.586726
O O11 0.834523 0.112222 0.446986
O O12 0.924494 0.388578 0.383884
O O13 0.951769 0.075792 0.417375
O O14 0.128247 0.800661 0.546283
#
# Coordination Sequence:
#
# PCOD9135754 Si02
#       7
#     4   4   4   4   4   4   4
#     4  11  22  42  72 106 145 199 260 320 382 470
#     4  10  20  43  75 113 153 206 252 331 389 460
#     4  10  21  42  74 109 151 196 267 318 390 474
#     4   8  19  45  72 101 150 200 249 319 386 464
#     4  10  22  39  78 109 154 200 263 312 396 470
#     4   8  19  43  73 100 149 195 253 312 394 456
#     4   9  21  44  70  96 154 194 248 320 389 452
#
# _framework density 25.320841000000001
#
# number of rings (size 3 to 8) (size 9 to 14) (size 15 to 20)
#    0.857    1.714    0.000    0.857    2.000    0.000 
#    5.143   15.714    9.429    0.000    0.000    0.000 
#    0.000    0.000    0.000    0.000    0.000    0.000 
#
# Total GULP energy -78015.556151 kJ/mol
# GULP energy per Si atom -5572.539725 kJ/mol
# Density = 2.526321 g / cm^3
# Si number density = 25.320841 Si / 1000 Ang^3
#
#
#
# Elastic Constant Matrix: (Units=GPa)
#
#
# Indices 1 2 3 4 5 6 
#
# 1 60.6749 8.2804 18.1548 0.0000 13.4446 0.0000
# 2 8.2804 95.0048 23.6272 0.0000 1.3146 0.0000
# 3 18.1548 23.6272 100.9443 0.0000 -4.8693 0.0000
# 4 0.0000 0.0000 0.0000 44.2760 0.0000 9.0996
# 5 13.4446 1.3146 -4.8693 0.0000 23.3942 0.0000
# 6 0.0000 0.0000 0.0000 9.0996 0.0000 16.4493
#
#
#
# Elastic Compliance Matrix: (Units=1/GPa)
#
#
# Indices 1 2 3 4 5 6 
#
# 1 0.020625 -0.000581 -0.004186 0.000000 -0.012692 0.000000
# 2 -0.000581 0.011225 -0.002563 0.000000 -0.000830 0.000000
# 3 -0.004186 -0.002563 0.011498 0.000000 0.004943 0.000000
# 4 0.000000 0.000000 0.000000 0.025483 0.000000 -0.014097
# 5 -0.012692 -0.000830 0.004943 0.000000 0.051115 0.000000
# 6 0.000000 0.000000 0.000000 -0.014097 0.000000 0.068591
#
#
# Mechanical properties :
#
#
# Convention : Reuss Voigt Hill
#
# Bulk Modulus (GPa) = 34.85689 39.63878 37.24783
# Shear Modulus (GPa) = 23.50073 30.59469 27.04771
#
# Velocity S-wave (km/s) = 3.04981 3.47980 3.27188
# Velocity P-wave (km/s) = 5.11837 5.64216 5.38664
#
# Compressibility (1/GPa) = 0.02868873
#
# Stress axis : x y z
#
# Youngs Moduli (GPa) = 48.48415 89.08434 86.97505
#
# Poissons Ratio (x) = 0.05177 0.36405
# Poissons Ratio (y) = 0.02817 0.22291
# Poissons Ratio (z) = 0.20294 0.22832
#
# Static dielectric constant tensor:
#      x y z
#    x 2.111770 0.000000 -0.015610 
#    y 0.000000 2.041060 0.000000 
#    z -0.015610 0.000000 2.067630 
# 
# From -- ./inp_files/31688.got.cif
#   From: 2010.05.17/outbox.cif.g08.bks.cpg/sg9_16_cif.got.tgz:31688.got - 2010.06.03 20:04:27.
