data_PCOD9135644
_publ_section_title
;
Structure prediction by ZEFSAII (Michael W. Deem and Ramdas Pophale) SiO2 
 PCOD9135644
Probable space group: C C
;
_chemical_formula_sum "Si O2"
_cell_formula_units_Z 24
_cell_length_a 7.908223
_cell_length_b 14.121900
_cell_length_c 8.439605
_cell_angle_alpha 90.000000
_cell_angle_beta 68.306113
_cell_angle_gamma 90.000000
_cell_volume 875.770438
_symmetry_space_group_name_H-M "C C"
_symmetry_group_IT_number 9
_symmetry_cell_setting 'monoclinic'
loop_
_space_group_symop_operation_xyz
x,y,z
x,-y,1/2+z
1/2+x,1/2+y,z
1/2+x,1/2-y,1/2+z
loop_
_atom_site_type_symbol
_atom_site_label
_atom_site_fract_x
_atom_site_fract_y
_atom_site_fract_z
Si Si1 0.051120 0.680693 0.696670
Si Si2 0.802670 0.465607 0.428162
Si Si3 0.832091 0.879528 0.577621
Si Si4 0.045272 0.261708 0.839706
Si Si5 0.700642 0.361908 0.790089
Si Si6 0.704446 0.020755 0.829454
O O1 0.206205 0.615093 0.721931
O O2 0.057551 0.779856 0.790618
O O3 0.083305 0.696935 0.501755
O O4 0.870179 0.618605 0.788048
O O5 0.758510 0.412960 0.606387
O O6 0.667281 0.547791 0.416782
O O7 0.999440 0.517728 0.379521
O O8 0.993886 0.845034 0.410643
O O9 0.715794 0.788334 0.670826
O O10 0.715904 0.946207 0.504315
O O11 0.851581 0.944677 0.724690
O O12 0.869717 0.303837 0.808885
#
# Coordination Sequence:
#
# PCOD9135644 Si02
#       6
#     4   4   4   4   4   4
#     4  10  24  41  71 103 140 193 252 309 379 462
#     4  10  21  40  69 100 142 193 249 305 376 463
#     4  12  24  43  74 102 147 192 259 314 386 465
#     4  12  23  43  70 109 142 196 248 320 379 462
#     4  12  22  43  72 109 144 196 261 315 377 469
#     4  10  20  42  66 103 135 198 245 301 375 471
#
# _framework density 27.404443000000001
#
# number of rings (size 3 to 8) (size 9 to 14) (size 15 to 20)
#    1.000    0.000    5.000    2.000    2.333    0.000 
#    0.000    1.667    0.000    0.000    0.000    0.000 
#    0.000    0.000    0.000    0.000    0.000    0.000 
#
# Total GULP energy -67127.896496 kJ/mol
# GULP energy per Si atom -5593.991375 kJ/mol
# Density = 2.734207 g / cm^3
# Si number density = 27.404443 Si / 1000 Ang^3
#
#
#
# Elastic Constant Matrix: (Units=GPa)
#
#
# Indices 1 2 3 4 5 6 
#
# 1 95.1348 43.3165 32.9702 0.0000 -13.0862 0.0000
# 2 43.3165 179.6506 30.7732 0.0000 -0.8837 0.0000
# 3 32.9702 30.7732 90.6987 0.0000 4.5213 0.0000
# 4 0.0000 0.0000 0.0000 73.2153 0.0000 10.8601
# 5 -13.0862 -0.8837 4.5213 0.0000 35.5685 0.0000
# 6 0.0000 0.0000 0.0000 10.8601 0.0000 45.3687
#
#
#
# Elastic Compliance Matrix: (Units=1/GPa)
#
#
# Indices 1 2 3 4 5 6 
#
# 1 0.014029 -0.002583 -0.004506 0.000000 0.005670 0.000000
# 2 -0.002583 0.006391 -0.001198 0.000000 -0.000639 0.000000
# 3 -0.004506 -0.001198 0.013238 0.000000 -0.003370 0.000000
# 4 0.000000 0.000000 0.000000 0.014161 0.000000 -0.003390
# 5 0.005670 -0.000639 -0.003370 0.000000 0.030613 0.000000
# 6 0.000000 0.000000 0.000000 -0.003390 0.000000 0.022853
#
#
# Mechanical properties :
#
#
# Convention : Reuss Voigt Hill
#
# Bulk Modulus (GPa) = 58.53132 64.40042 61.46587
# Shear Modulus (GPa) = 40.46821 48.05879 44.26350
#
# Velocity S-wave (km/s) = 3.84696 4.19225 4.02331
# Velocity P-wave (km/s) = 6.41380 6.85451 6.63781
#
# Compressibility (1/GPa) = 0.01708487
#
# Stress axis : x y z
#
# Youngs Moduli (GPa) = 71.28097 156.46662 75.54073
#
# Poissons Ratio (x) = 0.40413 0.34039
# Poissons Ratio (y) = 0.18411 0.09047
# Poissons Ratio (z) = 0.32119 0.18740
#
# Static dielectric constant tensor:
#      x y z
#    x 2.201200 0.000000 -0.012740 
#    y 0.000000 2.185730 0.000000 
#    z -0.012740 0.000000 2.061630 
# 
# From -- ./inp_files/7096.got.cif
#   From: 2010.05.17/outbox.cif.g08.bks.cpg/sg9_4_cif.got.tgz:7096.got - 2010.06.03 20:04:27.
