data_PCOD9135473
_publ_section_title
;
Structure prediction by ZEFSAII (Michael W. Deem and Ramdas Pophale) SiO2 
 PCOD9135473
Probable space group: C C
;
_chemical_formula_sum "Si O2"
_cell_formula_units_Z 28
_cell_length_a 15.555522
_cell_length_b 9.962356
_cell_length_c 9.649610
_cell_angle_alpha 90.000000
_cell_angle_beta 129.042040
_cell_angle_gamma 90.000000
_cell_volume 1161.450658
_symmetry_space_group_name_H-M "C C"
_symmetry_group_IT_number 9
_symmetry_cell_setting 'monoclinic'
loop_
_space_group_symop_operation_xyz
x,y,z
x,-y,1/2+z
1/2+x,1/2+y,z
1/2+x,1/2-y,1/2+z
loop_
_atom_site_type_symbol
_atom_site_label
_atom_site_fract_x
_atom_site_fract_y
_atom_site_fract_z
Si Si1 0.480240 0.058390 0.312910
Si Si2 0.294992 0.259366 0.908246
Si Si3 0.590275 0.323065 0.333161
Si Si4 0.842880 0.453971 0.937235
Si Si5 0.721836 0.056445 0.106989
Si Si6 0.094788 0.936638 0.639146
Si Si7 0.361139 0.447566 0.480425
O O1 0.510590 0.195565 0.263514
O O2 0.419216 0.098594 0.391954
O O3 0.598561 0.992053 0.458259
O O4 0.403340 0.958180 0.146338
O O5 0.215907 0.235085 0.958960
O O6 0.336323 0.115133 0.902831
O O7 0.220058 0.318464 0.708507
O O8 0.371174 0.389567 0.012687
O O9 0.591444 0.412790 0.196294
O O10 0.719229 0.392949 0.807814
O O11 0.786024 0.094555 0.032520
O O12 0.793708 0.947182 0.267879
O O13 0.080493 0.915180 0.460469
O O14 0.981320 0.880457 0.592113
#
# Coordination Sequence:
#
# PCOD9135473 Si02
#       7
#     4   4   4   4   4   4   4
#     4  12  23  46  71 103 141 188 238 293 358 426
#     4   9  21  42  71 100 139 184 229 297 352 408
#     4  11  23  46  73  99 144 188 237 301 358 424
#     4  11  24  43  70 102 145 184 230 287 372 425
#     4  10  21  40  70 104 134 187 241 291 345 416
#     4  11  24  43  68 102 138 189 238 289 364 427
#     4  10  20  40  67 100 141 178 243 288 341 424
#
# _framework density 24.107782
#
# number of rings (size 3 to 8) (size 9 to 14) (size 15 to 20)
#    0.857    0.571    1.429    5.143    0.000    1.143 
#    5.143    7.143    0.000    0.000    0.000    0.000 
#    0.000    0.000    0.000    0.000    0.000    0.000 
#
# Total GULP energy -78098.495167 kJ/mol
# GULP energy per Si atom -5578.463941 kJ/mol
# Density = 2.405291 g / cm^3
# Si number density = 24.107782 Si / 1000 Ang^3
#
#
#
# Elastic Constant Matrix: (Units=GPa)
#
#
# Indices 1 2 3 4 5 6 
#
# 1 175.0655 19.6221 57.3537 0.0000 7.4534 0.0000
# 2 19.6221 54.1433 16.8869 0.0000 1.0820 0.0000
# 3 57.3537 16.8869 108.9680 0.0000 11.4199 0.0000
# 4 0.0000 0.0000 0.0000 28.2588 0.0000 -8.0804
# 5 7.4534 1.0820 11.4199 0.0000 37.6597 0.0000
# 6 0.0000 0.0000 0.0000 -8.0804 0.0000 31.7996
#
#
#
# Elastic Compliance Matrix: (Units=1/GPa)
#
#
# Indices 1 2 3 4 5 6 
#
# 1 0.007014 -0.001465 -0.003433 0.000000 -0.000305 0.000000
# 2 -0.001465 0.019719 -0.002330 0.000000 0.000430 0.000000
# 3 -0.003433 -0.002330 0.011636 0.000000 -0.002782 0.000000
# 4 0.000000 0.000000 0.000000 0.038160 0.000000 0.009697
# 5 -0.000305 0.000430 -0.002782 0.000000 0.027445 0.000000
# 6 0.000000 0.000000 0.000000 0.009697 0.000000 0.033911
#
#
# Mechanical properties :
#
#
# Convention : Reuss Voigt Hill
#
# Bulk Modulus (GPa) = 41.81692 58.43360 50.12526
# Shear Modulus (GPa) = 31.18935 35.83123 33.51029
#
# Velocity S-wave (km/s) = 3.60077 3.85943 3.73234
# Velocity P-wave (km/s) = 5.88820 6.64465 6.27783
#
# Compressibility (1/GPa) = 0.02391377
#
# Stress axis : x y z
#
# Youngs Moduli (GPa) = 142.57317 50.71377 85.93766
#
# Poissons Ratio (x) = 0.07431 0.29499
# Poissons Ratio (y) = 0.20890 0.20021
# Poissons Ratio (z) = 0.48940 0.11815
#
# Static dielectric constant tensor:
#      x y z
#    x 1.964530 0.000000 0.082440 
#    y 0.000000 1.977980 0.000000 
#    z 0.082440 0.000000 1.985760 
# 
# From -- ./inp_files/9714.got.cif
#   From: 2010.05.17/outbox.cif.g08.bks.cpg/sg9_5_cif.got.tgz:9714.got - 2010.06.03 20:04:27.
