data_PCOD9135116
_publ_section_title
;
Structure prediction by ZEFSAII (Michael W. Deem and Ramdas Pophale) SiO2 
 PCOD9135116
Probable space group: C C
;
_chemical_formula_sum "Si O2"
_cell_formula_units_Z 28
_cell_length_a 24.285438
_cell_length_b 9.414713
_cell_length_c 7.417996
_cell_angle_alpha 90.000000
_cell_angle_beta 45.744308
_cell_angle_gamma 90.000000
_cell_volume 1214.769045
_symmetry_space_group_name_H-M "C C"
_symmetry_group_IT_number 9
_symmetry_cell_setting 'monoclinic'
loop_
_space_group_symop_operation_xyz
x,y,z
x,-y,1/2+z
1/2+x,1/2+y,z
1/2+x,1/2-y,1/2+z
loop_
_atom_site_type_symbol
_atom_site_label
_atom_site_fract_x
_atom_site_fract_y
_atom_site_fract_z
Si Si1 0.535910 0.673938 0.486680
Si Si2 0.319226 0.316484 0.079391
Si Si3 0.255880 0.784779 0.385031
Si Si4 0.866436 0.872402 0.354566
Si Si5 0.655340 0.195739 0.152887
Si Si6 0.621589 0.089731 0.865990
Si Si7 0.629781 0.449839 0.469087
O O1 0.451565 0.635717 0.742201
O O2 0.548395 0.841904 0.436064
O O3 0.603222 0.602897 0.459015
O O4 0.557481 0.603986 0.248277
O O5 0.373531 0.315986 0.131897
O O6 0.308698 0.199262 0.944634
O O7 0.238432 0.315112 0.371434
O O8 0.337149 0.464628 0.934903
O O9 0.192625 0.670273 0.602532
O O10 0.206838 0.915112 0.410547
O O11 0.307370 0.719609 0.108418
O O12 0.638709 0.346090 0.277172
O O13 0.643941 0.073228 0.324992
O O14 0.603585 0.138306 0.110233
#
# Coordination Sequence:
#
# PCOD9135116 Si02
#       7
#     4   4   4   4   4   4   4
#     4  11  25  39  60  98 139 179 211 279 363 412
#     4  11  20  33  63 104 123 163 222 289 330 373
#     4  10  21  36  63  90 128 166 221 275 320 396
#     4  12  20  37  62  97 140 167 223 286 340 396
#     4  11  19  36  67  94 123 166 230 284 312 396
#     4  10  20  37  62  97 123 172 226 274 333 401
#     4  11  23  42  61  96 136 177 221 279 346 402
#
# _framework density 23.049648000000001
#
# number of rings (size 3 to 8) (size 9 to 14) (size 15 to 20)
#    0.000    1.143    4.286    4.286    0.000    0.000 
#    2.571    0.000    0.000    6.857    0.000    0.000 
#    0.000    0.000    0.000    0.000    0.000    0.000 
#
# Total GULP energy -78019.314190 kJ/mol
# GULP energy per Si atom -5572.808156 kJ/mol
# Density = 2.299719 g / cm^3
# Si number density = 23.049648 Si / 1000 Ang^3
#
#
#
# Elastic Constant Matrix: (Units=GPa)
#
#
# Indices 1 2 3 4 5 6 
#
# 1 100.3977 32.4693 36.9465 0.0000 20.4769 0.0000
# 2 32.4693 76.7207 27.5418 0.0000 -5.0349 0.0000
# 3 36.9465 27.5418 88.4061 0.0000 -3.1807 0.0000
# 4 0.0000 0.0000 0.0000 18.0287 0.0000 4.1865
# 5 20.4769 -5.0349 -3.1807 0.0000 45.7347 0.0000
# 6 0.0000 0.0000 0.0000 4.1865 0.0000 20.5545
#
#
#
# Elastic Compliance Matrix: (Units=1/GPa)
#
#
# Indices 1 2 3 4 5 6 
#
# 1 0.014969 -0.005056 -0.004955 0.000000 -0.007603 0.000000
# 2 -0.005056 0.016461 -0.002876 0.000000 0.003876 0.000000
# 3 -0.004955 -0.002876 0.014382 0.000000 0.002902 0.000000
# 4 0.000000 0.000000 0.000000 0.058221 0.000000 -0.011858
# 5 -0.007603 0.003876 0.002902 0.000000 0.025898 0.000000
# 6 0.000000 0.000000 0.000000 -0.011858 0.000000 0.051066
#
#
# Mechanical properties :
#
#
# Convention : Reuss Voigt Hill
#
# Bulk Modulus (GPa) = 49.89908 51.04885 50.47396
# Shear Modulus (GPa) = 23.42470 28.10139 25.76304
#
# Velocity S-wave (km/s) = 3.19136 3.49545 3.34686
# Velocity P-wave (km/s) = 5.93929 6.20373 6.07295
#
# Compressibility (1/GPa) = 0.02004045
#
# Stress axis : x y z
#
# Youngs Moduli (GPa) = 66.80252 60.75098 69.52960
#
# Poissons Ratio (x) = 0.30714 0.34449
# Poissons Ratio (y) = 0.33773 0.19995
# Poissons Ratio (z) = 0.33098 0.17471
#
# Static dielectric constant tensor:
#      x y z
#    x 2.119570 0.000000 0.087160 
#    y 0.000000 1.923100 0.000000 
#    z 0.087160 0.000000 1.814340 
# 
# From -- ./inp_files/12398.got.cif
#   From: 2010.05.17/outbox.cif.g08.bks.cpg/sg9_7_cif.got.tgz:12398.got - 2010.06.03 20:04:27.
