data_PCOD9135581
_publ_section_title
;
Structure prediction by ZEFSAII (Michael W. Deem and Ramdas Pophale) SiO2 
 PCOD9135581
Probable space group: C C
;
_chemical_formula_sum "Si O2"
_cell_formula_units_Z 28
_cell_length_a 15.970224
_cell_length_b 14.595358
_cell_length_c 5.408443
_cell_angle_alpha 90.000000
_cell_angle_beta 55.577241
_cell_angle_gamma 90.000000
_cell_volume 1039.904693
_symmetry_space_group_name_H-M "C C"
_symmetry_group_IT_number 9
_symmetry_cell_setting 'monoclinic'
loop_
_space_group_symop_operation_xyz
x,y,z
x,-y,1/2+z
1/2+x,1/2+y,z
1/2+x,1/2-y,1/2+z
loop_
_atom_site_type_symbol
_atom_site_label
_atom_site_fract_x
_atom_site_fract_y
_atom_site_fract_z
Si Si1 0.475400 0.690576 0.366440
Si Si2 0.656505 0.233623 0.814038
Si Si3 0.124086 0.471779 0.231337
Si Si4 0.347064 0.779560 0.223896
Si Si5 0.286438 0.631202 0.968042
Si Si6 0.589497 0.549444 0.857654
Si Si7 0.834126 0.449825 0.941749
O O1 0.548925 0.719126 0.465803
O O2 0.429113 0.777434 0.301800
O O3 0.379084 0.631712 0.619365
O O4 0.541111 0.640245 0.049191
O O5 0.646896 0.135389 0.691185
O O6 0.739484 0.296839 0.539058
O O7 0.703281 0.203660 0.997712
O O8 0.069689 0.493480 0.578418
O O9 0.225725 0.536263 0.088874
O O10 0.370015 0.850201 0.970238
O O11 0.333832 0.678329 0.129270
O O12 0.559105 0.478906 0.130655
O O13 0.710928 0.555607 0.648583
O O14 0.861346 0.516805 0.124148
#
# Coordination Sequence:
#
# PCOD9135581 Si02
#       7
#     4   4   4   4   4   4   4
#     4  11  25  41  66 107 138 180 235 294 353 418
#     4  10  22  43  67  96 141 186 229 285 352 429
#     4  10  20  41  67  98 136 187 231 278 353 419
#     4  11  23  43  68  98 135 185 230 287 356 419
#     4  10  24  40  69  99 139 186 232 290 347 423
#     4  10  23  41  64  98 134 178 224 285 348 418
#     4  10  23  43  71  92 129 180 233 283 345 412
#
# _framework density 26.925547000000002
#
# number of rings (size 3 to 8) (size 9 to 14) (size 15 to 20)
#    0.000    1.714    2.857    0.000    6.000    5.714 
#    0.000    2.857    0.000    0.000    0.000    0.000 
#    0.000    0.000    0.000    0.000    0.000    0.000 
#
# Total GULP energy -78442.589654 kJ/mol
# GULP energy per Si atom -5603.042118 kJ/mol
# Density = 2.686426 g / cm^3
# Si number density = 26.925547 Si / 1000 Ang^3
#
#
#
# Elastic Constant Matrix: (Units=GPa)
#
#
# Indices 1 2 3 4 5 6 
#
# 1 128.3434 35.7519 42.0295 0.0000 -1.5599 0.0000
# 2 35.7519 98.2299 30.1646 0.0000 -14.1277 0.0000
# 3 42.0295 30.1646 113.4606 0.0000 -3.3404 0.0000
# 4 0.0000 0.0000 0.0000 48.8595 0.0000 8.6859
# 5 -1.5599 -14.1277 -3.3404 0.0000 40.5256 0.0000
# 6 0.0000 0.0000 0.0000 8.6859 0.0000 29.8656
#
#
#
# Elastic Compliance Matrix: (Units=1/GPa)
#
#
# Indices 1 2 3 4 5 6 
#
# 1 0.009452 -0.002694 -0.002809 0.000000 -0.000807 0.000000
# 2 -0.002694 0.012413 -0.002183 0.000000 0.004044 0.000000
# 3 -0.002809 -0.002183 0.010434 0.000000 -0.000009 0.000000
# 4 0.000000 0.000000 0.000000 0.021583 0.000000 -0.006277
# 5 -0.000807 0.004044 -0.000009 0.000000 0.026054 0.000000
# 6 0.000000 0.000000 0.000000 -0.006277 0.000000 0.035309
#
#
# Mechanical properties :
#
#
# Convention : Reuss Voigt Hill
#
# Bulk Modulus (GPa) = 59.07582 61.76955 60.42268
# Shear Modulus (GPa) = 36.69512 39.32267 38.00889
#
# Velocity S-wave (km/s) = 3.69567 3.82569 3.76124
# Velocity P-wave (km/s) = 6.34024 6.51960 6.43055
#
# Compressibility (1/GPa) = 0.01692740
#
# Stress axis : x y z
#
# Youngs Moduli (GPa) = 105.79773 80.56384 95.83779
#
# Poissons Ratio (x) = 0.21701 0.26920
# Poissons Ratio (y) = 0.28498 0.20923
# Poissons Ratio (z) = 0.29718 0.17588
#
# Static dielectric constant tensor:
#      x y z
#    x 2.051660 0.000000 -0.006490 
#    y 0.000000 2.099590 0.000000 
#    z -0.006490 0.000000 2.101320 
# 
# From -- ./inp_files/2378.got.cif
#   From: 2010.05.17/outbox.cif.g08.bks.cpg/sg9_2_cif.got.tgz:2378.got - 2010.06.03 20:04:27.
