data_PCOD9135038
_publ_section_title
;
Structure prediction by ZEFSAII (Michael W. Deem and Ramdas Pophale) SiO2 
 PCOD9135038
Probable space group: C C
;
_chemical_formula_sum "Si O2"
_cell_formula_units_Z 32
_cell_length_a 9.908017
_cell_length_b 18.823908
_cell_length_c 7.247902
_cell_angle_alpha 90.000000
_cell_angle_beta 98.561702
_cell_angle_gamma 90.000000
_cell_volume 1336.724629
_symmetry_space_group_name_H-M "C C"
_symmetry_group_IT_number 9
_symmetry_cell_setting 'monoclinic'
loop_
_space_group_symop_operation_xyz
x,y,z
x,-y,1/2+z
1/2+x,1/2+y,z
1/2+x,1/2-y,1/2+z
loop_
_atom_site_type_symbol
_atom_site_label
_atom_site_fract_x
_atom_site_fract_y
_atom_site_fract_z
Si Si1 0.783560 0.694550 0.099900
Si Si2 0.220695 0.787546 0.150221
Si Si3 0.381343 0.085508 0.654994
Si Si4 0.587694 0.547172 0.600535
Si Si5 0.550681 0.396985 0.678440
Si Si6 0.755361 0.129044 0.203290
Si Si7 0.909668 0.838795 0.112031
Si Si8 0.979601 0.433629 0.557150
O O1 0.637118 0.672250 0.150520
O O2 0.841512 0.769218 0.189920
O O3 0.882274 0.625227 0.136548
O O4 0.763102 0.706042 0.875353
O O5 0.334286 0.836980 0.068630
O O6 0.218019 0.704727 0.109086
O O7 0.062666 0.809811 0.096505
O O8 0.233773 0.066653 0.713695
O O9 0.426316 0.015432 0.551548
O O10 0.485410 0.090404 0.844661
O O11 0.595301 0.464094 0.572500
O O12 0.580040 0.577765 0.392179
O O13 0.461077 0.582469 0.685440
O O14 0.390062 0.392752 0.622765
O O15 0.809747 0.142760 0.421919
O O16 0.629519 0.075737 0.171886
#
# Coordination Sequence:
#
# PCOD9135038 Si02
#       8
#     4   4   4   4   4   4   4   4
#     4  10  20  36  63  91 116 164 217 257 299 379
#     4   9  19  39  64  88 123 167 210 255 318 375
#     4  10  21  36  65  91 119 163 213 254 309 378
#     4  10  21  38  64  93 127 166 212 259 313 379
#     4  11  23  38  64  92 125 165 216 258 314 384
#     4  10  22  40  60  88 129 164 199 262 326 370
#     4   9  19  38  64  85 123 168 205 254 322 368
#     4  11  21  37  62  90 124 161 210 261 313 369
#
# _framework density 23.939112000000002
#
# number of rings (size 3 to 8) (size 9 to 14) (size 15 to 20)
#    0.000    2.000    2.500    0.750    3.500    2.000 
#    0.000    7.500    2.750    0.000    0.000    0.000 
#    0.000    0.000    0.000    0.000    0.000    0.000 
#
# Total GULP energy -89129.450586 kJ/mol
# GULP energy per Si atom -5570.590662 kJ/mol
# Density = 2.388463 g / cm^3
# Si number density = 23.939112 Si / 1000 Ang^3
#
#
#
# Elastic Constant Matrix: (Units=GPa)
#
#
# Indices 1 2 3 4 5 6 
#
# 1 90.7810 29.6557 6.0144 0.0000 22.4798 0.0000
# 2 29.6557 85.1955 13.5646 0.0000 3.7603 0.0000
# 3 6.0144 13.5646 41.1897 0.0000 9.5692 0.0000
# 4 0.0000 0.0000 0.0000 24.6111 0.0000 6.3361
# 5 22.4798 3.7603 9.5692 0.0000 33.1137 0.0000
# 6 0.0000 0.0000 0.0000 6.3361 0.0000 44.6182
#
#
#
# Elastic Compliance Matrix: (Units=1/GPa)
#
#
# Indices 1 2 3 4 5 6 
#
# 1 0.015081 -0.005093 0.001843 0.000000 -0.010192 0.000000
# 2 -0.005093 0.014109 -0.004646 0.000000 0.003198 0.000000
# 3 0.001843 -0.004646 0.027557 0.000000 -0.008687 0.000000
# 4 0.000000 0.000000 0.000000 0.042174 0.000000 -0.005989
# 5 -0.010192 0.003198 -0.008687 0.000000 0.039265 0.000000
# 6 0.000000 0.000000 0.000000 -0.005989 0.000000 0.023263
#
#
# Mechanical properties :
#
#
# Convention : Reuss Voigt Hill
#
# Bulk Modulus (GPa) = 24.41673 35.07061 29.74367
# Shear Modulus (GPa) = 26.19274 31.66404 28.92839
#
# Velocity S-wave (km/s) = 3.31137 3.64083 3.48000
# Velocity P-wave (km/s) = 4.98416 5.68822 5.34779
#
# Compressibility (1/GPa) = 0.04095553
#
# Stress axis : x y z
#
# Youngs Moduli (GPa) = 66.30819 70.87624 36.28865
#
# Poissons Ratio (x) = 0.36098 -0.06688
# Poissons Ratio (y) = 0.33772 0.16858
# Poissons Ratio (z) = -0.12221 0.32927
#
# Static dielectric constant tensor:
#      x y z
#    x 1.906390 0.000000 -0.001590 
#    y 0.000000 2.118020 0.000000 
#    z -0.001590 0.000000 2.098700 
# 
# From -- ./inp_files/5808.got.cif
#   From: 2010.05.17/outbox.cif.g08.bks.cpg/sg9_3_cif.got.tgz:5808.got - 2010.06.03 20:04:27.
