data_PCOD9135727
_publ_section_title
;
Structure prediction by ZEFSAII (Michael W. Deem and Ramdas Pophale) SiO2 
 PCOD9135727
Probable space group: C C
;
_chemical_formula_sum "Si O2"
_cell_formula_units_Z 24
_cell_length_a 7.187416
_cell_length_b 13.006286
_cell_length_c 9.981447
_cell_angle_alpha 90.000000
_cell_angle_beta 93.881952
_cell_angle_gamma 90.000000
_cell_volume 930.940705
_symmetry_space_group_name_H-M "C C"
_symmetry_group_IT_number 9
_symmetry_cell_setting 'monoclinic'
loop_
_space_group_symop_operation_xyz
x,y,z
x,-y,1/2+z
1/2+x,1/2+y,z
1/2+x,1/2-y,1/2+z
loop_
_atom_site_type_symbol
_atom_site_label
_atom_site_fract_x
_atom_site_fract_y
_atom_site_fract_z
Si Si1 0.967010 0.883343 0.841660
Si Si2 0.810293 0.094023 0.747989
Si Si3 0.156904 0.308967 0.984424
Si Si4 0.316685 0.184685 0.199004
Si Si5 0.925660 0.470757 0.322320
Si Si6 0.287627 0.895004 0.049081
O O1 0.763586 0.837464 0.854610
O O2 0.109509 0.825726 0.752459
O O3 0.078939 0.877538 0.988045
O O4 0.941600 0.998532 0.785115
O O5 0.716941 0.100047 0.595065
O O6 0.898084 0.207597 0.758918
O O7 0.631283 0.077419 0.836262
O O8 0.936339 0.311284 0.001218
O O9 0.264768 0.209130 0.043695
O O10 0.421908 0.082017 0.244278
O O11 0.847139 0.505021 0.462097
O O12 0.810246 0.404857 0.208531
#
# Coordination Sequence:
#
# PCOD9135727 Si02
#       6
#     4   4   4   4   4   4
#     4  11  21  42  70  91 136 182 213 285 341 387
#     4   9  21  43  63  92 139 166 224 277 327 393
#     4   9  21  44  60  98 136 165 225 282 316 414
#     4   9  23  41  63 100 128 170 240 254 340 409
#     4  10  20  43  65  93 136 175 213 289 321 396
#     4  10  22  39  67  98 133 170 233 267 333 407
#
# _framework density 25.780377999999999
#
# number of rings (size 3 to 8) (size 9 to 14) (size 15 to 20)
#    1.000    1.333    1.667    0.000    4.667    1.333 
#    9.000    3.333    0.000    0.000    0.000    0.000 
#    0.000    0.000    0.000    0.000    0.000    0.000 
#
# Total GULP energy -66883.822739 kJ/mol
# GULP energy per Si atom -5573.651895 kJ/mol
# Density = 2.572170 g / cm^3
# Si number density = 25.780378 Si / 1000 Ang^3
#
#
#
# Elastic Constant Matrix: (Units=GPa)
#
#
# Indices 1 2 3 4 5 6 
#
# 1 105.4381 5.5672 -6.8032 0.0000 -3.9672 0.0000
# 2 5.5672 115.3701 -13.9343 0.0000 13.5169 0.0000
# 3 -6.8032 -13.9343 46.9538 0.0000 13.1624 0.0000
# 4 0.0000 0.0000 0.0000 40.2855 0.0000 3.8806
# 5 -3.9672 13.5169 13.1624 0.0000 31.9462 0.0000
# 6 0.0000 0.0000 0.0000 3.8806 0.0000 40.6381
#
#
#
# Elastic Compliance Matrix: (Units=1/GPa)
#
#
# Indices 1 2 3 4 5 6 
#
# 1 0.009609 -0.000461 0.000979 0.000000 0.000985 0.000000
# 2 -0.000461 0.009973 0.004626 0.000000 -0.006183 0.000000
# 3 0.000979 0.004626 0.026373 0.000000 -0.012702 0.000000
# 4 0.000000 0.000000 0.000000 0.025053 0.000000 -0.002392
# 5 0.000985 -0.006183 -0.012702 0.000000 0.039274 0.000000
# 6 0.000000 0.000000 0.000000 -0.002392 0.000000 0.024836
#
#
# Mechanical properties :
#
#
# Convention : Reuss Voigt Hill
#
# Bulk Modulus (GPa) = 17.77939 26.38015 22.07977
# Shear Modulus (GPa) = 34.82453 41.43611 38.13032
#
# Velocity S-wave (km/s) = 3.67933 4.01343 3.85001
# Velocity P-wave (km/s) = 4.99614 5.63309 5.32415
#
# Compressibility (1/GPa) = 0.05624490
#
# Stress axis : x y z
#
# Youngs Moduli (GPa) = 104.07114 100.26918 37.91757
#
# Poissons Ratio (x) = 0.04620 -0.03714
# Poissons Ratio (y) = 0.04795 -0.17541
# Poissons Ratio (z) = -0.10194 -0.46387
#
# Static dielectric constant tensor:
#      x y z
#    x 2.019520 0.000000 0.056000 
#    y 0.000000 2.053090 0.000000 
#    z 0.056000 0.000000 2.187580 
# 
# From -- ./inp_files/14327.got.cif
#   From: 2010.05.17/outbox.cif.g08.bks.cpg/sg9_8_cif.got.tgz:14327.got - 2010.06.03 20:04:27.
