data_PCOD9135604
_publ_section_title
;
Structure prediction by ZEFSAII (Michael W. Deem and Ramdas Pophale) SiO2 
 PCOD9135604
Probable space group: C C
;
_chemical_formula_sum "Si O2"
_cell_formula_units_Z 28
_cell_length_a 16.144431
_cell_length_b 12.043083
_cell_length_c 9.105414
_cell_angle_alpha 90.000000
_cell_angle_beta 37.403865
_cell_angle_gamma 90.000000
_cell_volume 1075.365123
_symmetry_space_group_name_H-M "C C"
_symmetry_group_IT_number 9
_symmetry_cell_setting 'monoclinic'
loop_
_space_group_symop_operation_xyz
x,y,z
x,-y,1/2+z
1/2+x,1/2+y,z
1/2+x,1/2-y,1/2+z
loop_
_atom_site_type_symbol
_atom_site_label
_atom_site_fract_x
_atom_site_fract_y
_atom_site_fract_z
Si Si1 0.394900 0.221051 0.558610
Si Si2 0.273157 0.435212 0.134812
Si Si3 0.112554 0.761907 0.920601
Si Si4 0.288649 0.073280 0.975736
Si Si5 0.531982 0.571750 0.786317
Si Si6 0.649859 0.173259 0.305063
Si Si7 0.051360 0.634916 0.742031
O O1 0.456424 0.345708 0.508495
O O2 0.541637 0.166153 0.327914
O O3 0.279160 0.248406 0.604005
O O4 0.326326 0.139311 0.773720
O O5 0.216993 0.337826 0.318375
O O6 0.198392 0.550408 0.272208
O O7 0.431370 0.466748 0.908165
O O8 0.510813 0.200702 0.947980
O O9 0.042658 0.846391 0.131108
O O10 0.208392 0.839620 0.687646
O O11 0.201752 0.595829 0.580408
O O12 0.431347 0.052438 0.859767
O O13 0.183341 0.973062 0.103023
O O14 0.575235 0.207924 0.562625
#
# Coordination Sequence:
#
# PCOD9135604 Si02
#       7
#     4   4   4   4   4   4   4
#     4  10  23  44  68 105 148 185 248 309 364 444
#     4   9  23  43  69 103 147 197 240 303 380 443
#     4  10  24  46  71 108 153 192 251 310 372 454
#     4  11  24  44  75 106 147 195 249 310 379 439
#     4  11  26  47  77 112 141 203 249 306 375 459
#     4  10  20  41  71  98 139 204 235 299 381 441
#     4   9  22  43  67 100 145 190 236 311 363 436
#
# _framework density 26.037669000000001
#
# number of rings (size 3 to 8) (size 9 to 14) (size 15 to 20)
#    0.857    1.143    1.429    0.000    2.000   10.286 
#    5.143    1.429    0.000    0.000    0.000    0.000 
#    0.000    0.000    0.000    0.000    0.000    0.000 
#
# Total GULP energy -77978.969120 kJ/mol
# GULP energy per Si atom -5569.926366 kJ/mol
# Density = 2.597841 g / cm^3
# Si number density = 26.037669 Si / 1000 Ang^3
#
#
#
# Elastic Constant Matrix: (Units=GPa)
#
#
# Indices 1 2 3 4 5 6 
#
# 1 95.0836 64.1348 59.0803 0.0000 -36.7257 0.0000
# 2 64.1348 115.7155 55.3719 0.0000 -7.6635 0.0000
# 3 59.0803 55.3719 122.3868 0.0000 -21.3566 0.0000
# 4 0.0000 0.0000 0.0000 47.9241 0.0000 -16.5292
# 5 -36.7257 -7.6635 -21.3566 0.0000 45.2502 0.0000
# 6 0.0000 0.0000 0.0000 -16.5292 0.0000 33.6403
#
#
#
# Elastic Compliance Matrix: (Units=1/GPa)
#
#
# Indices 1 2 3 4 5 6 
#
# 1 0.030083 -0.012847 -0.005262 0.000000 0.019756 0.000000
# 2 -0.012847 0.016528 -0.002841 0.000000 -0.008968 0.000000
# 3 -0.005262 -0.002841 0.012169 0.000000 0.000992 0.000000
# 4 0.000000 0.000000 0.000000 0.025124 0.000000 0.012345
# 5 0.019756 -0.008968 0.000992 0.000000 0.037083 0.000000
# 6 0.000000 0.000000 0.000000 0.012345 0.000000 0.035792
#
#
# Mechanical properties :
#
#
# Convention : Reuss Voigt Hill
#
# Bulk Modulus (GPa) = 59.24223 76.70667 67.97445
# Shear Modulus (GPa) = 24.47310 35.66951 30.07131
#
# Velocity S-wave (km/s) = 3.06912 3.70526 3.40209
# Velocity P-wave (km/s) = 5.94653 6.91586 6.44943
#
# Compressibility (1/GPa) = 0.01687985
#
# Stress axis : x y z
#
# Youngs Moduli (GPa) = 33.24150 60.50423 82.17266
#
# Poissons Ratio (x) = 0.77729 0.43241
# Poissons Ratio (y) = 0.42705 0.23346
# Poissons Ratio (z) = 0.17492 0.17190
#
# Static dielectric constant tensor:
#      x y z
#    x 2.166490 0.000000 0.027510 
#    y 0.000000 2.131670 0.000000 
#    z 0.027510 0.000000 2.149380 
# 
# From -- ./inp_files/20221.got.cif
#   From: 2010.05.17/outbox.cif.g08.bks.cpg/sg9_11_cif.got.tgz:20221.got - 2010.06.03 20:04:27.
