data_PCOD9135502
_publ_section_title
;
Structure prediction by ZEFSAII (Michael W. Deem and Ramdas Pophale) SiO2 
 PCOD9135502
Probable space group: C C
;
_chemical_formula_sum "Si O2"
_cell_formula_units_Z 32
_cell_length_a 23.115438
_cell_length_b 5.642067
_cell_length_c 13.804658
_cell_angle_alpha 90.000000
_cell_angle_beta 50.023260
_cell_angle_gamma 90.000000
_cell_volume 1379.646626
_symmetry_space_group_name_H-M "C C"
_symmetry_group_IT_number 9
_symmetry_cell_setting 'monoclinic'
loop_
_space_group_symop_operation_xyz
x,y,z
x,-y,1/2+z
1/2+x,1/2+y,z
1/2+x,1/2-y,1/2+z
loop_
_atom_site_type_symbol
_atom_site_label
_atom_site_fract_x
_atom_site_fract_y
_atom_site_fract_z
Si Si1 0.693540 0.406579 0.637460
Si Si2 0.791287 0.882196 0.885582
Si Si3 0.947114 0.398317 0.834118
Si Si4 0.957546 0.865952 0.610990
Si Si5 0.271122 0.660490 0.732346
Si Si6 0.802766 0.218426 0.052267
Si Si7 0.423812 0.123805 0.125492
Si Si8 0.024589 0.894839 0.745013
O O1 0.744792 0.321484 0.490303
O O2 0.714220 0.258192 0.712491
O O3 0.720830 0.667505 0.637004
O O4 0.608607 0.397185 0.695058
O O5 0.873369 0.835859 0.750309
O O6 0.742169 0.029210 0.859959
O O7 0.811630 0.058528 0.949488
O O8 0.934846 0.385083 0.730593
O O9 0.988487 0.642982 0.813350
O O10 0.866205 0.415303 0.973033
O O11 0.984614 0.143232 0.817362
O O12 0.963611 0.617762 0.547699
O O13 0.016747 0.883570 0.635817
O O14 0.958949 0.121631 0.558086
O O15 0.313360 0.448278 0.631224
O O16 0.334443 0.850146 0.697308
#
# Coordination Sequence:
#
# PCOD9135502 Si02
#       8
#     4   4   4   4   4   4   4   4
#     4  11  25  36  66  96 127 176 216 262 339 391
#     4  10  21  41  62  92 127 166 217 275 310 384
#     4  10  20  40  69  89 123 176 213 266 322 382
#     4   9  17  34  64  86 112 167 203 253 316 362
#     4  10  23  37  62  98 130 161 215 284 315 389
#     4  11  22  39  67 100 121 171 227 261 331 385
#     4   9  17  33  59  88 116 156 202 260 305 358
#     4  10  21  38  63  91 132 167 211 263 326 395
#
# _framework density 23.194344999999998
#
# number of rings (size 3 to 8) (size 9 to 14) (size 15 to 20)
#    0.000    2.000    3.750    1.500    8.750    0.000 
#    0.000    0.000   13.750    0.000    0.000    0.000 
#    0.000    0.000    0.000    0.000    0.000    0.000 
#
# Total GULP energy -89332.566956 kJ/mol
# GULP energy per Si atom -5583.285435 kJ/mol
# Density = 2.314155 g / cm^3
# Si number density = 23.194345 Si / 1000 Ang^3
#
#
#
# Elastic Constant Matrix: (Units=GPa)
#
#
# Indices 1 2 3 4 5 6 
#
# 1 177.9186 56.1730 34.2916 -0.0005 -2.1600 0.0008
# 2 56.1730 167.9395 24.2231 0.0023 -0.8042 -0.0053
# 3 34.2916 24.2231 41.9818 0.0027 18.3280 -0.0024
# 4 -0.0005 0.0023 0.0027 19.8965 -0.0008 2.7856
# 5 -2.1600 -0.8042 18.3280 -0.0008 35.3376 0.0009
# 6 0.0008 -0.0053 -0.0024 2.7856 0.0009 25.3405
#
#
#
# Elastic Compliance Matrix: (Units=1/GPa)
#
#
# Indices 1 2 3 4 5 6 
#
# 1 0.007494 -0.001469 -0.007057 0.000002 0.004085 -0.000002
# 2 -0.001469 0.006989 -0.003701 0.000000 0.001989 0.000001
# 3 -0.007057 -0.003701 0.041295 -0.000007 -0.021933 0.000005
# 4 0.000002 0.000000 -0.000007 0.051046 0.000005 -0.005611
# 5 0.004085 0.001989 -0.021933 0.000005 0.039969 -0.000004
# 6 -0.000002 0.000001 0.000005 -0.005611 -0.000004 0.040079
#
#
# Mechanical properties :
#
#
# Convention : Reuss Voigt Hill
#
# Bulk Modulus (GPa) = 31.92406 68.57947 50.25176
# Shear Modulus (GPa) = 22.54606 34.32506 28.43556
#
# Velocity S-wave (km/s) = 3.12115 3.85111 3.50518
# Velocity P-wave (km/s) = 5.17517 7.02895 6.17206
#
# Compressibility (1/GPa) = 0.03132434
#
# Stress axis : x y z
#
# Youngs Moduli (GPa) = 133.43758 143.07611 24.21604
#
# Poissons Ratio (x) = 0.21021 0.17089
# Poissons Ratio (y) = 0.19605 0.08962
# Poissons Ratio (z) = 0.94166 0.52951
#
# Static dielectric constant tensor:
#      x y z
#    x 1.891520 0.000000 0.047470 
#    y 0.000000 1.969830 0.000000 
#    z 0.047470 0.000000 1.873640 
# 
# From -- ./inp_files/27140.got.cif
#   From: 2010.05.17/outbox.cif.g08.bks.cpg/sg9_14_cif.got.tgz:27140.got - 2010.06.03 20:04:27.
