data_PCOD9135746
_publ_section_title
;
Structure prediction by ZEFSAII (Michael W. Deem and Ramdas Pophale) SiO2 
 PCOD9135746
Probable space group: C C
;
_chemical_formula_sum "Si O2"
_cell_formula_units_Z 32
_cell_length_a 18.581468
_cell_length_b 7.691720
_cell_length_c 8.876139
_cell_angle_alpha 90.000000
_cell_angle_beta 106.453652
_cell_angle_gamma 90.000000
_cell_volume 1216.657831
_symmetry_space_group_name_H-M "C C"
_symmetry_group_IT_number 9
_symmetry_cell_setting 'monoclinic'
loop_
_space_group_symop_operation_xyz
x,y,z
x,-y,1/2+z
1/2+x,1/2+y,z
1/2+x,1/2-y,1/2+z
loop_
_atom_site_type_symbol
_atom_site_label
_atom_site_fract_x
_atom_site_fract_y
_atom_site_fract_z
Si Si1 0.169700 0.730303 0.894680
Si Si2 0.876982 0.579761 0.378581
Si Si3 0.330176 0.377068 0.583424
Si Si4 0.571076 0.603426 0.554762
Si Si5 0.510363 0.890719 0.723356
Si Si6 0.577517 0.808300 0.061730
Si Si7 0.851590 0.215342 0.438577
Si Si8 0.226811 0.066178 0.807981
O O1 0.152855 0.686884 0.709204
O O2 0.204273 0.923935 0.914194
O O3 0.238601 0.625392 0.010745
O O4 0.087970 0.776442 0.918641
O O5 0.861615 0.735078 0.484159
O O6 0.892964 0.399271 0.475674
O O7 0.795989 0.524883 0.259148
O O8 0.939858 0.611052 0.294049
O O9 0.364461 0.559529 0.555951
O O10 0.356971 0.340259 0.767747
O O11 0.518197 0.714454 0.631012
O O12 0.553758 0.397228 0.532533
O O13 0.652739 0.612245 0.678711
O O14 0.525225 0.060658 0.628844
O O15 0.578256 0.879925 0.891560
O O16 0.764383 0.268102 0.403968
#
# Coordination Sequence:
#
# PCOD9135746 Si02
#       8
#     4   4   4   4   4   4   4   4
#     4  10  20  43  70 105 143 181 231 297 361 417
#     4   9  24  46  68  97 148 188 234 294 360 423
#     4  11  23  44  73 111 137 186 236 300 362 426
#     4  11  22  47  74 107 142 184 243 300 367 430
#     4  12  27  46  71 104 140 198 240 295 360 441
#     4  11  26  42  69 100 144 187 239 294 358 433
#     4  10  23  43  71 109 142 177 237 295 362 434
#     4   8  19  41  70 101 138 181 228 293 354 418
#
# _framework density 26.301563000000002
#
# number of rings (size 3 to 8) (size 9 to 14) (size 15 to 20)
#    0.750    1.000    1.250    2.250    3.500    3.000 
#    9.000    0.000    0.000    0.000    0.000    0.000 
#    0.000    0.000    0.000    0.000    0.000    0.000 
#
# Total GULP energy -89395.677360 kJ/mol
# GULP energy per Si atom -5587.229835 kJ/mol
# Density = 2.624170 g / cm^3
# Si number density = 26.301563 Si / 1000 Ang^3
#
#
#
# Elastic Constant Matrix: (Units=GPa)
#
#
# Indices 1 2 3 4 5 6 
#
# 1 90.7416 37.5718 10.0171 0.0000 -16.5250 0.0000
# 2 37.5718 167.2519 25.2697 0.0000 -19.6983 0.0000
# 3 10.0171 25.2697 59.9603 0.0000 -25.7171 0.0000
# 4 0.0000 0.0000 0.0000 26.3075 0.0000 14.8352
# 5 -16.5250 -19.6983 -25.7171 0.0000 33.5844 0.0000
# 6 0.0000 0.0000 0.0000 14.8352 0.0000 22.0272
#
#
#
# Elastic Compliance Matrix: (Units=1/GPa)
#
#
# Indices 1 2 3 4 5 6 
#
# 1 0.012967 -0.002418 0.001461 0.000000 0.006081 0.000000
# 2 -0.002418 0.006981 -0.001924 0.000000 0.001432 0.000000
# 3 0.001461 -0.001924 0.025416 0.000000 0.019052 0.000000
# 4 0.000000 0.000000 0.000000 0.061289 0.000000 -0.041278
# 5 0.006081 0.001432 0.019052 0.000000 0.048197 0.000000
# 6 0.000000 0.000000 0.000000 -0.041278 0.000000 0.073199
#
#
# Mechanical properties :
#
#
# Convention : Reuss Voigt Hill
#
# Bulk Modulus (GPa) = 25.25068 51.51901 38.38484
# Shear Modulus (GPa) = 20.24177 32.72351 26.48264
#
# Velocity S-wave (km/s) = 2.77718 3.53110 3.17659
# Velocity P-wave (km/s) = 4.46150 6.02123 5.29906
#
# Compressibility (1/GPa) = 0.03960290
#
# Stress axis : x y z
#
# Youngs Moduli (GPa) = 77.11602 143.23675 39.34490
#
# Poissons Ratio (x) = 0.34628 -0.05747
# Poissons Ratio (y) = 0.18643 0.07571
# Poissons Ratio (z) = -0.11264 0.27563
#
# Static dielectric constant tensor:
#      x y z
#    x 2.191950 0.000000 0.062620 
#    y 0.000000 2.039810 0.000000 
#    z 0.062620 0.000000 2.213500 
# 
# From -- ./inp_files/11357.got.cif
#   From: 2010.05.17/outbox.cif.g08.bks.cpg/sg9_6_cif.got.tgz:11357.got - 2010.06.03 20:04:27.
