data_PCOD9135079
_publ_section_title
;
Structure prediction by ZEFSAII (Michael W. Deem and Ramdas Pophale) SiO2 
 PCOD9135079
Probable space group: C C
;
_chemical_formula_sum "Si O2"
_cell_formula_units_Z 24
_cell_length_a 12.069512
_cell_length_b 15.775380
_cell_length_c 5.034455
_cell_angle_alpha 90.000000
_cell_angle_beta 67.954695
_cell_angle_gamma 90.000000
_cell_volume 888.482670
_symmetry_space_group_name_H-M "C C"
_symmetry_group_IT_number 9
_symmetry_cell_setting 'monoclinic'
loop_
_space_group_symop_operation_xyz
x,y,z
x,-y,1/2+z
1/2+x,1/2+y,z
1/2+x,1/2-y,1/2+z
loop_
_atom_site_type_symbol
_atom_site_label
_atom_site_fract_x
_atom_site_fract_y
_atom_site_fract_z
Si Si1 0.825010 0.282044 0.208000
Si Si2 0.238686 0.558308 0.799841
Si Si3 0.925429 0.446929 0.232176
Si Si4 0.138735 0.041640 0.017679
Si Si5 0.665479 0.749054 0.365890
Si Si6 0.967130 0.854415 0.299567
O O1 0.935028 0.347318 0.164301
O O2 0.728469 0.272698 0.529912
O O3 0.753190 0.297738 0.999190
O O4 0.881688 0.192437 0.088097
O O5 0.215729 0.513911 0.539868
O O6 0.171763 0.648752 0.891685
O O7 0.377750 0.584605 0.719087
O O8 0.964819 0.487752 0.471105
O O9 0.779894 0.447088 0.358692
O O10 0.059922 0.103067 0.915977
O O11 0.115874 0.958515 0.851335
O O12 0.534306 0.713867 0.552401
#
# Coordination Sequence:
#
# PCOD9135079 Si02
#       6
#     4   4   4   4   4   4
#     4  11  24  42  63  96 134 176 224 279 335 403
#     4  11  24  46  68 102 139 180 230 288 342 412
#     4  10  20  37  59  86 126 165 205 266 329 387
#     4  10  21  34  59  93 122 158 202 267 337 390
#     4  11  25  43  68  97 140 178 224 283 344 406
#     4  11  24  42  69  98 133 177 231 277 337 410
#
# _framework density 27.012346000000001
#
# number of rings (size 3 to 8) (size 9 to 14) (size 15 to 20)
#    0.000    1.333    1.667    4.000    4.667    6.667 
#    0.000    1.667    0.000    0.000    0.000    0.000 
#    0.000    0.000    0.000    0.000    0.000    0.000 
#
# Total GULP energy -67189.205524 kJ/mol
# GULP energy per Si atom -5599.100460 kJ/mol
# Density = 2.695086 g / cm^3
# Si number density = 27.012346 Si / 1000 Ang^3
#
#
#
# Elastic Constant Matrix: (Units=GPa)
#
#
# Indices 1 2 3 4 5 6 
#
# 1 78.6947 8.3735 29.1781 0.0000 0.7632 0.0000
# 2 8.3735 109.5214 18.9516 0.0000 10.2428 0.0000
# 3 29.1781 18.9516 136.3099 0.0000 20.6369 0.0000
# 4 0.0000 0.0000 0.0000 47.8305 0.0000 4.6558
# 5 0.7632 10.2428 20.6369 0.0000 55.0526 0.0000
# 6 0.0000 0.0000 0.0000 4.6558 0.0000 44.3378
#
#
#
# Elastic Compliance Matrix: (Units=1/GPa)
#
#
# Indices 1 2 3 4 5 6 
#
# 1 0.013895 -0.000635 -0.003048 0.000000 0.001068 0.000000
# 2 -0.000635 0.009477 -0.000971 0.000000 -0.001390 0.000000
# 3 -0.003048 -0.000971 0.008577 0.000000 -0.002992 0.000000
# 4 0.000000 0.000000 0.000000 0.021123 0.000000 -0.002218
# 5 0.001068 -0.001390 -0.002992 0.000000 0.019530 0.000000
# 6 0.000000 0.000000 0.000000 -0.002218 0.000000 0.022787
#
#
# Mechanical properties :
#
#
# Convention : Reuss Voigt Hill
#
# Bulk Modulus (GPa) = 44.16772 48.61470 46.39121
# Shear Modulus (GPa) = 44.54626 47.31238 45.92932
#
# Velocity S-wave (km/s) = 4.06533 4.18964 4.12795
# Velocity P-wave (km/s) = 6.19857 6.43743 6.31913
#
# Compressibility (1/GPa) = 0.02264097
#
# Stress axis : x y z
#
# Youngs Moduli (GPa) = 71.97085 105.51552 116.59607
#
# Poissons Ratio (x) = 0.06698 0.35534
# Poissons Ratio (y) = 0.04569 0.11325
# Poissons Ratio (z) = 0.21934 0.10248
#
# Static dielectric constant tensor:
#      x y z
#    x 2.122520 0.000000 -0.068210 
#    y 0.000000 2.324490 0.000000 
#    z -0.068210 0.000000 2.053200 
# 
# From -- ./inp_files/2366.got.cif
#   From: 2010.05.17/outbox.cif.g08.bks.cpg/sg9_2_cif.got.tgz:2366.got - 2010.06.03 20:04:27.
