data_PCOD9135849
_publ_section_title
;
Structure prediction by ZEFSAII (Michael W. Deem and Ramdas Pophale) SiO2 
 PCOD9135849
Probable space group: C C
;
_chemical_formula_sum "Si O2"
_cell_formula_units_Z 28
_cell_length_a 12.552079
_cell_length_b 15.183219
_cell_length_c 14.136026
_cell_angle_alpha 90.000000
_cell_angle_beta 153.016665
_cell_angle_gamma 90.000000
_cell_volume 1222.378259
_symmetry_space_group_name_H-M "C C"
_symmetry_group_IT_number 9
_symmetry_cell_setting 'monoclinic'
loop_
_space_group_symop_operation_xyz
x,y,z
x,-y,1/2+z
1/2+x,1/2+y,z
1/2+x,1/2-y,1/2+z
loop_
_atom_site_type_symbol
_atom_site_label
_atom_site_fract_x
_atom_site_fract_y
_atom_site_fract_z
Si Si1 0.902960 0.471408 0.839200
Si Si2 0.316554 0.187449 0.955829
Si Si3 0.379629 0.239906 0.583102
Si Si4 0.200863 0.354503 0.619410
Si Si5 0.660488 0.568669 0.478808
Si Si6 0.532837 0.521581 0.685629
Si Si7 0.605013 0.126385 0.347522
O O1 0.773452 0.506563 0.644056
O O2 0.697387 0.459827 0.752535
O O3 0.042899 0.388043 0.908766
O O4 0.068638 0.551984 0.002057
O O5 0.536815 0.199885 0.060277
O O6 0.393542 0.130852 0.107324
O O7 0.140706 0.119910 0.766481
O O8 0.216094 0.278339 0.914280
O O9 0.265270 0.303990 0.573242
O O10 0.343917 0.139253 0.585431
O O11 0.172904 0.247510 0.332261
O O12 0.451045 0.376967 0.862495
O O13 0.545815 0.517968 0.300297
O O14 0.266336 0.542454 0.447944
#
# Coordination Sequence:
#
# PCOD9135849 Si02
#       7
#     4   4   4   4   4   4   4
#     4  11  23  40  62  93 135 172 216 274 345 412
#     4  11  24  37  63  94 129 169 224 270 339 399
#     4  10  21  34  60  90 129 165 219 282 347 399
#     4  10  22  37  61  98 126 171 216 286 339 398
#     4  11  21  39  62  91 133 172 221 279 340 411
#     4  11  24  40  63  96 131 175 220 270 344 412
#     4  12  23  41  65  94 131 170 220 285 334 411
#
# _framework density 22.906165000000001
#
# number of rings (size 3 to 8) (size 9 to 14) (size 15 to 20)
#    0.000    1.143    5.714    0.857    6.000    0.000 
#    0.000    0.000    6.286    0.000    0.000    0.000 
#    0.000    0.000    0.000    0.000    0.000    0.000 
#
# Total GULP energy -77989.229617 kJ/mol
# GULP energy per Si atom -5570.659258 kJ/mol
# Density = 2.285403 g / cm^3
# Si number density = 22.906165 Si / 1000 Ang^3
#
#
#
# Elastic Constant Matrix: (Units=GPa)
#
#
# Indices 1 2 3 4 5 6 
#
# 1 63.5097 19.4612 16.0662 -0.0053 14.8547 -0.0025
# 2 19.4612 57.3739 16.9540 -0.0185 2.4236 -0.0025
# 3 16.0662 16.9540 74.0341 -0.0033 -1.8042 0.0011
# 4 -0.0053 -0.0185 -0.0033 34.9219 0.0049 -1.8412
# 5 14.8547 2.4236 -1.8042 0.0049 23.4880 -0.0045
# 6 -0.0025 -0.0025 0.0011 -1.8412 -0.0045 38.1845
#
#
#
# Elastic Compliance Matrix: (Units=1/GPa)
#
#
# Indices 1 2 3 4 5 6 
#
# 1 0.021527 -0.005645 -0.003703 0.000002 -0.013316 0.000000
# 2 -0.005645 0.020296 -0.003393 0.000009 0.001215 0.000002
# 3 -0.003703 -0.003393 0.015182 -0.000001 0.003858 -0.000001
# 4 0.000002 0.000009 -0.000001 0.028708 -0.000008 0.001384
# 5 -0.013316 0.001215 0.003858 -0.000008 0.051168 0.000005
# 6 0.000000 0.000002 -0.000001 0.001384 0.000005 0.026255
#
#
# Mechanical properties :
#
#
# Convention : Reuss Voigt Hill
#
# Bulk Modulus (GPa) = 31.72433 33.32007 32.52220
# Shear Modulus (GPa) = 25.10970 28.81464 26.96217
#
# Velocity S-wave (km/s) = 3.31448 3.55060 3.43457
# Velocity P-wave (km/s) = 5.34111 5.60240 5.47331
#
# Compressibility (1/GPa) = 0.03152155
#
# Stress axis : x y z
#
# Youngs Moduli (GPa) = 46.45342 49.27158 65.86746
#
# Poissons Ratio (x) = 0.27814 0.24393
# Poissons Ratio (y) = 0.26223 0.22350
# Poissons Ratio (z) = 0.17203 0.16718
#
# Static dielectric constant tensor:
#      x y z
#    x 1.913260 0.000000 0.061160 
#    y 0.000000 1.907470 -0.000010 
#    z 0.061160 -0.000010 2.033740 
# 
# From -- ./inp_files/24891.got.cif
#   From: 2010.05.17/outbox.cif.g08.bks.cpg/sg9_13_cif.got.tgz:24891.got - 2010.06.03 20:04:27.
