data_PCOD9135225
_publ_section_title
;
Structure prediction by ZEFSAII (Michael W. Deem and Ramdas Pophale) SiO2 
 PCOD9135225
Probable space group: C C
;
_chemical_formula_sum "Si O2"
_cell_formula_units_Z 32
_cell_length_a 20.973828
_cell_length_b 11.717699
_cell_length_c 10.725018
_cell_angle_alpha 90.000000
_cell_angle_beta 142.759003
_cell_angle_gamma 90.000000
_cell_volume 1595.124822
_symmetry_space_group_name_H-M "C C"
_symmetry_group_IT_number 9
_symmetry_cell_setting 'monoclinic'
loop_
_space_group_symop_operation_xyz
x,y,z
x,-y,1/2+z
1/2+x,1/2+y,z
1/2+x,1/2-y,1/2+z
loop_
_atom_site_type_symbol
_atom_site_label
_atom_site_fract_x
_atom_site_fract_y
_atom_site_fract_z
Si Si1 0.574240 0.557227 0.946080
Si Si2 0.345767 0.525678 0.667530
Si Si3 0.198830 0.357526 0.750939
Si Si4 0.544911 0.762980 0.714348
Si Si5 0.394705 0.258235 0.756551
Si Si6 0.195873 0.794747 0.814355
Si Si7 0.663263 0.086918 0.581122
Si Si8 0.598913 0.704894 0.413751
O O1 0.467458 0.561599 0.862565
O O2 0.557183 0.642628 0.803421
O O3 0.597328 0.429665 0.938380
O O4 0.666493 0.604359 0.176001
O O5 0.301822 0.585378 0.472593
O O6 0.352808 0.388650 0.680729
O O7 0.262266 0.560702 0.643714
O O8 0.140364 0.286165 0.767001
O O9 0.135612 0.469949 0.607710
O O10 0.196028 0.272192 0.629961
O O11 0.441805 0.765876 0.467027
O O12 0.566403 0.859928 0.851857
O O13 0.301007 0.182799 0.556400
O O14 0.493784 0.249568 0.816481
O O15 0.200314 0.682159 0.736378
O O16 0.106293 0.775650 0.778787
#
# Coordination Sequence:
#
# PCOD9135225 Si02
#       8
#     4   4   4   4   4   4   4   4
#     4  10  24  40  63  94 125 165 205 261 314 368
#     4  10  21  35  70  95 120 152 217 266 304 357
#     4  10  20  38  63  93 123 161 202 264 308 364
#     4   9  22  39  60  89 129 159 206 259 311 369
#     4  10  21  40  64  96 120 165 207 261 309 366
#     4  11  23  39  64  94 124 163 205 263 310 370
#     4  10  21  39  63  97 123 157 210 265 314 359
#     4  10  24  38  65  90 130 160 210 255 314 371
#
# _framework density 20.061125000000001
#
# number of rings (size 3 to 8) (size 9 to 14) (size 15 to 20)
#    0.000    2.000    1.250    0.750   12.250    0.000 
#    0.000    2.500    0.000    0.000    0.000    0.000 
#    0.000    0.000    0.000    0.000    0.000    0.000 
#
# Total GULP energy -89225.610896 kJ/mol
# GULP energy per Si atom -5576.600681 kJ/mol
# Density = 2.001547 g / cm^3
# Si number density = 20.061125 Si / 1000 Ang^3
#
#
#
# Elastic Constant Matrix: (Units=GPa)
#
#
# Indices 1 2 3 4 5 6 
#
# 1 51.0444 3.3712 12.3210 0.0000 -3.6344 0.0000
# 2 3.3712 45.5511 27.1870 0.0000 14.4515 0.0000
# 3 12.3210 27.1870 137.7238 0.0000 -6.3945 0.0000
# 4 0.0000 0.0000 0.0000 17.7526 0.0000 2.8345
# 5 -3.6344 14.4515 -6.3945 0.0000 22.5828 0.0000
# 6 0.0000 0.0000 0.0000 2.8345 0.0000 29.3683
#
#
#
# Elastic Compliance Matrix: (Units=1/GPa)
#
#
# Indices 1 2 3 4 5 6 
#
# 1 0.020329 -0.002164 -0.001191 0.000000 0.004319 0.000000
# 2 -0.002164 0.034589 -0.007781 0.000000 -0.024686 0.000000
# 3 -0.001191 -0.007781 0.009247 0.000000 0.007406 0.000000
# 4 0.000000 0.000000 0.000000 0.057211 0.000000 -0.005522
# 5 0.004319 -0.024686 0.007406 0.000000 0.062871 0.000000
# 6 0.000000 0.000000 0.000000 -0.005522 0.000000 0.034583
#
#
# Mechanical properties :
#
#
# Convention : Reuss Voigt Hill
#
# Bulk Modulus (GPa) = 23.86972 35.56419 29.71696
# Shear Modulus (GPa) = 19.60269 26.70341 23.15305
#
# Velocity S-wave (km/s) = 3.12933 3.65239 3.40093
# Velocity P-wave (km/s) = 4.99812 5.96263 5.50156
#
# Compressibility (1/GPa) = 0.04189408
#
# Stress axis : x y z
#
# Youngs Moduli (GPa) = 49.19152 28.91068 108.14079
#
# Poissons Ratio (x) = 0.06257 0.12878
# Poissons Ratio (y) = 0.10645 0.84140
# Poissons Ratio (z) = 0.05858 0.22494
#
# Static dielectric constant tensor:
#      x y z
#    x 1.737400 0.000000 -0.006650 
#    y 0.000000 1.688060 0.000000 
#    z -0.006650 0.000000 1.749560 
# 
# From -- ./inp_files/16491.got.cif
#   From: 2010.05.17/outbox.cif.g08.bks.cpg/sg9_9_cif.got.tgz:16491.got - 2010.06.03 20:04:27.
