data_PCOD9135560
_publ_section_title
;
Structure prediction by ZEFSAII (Michael W. Deem and Ramdas Pophale) SiO2 
 PCOD9135560
Probable space group: C C
;
_chemical_formula_sum "Si O2"
_cell_formula_units_Z 32
_cell_length_a 8.668132
_cell_length_b 16.217511
_cell_length_c 21.712332
_cell_angle_alpha 90.000000
_cell_angle_beta 152.692832
_cell_angle_gamma 90.000000
_cell_volume 1400.239793
_symmetry_space_group_name_H-M "C C"
_symmetry_group_IT_number 9
_symmetry_cell_setting 'monoclinic'
loop_
_space_group_symop_operation_xyz
x,y,z
x,-y,1/2+z
1/2+x,1/2+y,z
1/2+x,1/2-y,1/2+z
loop_
_atom_site_type_symbol
_atom_site_label
_atom_site_fract_x
_atom_site_fract_y
_atom_site_fract_z
Si Si1 0.221900 0.072091 0.541250
Si Si2 0.452750 0.640568 0.784463
Si Si3 0.263362 0.022455 0.793531
Si Si4 0.354145 0.420413 0.039474
Si Si5 0.733325 0.831416 0.414043
Si Si6 0.925691 0.226339 0.412029
Si Si7 0.194649 0.757323 0.144527
Si Si8 0.807724 0.385270 0.540921
O O1 0.560230 0.123932 0.650865
O O2 0.101431 0.062890 0.569178
O O3 0.928014 0.127582 0.406225
O O4 0.301951 0.982920 0.543393
O O5 0.615746 0.568057 0.800780
O O6 0.574122 0.725523 0.795337
O O7 0.609897 0.636474 0.908059
O O8 0.546115 0.083371 0.864800
O O9 0.972820 0.022807 0.638625
O O10 0.473128 0.941188 0.885284
O O11 0.428478 0.323812 0.079589
O O12 0.639943 0.769646 0.435208
O O13 0.109849 0.850647 0.529616
O O14 0.550453 0.793459 0.289473
O O15 0.111160 0.242622 0.543131
O O16 0.147371 0.666416 0.154858
#
# Coordination Sequence:
#
# PCOD9135560 Si02
#       8
#     4   4   4   4   4   4   4   4
#     4  11  23  41  70  95 132 177 227 288 340 407
#     4  10  23  41  64  93 138 173 219 292 337 411
#     4  10  21  40  66  95 135 179 228 285 339 409
#     4  10  21  42  67  97 134 182 229 281 347 414
#     4  10  20  41  65  91 132 174 224 278 341 406
#     4   9  21  41  65  91 128 174 223 270 346 411
#     4   9  21  41  60  88 134 175 218 281 344 403
#     4  11  22  41  65  96 129 170 228 275 338 407
#
# _framework density 22.853228999999999
#
# number of rings (size 3 to 8) (size 9 to 14) (size 15 to 20)
#    0.000    2.000    1.250    2.250    1.750    4.000 
#    4.500    7.500    0.000    0.000    0.000    0.000 
#    0.000    0.000    0.000    0.000    0.000    0.000 
#
# Total GULP energy -89349.602220 kJ/mol
# GULP energy per Si atom -5584.350139 kJ/mol
# Density = 2.280121 g / cm^3
# Si number density = 22.853229 Si / 1000 Ang^3
#
#
#
# Elastic Constant Matrix: (Units=GPa)
#
#
# Indices 1 2 3 4 5 6 
#
# 1 83.0486 16.5709 26.6892 -0.0042 8.8002 -0.0017
# 2 16.5709 132.4007 22.3843 0.0017 10.2389 0.0010
# 3 26.6892 22.3843 47.9760 0.0189 0.0262 0.0041
# 4 -0.0042 0.0017 0.0189 26.7718 -0.0023 2.4902
# 5 8.8002 10.2389 0.0262 -0.0023 30.8190 -0.0009
# 6 -0.0017 0.0010 0.0041 2.4902 -0.0009 14.9634
#
#
#
# Elastic Compliance Matrix: (Units=1/GPa)
#
#
# Indices 1 2 3 4 5 6 
#
# 1 0.015224 -0.000154 -0.008395 0.000008 -0.004289 0.000003
# 2 -0.000154 0.008436 -0.003849 0.000002 -0.002755 0.000000
# 3 -0.008395 -0.003849 0.027308 -0.000020 0.003652 -0.000005
# 4 0.000008 0.000002 -0.000020 0.037940 0.000000 -0.006314
# 5 -0.004289 -0.002755 0.003652 0.000000 0.034584 0.000001
# 6 0.000003 0.000000 -0.000005 -0.006314 0.000001 0.067880
#
#
# Mechanical properties :
#
#
# Convention : Reuss Voigt Hill
#
# Bulk Modulus (GPa) = 38.20895 43.85710 41.03303
# Shear Modulus (GPa) = 22.23286 27.69623 24.96454
#
# Velocity S-wave (km/s) = 3.12244 3.48504 3.30871
# Velocity P-wave (km/s) = 5.45483 5.95201 5.70883
#
# Compressibility (1/GPa) = 0.02617188
#
# Stress axis : x y z
#
# Youngs Moduli (GPa) = 65.68453 118.54129 36.61996
#
# Poissons Ratio (x) = 0.01831 0.30742
# Poissons Ratio (y) = 0.01015 0.14093
# Poissons Ratio (z) = 0.55142 0.45621
#
# Static dielectric constant tensor:
#      x y z
#    x 1.827090 0.000000 -0.023000 
#    y 0.000000 1.909740 -0.000010 
#    z -0.023000 -0.000010 1.863670 
# 
# From -- ./inp_files/14596.got.cif
#   From: 2010.05.17/outbox.cif.g08.bks.cpg/sg9_8_cif.got.tgz:14596.got - 2010.06.03 20:04:27.
