data_PCOD9135574
_publ_section_title
;
Structure prediction by ZEFSAII (Michael W. Deem and Ramdas Pophale) SiO2 
 PCOD9135574
Probable space group: C C
;
_chemical_formula_sum "Si O2"
_cell_formula_units_Z 24
_cell_length_a 7.770187
_cell_length_b 14.097955
_cell_length_c 9.582202
_cell_angle_alpha 90.000000
_cell_angle_beta 111.251203
_cell_angle_gamma 90.000000
_cell_volume 978.293000
_symmetry_space_group_name_H-M "C C"
_symmetry_group_IT_number 9
_symmetry_cell_setting 'monoclinic'
loop_
_space_group_symop_operation_xyz
x,y,z
x,-y,1/2+z
1/2+x,1/2+y,z
1/2+x,1/2-y,1/2+z
loop_
_atom_site_type_symbol
_atom_site_label
_atom_site_fract_x
_atom_site_fract_y
_atom_site_fract_z
Si Si1 0.530370 0.640265 0.430940
Si Si2 0.977814 0.928658 0.412494
Si Si3 0.477166 0.717769 0.701250
Si Si4 0.070921 0.766804 0.653603
Si Si5 0.105563 0.593503 0.346294
Si Si6 0.069256 0.435826 0.155831
O O1 0.577871 0.528827 0.467940
O O2 0.549673 0.711322 0.566440
O O3 0.607326 0.687840 0.315238
O O4 0.308812 0.622965 0.350660
O O5 0.054063 0.876218 0.298059
O O6 0.760870 0.935753 0.303769
O O7 0.989580 0.853012 0.540442
O O8 0.254930 0.725945 0.632799
O O9 0.514849 0.804108 0.813952
O O10 0.967747 0.665238 0.643368
O O11 0.988133 0.528820 0.204864
O O12 0.106486 0.550123 0.502101
#
# Coordination Sequence:
#
# PCOD9135574 Si02
#       6
#     4   4   4   4   4   4
#     4  11  23  39  68  96 117 176 214 249 317 373
#     4  10  20  41  67  89 128 161 218 254 305 382
#     4  11  22  44  61  96 136 159 205 272 316 366
#     4  11  23  41  64  97 126 163 210 268 316 365
#     4  11  23  43  66  90 129 167 214 257 311 385
#     4  10  23  40  66  92 122 172 209 258 311 375
#
# _framework density 24.532527000000002
#
# number of rings (size 3 to 8) (size 9 to 14) (size 15 to 20)
#    0.000    1.333    5.000    1.000    9.333    1.333 
#    3.000    1.667    0.000    0.000    0.000    0.000 
#    0.000    0.000    0.000    0.000    0.000    0.000 
#
# Total GULP energy -66894.037388 kJ/mol
# GULP energy per Si atom -5574.503116 kJ/mol
# Density = 2.447669 g / cm^3
# Si number density = 24.532527 Si / 1000 Ang^3
#
#
#
# Elastic Constant Matrix: (Units=GPa)
#
#
# Indices 1 2 3 4 5 6 
#
# 1 43.4446 1.9598 26.1147 0.0000 -10.2765 0.0000
# 2 1.9598 99.4299 34.0763 0.0000 -18.5496 0.0000
# 3 26.1147 34.0763 146.8505 0.0000 -27.8573 0.0000
# 4 0.0000 0.0000 0.0000 55.6897 0.0000 -6.7054
# 5 -10.2765 -18.5496 -27.8573 0.0000 23.7144 0.0000
# 6 0.0000 0.0000 0.0000 -6.7054 0.0000 11.5273
#
#
#
# Elastic Compliance Matrix: (Units=1/GPa)
#
#
# Indices 1 2 3 4 5 6 
#
# 1 0.027342 0.002483 -0.003632 0.000000 0.009524 0.000000
# 2 0.002483 0.012187 -0.001617 0.000000 0.008709 0.000000
# 3 -0.003632 -0.001617 0.009383 0.000000 0.008184 0.000000
# 4 0.000000 0.000000 0.000000 0.019309 0.000000 0.011232
# 5 0.009524 0.008709 0.008184 0.000000 0.062721 0.000000
# 6 0.000000 0.000000 0.000000 0.011232 0.000000 0.093284
#
#
# Mechanical properties :
#
#
# Convention : Reuss Voigt Hill
#
# Bulk Modulus (GPa) = 23.05245 46.00295 34.52770
# Shear Modulus (GPa) = 20.47341 33.35790 26.91565
#
# Velocity S-wave (km/s) = 2.89198 3.69147 3.31591
# Velocity P-wave (km/s) = 4.53525 6.07962 5.36331
#
# Compressibility (1/GPa) = 0.04337933
#
# Stress axis : x y z
#
# Youngs Moduli (GPa) = 36.57420 82.05153 106.57355
#
# Poissons Ratio (x) = -0.20370 0.38703
# Poissons Ratio (y) = -0.09080 0.17238
# Poissons Ratio (z) = 0.13282 0.13272
#
# Static dielectric constant tensor:
#      x y z
#    x 2.095010 0.000000 0.047930 
#    y 0.000000 2.195040 0.000000 
#    z 0.047930 0.000000 1.918270 
# 
# From -- ./inp_files/4914.got.cif
#   From: 2010.05.17/outbox.cif.g08.bks.cpg/sg9_3_cif.got.tgz:4914.got - 2010.06.03 20:04:27.
