data_PCOD9135223
_publ_section_title
;
Structure prediction by ZEFSAII (Michael W. Deem and Ramdas Pophale) SiO2 
 PCOD9135223
Probable space group: C C
;
_chemical_formula_sum "Si O2"
_cell_formula_units_Z 24
_cell_length_a 14.885437
_cell_length_b 14.588731
_cell_length_c 8.303189
_cell_angle_alpha 90.000000
_cell_angle_beta 31.675720
_cell_angle_gamma 90.000000
_cell_volume 946.836942
_symmetry_space_group_name_H-M "C C"
_symmetry_group_IT_number 9
_symmetry_cell_setting 'monoclinic'
loop_
_space_group_symop_operation_xyz
x,y,z
x,-y,1/2+z
1/2+x,1/2+y,z
1/2+x,1/2-y,1/2+z
loop_
_atom_site_type_symbol
_atom_site_label
_atom_site_fract_x
_atom_site_fract_y
_atom_site_fract_z
Si Si1 0.530650 0.701533 0.381260
Si Si2 0.952273 0.136687 0.972660
Si Si3 0.476216 0.523837 0.637244
Si Si4 0.871830 0.468433 0.108769
Si Si5 0.404826 0.796420 0.267077
Si Si6 0.865613 0.636465 0.302354
O O1 0.659334 0.637242 0.635405
O O2 0.486646 0.594782 0.470797
O O3 0.524979 0.743920 0.210436
O O4 0.426053 0.763122 0.665423
O O5 0.890865 0.068926 0.208513
O O6 0.891891 0.084962 0.904443
O O7 0.903378 0.236936 0.105132
O O8 0.667542 0.489254 0.395850
O O9 0.932301 0.413754 0.860562
O O10 0.913996 0.401095 0.193850
O O11 0.933417 0.570040 0.056316
O O12 0.226541 0.790342 0.632914
#
# Coordination Sequence:
#
# PCOD9135223 Si02
#       6
#     4   4   4   4   4   4
#     4  12  24  41  65  98 133 171 215 269 325 385
#     4  10  20  38  63  92 124 169 217 265 316 383
#     4  10  20  39  65  92 126 174 218 254 317 402
#     4  10  20  39  65  92 126 174 218 254 317 402
#     4  12  24  41  65  98 133 171 215 269 325 385
#     4  10  20  38  63  92 124 169 217 265 316 383
#
# _framework density 25.347555
#
# number of rings (size 3 to 8) (size 9 to 14) (size 15 to 20)
#    0.000    1.333    0.000   10.000    0.000    0.000 
#    0.000    8.333    0.000    0.000    0.000    0.000 
#    0.000    0.000    0.000    0.000    0.000    0.000 
#
# Total GULP energy -67027.054447 kJ/mol
# GULP energy per Si atom -5585.587871 kJ/mol
# Density = 2.528986 g / cm^3
# Si number density = 25.347555 Si / 1000 Ang^3
#
#
#
# Elastic Constant Matrix: (Units=GPa)
#
#
# Indices 1 2 3 4 5 6 
#
# 1 41.1564 9.2696 5.6417 -0.0007 17.2627 0.0005
# 2 9.2696 166.5809 14.3049 -0.0001 6.5527 0.0002
# 3 5.6417 14.3049 54.1071 -0.0008 14.6751 0.0008
# 4 -0.0007 -0.0001 -0.0008 40.4866 0.0008 18.4972
# 5 17.2627 6.5527 14.6751 0.0008 28.7235 -0.0006
# 6 0.0005 0.0002 0.0008 18.4972 -0.0006 36.0628
#
#
#
# Elastic Compliance Matrix: (Units=1/GPa)
#
#
# Indices 1 2 3 4 5 6 
#
# 1 0.032962 -0.001233 0.002537 0.000002 -0.020825 -0.000002
# 2 -0.001233 0.006200 -0.001541 0.000000 0.000114 0.000000
# 3 0.002537 -0.001541 0.021990 0.000001 -0.012408 -0.000001
# 4 0.000002 0.000000 0.000001 0.032259 -0.000003 -0.016546
# 5 -0.020825 0.000114 -0.012408 -0.000003 0.053644 0.000003
# 6 -0.000002 0.000000 -0.000001 -0.016546 0.000003 0.036216
#
#
# Mechanical properties :
#
#
# Convention : Reuss Voigt Hill
#
# Bulk Modulus (GPa) = 16.48045 35.58634 26.03339
# Shear Modulus (GPa) = 24.51321 36.56312 30.53817
#
# Velocity S-wave (km/s) = 3.11317 3.80211 3.47476
# Velocity P-wave (km/s) = 4.40889 5.77447 5.13726
#
# Compressibility (1/GPa) = 0.06067797
#
# Stress axis : x y z
#
# Youngs Moduli (GPa) = 30.33759 161.30129 45.47472
#
# Poissons Ratio (x) = 0.19887 -0.11538
# Poissons Ratio (y) = 0.03740 0.07010
# Poissons Ratio (z) = -0.07698 0.24864
#
# Static dielectric constant tensor:
#      x y z
#    x 2.110320 0.000000 0.073580 
#    y 0.000000 2.026170 0.000000 
#    z 0.073580 0.000000 1.968390 
# 
# From -- ./inp_files/10603.got.cif
#   From: 2010.05.17/outbox.cif.g08.bks.cpg/sg9_6_cif.got.tgz:10603.got - 2010.06.03 20:04:27.
