data_PCOD9135462
_publ_section_title
;
Structure prediction by ZEFSAII (Michael W. Deem and Ramdas Pophale) SiO2 
 PCOD9135462
Probable space group: C C
;
_chemical_formula_sum "Si O2"
_cell_formula_units_Z 32
_cell_length_a 8.132021
_cell_length_b 6.854455
_cell_length_c 25.766143
_cell_angle_alpha 90.000000
_cell_angle_beta 115.335236
_cell_angle_gamma 90.000000
_cell_volume 1298.083322
_symmetry_space_group_name_H-M "C C"
_symmetry_group_IT_number 9
_symmetry_cell_setting 'monoclinic'
loop_
_space_group_symop_operation_xyz
x,y,z
x,-y,1/2+z
1/2+x,1/2+y,z
1/2+x,1/2-y,1/2+z
loop_
_atom_site_type_symbol
_atom_site_label
_atom_site_fract_x
_atom_site_fract_y
_atom_site_fract_z
Si Si1 0.205770 0.782325 0.978280
Si Si2 0.899927 0.156305 0.369110
Si Si3 0.190928 0.036732 0.205906
Si Si4 0.056487 0.269481 0.762071
Si Si5 0.993136 0.933415 0.571020
Si Si6 0.748902 0.725247 0.013970
Si Si7 0.428882 0.224430 0.405157
Si Si8 0.596476 0.632059 0.299186
O O1 0.312572 0.722141 0.940650
O O2 0.993095 0.763225 0.934068
O O3 0.297861 0.672596 0.038442
O O4 0.262055 0.007978 0.993403
O O5 0.690246 0.158905 0.325527
O O6 0.997655 0.246217 0.331303
O O7 0.956487 0.929200 0.380112
O O8 0.401259 0.083148 0.225784
O O9 0.131597 0.184915 0.244488
O O10 0.075078 0.066296 0.139069
O O11 0.160063 0.821040 0.225964
O O12 0.981533 0.065295 0.774852
O O13 0.133989 0.821352 0.551549
O O14 0.933181 0.153972 0.547364
O O15 0.620241 0.840443 0.955188
O O16 0.298019 0.094179 0.351450
#
# Coordination Sequence:
#
# PCOD9135462 Si02
#       8
#     4   4   4   4   4   4   4   4
#     4   9  22  42  65 104 125 183 232 293 370 429
#     4  10  20  40  65  99 133 173 227 291 363 435
#     4  10  23  43  61  99 131 190 227 297 350 438
#     4  10  23  39  65  93 138 171 233 280 365 418
#     4  11  23  45  69  88 145 182 243 295 359 429
#     4  10  23  42  67 101 132 183 236 301 357 439
#     4   9  19  39  64  95 139 159 223 290 364 422
#     4   9  21  38  62  97 129 175 219 279 350 428
#
# _framework density 24.651727999999999
#
# number of rings (size 3 to 8) (size 9 to 14) (size 15 to 20)
#    0.750    1.500    0.000    1.500    5.250    2.000 
#   24.750    2.500    0.000    0.000    0.000    0.000 
#    0.000    0.000    0.000    0.000    0.000    0.000 
#
# Total GULP energy -89204.190941 kJ/mol
# GULP energy per Si atom -5575.261934 kJ/mol
# Density = 2.459562 g / cm^3
# Si number density = 24.651728 Si / 1000 Ang^3
#
#
#
# Elastic Constant Matrix: (Units=GPa)
#
#
# Indices 1 2 3 4 5 6 
#
# 1 76.8332 35.4431 56.8692 0.0000 11.2566 0.0000
# 2 35.4431 70.2314 47.4408 0.0000 10.7685 0.0000
# 3 56.8692 47.4408 221.9735 0.0000 27.1696 0.0000
# 4 0.0000 0.0000 0.0000 25.6905 0.0000 2.0677
# 5 11.2566 10.7685 27.1696 0.0000 33.5413 0.0000
# 6 0.0000 0.0000 0.0000 2.0677 0.0000 37.8542
#
#
#
# Elastic Compliance Matrix: (Units=1/GPa)
#
#
# Indices 1 2 3 4 5 6 
#
# 1 0.018851 -0.007182 -0.003111 0.000000 -0.001501 0.000000
# 2 -0.007182 0.019606 -0.002081 0.000000 -0.002198 0.000000
# 3 -0.003111 -0.002081 0.006147 0.000000 -0.003267 0.000000
# 4 0.000000 0.000000 0.000000 0.039097 0.000000 -0.002136
# 5 -0.001501 -0.002198 -0.003267 0.000000 0.033670 0.000000
# 6 0.000000 0.000000 0.000000 -0.002136 0.000000 0.026534
#
#
# Mechanical properties :
#
#
# Convention : Reuss Voigt Hill
#
# Bulk Modulus (GPa) = 50.36362 72.06049 61.21206
# Shear Modulus (GPa) = 28.52749 34.70285 31.61517
#
# Velocity S-wave (km/s) = 3.40548 3.75604 3.58505
# Velocity P-wave (km/s) = 5.99479 6.93580 6.48239
#
# Compressibility (1/GPa) = 0.01985560
#
# Stress axis : x y z
#
# Youngs Moduli (GPa) = 53.04886 51.00512 162.68854
#
# Poissons Ratio (x) = 0.36630 0.50611
# Poissons Ratio (y) = 0.38098 0.33859
# Poissons Ratio (z) = 0.16503 0.10615
#
# Static dielectric constant tensor:
#      x y z
#    x 2.077410 0.000000 -0.006840 
#    y 0.000000 2.056330 0.000000 
#    z -0.006840 0.000000 1.913960 
# 
# From -- ./inp_files/36304.got.cif
#   From: 2010.05.17/outbox.cif.g08.bks.cpg/sg9_19_cif.got.tgz:36304.got - 2010.06.03 20:04:27.
