data_PCOD9135711
_publ_section_title
;
Structure prediction by ZEFSAII (Michael W. Deem and Ramdas Pophale) SiO2 
 PCOD9135711
Probable space group: C C
;
_chemical_formula_sum "Si O2"
_cell_formula_units_Z 28
_cell_length_a 10.325431
_cell_length_b 9.249837
_cell_length_c 13.338407
_cell_angle_alpha 90.000000
_cell_angle_beta 55.661067
_cell_angle_gamma 90.000000
_cell_volume 1051.904962
_symmetry_space_group_name_H-M "C C"
_symmetry_group_IT_number 9
_symmetry_cell_setting 'monoclinic'
loop_
_space_group_symop_operation_xyz
x,y,z
x,-y,1/2+z
1/2+x,1/2+y,z
1/2+x,1/2-y,1/2+z
loop_
_atom_site_type_symbol
_atom_site_label
_atom_site_fract_x
_atom_site_fract_y
_atom_site_fract_z
Si Si1 0.684420 0.878008 0.806360
Si Si2 0.214936 0.270603 0.515921
Si Si3 0.580794 0.046602 0.692550
Si Si4 0.495657 0.495460 0.054919
Si Si5 0.815396 0.615396 0.659367
Si Si6 0.176195 0.853853 0.629805
Si Si7 0.383208 0.491445 0.875152
O O1 0.552622 0.980800 0.815339
O O2 0.838037 0.951335 0.682144
O O3 0.676630 0.713829 0.770080
O O4 0.733441 0.898461 0.899839
O O5 0.331613 0.200611 0.547418
O O6 0.319891 0.345016 0.384098
O O7 0.135776 0.409052 0.603884
O O8 0.082966 0.155094 0.544673
O O9 0.436003 0.114651 0.696902
O O10 0.692666 0.186923 0.646493
O O11 0.630095 0.607770 0.035512
O O12 0.446230 0.489071 0.961131
O O13 0.807506 0.452270 0.622871
O O14 0.028818 0.925366 0.752726
#
# Coordination Sequence:
#
# PCOD9135711 Si02
#       7
#     4   4   4   4   4   4   4
#     4  10  22  39  61  89 128 164 203 258 314 371
#     4  10  23  37  67  89 123 166 210 254 322 367
#     4  11  20  40  63  91 124 165 205 261 311 371
#     4  10  20  43  61  90 126 165 205 256 314 369
#     4  10  20  43  58  89 123 167 206 256 312 372
#     4  10  23  39  68  87 125 168 211 258 317 369
#     4  11  20  41  62  91 127 163 206 265 306 367
#
# _framework density 26.618372000000001
#
# number of rings (size 3 to 8) (size 9 to 14) (size 15 to 20)
#    0.000    1.714    5.714    0.000    4.000    0.000 
#    5.143    0.000    3.143    0.000    0.000    0.000 
#    0.000    0.000    0.000    0.000    0.000    0.000 
#
# Total GULP energy -78062.563651 kJ/mol
# GULP energy per Si atom -5575.897404 kJ/mol
# Density = 2.655779 g / cm^3
# Si number density = 26.618372 Si / 1000 Ang^3
#
#
#
# Elastic Constant Matrix: (Units=GPa)
#
#
# Indices 1 2 3 4 5 6 
#
# 1 87.5505 39.9705 25.7362 0.0000 30.4022 0.0000
# 2 39.9705 201.3461 28.6110 0.0000 6.2172 0.0000
# 3 25.7362 28.6110 84.4265 0.0000 20.7110 0.0000
# 4 0.0000 0.0000 0.0000 34.9194 0.0000 -4.6601
# 5 30.4022 6.2172 20.7110 0.0000 43.9742 0.0000
# 6 0.0000 0.0000 0.0000 -4.6601 0.0000 41.5765
#
#
#
# Elastic Compliance Matrix: (Units=1/GPa)
#
#
# Indices 1 2 3 4 5 6 
#
# 1 0.016799 -0.002783 -0.001611 0.000000 -0.010462 0.000000
# 2 -0.002783 0.005679 -0.001528 0.000000 0.001841 0.000000
# 3 -0.001611 -0.001528 0.014164 0.000000 -0.005341 0.000000
# 4 0.000000 0.000000 0.000000 0.029072 0.000000 0.003259
# 5 -0.010462 0.001841 -0.005341 0.000000 0.032229 0.000000
# 6 0.000000 0.000000 0.000000 0.003259 0.000000 0.024417
#
#
# Mechanical properties :
#
#
# Convention : Reuss Voigt Hill
#
# Bulk Modulus (GPa) = 40.32605 62.43982 51.38294
# Shear Modulus (GPa) = 35.09493 42.69437 38.89465
#
# Velocity S-wave (km/s) = 3.63498 4.00927 3.82671
# Velocity P-wave (km/s) = 5.72713 6.70378 6.23461
#
# Compressibility (1/GPa) = 0.02479787
#
# Stress axis : x y z
#
# Youngs Moduli (GPa) = 59.52698 176.07839 70.60269
#
# Poissons Ratio (x) = 0.49000 0.11377
# Poissons Ratio (y) = 0.16566 0.10787
# Poissons Ratio (z) = 0.09592 0.26902
#
# Static dielectric constant tensor:
#      x y z
#    x 2.204790 0.000000 -0.053320 
#    y 0.000000 2.045050 0.000000 
#    z -0.053320 0.000000 2.251340 
# 
# From -- ./inp_files/24046.got.cif
#   From: 2010.05.17/outbox.cif.g08.bks.cpg/sg9_13_cif.got.tgz:24046.got - 2010.06.03 20:04:27.
