data_PCOD9135118
_publ_section_title
;
Structure prediction by ZEFSAII (Michael W. Deem and Ramdas Pophale) SiO2 
 PCOD9135118
Probable space group: C C
;
_chemical_formula_sum "Si O2"
_cell_formula_units_Z 32
_cell_length_a 16.906908
_cell_length_b 15.066885
_cell_length_c 11.297765
_cell_angle_alpha 90.000000
_cell_angle_beta 37.180694
_cell_angle_gamma 90.000000
_cell_volume 1739.221308
_symmetry_space_group_name_H-M "C C"
_symmetry_group_IT_number 9
_symmetry_cell_setting 'monoclinic'
loop_
_space_group_symop_operation_xyz
x,y,z
x,-y,1/2+z
1/2+x,1/2+y,z
1/2+x,1/2-y,1/2+z
loop_
_atom_site_type_symbol
_atom_site_label
_atom_site_fract_x
_atom_site_fract_y
_atom_site_fract_z
Si Si1 0.122940 0.686124 0.086010
Si Si2 0.344650 0.277378 0.965539
Si Si3 0.801678 0.416646 0.176714
Si Si4 0.136915 0.779633 0.511907
Si Si5 0.675691 0.076299 0.788662
Si Si6 0.342676 0.177004 0.378403
Si Si7 0.884385 0.394183 0.579701
Si Si8 0.596574 0.883116 0.881323
O O1 0.114969 0.638135 0.221240
O O2 0.980522 0.726632 0.229939
O O3 0.156859 0.621324 0.938624
O O4 0.230170 0.759970 0.969762
O O5 0.242318 0.247922 0.985986
O O6 0.289587 0.368593 0.088178
O O7 0.347590 0.197191 0.058595
O O8 0.491281 0.287979 0.739576
O O9 0.688972 0.369916 0.387752
O O10 0.799423 0.520505 0.145866
O O11 0.809194 0.365954 0.043088
O O12 0.940914 0.403065 0.078950
O O13 0.132810 0.700399 0.419414
O O14 0.681968 0.971028 0.802251
O O15 0.540040 0.090105 0.876250
O O16 0.366023 0.110054 0.243139
#
# Coordination Sequence:
#
# PCOD9135118 Si02
#       8
#     4   4   4   4   4   4   4   4
#     4  10  20  37  63  86 116 156 206 251 303 363
#     4  12  24  40  65  94 131 165 207 260 317 373
#     4  10  22  40  65  92 123 165 212 254 308 376
#     4  12  24  40  65  94 131 165 207 260 317 373
#     4  10  22  40  65  92 123 165 212 254 308 376
#     4  10  20  37  63  86 116 156 206 251 303 363
#     4  10  22  40  65  92 121 167 211 254 307 378
#     4  10  22  40  65  92 121 167 211 254 307 378
#
# _framework density 18.399039999999999
#
# number of rings (size 3 to 8) (size 9 to 14) (size 15 to 20)
#    0.000    1.500    5.000    0.000    3.500    1.000 
#    0.000    2.500    0.000    0.000    0.000    0.000 
#    0.000    0.000    0.000    0.000    0.000    0.000 
#
# Total GULP energy -89218.459219 kJ/mol
# GULP energy per Si atom -5576.153701 kJ/mol
# Density = 1.835716 g / cm^3
# Si number density = 18.399040 Si / 1000 Ang^3
#
#
#
# Elastic Constant Matrix: (Units=GPa)
#
#
# Indices 1 2 3 4 5 6 
#
# 1 60.4791 4.3555 29.8697 0.0000 1.7559 0.0000
# 2 4.3555 85.6011 42.6456 0.0000 -2.8727 0.0000
# 3 29.8697 42.6456 126.5502 0.0000 0.0004 0.0000
# 4 0.0000 0.0000 0.0000 19.0187 0.0000 -8.0970
# 5 1.7559 -2.8727 0.0004 0.0000 19.8302 0.0000
# 6 0.0000 0.0000 0.0000 -8.0970 0.0000 23.4197
#
#
#
# Elastic Compliance Matrix: (Units=1/GPa)
#
#
# Indices 1 2 3 4 5 6 
#
# 1 0.018920 0.001458 -0.004957 0.000000 -0.001464 0.000000
# 2 0.001458 0.014234 -0.005141 0.000000 0.001933 0.000000
# 3 -0.004957 -0.005141 0.010804 0.000000 -0.000306 0.000000
# 4 0.000000 0.000000 0.000000 0.061655 0.000000 0.021316
# 5 -0.001464 0.001933 -0.000306 0.000000 0.050838 0.000000
# 6 0.000000 0.000000 0.000000 0.021316 0.000000 0.050069
#
#
# Mechanical properties :
#
#
# Convention : Reuss Voigt Hill
#
# Bulk Modulus (GPa) = 37.48324 47.37466 42.42895
# Shear Modulus (GPa) = 21.48753 25.50435 23.49594
#
# Velocity S-wave (km/s) = 3.42111 3.72718 3.57742
# Velocity P-wave (km/s) = 6.00183 6.65784 6.33833
#
# Compressibility (1/GPa) = 0.02667859
#
# Stress axis : x y z
#
# Youngs Moduli (GPa) = 52.85320 70.25519 92.55546
#
# Poissons Ratio (x) = -0.10241 0.45880
# Poissons Ratio (y) = -0.07704 0.47580
# Poissons Ratio (z) = 0.26199 0.36116
#
# Static dielectric constant tensor:
#      x y z
#    x 1.644460 0.000000 0.018360 
#    y 0.000000 1.647440 0.000000 
#    z 0.018360 0.000000 1.671830 
# 
# From -- ./inp_files/7397.got.cif
#   From: 2010.05.17/outbox.cif.g08.bks.cpg/sg9_4_cif.got.tgz:7397.got - 2010.06.03 20:04:27.
