data_PCOD9135260
_publ_section_title
;
Structure prediction by ZEFSAII (Michael W. Deem and Ramdas Pophale) SiO2 
 PCOD9135260
Probable space group: C C
;
_chemical_formula_sum "Si O2"
_cell_formula_units_Z 32
_cell_length_a 8.088502
_cell_length_b 16.703209
_cell_length_c 13.372807
_cell_angle_alpha 90.000000
_cell_angle_beta 137.406675
_cell_angle_gamma 90.000000
_cell_volume 1222.769667
_symmetry_space_group_name_H-M "C C"
_symmetry_group_IT_number 9
_symmetry_cell_setting 'monoclinic'
loop_
_space_group_symop_operation_xyz
x,y,z
x,-y,1/2+z
1/2+x,1/2+y,z
1/2+x,1/2-y,1/2+z
loop_
_atom_site_type_symbol
_atom_site_label
_atom_site_fract_x
_atom_site_fract_y
_atom_site_fract_z
Si Si1 0.219160 0.591404 0.286280
Si Si2 0.578456 0.393673 0.351976
Si Si3 0.069616 0.705923 0.067234
Si Si4 0.353188 0.871721 0.887193
Si Si5 0.198476 0.106327 0.114812
Si Si6 0.423745 0.371721 0.079595
Si Si7 0.207316 0.294077 0.399553
Si Si8 0.057771 0.591404 0.680507
O O1 0.251832 0.639820 0.197879
O O2 0.411244 0.594461 0.461389
O O3 0.138465 0.500000 0.233393
O O4 0.972491 0.636227 0.215445
O O5 0.638466 0.439641 0.483394
O O6 0.547799 0.422102 0.224123
O O7 0.304441 0.363773 0.251342
O O8 0.797621 0.331155 0.444503
O O9 0.049880 0.785792 0.123655
O O10 0.138465 0.723140 0.983393
O O11 0.638467 0.863975 0.983394
O O12 0.365688 0.905540 0.005398
O O13 0.229134 0.922102 0.742665
O O14 0.227053 0.785792 0.843132
O O15 0.979310 0.168845 0.022284
O O16 0.025100 0.360180 0.268907
#
# Coordination Sequence:
#
# PCOD9135260 Si02
#       8
#     4   4   4   4   4   4   4   4
#     4  10  22  41  64  93 126 163 211 263 322 383
#     4   9  20  39  61  86 119 161 206 253 312 376
#     4  11  23  39  60  91 129 167 214 264 310 373
#     4  10  20  38  66  92 122 165 211 258 317 381
#     4   9  20  39  61  86 119 161 206 253 312 376
#     4  10  20  38  66  92 122 165 211 258 317 381
#     4  11  23  39  60  91 129 167 214 264 310 373
#     4  10  22  41  64  93 126 163 211 263 322 383
#
# _framework density 26.170096999999998
#
# number of rings (size 3 to 8) (size 9 to 14) (size 15 to 20)
#    0.000    2.000    0.000    3.750    0.000   14.000 
#    0.000   17.500    0.000    0.000    0.000    0.000 
#    0.000    0.000    0.000    0.000    0.000    0.000 
#
# Total GULP energy -89214.729035 kJ/mol
# GULP energy per Si atom -5575.920565 kJ/mol
# Density = 2.611053 g / cm^3
# Si number density = 26.170097 Si / 1000 Ang^3
#
#
#
# Elastic Constant Matrix: (Units=GPa)
#
#
# Indices 1 2 3 4 5 6 
#
# 1 100.3740 36.3351 18.5570 0.0000 -6.8409 0.0003
# 2 36.3351 127.2529 69.0281 -0.0001 -24.2616 0.0001
# 3 18.5570 69.0281 275.6267 0.0000 -54.9221 0.0004
# 4 0.0000 -0.0001 0.0000 -14.0161 0.0000 20.8907
# 5 -6.8409 -24.2616 -54.9221 0.0000 48.9644 0.0003
# 6 0.0003 0.0001 0.0004 20.8907 0.0003 6.2059
#
#
#
# Elastic Compliance Matrix: (Units=1/GPa)
#
#
# Indices 1 2 3 4 5 6 
#
# 1 0.011112 -0.003199 0.000060 0.000000 0.000035 0.000000
# 2 -0.003199 0.010261 -0.001842 0.000000 0.002571 0.000000
# 3 0.000060 -0.001842 0.005029 0.000000 0.004737 0.000000
# 4 0.000000 0.000000 0.000000 -0.011857 0.000000 0.039913
# 5 0.000035 0.002571 0.004737 0.000000 0.027015 0.000000
# 6 0.000000 0.000000 0.000000 0.039913 0.000000 0.026779
#
#
# Mechanical properties :
#
#
# Convention : Reuss Voigt Hill
#
# Bulk Modulus (GPa) = 60.82537 83.45489 72.14013
# Shear Modulus (GPa) = 59.67908 33.51974 46.59941
#
# Velocity S-wave (km/s) = 4.78057 3.58277 4.22434
# Velocity P-wave (km/s) = 7.33243 7.00525 7.17071
#
# Compressibility (1/GPa) = 0.01644051
#
# Stress axis : x y z
#
# Youngs Moduli (GPa) = 89.99310 97.45471 198.83579
#
# Poissons Ratio (x) = 0.31173 -0.01190
# Poissons Ratio (y) = 0.28786 0.36628
# Poissons Ratio (z) = -0.00539 0.17952
#
# Static dielectric constant tensor:
#      x y z
#    x 2.114990 0.000000 -0.054060 
#    y 0.000000 1.991740 0.000000 
#    z -0.054060 0.000000 2.128010 
# 
# From -- ./inp_files/15490.got.cif
#   From: 2010.05.17/outbox.cif.g08.bks.cpg/sg9_8_cif.got.tgz:15490.got - 2010.06.03 20:04:27.
