data_PCOD9135461
_publ_section_title
;
Structure prediction by ZEFSAII (Michael W. Deem and Ramdas Pophale) SiO2 
 PCOD9135461
Probable space group: C C
;
_chemical_formula_sum "Si O2"
_cell_formula_units_Z 32
_cell_length_a 6.967627
_cell_length_b 19.457596
_cell_length_c 10.942819
_cell_angle_alpha 90.000000
_cell_angle_beta 92.196161
_cell_angle_gamma 90.000000
_cell_volume 1482.464078
_symmetry_space_group_name_H-M "C C"
_symmetry_group_IT_number 9
_symmetry_cell_setting 'monoclinic'
loop_
_space_group_symop_operation_xyz
x,y,z
x,-y,1/2+z
1/2+x,1/2+y,z
1/2+x,1/2-y,1/2+z
loop_
_atom_site_type_symbol
_atom_site_label
_atom_site_fract_x
_atom_site_fract_y
_atom_site_fract_z
Si Si1 0.121130 0.660065 0.835220
Si Si2 0.633771 0.730842 0.519243
Si Si3 0.356224 0.376292 0.955020
Si Si4 0.799596 0.724213 0.176599
Si Si5 0.405234 0.867231 0.911979
Si Si6 0.942140 0.095775 0.737880
Si Si7 0.635762 0.507984 0.382018
Si Si8 0.702378 0.639663 0.936404
O O1 0.168929 0.713714 0.726224
O O2 0.236133 0.591644 0.800038
O O3 0.904917 0.644882 0.870022
O O4 0.202610 0.699882 0.956206
O O5 0.472277 0.693570 0.428198
O O6 0.509131 0.751886 0.632495
O O7 0.803018 0.674717 0.520941
O O8 0.404766 0.387442 0.098530
O O9 0.456122 0.441475 0.896561
O O10 0.132718 0.368325 0.928452
O O11 0.838374 0.672272 0.288251
O O12 0.706424 0.687119 0.055763
O O13 0.317969 0.943355 0.900609
O O14 0.045474 0.152520 0.826978
O O15 0.083702 0.031165 0.754862
O O16 0.659651 0.440543 0.468103
#
# Coordination Sequence:
#
# PCOD9135461 Si02
#       8
#     4   4   4   4   4   4   4   4
#     4  10  20  40  65  97 130 172 214 259 335 379
#     4   9  21  42  60  99 131 165 221 262 321 391
#     4  11  22  45  64  97 131 171 211 272 327 389
#     4  10  20  42  68  99 128 170 224 264 327 390
#     4  10  23  42  68  94 132 173 212 276 329 382
#     4  10  23  42  62  94 131 168 213 268 319 389
#     4   9  24  42  63  94 130 165 228 259 319 392
#     4   9  23  41  64  96 131 170 217 266 321 386
#
# _framework density 21.585683
#
# number of rings (size 3 to 8) (size 9 to 14) (size 15 to 20)
#    0.750    1.500    1.250    0.000    3.500    6.000 
#    6.750    6.250    0.000    0.000    0.000    0.000 
#    0.000    0.000    0.000    0.000    0.000    0.000 
#
# Total GULP energy -89078.737438 kJ/mol
# GULP energy per Si atom -5567.421090 kJ/mol
# Density = 2.153655 g / cm^3
# Si number density = 21.585683 Si / 1000 Ang^3
#
#
#
# Elastic Constant Matrix: (Units=GPa)
#
#
# Indices 1 2 3 4 5 6 
#
# 1 97.1613 -2.8431 5.8401 0.0000 9.6672 0.0000
# 2 -2.8431 66.4392 7.5915 0.0000 0.7816 0.0000
# 3 5.8401 7.5915 76.8986 0.0000 7.4731 0.0000
# 4 0.0000 0.0000 0.0000 23.2723 0.0000 -0.1953
# 5 9.6672 0.7816 7.4731 0.0000 30.9839 0.0000
# 6 0.0000 0.0000 0.0000 -0.1953 0.0000 18.2584
#
#
#
# Elastic Compliance Matrix: (Units=1/GPa)
#
#
# Indices 1 2 3 4 5 6 
#
# 1 0.010661 0.000557 -0.000553 0.000000 -0.003207 0.000000
# 2 0.000557 0.015252 -0.001530 0.000000 -0.000190 0.000000
# 3 -0.000553 -0.001530 0.013493 0.000000 -0.003043 0.000000
# 4 0.000000 0.000000 0.000000 0.042973 0.000000 0.000460
# 5 -0.003207 -0.000190 -0.003043 0.000000 0.034014 0.000000
# 6 0.000000 0.000000 0.000000 0.000460 0.000000 0.054774
#
#
# Mechanical properties :
#
#
# Convention : Reuss Voigt Hill
#
# Bulk Modulus (GPa) = 27.50659 29.07512 28.29085
# Shear Modulus (GPa) = 26.83313 29.83031 28.33172
#
# Velocity S-wave (km/s) = 3.52959 3.72149 3.62681
# Velocity P-wave (km/s) = 5.42045 5.65375 5.53833
#
# Compressibility (1/GPa) = 0.03635493
#
# Stress axis : x y z
#
# Youngs Moduli (GPa) = 93.80181 65.56431 74.11317
#
# Poissons Ratio (x) = -0.03653 0.04098
# Poissons Ratio (y) = -0.05226 0.11336
# Poissons Ratio (z) = 0.05187 0.10029
#
# Static dielectric constant tensor:
#      x y z
#    x 1.826890 0.000000 -0.014100 
#    y 0.000000 1.852620 0.000000 
#    z -0.014100 0.000000 1.794060 
# 
# From -- ./inp_files/13659.got.cif
#   From: 2010.05.17/outbox.cif.g08.bks.cpg/sg9_7_cif.got.tgz:13659.got - 2010.06.03 20:04:27.
