data_PCOD9135425
_publ_section_title
;
Structure prediction by ZEFSAII (Michael W. Deem and Ramdas Pophale) SiO2 
 PCOD9135425
Probable space group: C C
;
_chemical_formula_sum "Si O2"
_cell_formula_units_Z 32
_cell_length_a 7.232172
_cell_length_b 17.290738
_cell_length_c 11.191561
_cell_angle_alpha 90.000000
_cell_angle_beta 103.289685
_cell_angle_gamma 90.000000
_cell_volume 1362.021897
_symmetry_space_group_name_H-M "C C"
_symmetry_group_IT_number 9
_symmetry_cell_setting 'monoclinic'
loop_
_space_group_symop_operation_xyz
x,y,z
x,-y,1/2+z
1/2+x,1/2+y,z
1/2+x,1/2-y,1/2+z
loop_
_atom_site_type_symbol
_atom_site_label
_atom_site_fract_x
_atom_site_fract_y
_atom_site_fract_z
Si Si1 0.348620 0.320805 0.681290
Si Si2 0.089219 0.039441 0.266569
Si Si3 0.974040 0.577181 0.455616
Si Si4 0.429473 0.145233 0.707160
Si Si5 0.040452 0.122757 0.790953
Si Si6 0.132310 0.423177 0.468164
Si Si7 0.758903 0.599880 0.064532
Si Si8 0.456422 0.790032 0.762009
O O1 0.477438 0.381559 0.772300
O O2 0.441090 0.236708 0.680996
O O3 0.292364 0.370247 0.554213
O O4 0.156162 0.302203 0.724122
O O5 0.276243 0.038337 0.378135
O O6 0.165724 0.039763 0.141639
O O7 0.961440 0.963510 0.264817
O O8 0.970018 0.597701 0.593752
O O9 0.142518 0.515992 0.449441
O O10 0.976891 0.657984 0.383341
O O11 0.214095 0.130077 0.722597
O O12 0.559602 0.117493 0.836967
O O13 0.917684 0.199367 0.765879
O O14 0.133473 0.123208 0.934995
O O15 0.962865 0.422328 0.541728
O O16 0.797630 0.671891 0.156314
#
# Coordination Sequence:
#
# PCOD9135425 Si02
#       8
#     4   4   4   4   4   4   4   4
#     4  10  24  42  61  96 130 155 211 272 312 353
#     4  11  22  39  66  94 123 158 212 264 303 367
#     4  11  22  40  69  89 121 175 213 244 309 393
#     4  10  22  40  67  92 123 168 214 246 316 376
#     4  10  20  40  62  93 122 165 199 260 311 360
#     4  10  21  42  67  89 127 172 203 256 313 382
#     4   9  19  39  65  85 120 164 210 244 300 387
#     4   9  22  42  61  86 126 167 204 250 316 372
#
# _framework density 23.494482000000001
#
# number of rings (size 3 to 8) (size 9 to 14) (size 15 to 20)
#    0.000    2.000    2.500    0.750    7.000    0.000 
#    6.750    0.000    0.000    0.000    0.000    0.000 
#    0.000    0.000    0.000    0.000    0.000    0.000 
#
# Total GULP energy -89411.734590 kJ/mol
# GULP energy per Si atom -5588.233412 kJ/mol
# Density = 2.344101 g / cm^3
# Si number density = 23.494482 Si / 1000 Ang^3
#
#
#
# Elastic Constant Matrix: (Units=GPa)
#
#
# Indices 1 2 3 4 5 6 
#
# 1 49.6784 29.3416 7.3402 0.0000 -13.2336 0.0000
# 2 29.3416 212.8808 60.6956 0.0000 1.4525 0.0000
# 3 7.3402 60.6956 114.0576 0.0000 -3.1112 0.0000
# 4 0.0000 0.0000 0.0000 7.1248 0.0000 -1.0118
# 5 -13.2336 1.4525 -3.1112 0.0000 21.6807 0.0000
# 6 0.0000 0.0000 0.0000 -1.0118 0.0000 31.7526
#
#
#
# Elastic Compliance Matrix: (Units=1/GPa)
#
#
# Indices 1 2 3 4 5 6 
#
# 1 0.026882 -0.004076 0.000897 0.000000 0.016810 0.000000
# 2 -0.004076 0.006169 -0.003112 0.000000 -0.003348 0.000000
# 3 0.000897 -0.003112 0.010427 0.000000 0.002253 0.000000
# 4 0.000000 0.000000 0.000000 0.140993 0.000000 0.004493
# 5 0.016810 -0.003348 0.002253 0.000000 0.056932 0.000000
# 6 0.000000 0.000000 0.000000 0.004493 0.000000 0.031637
#
#
# Mechanical properties :
#
#
# Convention : Reuss Voigt Hill
#
# Bulk Modulus (GPa) = 32.36443 63.48574 47.92509
# Shear Modulus (GPa) = 16.89640 30.72756 23.81198
#
# Velocity S-wave (km/s) = 2.68463 3.62036 3.18703
# Velocity P-wave (km/s) = 4.83890 6.67505 5.82972
#
# Compressibility (1/GPa) = 0.03089812
#
# Stress axis : x y z
#
# Youngs Moduli (GPa) = 37.19931 162.09104 95.90244
#
# Poissons Ratio (x) = 0.66065 -0.08607
# Poissons Ratio (y) = 0.15162 0.29845
# Poissons Ratio (z) = -0.03339 0.50443
#
# Static dielectric constant tensor:
#      x y z
#    x 1.917490 0.000000 -0.002010 
#    y 0.000000 2.002290 0.000000 
#    z -0.002010 0.000000 1.841030 
# 
# From -- ./inp_files/14658.got.cif
#   From: 2010.05.17/outbox.cif.g08.bks.cpg/sg9_8_cif.got.tgz:14658.got - 2010.06.03 20:04:27.
