data_PCOD9135091
_publ_section_title
;
Structure prediction by ZEFSAII (Michael W. Deem and Ramdas Pophale) SiO2 
 PCOD9135091
Probable space group: C C
;
_chemical_formula_sum "Si O2"
_cell_formula_units_Z 24
_cell_length_a 8.295203
_cell_length_b 11.959915
_cell_length_c 15.887619
_cell_angle_alpha 90.000000
_cell_angle_beta 144.555674
_cell_angle_gamma 90.000000
_cell_volume 914.062162
_symmetry_space_group_name_H-M "C C"
_symmetry_group_IT_number 9
_symmetry_cell_setting 'monoclinic'
loop_
_space_group_symop_operation_xyz
x,y,z
x,-y,1/2+z
1/2+x,1/2+y,z
1/2+x,1/2-y,1/2+z
loop_
_atom_site_type_symbol
_atom_site_label
_atom_site_fract_x
_atom_site_fract_y
_atom_site_fract_z
Si Si1 0.913270 0.430939 0.695780
Si Si2 0.866226 0.193463 0.770236
Si Si3 0.213021 0.696717 0.186764
Si Si4 0.837242 0.709845 0.447160
Si Si5 0.874724 0.631874 0.897263
Si Si6 0.303751 0.544571 0.980290
O O1 0.919016 0.312920 0.747130
O O2 0.622027 0.486499 0.599455
O O3 0.015437 0.393178 0.648166
O O4 0.151242 0.509264 0.831517
O O5 0.896833 0.233521 0.880515
O O6 0.578065 0.151926 0.604646
O O7 0.103875 0.109956 0.839000
O O8 0.531391 0.657231 0.309822
O O9 0.246295 0.805123 0.260742
O O10 0.055953 0.716406 0.032649
O O11 0.809324 0.822669 0.490133
O O12 0.071044 0.525755 0.954688
#
# Coordination Sequence:
#
# PCOD9135091 Si02
#       6
#     4   4   4   4   4   4
#     4  10  22  38  56  83 121 159 198 246 298 355
#     4  10  20  37  60  88 115 147 196 251 300 360
#     4  10  20  37  62  89 117 154 200 251 302 359
#     4  10  20  37  60  88 115 147 196 251 300 360
#     4  10  20  37  62  89 117 154 200 251 302 359
#     4  10  22  38  56  83 121 159 198 246 298 355
#
# _framework density 26.256421
#
# number of rings (size 3 to 8) (size 9 to 14) (size 15 to 20)
#    0.000    2.000    0.000    6.000    0.000    8.000 
#    0.000    8.333    0.000    0.000    0.000    0.000 
#    0.000    0.000    0.000    0.000    0.000    0.000 
#
# Total GULP energy -66838.778438 kJ/mol
# GULP energy per Si atom -5569.898203 kJ/mol
# Density = 2.619666 g / cm^3
# Si number density = 26.256421 Si / 1000 Ang^3
#
#
#
# Elastic Constant Matrix: (Units=GPa)
#
#
# Indices 1 2 3 4 5 6 
#
# 1 145.0008 14.2121 29.6743 0.0003 4.1913 0.0001
# 2 14.2121 42.7052 32.5450 -0.0001 1.2045 -0.0001
# 3 29.6743 32.5450 132.4907 0.0017 12.7940 0.0008
# 4 0.0003 -0.0001 0.0017 8.6158 0.0007 -17.9003
# 5 4.1913 1.2045 12.7940 0.0007 55.9044 0.0002
# 6 0.0001 -0.0001 0.0008 -17.9003 0.0002 11.0971
#
#
#
# Elastic Compliance Matrix: (Units=1/GPa)
#
#
# Indices 1 2 3 4 5 6 
#
# 1 0.007304 -0.001469 -0.001253 0.000000 -0.000229 0.000000
# 2 -0.001469 0.029162 -0.006938 -0.000001 0.001070 -0.000001
# 3 -0.001253 -0.006938 0.009724 0.000001 -0.001982 0.000001
# 4 0.000000 -0.000001 0.000001 -0.049362 0.000001 -0.079624
# 5 -0.000229 0.001070 -0.001982 0.000001 0.018335 0.000001
# 6 0.000000 -0.000001 0.000001 -0.079624 0.000001 -0.038325
#
#
# Mechanical properties :
#
#
# Convention : Reuss Voigt Hill
#
# Bulk Modulus (GPa) = 37.21609 52.56218 44.88914
# Shear Modulus (GPa) = 977.60391 31.37446 504.48919
#
# Velocity S-wave (km/s) = 19.31677 3.46052 13.87647
# Velocity P-wave (km/s) = 22.62127 6.00243 16.54919
#
# Compressibility (1/GPa) = 0.02687010
#
# Stress axis : x y z
#
# Youngs Moduli (GPa) = 136.92005 34.29097 102.84051
#
# Poissons Ratio (x) = 0.05039 0.12883
# Poissons Ratio (y) = 0.20120 0.71346
# Poissons Ratio (z) = 0.17152 0.23790
#
# Static dielectric constant tensor:
#      x y z
#    x 2.279310 0.000000 0.126650 
#    y 0.000000 2.033860 0.000000 
#    z 0.126650 0.000000 2.137360 
# 
# From -- ./inp_files/4927.got.cif
#   From: 2010.05.17/outbox.cif.g08.bks.cpg/sg9_3_cif.got.tgz:4927.got - 2010.06.03 20:04:27.
