data_PCOD9135046
_publ_section_title
;
Structure prediction by ZEFSAII (Michael W. Deem and Ramdas Pophale) SiO2 
 PCOD9135046
Probable space group: C C
;
_chemical_formula_sum "Si O2"
_cell_formula_units_Z 24
_cell_length_a 13.704579
_cell_length_b 7.666181
_cell_length_c 9.010809
_cell_angle_alpha 90.000000
_cell_angle_beta 67.088158
_cell_angle_gamma 90.000000
_cell_volume 872.002386
_symmetry_space_group_name_H-M "C C"
_symmetry_group_IT_number 9
_symmetry_cell_setting 'monoclinic'
loop_
_space_group_symop_operation_xyz
x,y,z
x,-y,1/2+z
1/2+x,1/2+y,z
1/2+x,1/2-y,1/2+z
loop_
_atom_site_type_symbol
_atom_site_label
_atom_site_fract_x
_atom_site_fract_y
_atom_site_fract_z
Si Si1 0.526440 0.909817 0.094880
Si Si2 0.858077 0.682176 0.911572
Si Si3 0.177058 0.803835 0.705570
Si Si4 0.443817 0.297624 0.396347
Si Si5 0.014715 0.117198 0.530784
Si Si6 0.744426 0.950335 0.394364
O O1 0.417279 0.927994 0.250007
O O2 0.584276 0.750339 0.147784
O O3 0.495796 0.866466 0.944621
O O4 0.624762 0.042474 0.028061
O O5 0.801482 0.859253 0.876548
O O6 0.764566 0.594902 0.061115
O O7 0.944960 0.739919 0.982739
O O8 0.229947 0.624554 0.736782
O O9 0.126696 0.890782 0.879868
O O10 0.457800 0.440612 0.516166
O O11 0.505652 0.351616 0.210329
O O12 0.321616 0.311722 0.425703
#
# Coordination Sequence:
#
# PCOD9135046 Si02
#       6
#     4   4   4   4   4   4
#     4  10  23  37  66 102 136 173 243 288 342 424
#     4   9  19  37  61  96 135 177 225 288 336 411
#     4  10  20  39  65  97 134 187 230 288 346 419
#     4  11  21  41  66 101 129 182 231 291 346 419
#     4  10  20  36  65  92 134 177 232 280 347 413
#     4  10  21  38  71  98 132 184 233 277 355 416
#
# _framework density 27.522859
#
# number of rings (size 3 to 8) (size 9 to 14) (size 15 to 20)
#    0.000    2.000    1.667    3.000    4.667    2.667 
#    3.000    0.000   22.000    6.000    0.000    0.000 
#    0.000    0.000    0.000    0.000    0.000    0.000 
#
# Total GULP energy -67188.029112 kJ/mol
# GULP energy per Si atom -5599.002426 kJ/mol
# Density = 2.746022 g / cm^3
# Si number density = 27.522859 Si / 1000 Ang^3
#
#
#
# Elastic Constant Matrix: (Units=GPa)
#
#
# Indices 1 2 3 4 5 6 
#
# 1 167.5726 42.8736 99.6359 0.0000 -3.0218 0.0000
# 2 42.8736 76.0701 22.3687 0.0000 9.6377 0.0000
# 3 99.6359 22.3687 221.7427 0.0000 -23.4722 0.0000
# 4 0.0000 0.0000 0.0000 38.0931 0.0000 -0.7958
# 5 -3.0218 9.6377 -23.4722 0.0000 80.5395 0.0000
# 6 0.0000 0.0000 0.0000 -0.7958 0.0000 42.8515
#
#
#
# Elastic Compliance Matrix: (Units=1/GPa)
#
#
# Indices 1 2 3 4 5 6 
#
# 1 0.009247 -0.004069 -0.003773 0.000000 -0.000266 0.000000
# 2 -0.004069 0.015685 0.000032 0.000000 -0.002020 0.000000
# 3 -0.003773 0.000032 0.006383 0.000000 0.001715 0.000000
# 4 0.000000 0.000000 0.000000 0.026262 0.000000 0.000488
# 5 -0.000266 -0.002020 0.001715 0.000000 0.013148 0.000000
# 6 0.000000 0.000000 0.000000 0.000488 0.000000 0.023345
#
#
# Mechanical properties :
#
#
# Convention : Reuss Voigt Hill
#
# Bulk Modulus (GPa) = 63.70621 88.34908 76.02764
# Shear Modulus (GPa) = 43.50812 52.33063 47.91938
#
# Velocity S-wave (km/s) = 3.98024 4.36518 4.17715
# Velocity P-wave (km/s) = 6.65733 7.58791 7.13780
#
# Compressibility (1/GPa) = 0.01569706
#
# Stress axis : x y z
#
# Youngs Moduli (GPa) = 108.14513 63.75361 156.66180
#
# Poissons Ratio (x) = 0.25939 0.59102
# Poissons Ratio (y) = 0.44000 -0.00501
# Poissons Ratio (z) = 0.40799 -0.00204
#
# Static dielectric constant tensor:
#      x y z
#    x 2.099280 0.000000 -0.039920 
#    y 0.000000 2.373610 0.000000 
#    z -0.039920 0.000000 2.088480 
# 
# From -- ./inp_files/6938.got.cif
#   From: 2010.05.17/outbox.cif.g08.bks.cpg/sg9_4_cif.got.tgz:6938.got - 2010.06.03 20:04:27.
