data_PCOD9135567
_publ_section_title
;
Structure prediction by ZEFSAII (Michael W. Deem and Ramdas Pophale) SiO2 
 PCOD9135567
Probable space group: C C
;
_chemical_formula_sum "Si O2"
_cell_formula_units_Z 32
_cell_length_a 14.267592
_cell_length_b 8.130580
_cell_length_c 25.337875
_cell_angle_alpha 90.000000
_cell_angle_beta 28.603355
_cell_angle_gamma 90.000000
_cell_volume 1407.165175
_symmetry_space_group_name_H-M "C C"
_symmetry_group_IT_number 9
_symmetry_cell_setting 'monoclinic'
loop_
_space_group_symop_operation_xyz
x,y,z
x,-y,1/2+z
1/2+x,1/2+y,z
1/2+x,1/2-y,1/2+z
loop_
_atom_site_type_symbol
_atom_site_label
_atom_site_fract_x
_atom_site_fract_y
_atom_site_fract_z
Si Si1 0.471220 0.847884 0.054120
Si Si2 0.226879 0.154803 0.012086
Si Si3 0.758185 0.574988 0.233512
Si Si4 0.055114 0.279096 0.734627
Si Si5 0.065317 0.447123 0.150527
Si Si6 0.556808 0.928253 0.891748
Si Si7 0.381792 0.378676 0.418009
Si Si8 0.941712 0.902127 0.184092
O O1 0.645141 0.761953 0.002266
O O2 0.271360 0.740277 0.152477
O O3 0.386679 0.014260 0.121284
O O4 0.527147 0.898027 0.968108
O O5 0.155023 0.267622 0.097231
O O6 0.107762 0.984204 0.067291
O O7 0.438423 0.082550 0.924023
O O8 0.531171 0.533350 0.339073
O O9 0.823063 0.755614 0.216076
O O10 0.846025 0.460111 0.236671
O O11 0.052202 0.465206 0.713679
O O12 0.889077 0.208596 0.856531
O O13 0.032837 0.166297 0.693404
O O14 0.199692 0.559373 0.043596
O O15 0.482058 0.763688 0.901910
O O16 0.784202 0.957894 0.771655
#
# Coordination Sequence:
#
# PCOD9135567 Si02
#       8
#     4   4   4   4   4   4   4   4
#     4  10  21  44  66  92 137 181 225 294 350 410
#     4  11  24  44  67  99 137 184 234 291 358 426
#     4   9  21  40  65  92 130 178 224 281 352 418
#     4  10  21  42  67  98 131 181 229 285 350 421
#     4  10  20  41  66  92 138 175 223 290 343 417
#     4  12  23  43  64 102 139 178 235 294 352 435
#     4  11  22  42  68  95 138 179 225 285 355 422
#     4  11  22  42  65  98 138 174 237 294 346 435
#
# _framework density 22.740756999999999
#
# number of rings (size 3 to 8) (size 9 to 14) (size 15 to 20)
#    0.000    1.500    2.500    3.750    3.500    0.000 
#   11.250    0.000    0.000    0.000    0.000    0.000 
#    0.000    0.000    0.000    0.000    0.000    0.000 
#
# Total GULP energy -89194.681972 kJ/mol
# GULP energy per Si atom -5574.667623 kJ/mol
# Density = 2.268900 g / cm^3
# Si number density = 22.740757 Si / 1000 Ang^3
#
#
#
# Elastic Constant Matrix: (Units=GPa)
#
#
# Indices 1 2 3 4 5 6 
#
# 1 86.4199 29.5928 33.6045 0.0000 11.1028 0.0000
# 2 29.5928 78.8355 15.6843 0.0000 -6.6605 0.0000
# 3 33.6045 15.6843 72.3216 -0.0001 -1.8329 0.0000
# 4 0.0000 0.0000 -0.0001 31.9598 0.0000 -3.0365
# 5 11.1028 -6.6605 -1.8329 0.0000 31.4664 0.0000
# 6 0.0000 0.0000 0.0000 -3.0365 0.0000 41.4937
#
#
#
# Elastic Compliance Matrix: (Units=1/GPa)
#
#
# Indices 1 2 3 4 5 6 
#
# 1 0.017229 -0.005734 -0.006957 0.000000 -0.007698 0.000000
# 2 -0.005734 0.015388 -0.000540 0.000000 0.005249 0.000000
# 3 -0.006957 -0.000540 0.017262 0.000000 0.003346 0.000000
# 4 0.000000 0.000000 0.000000 0.031508 0.000000 0.002306
# 5 -0.007698 0.005249 0.003346 0.000000 0.035802 0.000000
# 6 0.000000 0.000000 0.000000 0.002306 0.000000 0.024269
#
#
# Mechanical properties :
#
#
# Convention : Reuss Voigt Hill
#
# Bulk Modulus (GPa) = 42.70399 43.92668 43.31534
# Shear Modulus (GPa) = 28.45354 31.56368 30.00861
#
# Velocity S-wave (km/s) = 3.54109 3.72960 3.63657
# Velocity P-wave (km/s) = 5.96141 6.15668 6.05984
#
# Compressibility (1/GPa) = 0.02341701
#
# Stress axis : x y z
#
# Youngs Moduli (GPa) = 58.04133 64.98677 57.93167
#
# Poissons Ratio (x) = 0.37261 0.40304
# Poissons Ratio (y) = 0.33279 0.03128
# Poissons Ratio (z) = 0.40381 0.03509
#
# Static dielectric constant tensor:
#      x y z
#    x 1.899220 0.000000 0.005340 
#    y 0.000000 1.879310 0.000000 
#    z 0.005340 0.000000 1.899580 
# 
# From -- ./inp_files/25619.got.cif
#   From: 2010.05.17/outbox.cif.g08.bks.cpg/sg9_13_cif.got.tgz:25619.got - 2010.06.03 20:04:27.
