data_PCOD9135322
_publ_section_title
;
Structure prediction by ZEFSAII (Michael W. Deem and Ramdas Pophale) SiO2 
 PCOD9135322
Probable space group: C C
;
_chemical_formula_sum "Si O2"
_cell_formula_units_Z 28
_cell_length_a 18.885201
_cell_length_b 14.550161
_cell_length_c 9.454881
_cell_angle_alpha 90.000000
_cell_angle_beta 24.573839
_cell_angle_gamma 90.000000
_cell_volume 1080.434567
_symmetry_space_group_name_H-M "C C"
_symmetry_group_IT_number 9
_symmetry_cell_setting 'monoclinic'
loop_
_space_group_symop_operation_xyz
x,y,z
x,-y,1/2+z
1/2+x,1/2+y,z
1/2+x,1/2-y,1/2+z
loop_
_atom_site_type_symbol
_atom_site_label
_atom_site_fract_x
_atom_site_fract_y
_atom_site_fract_z
Si Si1 0.674870 0.691931 0.148390
Si Si2 0.534006 0.119248 0.972509
Si Si3 0.807728 0.580218 0.129268
Si Si4 0.087356 0.898104 0.528278
Si Si5 0.758695 0.000318 0.753617
Si Si6 0.309600 0.614538 0.915795
Si Si7 0.675688 0.698157 0.611412
O O1 0.664837 0.798253 0.206214
O O2 0.824122 0.634668 0.953093
O O3 0.498938 0.645909 0.527891
O O4 0.665315 0.672865 0.999633
O O5 0.595977 0.047549 0.975238
O O6 0.470476 0.078385 0.936579
O O7 0.361463 0.169902 0.338182
O O8 0.715874 0.483730 0.275537
O O9 0.683493 0.646837 0.448629
O O10 0.919658 0.941788 0.900265
O O11 0.049770 0.847778 0.449656
O O12 0.773549 0.021495 0.892408
O O13 0.782014 0.903515 0.631854
O O14 0.181841 0.693011 0.091628
#
# Coordination Sequence:
#
# PCOD9135322 Si02
#       7
#     4   4   4   4   4   4   4
#     4  10  20  39  63  93 123 167 212 261 321 380
#     4   9  23  40  65  87 130 167 208 264 319 376
#     4  10  20  39  67  86 127 171 209 254 326 385
#     4  11  22  37  68  93 121 167 219 262 312 393
#     4  11  23  41  66  97 128 165 217 268 321 376
#     4  10  22  40  64  95 130 168 209 270 320 383
#     4   9  22  42  63  91 127 169 210 257 327 379
#
# _framework density 25.915497999999999
#
# number of rings (size 3 to 8) (size 9 to 14) (size 15 to 20)
#    0.857    1.143    1.429    1.714    4.000    2.286 
#    0.000    4.286    0.000    0.000    0.000    0.000 
#    0.000    0.000    0.000    0.000    0.000    0.000 
#
# Total GULP energy -78284.604282 kJ/mol
# GULP energy per Si atom -5591.757449 kJ/mol
# Density = 2.585651 g / cm^3
# Si number density = 25.915498 Si / 1000 Ang^3
#
#
#
# Elastic Constant Matrix: (Units=GPa)
#
#
# Indices 1 2 3 4 5 6 
#
# 1 89.7654 18.3690 5.5052 -0.0009 8.0339 0.0008
# 2 18.3690 82.7477 12.6986 -0.0009 11.7218 0.0008
# 3 5.5052 12.6986 49.1443 -0.0006 -6.5235 0.0006
# 4 -0.0009 -0.0009 -0.0006 23.0418 0.0006 5.4831
# 5 8.0339 11.7218 -6.5235 0.0006 41.8831 -0.0008
# 6 0.0008 0.0008 0.0006 5.4831 -0.0008 35.3946
#
#
#
# Elastic Compliance Matrix: (Units=1/GPa)
#
#
# Indices 1 2 3 4 5 6 
#
# 1 0.011815 -0.002216 -0.000990 0.000000 -0.001800 0.000000
# 2 -0.002216 0.013734 -0.003834 0.000001 -0.004016 0.000000
# 3 -0.000990 -0.003834 0.022074 0.000000 0.004701 0.000000
# 4 0.000000 0.000001 0.000000 0.045060 -0.000001 -0.006980
# 5 -0.001800 -0.004016 0.004701 -0.000001 0.026077 0.000001
# 6 0.000000 0.000000 0.000000 -0.006980 0.000001 0.029334
#
#
# Mechanical properties :
#
#
# Convention : Reuss Voigt Hill
#
# Bulk Modulus (GPa) = 29.81146 32.75587 31.28367
# Shear Modulus (GPa) = 28.84244 32.40290 30.62267
#
# Velocity S-wave (km/s) = 3.33970 3.53984 3.44122
# Velocity P-wave (km/s) = 5.13807 5.41979 5.28081
#
# Compressibility (1/GPa) = 0.03354414
#
# Stress axis : x y z
#
# Youngs Moduli (GPa) = 84.63494 72.81190 45.30276
#
# Poissons Ratio (x) = 0.16134 0.04485
# Poissons Ratio (y) = 0.18754 0.17367
# Poissons Ratio (z) = 0.08379 0.27913
#
# Static dielectric constant tensor:
#      x y z
#    x 2.009020 0.000000 -0.012570 
#    y 0.000000 2.021840 0.000000 
#    z -0.012570 0.000000 2.157500 
# 
# From -- ./inp_files/10881.got.cif
#   From: 2010.05.17/outbox.cif.g08.bks.cpg/sg9_6_cif.got.tgz:10881.got - 2010.06.03 20:04:27.
