data_PCOD9135961
_publ_section_title
;
Structure prediction by ZEFSAII (Michael W. Deem and Ramdas Pophale) SiO2 
 PCOD9135961
Probable space group: C C
;
_chemical_formula_sum "Si O2"
_cell_formula_units_Z 28
_cell_length_a 11.200644
_cell_length_b 7.855453
_cell_length_c 14.084856
_cell_angle_alpha 90.000000
_cell_angle_beta 113.830620
_cell_angle_gamma 90.000000
_cell_volume 1133.616477
_symmetry_space_group_name_H-M "C C"
_symmetry_group_IT_number 9
_symmetry_cell_setting 'monoclinic'
loop_
_space_group_symop_operation_xyz
x,y,z
x,-y,1/2+z
1/2+x,1/2+y,z
1/2+x,1/2-y,1/2+z
loop_
_atom_site_type_symbol
_atom_site_label
_atom_site_fract_x
_atom_site_fract_y
_atom_site_fract_z
Si Si1 0.616330 0.472011 0.317730
Si Si2 0.231245 0.540224 0.947948
Si Si3 0.274587 0.681999 0.303668
Si Si4 0.598759 0.066600 0.088189
Si Si5 0.489103 0.533596 0.963266
Si Si6 0.890268 0.778401 0.135287
Si Si7 0.644968 0.686620 0.166095
O O1 0.741557 0.373523 0.317224
O O2 0.602132 0.431435 0.423635
O O3 0.487695 0.384438 0.232856
O O4 0.626010 0.657021 0.272089
O O5 0.124462 0.607885 0.985902
O O6 0.305966 0.401122 0.039549
O O7 0.180364 0.434442 0.841578
O O8 0.357078 0.642745 0.946474
O O9 0.229091 0.635019 0.184336
O O10 0.414690 0.618851 0.383484
O O11 0.476035 0.158562 0.095473
O O12 0.590504 0.866234 0.109907
O O13 0.567294 0.536516 0.086439
O O14 0.791908 0.684938 0.175188
#
# Coordination Sequence:
#
# PCOD9135961 Si02
#       7
#     4   4   4   4   4   4   4
#     4  11  20  40  63  84 125 162 196 248 298 355
#     4   9  19  40  61  84 120 158 198 241 299 349
#     4   9  21  38  64  85 118 164 197 242 303 350
#     4  10  21  41  64  88 124 157 200 252 299 350
#     4  10  21  37  64  89 118 161 198 243 304 352
#     4  10  21  41  60  88 124 161 198 248 295 356
#     4  11  23  39  62  92 119 159 199 248 304 356
#
# _framework density 24.699712000000002
#
# number of rings (size 3 to 8) (size 9 to 14) (size 15 to 20)
#    0.857    1.143    1.429    3.429    0.000    1.143 
#    5.143   10.000    0.000    0.000    0.000    0.000 
#    0.000    0.000    0.000    0.000    0.000    0.000 
#
# Total GULP energy -78021.568740 kJ/mol
# GULP energy per Si atom -5572.969196 kJ/mol
# Density = 2.464349 g / cm^3
# Si number density = 24.699712 Si / 1000 Ang^3
#
#
#
# Elastic Constant Matrix: (Units=GPa)
#
#
# Indices 1 2 3 4 5 6 
#
# 1 107.4778 30.9344 3.2389 0.0000 -19.0353 0.0000
# 2 30.9344 52.1970 2.8252 0.0000 -1.4827 0.0000
# 3 3.2389 2.8252 73.9405 0.0000 -27.1231 0.0000
# 4 0.0000 0.0000 0.0000 21.6366 0.0000 2.8928
# 5 -19.0353 -1.4827 -27.1231 0.0000 52.7656 0.0000
# 6 0.0000 0.0000 0.0000 2.8928 0.0000 32.3355
#
#
#
# Elastic Compliance Matrix: (Units=1/GPa)
#
#
# Indices 1 2 3 4 5 6 
#
# 1 0.012212 -0.007180 0.001579 0.000000 0.005015 0.000000
# 2 -0.007180 0.023421 -0.001589 0.000000 -0.002749 0.000000
# 3 0.001579 -0.001589 0.016894 0.000000 0.009209 0.000000
# 4 0.000000 0.000000 0.000000 0.046777 0.000000 -0.004185
# 5 0.005015 -0.002749 0.009209 0.000000 0.025418 0.000000
# 6 0.000000 0.000000 0.000000 -0.004185 0.000000 0.031300
#
#
# Mechanical properties :
#
#
# Convention : Reuss Voigt Hill
#
# Bulk Modulus (GPa) = 26.21398 34.17914 30.19656
# Shear Modulus (GPa) = 27.30492 34.45533 30.88012
#
# Velocity S-wave (km/s) = 3.32848 3.73898 3.53968
# Velocity P-wave (km/s) = 5.04061 5.70157 5.38125
#
# Compressibility (1/GPa) = 0.03814759
#
# Stress axis : x y z
#
# Youngs Moduli (GPa) = 81.88993 42.69602 59.19258
#
# Poissons Ratio (x) = 0.30656 -0.09347
# Poissons Ratio (y) = 0.58798 0.09404
# Poissons Ratio (z) = -0.12932 0.06783
#
# Static dielectric constant tensor:
#      x y z
#    x 2.010120 0.000000 -0.055760 
#    y 0.000000 2.060960 0.000000 
#    z -0.055760 0.000000 1.970260 
# 
# From -- ./inp_files/24018.got.cif
#   From: 2010.05.17/outbox.cif.g08.bks.cpg/sg9_13_cif.got.tgz:24018.got - 2010.06.03 20:04:27.
