data_PCOD9135213
_publ_section_title
;
Structure prediction by ZEFSAII (Michael W. Deem and Ramdas Pophale) SiO2 
 PCOD9135213
Probable space group: C C
;
_chemical_formula_sum "Si O2"
_cell_formula_units_Z 32
_cell_length_a 11.125588
_cell_length_b 20.350449
_cell_length_c 11.373684
_cell_angle_alpha 90.000000
_cell_angle_beta 28.881623
_cell_angle_gamma 90.000000
_cell_volume 1243.788860
_symmetry_space_group_name_H-M "C C"
_symmetry_group_IT_number 9
_symmetry_cell_setting 'monoclinic'
loop_
_space_group_symop_operation_xyz
x,y,z
x,-y,1/2+z
1/2+x,1/2+y,z
1/2+x,1/2-y,1/2+z
loop_
_atom_site_type_symbol
_atom_site_label
_atom_site_fract_x
_atom_site_fract_y
_atom_site_fract_z
Si Si1 0.983530 0.049816 0.461030
Si Si2 0.445407 0.244051 0.884433
Si Si3 0.425026 0.102707 0.206101
Si Si4 0.674851 0.975542 0.891040
Si Si5 0.535722 0.104258 0.718877
Si Si6 0.281485 0.288137 0.783904
Si Si7 0.263624 0.979448 0.040757
Si Si8 0.713836 0.210012 0.089131
O O1 0.745357 0.093247 0.638209
O O2 0.217000 0.097514 0.282686
O O3 0.928826 0.999328 0.613481
O O4 0.022786 0.001948 0.317215
O O5 0.736398 0.249903 0.662208
O O6 0.413207 0.173332 0.849808
O O7 0.380464 0.295390 0.834771
O O8 0.266794 0.084377 0.458108
O O9 0.599258 0.162988 0.087115
O O10 0.592421 0.039384 0.035444
O O11 0.473114 0.968618 0.960711
O O12 0.652297 0.911578 0.991132
O O13 0.343862 0.045297 0.903634
O O14 0.501710 0.238445 0.548461
O O15 0.257664 0.327039 0.678974
O O16 0.479319 0.259575 0.318858
#
# Coordination Sequence:
#
# PCOD9135213 Si02
#       8
#     4   4   4   4   4   4   4   4
#     4  10  20  38  62  92 122 162 208 270 316 382
#     4  10  22  39  61  90 126 168 208 258 313 377
#     4  10  21  38  64  88 129 163 211 261 323 379
#     4   9  20  38  62  94 121 160 210 266 324 379
#     4  10  21  38  64  88 129 163 211 261 323 379
#     4   8  16  34  56  80 118 156 192 248 300 358
#     4   9  20  38  62  94 121 160 210 266 324 379
#     4  10  22  39  61  90 126 168 208 258 313 377
#
# _framework density 25.72784
#
# number of rings (size 3 to 8) (size 9 to 14) (size 15 to 20)
#    0.000    2.500    0.000    0.750    3.500    3.000 
#    0.000    1.250   13.750    0.000    0.000    0.000 
#    0.000    0.000    0.000    0.000    0.000    0.000 
#
# Total GULP energy -89237.552446 kJ/mol
# GULP energy per Si atom -5577.347028 kJ/mol
# Density = 2.566928 g / cm^3
# Si number density = 25.727840 Si / 1000 Ang^3
#
#
#
# Elastic Constant Matrix: (Units=GPa)
#
#
# Indices 1 2 3 4 5 6 
#
# 1 75.0348 6.2164 6.6322 -0.0519 -18.5930 0.0473
# 2 6.2164 61.7910 22.4239 -0.0355 -2.4155 0.0285
# 3 6.6322 22.4239 104.8747 -0.0390 -7.9411 0.0318
# 4 -0.0519 -0.0355 -0.0390 22.4213 0.0336 -6.1248
# 5 -18.5930 -2.4155 -7.9411 0.0336 37.3511 -0.0320
# 6 0.0473 0.0285 0.0318 -6.1248 -0.0320 23.0512
#
#
#
# Elastic Compliance Matrix: (Units=1/GPa)
#
#
# Indices 1 2 3 4 5 6 
#
# 1 0.015299 -0.001193 -0.000144 0.000018 0.007508 -0.000014
# 2 -0.001193 0.017642 -0.003715 0.000016 -0.000243 -0.000010
# 3 -0.000144 -0.003715 0.010484 0.000008 0.001917 -0.000005
# 4 0.000018 0.000016 0.000008 0.048091 -0.000021 0.012778
# 5 0.007508 -0.000243 0.001917 -0.000021 0.030902 0.000020
# 6 -0.000014 -0.000010 -0.000005 0.012778 0.000020 0.046777
#
#
# Mechanical properties :
#
#
# Convention : Reuss Voigt Hill
#
# Bulk Modulus (GPa) = 30.01150 34.69395 32.35272
# Shear Modulus (GPa) = 26.25951 30.32660 28.29305
#
# Velocity S-wave (km/s) = 3.19825 3.43701 3.31978
# Velocity P-wave (km/s) = 5.03277 5.40971 5.22464
#
# Compressibility (1/GPa) = 0.03332056
#
# Stress axis : x y z
#
# Youngs Moduli (GPa) = 65.36302 56.68166 95.38519
#
# Poissons Ratio (x) = 0.06765 0.01372
# Poissons Ratio (y) = 0.07801 0.35437
# Poissons Ratio (z) = 0.00940 0.21058
#
# Static dielectric constant tensor:
#      x y z
#    x 2.135430 0.000000 0.047340 
#    y 0.000000 2.089500 0.000060 
#    z 0.047340 0.000060 2.114160 
# 
# From -- ./inp_files/1876.got.cif
#   From: 2010.05.17/outbox.cif.g08.bks.cpg/sg9_1_cif.got.tgz:1876.got - 2010.06.03 20:04:27.
