data_PCOD9135871
_publ_section_title
;
Structure prediction by ZEFSAII (Michael W. Deem and Ramdas Pophale) SiO2 
 PCOD9135871
Probable space group: C C
;
_chemical_formula_sum "Si O2"
_cell_formula_units_Z 24
_cell_length_a 17.691501
_cell_length_b 8.670093
_cell_length_c 8.249768
_cell_angle_alpha 90.000000
_cell_angle_beta 123.593898
_cell_angle_gamma 90.000000
_cell_volume 1054.058796
_symmetry_space_group_name_H-M "C C"
_symmetry_group_IT_number 9
_symmetry_cell_setting 'monoclinic'
loop_
_space_group_symop_operation_xyz
x,y,z
x,-y,1/2+z
1/2+x,1/2+y,z
1/2+x,1/2-y,1/2+z
loop_
_atom_site_type_symbol
_atom_site_label
_atom_site_fract_x
_atom_site_fract_y
_atom_site_fract_z
Si Si1 0.505920 0.732585 0.196750
Si Si2 0.891975 0.496742 0.169751
Si Si3 0.149123 0.411800 0.546770
Si Si4 0.575117 0.833475 0.796355
Si Si5 0.993366 0.927707 0.031476
Si Si6 0.823125 0.726890 0.871787
O O1 0.424782 0.855692 0.091585
O O2 0.504343 0.609324 0.053809
O O3 0.496466 0.633743 0.351938
O O4 0.398097 0.639528 0.483791
O O5 0.861547 0.398389 0.288310
O O6 0.983810 0.601710 0.273626
O O7 0.815748 0.616216 0.019078
O O8 0.083288 0.403680 0.624196
O O9 0.156047 0.588210 0.494384
O O10 0.098916 0.323294 0.340351
O O11 0.236099 0.315690 0.702812
O O12 0.566725 0.655664 0.736445
#
# Coordination Sequence:
#
# PCOD9135871 Si02
#       6
#     4   4   4   4   4   4
#     4   9  19  34  53  78 108 145 188 227 276 344
#     4   9  19  38  58  78 112 157 193 229 287 357
#     4  10  21  36  56  84 112 144 191 242 287 333
#     4   9  19  38  58  78 112 157 193 229 287 357
#     4   9  19  34  53  78 108 145 188 227 276 344
#     4  10  21  36  56  84 112 144 191 242 287 333
#
# _framework density 22.769129
#
# number of rings (size 3 to 8) (size 9 to 14) (size 15 to 20)
#    0.000    2.667    0.000    3.000    0.000   10.667 
#    0.000    3.333    0.000    0.000    0.000    0.000 
#    0.000    0.000    0.000    0.000    0.000    0.000 
#
# Total GULP energy -66828.024365 kJ/mol
# GULP energy per Si atom -5569.002030 kJ/mol
# Density = 2.271731 g / cm^3
# Si number density = 22.769129 Si / 1000 Ang^3
#
#
#
# Elastic Constant Matrix: (Units=GPa)
#
#
# Indices 1 2 3 4 5 6 
#
# 1 35.5017 10.4679 18.9192 0.0000 5.6112 0.0000
# 2 10.4679 92.7107 41.7724 0.0000 16.4548 0.0000
# 3 18.9192 41.7724 63.2608 0.0000 19.6162 0.0000
# 4 0.0000 0.0000 0.0000 63.2938 0.0000 1.2174
# 5 5.6112 16.4548 19.6162 0.0000 30.0297 0.0000
# 6 0.0000 0.0000 0.0000 1.2174 0.0000 27.4771
#
#
#
# Elastic Compliance Matrix: (Units=1/GPa)
#
#
# Indices 1 2 3 4 5 6 
#
# 1 0.033580 0.001033 -0.010789 0.000000 0.000207 0.000000
# 2 0.001033 0.015508 -0.009849 0.000000 -0.002257 0.000000
# 3 -0.010789 -0.009849 0.029142 0.000000 -0.011623 0.000000
# 4 0.000000 0.000000 0.000000 0.015813 0.000000 -0.000701
# 5 0.000207 -0.002257 -0.011623 0.000000 0.042091 0.000000
# 6 0.000000 0.000000 0.000000 -0.000701 0.000000 0.036425
#
#
# Mechanical properties :
#
#
# Convention : Reuss Voigt Hill
#
# Bulk Modulus (GPa) = 25.62827 37.08802 31.35814
# Shear Modulus (GPa) = 22.24439 32.18103 27.21271
#
# Velocity S-wave (km/s) = 3.12902 3.76355 3.46086
# Velocity P-wave (km/s) = 4.93300 5.93379 5.45639
#
# Compressibility (1/GPa) = 0.03901941
#
# Stress axis : x y z
#
# Youngs Moduli (GPa) = 29.77974 64.48302 34.31458
#
# Poissons Ratio (x) = -0.06660 0.37021
# Poissons Ratio (y) = -0.03076 0.33798
# Poissons Ratio (z) = 0.32129 0.63512
#
# Static dielectric constant tensor:
#      x y z
#    x 1.892600 0.000000 -0.012860 
#    y 0.000000 1.880870 0.000000 
#    z -0.012860 0.000000 1.914530 
# 
# From -- ./inp_files/12037.got.cif
#   From: 2010.05.17/outbox.cif.g08.bks.cpg/sg9_7_cif.got.tgz:12037.got - 2010.06.03 20:04:27.
