data_PCOD9135040
_publ_section_title
;
Structure prediction by ZEFSAII (Michael W. Deem and Ramdas Pophale) SiO2 
 PCOD9135040
Probable space group: C C
;
_chemical_formula_sum "Si O2"
_cell_formula_units_Z 28
_cell_length_a 5.097929
_cell_length_b 18.591178
_cell_length_c 16.589697
_cell_angle_alpha 90.000000
_cell_angle_beta 105.118035
_cell_angle_gamma 90.000000
_cell_volume 1517.896656
_symmetry_space_group_name_H-M "C C"
_symmetry_group_IT_number 9
_symmetry_cell_setting 'monoclinic'
loop_
_space_group_symop_operation_xyz
x,y,z
x,-y,1/2+z
1/2+x,1/2+y,z
1/2+x,1/2-y,1/2+z
loop_
_atom_site_type_symbol
_atom_site_label
_atom_site_fract_x
_atom_site_fract_y
_atom_site_fract_z
Si Si1 0.426920 0.227485 0.424820
Si Si2 0.436002 0.275478 0.158096
Si Si3 0.874303 0.649594 0.586163
Si Si4 0.325613 0.014453 0.129220
Si Si5 0.833530 0.787789 0.815282
Si Si6 0.600025 0.650210 0.057520
Si Si7 0.880772 0.911921 0.689073
O O1 0.395569 0.169426 0.493902
O O2 0.658545 0.201543 0.382050
O O3 0.514538 0.301434 0.476147
O O4 0.135919 0.238602 0.359586
O O5 0.164093 0.323661 0.146529
O O6 0.641380 0.265914 0.248683
O O7 0.318323 0.197393 0.124978
O O8 0.622961 0.305877 0.102041
O O9 0.812649 0.567205 0.601340
O O10 0.217783 0.070770 0.052518
O O11 0.631134 0.034971 0.172613
O O12 0.145416 0.039639 0.191405
O O13 0.879164 0.858749 0.764323
O O14 0.366936 0.636259 0.105772
#
# Coordination Sequence:
#
# PCOD9135040 Si02
#       7
#     4   4   4   4   4   4   4
#     4  11  23  33  62  89 128 147 204 253 311 341
#     4  11  21  38  64  87 121 148 213 246 295 346
#     4  11  23  40  62  97 115 158 205 260 283 357
#     4  10  21  37  67  83 117 152 209 242 295 346
#     4  12  21  37  59  93 120 160 193 257 308 351
#     4   9  21  37  64  88 108 161 206 246 278 368
#     4  10  20  36  64  85 113 162 206 238 280 379
#
# _framework density 18.446580000000001
#
# number of rings (size 3 to 8) (size 9 to 14) (size 15 to 20)
#    0.857    0.571    1.429    6.857    2.000    0.000 
#    0.000    0.000   12.571    0.000    0.000    0.000 
#    0.000    0.000    0.000    0.000    0.000    0.000 
#
# Total GULP energy -78010.664770 kJ/mol
# GULP energy per Si atom -5572.190341 kJ/mol
# Density = 1.840459 g / cm^3
# Si number density = 18.446580 Si / 1000 Ang^3
#
#
#
# Elastic Constant Matrix: (Units=GPa)
#
#
# Indices 1 2 3 4 5 6 
#
# 1 117.5367 16.5756 6.7767 0.0000 -10.8432 0.0000
# 2 16.5756 83.3715 7.2471 0.0000 -8.3101 0.0000
# 3 6.7767 7.2471 45.4138 0.0000 -1.5256 0.0000
# 4 0.0000 0.0000 0.0000 7.8088 0.0000 4.2324
# 5 -10.8432 -8.3101 -1.5256 0.0000 42.6159 0.0000
# 6 0.0000 0.0000 0.0000 4.2324 0.0000 20.5372
#
#
#
# Elastic Compliance Matrix: (Units=1/GPa)
#
#
# Indices 1 2 3 4 5 6 
#
# 1 0.008959 -0.001497 -0.001032 0.000000 0.001951 0.000000
# 2 -0.001497 0.012644 -0.001726 0.000000 0.002023 0.000000
# 3 -0.001032 -0.001726 0.022456 0.000000 0.000205 0.000000
# 4 0.000000 0.000000 0.000000 0.144164 0.000000 -0.029710
# 5 0.001951 0.002023 0.000205 0.000000 0.024363 0.000000
# 6 0.000000 0.000000 0.000000 -0.029710 0.000000 0.054815
#
#
# Mechanical properties :
#
#
# Convention : Reuss Voigt Hill
#
# Bulk Modulus (GPa) = 28.13169 34.16899 31.15034
# Shear Modulus (GPa) = 17.37552 28.57389 22.97471
#
# Velocity S-wave (km/s) = 3.07243 3.94001 3.53295
# Velocity P-wave (km/s) = 5.27919 6.26592 5.79360
#
# Compressibility (1/GPa) = 0.03554710
#
# Stress axis : x y z
#
# Youngs Moduli (GPa) = 111.62507 79.09001 44.53125
#
# Poissons Ratio (x) = 0.11839 0.04597
# Poissons Ratio (y) = 0.16710 0.07688
# Poissons Ratio (z) = 0.11524 0.13654
#
# Static dielectric constant tensor:
#      x y z
#    x 1.659130 0.000000 -0.000240 
#    y 0.000000 1.626220 0.000000 
#    z -0.000240 0.000000 1.654460 
# 
# From -- ./inp_files/21993.got.cif
#   From: 2010.05.17/outbox.cif.g08.bks.cpg/sg9_11_cif.got.tgz:21993.got - 2010.06.03 20:04:27.
