data_PCOD9135015
_publ_section_title
;
Structure prediction by ZEFSAII (Michael W. Deem and Ramdas Pophale) SiO2 
 PCOD9135015
Probable space group: C C
;
_chemical_formula_sum "Si O2"
_cell_formula_units_Z 32
_cell_length_a 10.735954
_cell_length_b 8.571072
_cell_length_c 15.175087
_cell_angle_alpha 90.000000
_cell_angle_beta 100.264725
_cell_angle_gamma 90.000000
_cell_volume 1374.041460
_symmetry_space_group_name_H-M "C C"
_symmetry_group_IT_number 9
_symmetry_cell_setting 'monoclinic'
loop_
_space_group_symop_operation_xyz
x,y,z
x,-y,1/2+z
1/2+x,1/2+y,z
1/2+x,1/2-y,1/2+z
loop_
_atom_site_type_symbol
_atom_site_label
_atom_site_fract_x
_atom_site_fract_y
_atom_site_fract_z
Si Si1 0.853990 0.335996 0.506180
Si Si2 0.591456 0.994209 0.464929
Si Si3 0.452723 0.347191 0.653839
Si Si4 0.355321 0.528995 0.957996
Si Si5 0.187773 0.054731 0.727520
Si Si6 0.592903 0.651143 0.905105
Si Si7 0.446224 0.984919 0.696548
Si Si8 0.689569 0.888713 0.667405
O O1 0.849153 0.152740 0.484600
O O2 0.712509 0.403696 0.479414
O O3 0.901689 0.375619 0.609938
O O4 0.957879 0.407167 0.452792
O O5 0.709139 0.924003 0.424102
O O6 0.569775 0.170642 0.431587
O O7 0.644790 0.976030 0.572559
O O8 0.408278 0.377993 0.548917
O O9 0.585144 0.427804 0.688174
O O10 0.458432 0.164293 0.670194
O O11 0.338165 0.418319 0.698454
O O12 0.462522 0.558614 0.899719
O O13 0.147622 0.127852 0.814965
O O14 0.329089 0.984585 0.748402
O O15 0.182145 0.200195 0.658242
O O16 0.590384 0.934348 0.730623
#
# Coordination Sequence:
#
# PCOD9135015 Si02
#       8
#     4   4   4   4   4   4   4   4
#     4  10  21  38  62  88 115 153 202 248 291 348
#     4   9  20  39  63  89 116 155 205 249 290 345
#     4  10  20  36  61  89 117 153 200 248 293 350
#     4  10  20  36  61  89 117 153 200 248 293 350
#     4  11  24  39  58  90 128 159 192 243 304 359
#     4  11  24  39  58  90 128 159 192 243 304 359
#     4  10  21  38  62  88 115 153 202 248 291 348
#     4   9  20  39  63  89 116 155 205 249 290 345
#
# _framework density 23.288964
#
# number of rings (size 3 to 8) (size 9 to 14) (size 15 to 20)
#    0.000    2.000    0.000    3.750    0.000   13.000 
#    0.000    0.000    0.000    0.000    0.000    0.000 
#    0.000    0.000    0.000    0.000    0.000    0.000 
#
# Total GULP energy -89354.986875 kJ/mol
# GULP energy per Si atom -5584.686680 kJ/mol
# Density = 2.323596 g / cm^3
# Si number density = 23.288964 Si / 1000 Ang^3
#
#
#
# Elastic Constant Matrix: (Units=GPa)
#
#
# Indices 1 2 3 4 5 6 
#
# 1 157.8521 23.7512 22.4749 0.0000 -53.8878 0.0000
# 2 23.7512 46.1416 2.6177 0.0000 -16.0241 0.0000
# 3 22.4749 2.6177 43.9084 0.0000 -10.5979 0.0000
# 4 0.0000 0.0000 0.0000 9.5453 0.0000 -7.4134
# 5 -53.8878 -16.0241 -10.5979 0.0000 30.6197 0.0000
# 6 0.0000 0.0000 0.0000 -7.4134 0.0000 38.0514
#
#
#
# Elastic Compliance Matrix: (Units=1/GPa)
#
#
# Indices 1 2 3 4 5 6 
#
# 1 0.016080 0.001787 -0.001398 0.000000 0.028751 0.000000
# 2 0.001787 0.026835 0.001783 0.000000 0.017805 0.000000
# 3 -0.001398 0.001783 0.025113 0.000000 0.007165 0.000000
# 4 0.000000 0.000000 0.000000 0.123442 0.000000 0.024050
# 5 0.028751 0.017805 0.007165 0.000000 0.095056 0.000000
# 6 0.000000 0.000000 0.000000 0.024050 0.000000 0.030966
#
#
# Mechanical properties :
#
#
# Convention : Reuss Voigt Hill
#
# Bulk Modulus (GPa) = 13.81743 38.39886 26.10814
# Shear Modulus (GPa) = 14.82483 28.91383 21.86933
#
# Velocity S-wave (km/s) = 2.52575 3.52735 3.06770
# Velocity P-wave (km/s) = 3.80155 5.75442 4.87674
#
# Compressibility (1/GPa) = 0.07237238
#
# Stress axis : x y z
#
# Youngs Moduli (GPa) = 62.18773 37.26492 39.81951
#
# Poissons Ratio (x) = -0.06658 0.05566
# Poissons Ratio (y) = -0.11111 -0.07100
# Poissons Ratio (z) = 0.08693 -0.06645
#
# Static dielectric constant tensor:
#      x y z
#    x 1.950720 0.000000 -0.038980 
#    y 0.000000 1.826880 0.000000 
#    z -0.038980 0.000000 1.927530 
# 
# From -- ./inp_files/24236.got.cif
#   From: 2010.05.17/outbox.cif.g08.bks.cpg/sg9_13_cif.got.tgz:24236.got - 2010.06.03 20:04:27.
