data_PCOD9135245
_publ_section_title
;
Structure prediction by ZEFSAII (Michael W. Deem and Ramdas Pophale) SiO2 
 PCOD9135245
Probable space group: C C
;
_chemical_formula_sum "Si O2"
_cell_formula_units_Z 28
_cell_length_a 10.695462
_cell_length_b 13.977530
_cell_length_c 8.432868
_cell_angle_alpha 90.000000
_cell_angle_beta 61.096003
_cell_angle_gamma 90.000000
_cell_volume 1103.639185
_symmetry_space_group_name_H-M "C C"
_symmetry_group_IT_number 9
_symmetry_cell_setting 'monoclinic'
loop_
_space_group_symop_operation_xyz
x,y,z
x,-y,1/2+z
1/2+x,1/2+y,z
1/2+x,1/2-y,1/2+z
loop_
_atom_site_type_symbol
_atom_site_label
_atom_site_fract_x
_atom_site_fract_y
_atom_site_fract_z
Si Si1 0.653190 0.484275 0.460530
Si Si2 0.431112 0.797729 0.003098
Si Si3 0.889366 0.033670 0.942299
Si Si4 0.102123 0.806944 0.111742
Si Si5 0.985155 0.515218 0.300775
Si Si6 0.431688 0.636386 0.230023
Si Si7 0.139289 0.379314 0.417935
O O1 0.562419 0.455950 0.359802
O O2 0.589979 0.588246 0.542301
O O3 0.822047 0.488535 0.359305
O O4 0.593470 0.403106 0.614832
O O5 0.506461 0.735550 0.815689
O O6 0.484864 0.905251 0.942477
O O7 0.263634 0.801453 0.074344
O O8 0.441059 0.745040 0.167096
O O9 0.867500 0.920739 0.918470
O O10 0.847309 0.082899 0.134717
O O11 0.801947 0.091705 0.862421
O O12 0.101244 0.731090 0.966507
O O13 0.079127 0.426107 0.296942
O O14 0.052816 0.568799 0.111786
#
# Coordination Sequence:
#
# PCOD9135245 Si02
#       7
#     4   4   4   4   4   4   4
#     4   9  22  37  62  89 120 162 210 242 310 367
#     4  10  21  38  63  86 123 169 206 245 311 382
#     4  10  21  35  66  86 119 157 212 255 291 367
#     4  10  20  39  62  89 123 172 202 250 310 385
#     4  10  24  39  61  89 128 162 198 258 322 364
#     4  10  20  38  65  89 118 158 217 247 301 361
#     4  11  22  40  61  92 123 162 207 257 313 360
#
# _framework density 25.370608000000001
#
# number of rings (size 3 to 8) (size 9 to 14) (size 15 to 20)
#    0.857    1.143    1.429    1.714    4.000    1.143 
#    2.571    1.429    0.000    0.000    0.000    0.000 
#    0.000    0.000    0.000    0.000    0.000    0.000 
#
# Total GULP energy -78053.562453 kJ/mol
# GULP energy per Si atom -5575.254461 kJ/mol
# Density = 2.531286 g / cm^3
# Si number density = 25.370608 Si / 1000 Ang^3
#
#
#
# Elastic Constant Matrix: (Units=GPa)
#
#
# Indices 1 2 3 4 5 6 
#
# 1 129.4289 32.8336 30.6010 0.0000 -17.0150 0.0000
# 2 32.8336 116.9198 16.0194 0.0000 1.1633 0.0000
# 3 30.6010 16.0194 57.5663 0.0000 -9.8301 0.0000
# 4 0.0000 0.0000 0.0000 38.9798 0.0000 6.6791
# 5 -17.0150 1.1633 -9.8301 0.0000 32.7873 0.0000
# 6 0.0000 0.0000 0.0000 6.6791 0.0000 33.7306
#
#
#
# Elastic Compliance Matrix: (Units=1/GPa)
#
#
# Indices 1 2 3 4 5 6 
#
# 1 0.009732 -0.002242 -0.003872 0.000000 0.003969 0.000000
# 2 -0.002242 0.009447 -0.001784 0.000000 -0.002034 0.000000
# 3 -0.003872 -0.001784 0.020651 0.000000 0.004246 0.000000
# 4 0.000000 0.000000 0.000000 0.026555 0.000000 -0.005258
# 5 0.003969 -0.002034 0.004246 0.000000 0.033905 0.000000
# 6 0.000000 0.000000 0.000000 -0.005258 0.000000 0.030688
#
#
# Mechanical properties :
#
#
# Convention : Reuss Voigt Hill
#
# Bulk Modulus (GPa) = 41.60768 51.42477 46.51623
# Shear Modulus (GPa) = 32.30271 36.06359 34.18315
#
# Velocity S-wave (km/s) = 3.57211 3.77433 3.67461
# Velocity P-wave (km/s) = 5.78350 6.26957 6.03143
#
# Compressibility (1/GPa) = 0.02403402
#
# Stress axis : x y z
#
# Youngs Moduli (GPa) = 102.75148 105.85145 48.42397
#
# Poissons Ratio (x) = 0.23732 0.18748
# Poissons Ratio (y) = 0.23037 0.08641
# Poissons Ratio (z) = 0.39783 0.18888
#
# Static dielectric constant tensor:
#      x y z
#    x 1.987730 0.000000 -0.010190 
#    y 0.000000 2.075860 0.000000 
#    z -0.010190 0.000000 2.117200 
# 
# From -- ./inp_files/7358.got.cif
#   From: 2010.05.17/outbox.cif.g08.bks.cpg/sg9_4_cif.got.tgz:7358.got - 2010.06.03 20:04:27.
