data_PCOD9135879
_publ_section_title
;
Structure prediction by ZEFSAII (Michael W. Deem and Ramdas Pophale) SiO2 
 PCOD9135879
Probable space group: C C
;
_chemical_formula_sum "Si O2"
_cell_formula_units_Z 28
_cell_length_a 8.063315
_cell_length_b 20.254952
_cell_length_c 8.494142
_cell_angle_alpha 90.000000
_cell_angle_beta 109.010355
_cell_angle_gamma 90.000000
_cell_volume 1311.618075
_symmetry_space_group_name_H-M "C C"
_symmetry_group_IT_number 9
_symmetry_cell_setting 'monoclinic'
loop_
_space_group_symop_operation_xyz
x,y,z
x,-y,1/2+z
1/2+x,1/2+y,z
1/2+x,1/2-y,1/2+z
loop_
_atom_site_type_symbol
_atom_site_label
_atom_site_fract_x
_atom_site_fract_y
_atom_site_fract_z
Si Si1 0.620550 0.737806 0.625000
Si Si2 0.991496 0.399960 0.923228
Si Si3 0.384404 0.752860 0.924804
Si Si4 0.640749 0.437042 0.398025
Si Si5 0.350788 0.018552 0.673648
Si Si6 0.751365 0.704614 0.006251
Si Si7 0.867622 0.137249 0.651404
O O1 0.744713 0.754823 0.519946
O O2 0.728402 0.731188 0.819591
O O3 0.457995 0.787565 0.596996
O O4 0.516781 0.667898 0.582952
O O5 0.194415 0.379394 0.002906
O O6 0.882122 0.331061 0.878361
O O7 0.949546 0.436562 0.077078
O O8 0.950734 0.453637 0.773726
O O9 0.586591 0.740651 0.040510
O O10 0.352658 0.695652 0.781665
O O11 0.674734 0.495344 0.528432
O O12 0.785737 0.443545 0.306493
O O13 0.691804 0.369998 0.499003
O O14 0.450991 0.425531 0.264867
#
# Coordination Sequence:
#
# PCOD9135879 Si02
#       7
#     4   4   4   4   4   4   4
#     4  10  21  36  59  93 124 162 191 260 338 372
#     4  11  22  42  62  93 129 164 229 253 323 387
#     4  10  22  37  65  93 126 160 204 267 335 371
#     4   9  21  40  60  87 125 165 219 255 320 380
#     4  10  23  39  66  86 123 187 204 271 309 380
#     4  10  22  37  60  94 126 156 207 264 323 388
#     4  10  23  39  66  94 127 164 212 282 312 392
#
# _framework density 21.347677999999998
#
# number of rings (size 3 to 8) (size 9 to 14) (size 15 to 20)
#    0.000    2.286    1.429    1.714    8.000    1.143 
#    0.000    0.000    0.000    0.000    0.000    0.000 
#    0.000    0.000    0.000    0.000    0.000    0.000 
#
# Total GULP energy -77959.785655 kJ/mol
# GULP energy per Si atom -5568.556118 kJ/mol
# Density = 2.129909 g / cm^3
# Si number density = 21.347678 Si / 1000 Ang^3
#
#
#
# Elastic Constant Matrix: (Units=GPa)
#
#
# Indices 1 2 3 4 5 6 
#
# 1 92.3459 25.4402 38.5867 0.0000 -15.6328 0.0000
# 2 25.4402 63.2182 -0.1033 0.0000 -6.4391 0.0000
# 3 38.5867 -0.1033 48.8248 0.0000 -8.5324 0.0000
# 4 0.0000 0.0000 0.0000 21.8264 0.0000 -0.1376
# 5 -15.6328 -6.4391 -8.5324 0.0000 37.8068 0.0000
# 6 0.0000 0.0000 0.0000 -0.1376 0.0000 26.6149
#
#
#
# Elastic Compliance Matrix: (Units=1/GPa)
#
#
# Indices 1 2 3 4 5 6 
#
# 1 0.019826 -0.007647 -0.015074 0.000000 0.003493 0.000000
# 2 -0.007647 0.019060 0.006349 0.000000 0.001517 0.000000
# 3 -0.015074 0.006349 0.032801 0.000000 0.002251 0.000000
# 4 0.000000 0.000000 0.000000 0.045818 0.000000 0.000237
# 5 0.003493 0.001517 0.002251 0.000000 0.028661 0.000000
# 6 0.000000 0.000000 0.000000 0.000237 0.000000 0.037574
#
#
# Mechanical properties :
#
#
# Convention : Reuss Voigt Hill
#
# Bulk Modulus (GPa) = 25.67840 36.91510 31.29675
# Shear Modulus (GPa) = 21.78978 26.61397 24.20187
#
# Velocity S-wave (km/s) = 3.19832 3.53468 3.37070
# Velocity P-wave (km/s) = 5.06890 5.82997 5.46270
#
# Compressibility (1/GPa) = 0.03894323
#
# Stress axis : x y z
#
# Youngs Moduli (GPa) = 50.43993 52.46464 30.48657
#
# Poissons Ratio (x) = 0.40120 0.45955
# Poissons Ratio (y) = 0.38571 -0.19356
# Poissons Ratio (z) = 0.76033 -0.33310
#
# Static dielectric constant tensor:
#      x y z
#    x 1.747480 0.000000 0.041440 
#    y 0.000000 1.851170 0.000000 
#    z 0.041440 0.000000 1.864020 
# 
# From -- ./inp_files/5508.got.cif
#   From: 2010.05.17/outbox.cif.g08.bks.cpg/sg9_3_cif.got.tgz:5508.got - 2010.06.03 20:04:27.
