data_PCOD9135185
_publ_section_title
;
Structure prediction by ZEFSAII (Michael W. Deem and Ramdas Pophale) SiO2 
 PCOD9135185
Probable space group: C C
;
_chemical_formula_sum "Si O2"
_cell_formula_units_Z 32
_cell_length_a 16.157421
_cell_length_b 10.009004
_cell_length_c 9.154944
_cell_angle_alpha 90.000000
_cell_angle_beta 59.743300
_cell_angle_gamma 90.000000
_cell_volume 1278.851230
_symmetry_space_group_name_H-M "C C"
_symmetry_group_IT_number 9
_symmetry_cell_setting 'monoclinic'
loop_
_space_group_symop_operation_xyz
x,y,z
x,-y,1/2+z
1/2+x,1/2+y,z
1/2+x,1/2-y,1/2+z
loop_
_atom_site_type_symbol
_atom_site_label
_atom_site_fract_x
_atom_site_fract_y
_atom_site_fract_z
Si Si1 0.318460 0.953976 0.059020
Si Si2 0.926214 0.390324 0.247464
Si Si3 0.552634 0.781125 0.900864
Si Si4 0.167635 0.222112 0.541304
Si Si5 0.672464 0.704829 0.206753
Si Si6 0.381953 0.589589 0.053962
Si Si7 0.558124 0.446120 0.594886
Si Si8 0.809367 0.869747 0.902408
O O1 0.345003 0.927117 0.201565
O O2 0.266643 0.832346 0.021488
O O3 0.246507 0.080444 0.129317
O O4 0.413296 0.004313 0.887756
O O5 0.890935 0.246552 0.337535
O O6 0.021016 0.375465 0.063753
O O7 0.612541 0.815897 0.705094
O O8 0.448825 0.714657 0.948192
O O9 0.604953 0.652356 0.931139
O O10 0.173512 0.264854 0.368262
O O11 0.105660 0.086567 0.580593
O O12 0.575574 0.638531 0.228455
O O13 0.715320 0.816226 0.063546
O O14 0.457194 0.525654 0.105129
O O15 0.295069 0.614942 0.242247
O O16 0.347247 0.497514 0.956060
#
# Coordination Sequence:
#
# PCOD9135185 Si02
#       8
#     4   4   4   4   4   4   4   4
#     4  10  20  38  59  89 123 160 210 256 318 374
#     4  10  21  39  59  92 123 165 202 263 311 378
#     4   9  21  34  58  91 120 159 199 260 314 364
#     4  11  19  33  58  92 123 151 207 268 313 358
#     4  10  21  35  59  94 119 163 198 267 313 369
#     4   9  20  39  57  90 119 163 196 259 304 381
#     4   9  19  35  60  88 121 154 202 260 318 351
#     4  10  21  39  60  90 126 157 208 251 323 367
#
# _framework density 25.022458
#
# number of rings (size 3 to 8) (size 9 to 14) (size 15 to 20)
#    0.750    1.500    1.250    2.250    5.250    0.000 
#    6.750    1.250    0.000    4.500    0.000    0.000 
#    0.000    0.000    0.000    0.000    0.000    0.000 
#
# Total GULP energy -89258.068505 kJ/mol
# GULP energy per Si atom -5578.629282 kJ/mol
# Density = 2.496551 g / cm^3
# Si number density = 25.022458 Si / 1000 Ang^3
#
#
#
# Elastic Constant Matrix: (Units=GPa)
#
#
# Indices 1 2 3 4 5 6 
#
# 1 70.1714 8.7007 14.2705 0.0000 2.7445 0.0000
# 2 8.7007 48.2694 29.4324 0.0000 1.1838 0.0000
# 3 14.2705 29.4324 193.5467 0.0000 -4.9623 0.0000
# 4 0.0000 0.0000 0.0000 39.5516 0.0000 11.8964
# 5 2.7445 1.1838 -4.9623 0.0000 23.6396 0.0000
# 6 0.0000 0.0000 0.0000 11.8964 0.0000 25.9300
#
#
#
# Elastic Compliance Matrix: (Units=1/GPa)
#
#
# Indices 1 2 3 4 5 6 
#
# 1 0.014748 -0.002121 -0.000810 0.000000 -0.001776 0.000000
# 2 -0.002121 0.023223 -0.003417 0.000000 -0.001634 0.000000
# 3 -0.000810 -0.003417 0.005784 0.000000 0.001479 0.000000
# 4 0.000000 0.000000 0.000000 0.029331 0.000000 -0.013457
# 5 -0.001776 -0.001634 0.001479 0.000000 0.042901 0.000000
# 6 0.000000 0.000000 0.000000 -0.013457 0.000000 0.044739
#
#
# Mechanical properties :
#
#
# Convention : Reuss Voigt Hill
#
# Bulk Modulus (GPa) = 32.19701 46.31051 39.25376
# Shear Modulus (GPa) = 27.20722 35.12983 31.16852
#
# Velocity S-wave (km/s) = 3.30102 3.75097 3.53317
# Velocity P-wave (km/s) = 5.23681 6.10799 5.68910
#
# Compressibility (1/GPa) = 0.03105879
#
# Stress axis : x y z
#
# Youngs Moduli (GPa) = 67.80561 43.06085 172.89015
#
# Poissons Ratio (x) = 0.09132 0.14012
# Poissons Ratio (y) = 0.14379 0.59077
# Poissons Ratio (z) = 0.05495 0.14714
#
# Static dielectric constant tensor:
#      x y z
#    x 2.015540 0.000000 -0.077060 
#    y 0.000000 2.010890 0.000000 
#    z -0.077060 0.000000 2.034780 
# 
# From -- ./inp_files/11574.got.cif
#   From: 2010.05.17/outbox.cif.g08.bks.cpg/sg9_6_cif.got.tgz:11574.got - 2010.06.03 20:04:27.
