data_PCOD9135232
_publ_section_title
;
Structure prediction by ZEFSAII (Michael W. Deem and Ramdas Pophale) SiO2 
 PCOD9135232
Probable space group: C C
;
_chemical_formula_sum "Si O2"
_cell_formula_units_Z 32
_cell_length_a 10.640354
_cell_length_b 8.434705
_cell_length_c 15.409959
_cell_angle_alpha 90.000000
_cell_angle_beta 70.649756
_cell_angle_gamma 90.000000
_cell_volume 1304.891230
_symmetry_space_group_name_H-M "C C"
_symmetry_group_IT_number 9
_symmetry_cell_setting 'monoclinic'
loop_
_space_group_symop_operation_xyz
x,y,z
x,-y,1/2+z
1/2+x,1/2+y,z
1/2+x,1/2-y,1/2+z
loop_
_atom_site_type_symbol
_atom_site_label
_atom_site_fract_x
_atom_site_fract_y
_atom_site_fract_z
Si Si1 0.163230 0.688438 0.226250
Si Si2 0.952616 0.871227 0.026047
Si Si3 0.581658 0.495787 0.173100
Si Si4 0.665000 0.205892 0.555465
Si Si5 0.816001 0.040209 0.806448
Si Si6 0.152689 0.901072 0.387179
Si Si7 0.398529 0.901046 0.816297
Si Si8 0.030720 0.511005 0.965490
O O1 0.182847 0.847573 0.166116
O O2 0.269461 0.561779 0.232787
O O3 0.111998 0.770271 0.327616
O O4 0.032726 0.590406 0.228602
O O5 0.002248 0.928316 0.108133
O O6 0.795401 0.894554 0.048341
O O7 0.985644 0.686721 0.002584
O O8 0.038937 0.977765 0.940922
O O9 0.470522 0.517651 0.274062
O O10 0.638516 0.667385 0.137435
O O11 0.697702 0.315513 0.464811
O O12 0.541121 0.105411 0.546112
O O13 0.838613 0.228047 0.809573
O O14 0.686528 0.017252 0.897715
O O15 0.281493 0.982171 0.317174
O O16 0.437121 0.950401 0.907317
#
# Coordination Sequence:
#
# PCOD9135232 Si02
#       8
#     4   4   4   4   4   4   4   4
#     4  10  23  42  65  95 135 176 219 274 339 400
#     4  11  25  41  66  98 135 178 223 280 341 403
#     4  10  26  44  60  98 144 176 220 280 344 407
#     4  11  24  42  65  99 131 178 225 273 342 399
#     4  10  21  42  67  95 130 179 219 277 332 395
#     4  11  21  38  67  98 126 168 225 282 327 396
#     4  10  20  38  64 100 128 156 223 279 323 389
#     4  11  22  41  70  99 129 175 232 277 332 401
#
# _framework density 24.523115000000001
#
# number of rings (size 3 to 8) (size 9 to 14) (size 15 to 20)
#    0.000    1.500    5.000    0.000    3.500    4.000 
#    0.000    1.250    0.000    0.000    0.000    0.000 
#    0.000    0.000    0.000    0.000    0.000    0.000 
#
# Total GULP energy -89193.269127 kJ/mol
# GULP energy per Si atom -5574.579320 kJ/mol
# Density = 2.446730 g / cm^3
# Si number density = 24.523115 Si / 1000 Ang^3
#
#
#
# Elastic Constant Matrix: (Units=GPa)
#
#
# Indices 1 2 3 4 5 6 
#
# 1 93.4346 40.9650 22.9427 0.0000 9.7415 0.0000
# 2 40.9650 90.2137 11.0916 0.0000 8.3678 0.0000
# 3 22.9427 11.0916 47.6959 0.0000 15.1042 0.0000
# 4 0.0000 0.0000 0.0000 36.5273 0.0000 8.8575
# 5 9.7415 8.3678 15.1042 0.0000 30.3895 0.0000
# 6 0.0000 0.0000 0.0000 8.8575 0.0000 43.9847
#
#
#
# Elastic Compliance Matrix: (Units=1/GPa)
#
#
# Indices 1 2 3 4 5 6 
#
# 1 0.014727 -0.005971 -0.005603 0.000000 -0.000292 0.000000
# 2 -0.005971 0.013953 0.000283 0.000000 -0.002068 0.000000
# 3 -0.005603 0.000283 0.027357 0.000000 -0.011879 0.000000
# 4 0.000000 0.000000 0.000000 0.028782 0.000000 -0.005796
# 5 -0.000292 -0.002068 -0.011879 0.000000 0.039473 0.000000
# 6 0.000000 0.000000 0.000000 -0.005796 0.000000 0.023902
#
#
# Mechanical properties :
#
#
# Convention : Reuss Voigt Hill
#
# Bulk Modulus (GPa) = 29.89168 42.37143 36.13156
# Shear Modulus (GPa) = 27.48301 32.60331 30.04316
#
# Velocity S-wave (km/s) = 3.35131 3.65018 3.50393
# Velocity P-wave (km/s) = 5.21447 5.92290 5.57994
#
# Compressibility (1/GPa) = 0.03345412
#
# Stress axis : x y z
#
# Youngs Moduli (GPa) = 67.90265 71.66682 36.55326
#
# Poissons Ratio (x) = 0.42795 0.20481
# Poissons Ratio (y) = 0.40547 -0.01033
# Poissons Ratio (z) = 0.38045 -0.02025
#
# Static dielectric constant tensor:
#      x y z
#    x 1.974930 0.000000 0.030300 
#    y 0.000000 1.939370 0.000000 
#    z 0.030300 0.000000 2.027940 
# 
# From -- ./inp_files/29900.got.cif
#   From: 2010.05.17/outbox.cif.g08.bks.cpg/sg9_15_cif.got.tgz:29900.got - 2010.06.03 20:04:27.
