data_PCOD9135579
_publ_section_title
;
Structure prediction by ZEFSAII (Michael W. Deem and Ramdas Pophale) SiO2 
 PCOD9135579
Probable space group: C C
;
_chemical_formula_sum "Si O2"
_cell_formula_units_Z 28
_cell_length_a 22.660284
_cell_length_b 10.194472
_cell_length_c 14.567061
_cell_angle_alpha 90.000000
_cell_angle_beta 20.636842
_cell_angle_gamma 90.000000
_cell_volume 1186.018599
_symmetry_space_group_name_H-M "C C"
_symmetry_group_IT_number 9
_symmetry_cell_setting 'monoclinic'
loop_
_space_group_symop_operation_xyz
x,y,z
x,-y,1/2+z
1/2+x,1/2+y,z
1/2+x,1/2-y,1/2+z
loop_
_atom_site_type_symbol
_atom_site_label
_atom_site_fract_x
_atom_site_fract_y
_atom_site_fract_z
Si Si1 0.281950 0.725622 0.133830
Si Si2 0.843204 0.716179 0.196861
Si Si3 0.809649 0.924403 0.901731
Si Si4 0.176840 0.170221 0.151160
Si Si5 0.357761 0.549012 0.549438
Si Si6 0.173523 0.994750 0.830523
Si Si7 0.140667 0.320528 0.641869
O O1 0.166370 0.707422 0.212293
O O2 0.226995 0.856007 0.263868
O O3 0.336370 0.441402 0.972079
O O4 0.284727 0.590376 0.185373
O O5 0.749298 0.586717 0.303293
O O6 0.798515 0.751996 0.364452
O O7 0.779417 0.833776 0.222613
O O8 0.040924 0.725658 0.891153
O O9 0.972595 0.989123 0.616891
O O10 0.657155 0.023021 0.100668
O O11 0.786565 0.766749 0.927898
O O12 0.243803 0.083685 0.138486
O O13 0.056532 0.068322 0.274549
O O14 0.478364 0.243084 0.331619
#
# Coordination Sequence:
#
# PCOD9135579 Si02
#       7
#     4   4   4   4   4   4   4
#     4  11  25  44  66 103 141 180 235 306 346 432
#     4  10  21  41  70  96 136 185 232 291 358 428
#     4  11  21  41  67  98 135 184 237 292 354 433
#     4  10  20  41  67  95 135 185 230 297 347 434
#     4   9  21  40  64  93 137 171 229 289 355 415
#     4  12  23  42  67 101 139 184 243 293 359 422
#     4  11  23  41  71  98 141 185 236 292 367 418
#
# _framework density 23.608398999999999
#
# number of rings (size 3 to 8) (size 9 to 14) (size 15 to 20)
#    0.857    0.571    2.857    3.429    0.000    0.000 
#   10.286    0.000    3.143    0.000    0.000    0.000 
#    0.000    0.000    0.000    0.000    0.000    0.000 
#
# Total GULP energy -78067.046593 kJ/mol
# GULP energy per Si atom -5576.217614 kJ/mol
# Density = 2.355467 g / cm^3
# Si number density = 23.608399 Si / 1000 Ang^3
#
#
#
# Elastic Constant Matrix: (Units=GPa)
#
#
# Indices 1 2 3 4 5 6 
#
# 1 43.2627 14.8933 -13.4320 0.0000 -4.8160 0.0000
# 2 14.8933 156.9119 3.7194 0.0000 2.5500 0.0000
# 3 -13.4320 3.7194 31.6698 0.0000 -8.1895 0.0000
# 4 0.0000 0.0000 0.0000 34.7812 0.0000 -8.3928
# 5 -4.8160 2.5500 -8.1895 0.0000 20.2308 0.0000
# 6 0.0000 0.0000 0.0000 -8.3928 0.0000 34.3717
#
#
#
# Elastic Compliance Matrix: (Units=1/GPa)
#
#
# Indices 1 2 3 4 5 6 
#
# 1 0.031571 -0.003663 0.017740 0.000000 0.015159 0.000000
# 2 -0.003663 0.006844 -0.003134 0.000000 -0.003004 0.000000
# 3 0.017740 -0.003134 0.045416 0.000000 0.023003 0.000000
# 4 0.000000 0.000000 0.000000 0.030551 0.000000 0.007460
# 5 0.015159 -0.003004 0.023003 0.000000 0.062729 0.000000
# 6 0.000000 0.000000 0.000000 0.007460 0.000000 0.030915
#
#
# Mechanical properties :
#
#
# Convention : Reuss Voigt Hill
#
# Bulk Modulus (GPa) = 9.45922 26.91176 18.18549
# Shear Modulus (GPa) = 22.58557 32.98764 27.78660
#
# Velocity S-wave (km/s) = 3.09637 3.74208 3.43444
# Velocity P-wave (km/s) = 4.09863 5.48588 4.84219
#
# Compressibility (1/GPa) = 0.10571692
#
# Stress axis : x y z
#
# Youngs Moduli (GPa) = 31.67443 146.11707 22.01846
#
# Poissons Ratio (x) = 0.53529 -0.39062
# Poissons Ratio (y) = 0.11604 0.06901
# Poissons Ratio (z) = -0.56192 0.45796
#
# Static dielectric constant tensor:
#      x y z
#    x 1.897770 0.000000 -0.047860 
#    y 0.000000 1.963280 0.000000 
#    z -0.047860 0.000000 1.983760 
# 
# From -- ./inp_files/31801.got.cif
#   From: 2010.05.17/outbox.cif.g08.bks.cpg/sg9_16_cif.got.tgz:31801.got - 2010.06.03 20:04:27.
