data_PCOD9135204
_publ_section_title
;
Structure prediction by ZEFSAII (Michael W. Deem and Ramdas Pophale) SiO2 
 PCOD9135204
Probable space group: C C
;
_chemical_formula_sum "Si O2"
_cell_formula_units_Z 28
_cell_length_a 10.528302
_cell_length_b 26.301915
_cell_length_c 11.121730
_cell_angle_alpha 90.000000
_cell_angle_beta 153.838130
_cell_angle_gamma 90.000000
_cell_volume 1357.896459
_symmetry_space_group_name_H-M "C C"
_symmetry_group_IT_number 9
_symmetry_cell_setting 'monoclinic'
loop_
_space_group_symop_operation_xyz
x,y,z
x,-y,1/2+z
1/2+x,1/2+y,z
1/2+x,1/2-y,1/2+z
loop_
_atom_site_type_symbol
_atom_site_label
_atom_site_fract_x
_atom_site_fract_y
_atom_site_fract_z
Si Si1 0.625000 0.715765 0.768290
Si Si2 0.657885 0.910561 0.491549
Si Si3 0.125487 0.503631 0.651192
Si Si4 0.085404 0.929842 0.634909
Si Si5 0.560511 0.366374 0.011763
Si Si6 0.671106 0.922016 0.867907
Si Si7 0.562214 0.374232 0.382251
O O1 0.429721 0.764476 0.574199
O O2 0.630240 0.683038 0.649928
O O3 0.494949 0.679575 0.762571
O O4 0.616020 0.960255 0.540879
O O5 0.869666 0.921561 0.561751
O O6 0.811066 0.866319 0.701002
O O7 0.343363 0.890095 0.192717
O O8 0.891320 0.547828 0.434426
O O9 0.072248 0.476405 0.735425
O O10 0.444260 0.525716 0.934460
O O11 0.084378 0.881666 0.544178
O O12 0.426524 0.404755 0.996421
O O13 0.384937 0.888316 0.612341
O O14 0.822398 0.912643 0.123659
#
# Coordination Sequence:
#
# PCOD9135204 Si02
#       7
#     4   4   4   4   4   4   4
#     4  11  21  38  69  98 116 144 199 261 319 377
#     4  11  23  41  57  84 124 168 206 252 292 354
#     4  11  23  37  57  84 117 164 224 257 273 343
#     4  12  26  37  58  86 122 175 205 243 301 365
#     4  10  20  40  62  87 118 155 192 251 320 353
#     4  10  20  38  62  82 120 162 206 255 308 335
#     4  11  23  39  59  93 127 160 194 261 317 367
#
# _framework density 20.620128000000001
#
# number of rings (size 3 to 8) (size 9 to 14) (size 15 to 20)
#    0.000    1.143    0.000   10.286    6.000    0.000 
#    0.000    0.000    0.000    5.143    0.000    0.000 
#    0.000    0.000    0.000    0.000    0.000    0.000 
#
# Total GULP energy -78140.008013 kJ/mol
# GULP energy per Si atom -5581.429144 kJ/mol
# Density = 2.057320 g / cm^3
# Si number density = 20.620128 Si / 1000 Ang^3
#
#
#
# Elastic Constant Matrix: (Units=GPa)
#
#
# Indices 1 2 3 4 5 6 
#
# 1 85.3858 30.4223 18.5434 0.0000 9.0938 0.0000
# 2 30.4223 50.5711 3.4242 0.0000 -8.1094 0.0000
# 3 18.5434 3.4242 98.9980 -0.0002 4.6244 0.0000
# 4 0.0000 0.0000 -0.0002 38.1796 -0.0001 -2.4988
# 5 9.0938 -8.1094 4.6244 -0.0001 29.4735 0.0000
# 6 0.0000 0.0000 0.0000 -2.4988 0.0000 15.3775
#
#
#
# Elastic Compliance Matrix: (Units=1/GPa)
#
#
# Indices 1 2 3 4 5 6 
#
# 1 0.017190 -0.011470 -0.002446 0.000000 -0.008076 0.000000
# 2 -0.011470 0.028437 0.000639 0.000000 0.011263 0.000000
# 3 -0.002446 0.000639 0.010571 0.000000 -0.000728 0.000000
# 4 0.000000 0.000000 0.000000 0.026474 0.000000 0.004302
# 5 -0.008076 0.011263 -0.000728 0.000000 0.039634 0.000000
# 6 0.000000 0.000000 0.000000 0.004302 0.000000 0.065729
#
#
# Mechanical properties :
#
#
# Convention : Reuss Voigt Hill
#
# Bulk Modulus (GPa) = 33.73424 37.74832 35.74128
# Shear Modulus (GPa) = 22.27467 28.77712 25.52589
#
# Velocity S-wave (km/s) = 3.29027 3.73980 3.52221
# Velocity P-wave (km/s) = 5.55246 6.08231 5.82341
#
# Compressibility (1/GPa) = 0.02964348
#
# Stress axis : x y z
#
# Youngs Moduli (GPa) = 58.17484 35.16523 94.59601
#
# Poissons Ratio (x) = 0.40335 0.23136
# Poissons Ratio (y) = 0.66728 -0.06042
# Poissons Ratio (z) = 0.14228 -0.02246
#
# Static dielectric constant tensor:
#      x y z
#    x 1.779450 0.000000 -0.049760 
#    y 0.000000 1.766060 0.000000 
#    z -0.049760 0.000000 1.735540 
# 
# From -- ./inp_files/17268.got.cif
#   From: 2010.05.17/outbox.cif.g08.bks.cpg/sg9_9_cif.got.tgz:17268.got - 2010.06.03 20:04:27.
