data_PCOD9135692
_publ_section_title
;
Structure prediction by ZEFSAII (Michael W. Deem and Ramdas Pophale) SiO2 
 PCOD9135692
Probable space group: C C
;
_chemical_formula_sum "Si O2"
_cell_formula_units_Z 32
_cell_length_a 12.352608
_cell_length_b 10.074198
_cell_length_c 18.440402
_cell_angle_alpha 90.000000
_cell_angle_beta 36.770190
_cell_angle_gamma 90.000000
_cell_volume 1373.666328
_symmetry_space_group_name_H-M "C C"
_symmetry_group_IT_number 9
_symmetry_cell_setting 'monoclinic'
loop_
_space_group_symop_operation_xyz
x,y,z
x,-y,1/2+z
1/2+x,1/2+y,z
1/2+x,1/2-y,1/2+z
loop_
_atom_site_type_symbol
_atom_site_label
_atom_site_fract_x
_atom_site_fract_y
_atom_site_fract_z
Si Si1 0.568650 0.504576 0.828350
Si Si2 0.039035 0.822861 0.095386
Si Si3 0.553338 0.020831 0.934304
Si Si4 0.444408 0.105661 0.639769
Si Si5 0.234304 0.528959 0.592868
Si Si6 0.763624 0.303667 0.630393
Si Si7 0.335856 0.402070 0.679798
Si Si8 0.363531 0.704437 0.839903
O O1 0.752141 0.548791 0.767668
O O2 0.617694 0.406147 0.737301
O O3 0.471685 0.629697 0.844752
O O4 0.432053 0.436822 0.956173
O O5 0.901390 0.732987 0.121622
O O6 0.002849 0.774354 0.197711
O O7 0.969407 0.974087 0.123797
O O8 0.235737 0.808606 0.951912
O O9 0.650916 0.932556 0.822262
O O10 0.715534 0.107903 0.881508
O O11 0.470300 0.929096 0.041512
O O12 0.390147 0.122617 0.003219
O O13 0.598723 0.023766 0.598736
O O14 0.429794 0.264790 0.651967
O O15 0.170561 0.664641 0.664391
O O16 0.272328 0.414336 0.630086
#
# Coordination Sequence:
#
# PCOD9135692 Si02
#       8
#     4   4   4   4   4   4   4   4
#     4  11  25  44  70 100 139 186 228 295 373 431
#     4   9  21  40  73 102 136 182 238 303 355 442
#     4   9  20  45  66  98 139 183 227 303 361 430
#     4  11  25  47  71  99 149 185 234 306 363 431
#     4  11  25  44  74 106 137 187 242 295 366 438
#     4   9  22  41  71  97 133 180 238 286 361 441
#     4  10  24  43  71 108 139 185 250 293 363 452
#     4  10  20  42  70  98 138 182 235 291 366 431
#
# _framework density 23.295321999999999
#
# number of rings (size 3 to 8) (size 9 to 14) (size 15 to 20)
#    0.000    2.000    1.250    0.000   14.000    1.000 
#    2.250    0.000    0.000    0.000    0.000    0.000 
#    0.000    0.000    0.000    0.000    0.000    0.000 
#
# Total GULP energy -89318.766676 kJ/mol
# GULP energy per Si atom -5582.422917 kJ/mol
# Density = 2.324230 g / cm^3
# Si number density = 23.295322 Si / 1000 Ang^3
#
#
#
# Elastic Constant Matrix: (Units=GPa)
#
#
# Indices 1 2 3 4 5 6 
#
# 1 23.4524 1.4797 22.2042 0.0000 -2.4455 0.0000
# 2 1.4797 77.9486 18.1225 -0.0001 -2.6972 0.0000
# 3 22.2042 18.1225 72.5879 -0.0002 3.2165 0.0001
# 4 0.0000 -0.0001 -0.0002 22.6534 0.0001 -3.4163
# 5 -2.4455 -2.6972 3.2165 0.0001 24.6257 0.0000
# 6 0.0000 0.0000 0.0001 -3.4163 0.0000 22.6678
#
#
#
# Elastic Compliance Matrix: (Units=1/GPa)
#
#
# Indices 1 2 3 4 5 6 
#
# 1 0.062911 0.003929 -0.020640 0.000000 0.009374 0.000000
# 2 0.003929 0.013958 -0.004800 0.000000 0.002546 0.000000
# 3 -0.020640 -0.004800 0.021527 0.000000 -0.005387 0.000000
# 4 0.000000 0.000000 0.000000 0.045170 0.000000 0.006808
# 5 0.009374 0.002546 -0.005387 0.000000 0.042521 0.000000
# 6 0.000000 0.000000 0.000000 0.006808 0.000000 0.045141
#
#
# Mechanical properties :
#
#
# Convention : Reuss Voigt Hill
#
# Bulk Modulus (GPa) = 18.05885 28.62242 23.34064
# Shear Modulus (GPa) = 17.08174 22.80153 19.94163
#
# Velocity S-wave (km/s) = 2.71083 3.13198 2.92898
# Velocity P-wave (km/s) = 4.19131 5.03910 4.63463
#
# Compressibility (1/GPa) = 0.05537451
#
# Stress axis : x y z
#
# Youngs Moduli (GPa) = 15.89541 71.64180 46.45282
#
# Poissons Ratio (x) = -0.28147 0.95881
# Poissons Ratio (y) = -0.06245 0.22295
# Poissons Ratio (z) = 0.32809 0.34385
#
# Static dielectric constant tensor:
#      x y z
#    x 1.922660 0.000000 0.023860 
#    y 0.000000 1.925020 0.000000 
#    z 0.023860 0.000000 1.899040 
# 
# From -- ./inp_files/30068.got.cif
#   From: 2010.05.17/outbox.cif.g08.bks.cpg/sg9_16_cif.got.tgz:30068.got - 2010.06.03 20:04:27.
