data_PCOD9135531
_publ_section_title
;
Structure prediction by ZEFSAII (Michael W. Deem and Ramdas Pophale) SiO2 
 PCOD9135531
Probable space group: C C
;
_chemical_formula_sum "Si O2"
_cell_formula_units_Z 32
_cell_length_a 8.613568
_cell_length_b 12.366018
_cell_length_c 13.734237
_cell_angle_alpha 90.000000
_cell_angle_beta 78.658759
_cell_angle_gamma 90.000000
_cell_volume 1434.343925
_symmetry_space_group_name_H-M "C C"
_symmetry_group_IT_number 9
_symmetry_cell_setting 'monoclinic'
loop_
_space_group_symop_operation_xyz
x,y,z
x,-y,1/2+z
1/2+x,1/2+y,z
1/2+x,1/2-y,1/2+z
loop_
_atom_site_type_symbol
_atom_site_label
_atom_site_fract_x
_atom_site_fract_y
_atom_site_fract_z
Si Si1 0.212130 0.016030 0.040880
Si Si2 0.201047 0.619255 0.042549
Si Si3 0.381176 0.166676 0.164362
Si Si4 0.406838 0.509449 0.181824
Si Si5 0.936986 0.609042 0.366355
Si Si6 0.140599 0.415683 0.333249
Si Si7 0.521587 0.730203 0.997855
Si Si8 0.554428 0.256013 0.701438
O O1 0.326008 0.058265 0.113519
O O2 0.134888 0.125324 0.999152
O O3 0.060444 0.960350 0.109940
O O4 0.306638 0.943360 0.953379
O O5 0.281621 0.540451 0.112009
O O6 0.348709 0.689459 0.988063
O O7 0.060567 0.684344 0.111690
O O8 0.133386 0.573740 0.950167
O O9 0.361426 0.165077 0.282585
O O10 0.241627 0.246010 0.150151
O O11 0.317332 0.437565 0.271819
O O12 0.477561 0.623517 0.217215
O O13 0.037627 0.514038 0.305766
O O14 0.059787 0.683655 0.410978
O O15 0.052589 0.311256 0.300020
O O16 0.487084 0.785577 0.107184
#
# Coordination Sequence:
#
# PCOD9135531 Si02
#       8
#     4   4   4   4   4   4   4   4
#     4   9  22  43  61  92 133 161 205 264 309 372
#     4  10  20  41  61  91 129 159 206 262 306 372
#     4  10  20  41  61  91 129 159 206 262 306 372
#     4   9  22  43  61  92 133 161 205 264 309 372
#     4  12  23  36  69  94 120 164 216 253 312 381
#     4  12  23  36  69  94 120 164 216 253 312 381
#     4   9  23  42  60  88 129 164 205 256 322 366
#     4   9  23  42  60  88 129 164 205 256 322 366
#
# _framework density 22.309851999999999
#
# number of rings (size 3 to 8) (size 9 to 14) (size 15 to 20)
#    0.000    2.500    2.500    0.750    3.500    6.000 
#    0.000    0.000    0.000    0.000    0.000    0.000 
#    0.000    0.000    0.000    0.000    0.000    0.000 
#
# Total GULP energy -89091.970670 kJ/mol
# GULP energy per Si atom -5568.248167 kJ/mol
# Density = 2.225907 g / cm^3
# Si number density = 22.309852 Si / 1000 Ang^3
#
#
#
# Elastic Constant Matrix: (Units=GPa)
#
#
# Indices 1 2 3 4 5 6 
#
# 1 43.1721 8.0926 23.7137 0.0000 7.5741 0.0000
# 2 8.0926 53.4226 31.0920 0.0000 6.8703 0.0000
# 3 23.7137 31.0920 92.5055 0.0000 -8.4377 0.0000
# 4 0.0000 0.0000 0.0000 18.4635 0.0000 -1.7922
# 5 7.5741 6.8703 -8.4377 0.0000 30.1224 0.0000
# 6 0.0000 0.0000 0.0000 -1.7922 0.0000 13.1923
#
#
#
# Elastic Compliance Matrix: (Units=1/GPa)
#
#
# Indices 1 2 3 4 5 6 
#
# 1 0.029743 0.002317 -0.009373 0.000000 -0.010633 0.000000
# 2 0.002317 0.025330 -0.009942 0.000000 -0.009145 0.000000
# 3 -0.009373 -0.009942 0.017421 0.000000 0.009504 0.000000
# 4 0.000000 0.000000 0.000000 0.054885 0.000000 0.007456
# 5 -0.010633 -0.009145 0.009504 0.000000 0.040619 0.000000
# 6 0.000000 0.000000 0.000000 0.007456 0.000000 0.076815
#
#
# Mechanical properties :
#
#
# Convention : Reuss Voigt Hill
#
# Bulk Modulus (GPa) = 25.97515 34.98854 30.48185
# Shear Modulus (GPa) = 17.14436 20.76909 18.95672
#
# Velocity S-wave (km/s) = 2.77513 3.05444 2.91813
# Velocity P-wave (km/s) = 4.68366 5.30627 5.00465
#
# Compressibility (1/GPa) = 0.03849833
#
# Stress axis : x y z
#
# Youngs Moduli (GPa) = 33.62171 39.47919 57.40073
#
# Poissons Ratio (x) = -0.09148 0.53803
# Poissons Ratio (y) = -0.07790 0.57066
# Poissons Ratio (z) = 0.31514 0.39249
#
# Static dielectric constant tensor:
#      x y z
#    x 1.822910 0.000000 -0.020690 
#    y 0.000000 1.930260 0.000000 
#    z -0.020690 0.000000 1.805920 
# 
# From -- ./inp_files/14605.got.cif
#   From: 2010.05.17/outbox.cif.g08.bks.cpg/sg9_8_cif.got.tgz:14605.got - 2010.06.03 20:04:27.
