data_PCOD9135496
_publ_section_title
;
Structure prediction by ZEFSAII (Michael W. Deem and Ramdas Pophale) SiO2 
 PCOD9135496
Probable space group: C C
;
_chemical_formula_sum "Si O2"
_cell_formula_units_Z 24
_cell_length_a 6.874547
_cell_length_b 13.208214
_cell_length_c 11.117584
_cell_angle_alpha 90.000000
_cell_angle_beta 62.169708
_cell_angle_gamma 90.000000
_cell_volume 892.719579
_symmetry_space_group_name_H-M "C C"
_symmetry_group_IT_number 9
_symmetry_cell_setting 'monoclinic'
loop_
_space_group_symop_operation_xyz
x,y,z
x,-y,1/2+z
1/2+x,1/2+y,z
1/2+x,1/2-y,1/2+z
loop_
_atom_site_type_symbol
_atom_site_label
_atom_site_fract_x
_atom_site_fract_y
_atom_site_fract_z
Si Si1 0.950530 0.975683 0.154860
Si Si2 0.926599 0.489845 0.487708
Si Si3 0.813651 0.127181 0.940416
Si Si4 0.106504 0.821113 0.914382
Si Si5 0.278867 0.816548 0.361848
Si Si6 0.084579 0.352155 0.776983
O O1 0.886427 0.902099 0.283403
O O2 0.765405 0.061579 0.201116
O O3 0.001817 0.913881 0.017728
O O4 0.191882 0.017576 0.118313
O O5 0.908966 0.417209 0.372211
O O6 0.124213 0.454732 0.513599
O O7 0.983717 0.603460 0.431988
O O8 0.031100 0.143207 0.954952
O O9 0.678606 0.230931 0.982604
O O10 0.344555 0.841912 0.782106
O O11 0.916929 0.770686 0.889102
O O12 0.216158 0.753041 0.258223
#
# Coordination Sequence:
#
# PCOD9135496 Si02
#       6
#     4   4   4   4   4   4
#     4  10  20  40  68  96 136 184 230 272 360 414
#     4   9  20  40  61  95 132 175 224 278 340 417
#     4   9  20  42  64  97 135 175 224 287 333 418
#     4   9  20  42  64  97 135 175 224 287 333 418
#     4  10  20  42  66  90 140 172 216 294 346 390
#     4   9  20  40  61  95 132 175 224 278 340 417
#
# _framework density 26.884141
#
# number of rings (size 3 to 8) (size 9 to 14) (size 15 to 20)
#    0.000    2.667    0.000    0.000    0.000    5.333 
#   36.000   10.000    0.000    0.000    0.000    0.000 
#    0.000    0.000    0.000    0.000    0.000    0.000 
#
# Total GULP energy -66814.754054 kJ/mol
# GULP energy per Si atom -5567.896171 kJ/mol
# Density = 2.682295 g / cm^3
# Si number density = 26.884141 Si / 1000 Ang^3
#
#
#
# Elastic Constant Matrix: (Units=GPa)
#
#
# Indices 1 2 3 4 5 6 
#
# 1 213.7140 30.3363 39.2206 0.0000 -38.0080 0.0000
# 2 30.3363 82.7406 18.6469 0.0000 -1.8994 0.0000
# 3 39.2206 18.6469 108.2907 0.0000 -24.2123 0.0000
# 4 0.0000 0.0000 0.0000 30.5768 0.0000 -20.1197
# 5 -38.0080 -1.8994 -24.2123 0.0000 36.3206 0.0000
# 6 0.0000 0.0000 0.0000 -20.1197 0.0000 59.4064
#
#
#
# Elastic Compliance Matrix: (Units=1/GPa)
#
#
# Indices 1 2 3 4 5 6 
#
# 1 0.006116 -0.001983 -0.000547 0.000000 0.005931 0.000000
# 2 -0.001983 0.013243 -0.002199 0.000000 -0.002848 0.000000
# 3 -0.000547 -0.002199 0.011349 0.000000 0.006878 0.000000
# 4 0.000000 0.000000 0.000000 0.042083 0.000000 0.014253
# 5 0.005931 -0.002848 0.006878 0.000000 0.038176 0.000000
# 6 0.000000 0.000000 0.000000 0.014253 0.000000 0.021660
#
#
# Mechanical properties :
#
#
# Convention : Reuss Voigt Hill
#
# Bulk Modulus (GPa) = 47.05998 64.57254 55.81626
# Shear Modulus (GPa) = 33.51911 46.36353 39.94132
#
# Velocity S-wave (km/s) = 3.53483 4.15730 3.85864
# Velocity P-wave (km/s) = 5.84832 6.86405 6.37644
#
# Compressibility (1/GPa) = 0.02124948
#
# Stress axis : x y z
#
# Youngs Moduli (GPa) = 163.50674 75.51058 88.11257
#
# Poissons Ratio (x) = 0.14973 0.04824
# Poissons Ratio (y) = 0.32421 0.19377
# Poissons Ratio (z) = 0.08951 0.16606
#
# Static dielectric constant tensor:
#      x y z
#    x 2.109490 0.000000 0.064720 
#    y 0.000000 2.160950 0.000000 
#    z 0.064720 0.000000 2.223920 
# 
# From -- ./inp_files/21690.got.cif
#   From: 2010.05.17/outbox.cif.g08.bks.cpg/sg9_11_cif.got.tgz:21690.got - 2010.06.03 20:04:27.
