data_PCOD9135063
_publ_section_title
;
Structure prediction by ZEFSAII (Michael W. Deem and Ramdas Pophale) SiO2 
 PCOD9135063
Probable space group: C C
;
_chemical_formula_sum "Si O2"
_cell_formula_units_Z 32
_cell_length_a 14.222191
_cell_length_b 20.916778
_cell_length_c 11.434261
_cell_angle_alpha 90.000000
_cell_angle_beta 150.859441
_cell_angle_gamma 90.000000
_cell_volume 1656.369202
_symmetry_space_group_name_H-M "C C"
_symmetry_group_IT_number 9
_symmetry_cell_setting 'monoclinic'
loop_
_space_group_symop_operation_xyz
x,y,z
x,-y,1/2+z
1/2+x,1/2+y,z
1/2+x,1/2-y,1/2+z
loop_
_atom_site_type_symbol
_atom_site_label
_atom_site_fract_x
_atom_site_fract_y
_atom_site_fract_z
Si Si1 0.233040 0.559927 0.925820
Si Si2 0.976430 0.432753 0.362076
Si Si3 0.592949 0.844570 0.083377
Si Si4 0.317477 0.429475 0.890179
Si Si5 0.389869 0.611775 0.726332
Si Si6 0.168546 0.802185 0.657545
Si Si7 0.650961 0.395732 0.847639
Si Si8 0.644422 0.504720 0.133279
O O1 0.133605 0.616767 0.745911
O O2 0.252919 0.500332 0.861186
O O3 0.112127 0.539434 0.906892
O O4 0.449145 0.584479 0.187551
O O5 0.837903 0.482347 0.278833
O O6 0.135406 0.402388 0.620975
O O7 0.822482 0.388702 0.126149
O O8 0.692812 0.882823 0.086336
O O9 0.680938 0.773367 0.183998
O O10 0.366606 0.833123 0.827905
O O11 0.360534 0.393384 0.057079
O O12 0.511418 0.444795 0.027846
O O13 0.507996 0.674550 0.892353
O O14 0.515180 0.551791 0.911627
O O15 0.123643 0.835160 0.733629
O O16 0.693580 0.454243 0.803214
#
# Coordination Sequence:
#
# PCOD9135063 Si02
#       8
#     4   4   4   4   4   4   4   4
#     4  11  22  38  58  90 127 155 203 252 309 366
#     4  12  22  33  58  84 121 165 204 233 302 369
#     4  12  21  41  65  98 118 153 204 267 318 352
#     4  11  23  37  54  86 128 169 192 243 297 378
#     4  11  23  39  61  90 129 159 203 256 307 367
#     4  11  22  38  67  93 120 154 204 263 319 354
#     4  10  20  37  55  87 122 157 195 257 300 359
#     4  10  21  37  54  86 125 160 201 249 302 361
#
# _framework density 19.319364
#
# number of rings (size 3 to 8) (size 9 to 14) (size 15 to 20)
#    0.000    1.000    6.250    3.750    1.750    1.000 
#    0.000    0.000    0.000    1.500    0.000    0.000 
#    0.000    0.000    0.000    0.000    0.000    0.000 
#
# Total GULP energy -89360.344458 kJ/mol
# GULP energy per Si atom -5585.021529 kJ/mol
# Density = 1.927539 g / cm^3
# Si number density = 19.319364 Si / 1000 Ang^3
#
#
#
# Elastic Constant Matrix: (Units=GPa)
#
#
# Indices 1 2 3 4 5 6 
#
# 1 133.7582 26.8482 42.0494 0.0000 20.4277 0.0000
# 2 26.8482 62.9110 21.3923 0.0000 -4.2141 0.0000
# 3 42.0494 21.3923 121.9222 0.0000 -7.8011 0.0000
# 4 0.0000 0.0000 0.0000 18.4812 0.0000 8.0125
# 5 20.4277 -4.2141 -7.8011 0.0000 43.9756 0.0000
# 6 0.0000 0.0000 0.0000 8.0125 0.0000 19.8927
#
#
#
# Elastic Compliance Matrix: (Units=1/GPa)
#
#
# Indices 1 2 3 4 5 6 
#
# 1 0.010051 -0.003576 -0.003196 0.000000 -0.005578 0.000000
# 2 -0.003576 0.018230 -0.001767 0.000000 0.003095 0.000000
# 3 -0.003196 -0.001767 0.009810 0.000000 0.003055 0.000000
# 4 0.000000 0.000000 0.000000 0.065557 0.000000 -0.026405
# 5 -0.005578 0.003095 0.003055 0.000000 0.026170 0.000000
# 6 0.000000 0.000000 0.000000 -0.026405 0.000000 0.060905
#
#
# Mechanical properties :
#
#
# Convention : Reuss Voigt Hill
#
# Bulk Modulus (GPa) = 47.59225 55.46346 51.52786
# Shear Modulus (GPa) = 23.27702 31.69001 27.48351
#
# Velocity S-wave (km/s) = 3.47487 4.05448 3.77581
# Velocity P-wave (km/s) = 6.38651 7.11966 6.76303
#
# Compressibility (1/GPa) = 0.02101182
#
# Stress axis : x y z
#
# Youngs Moduli (GPa) = 99.49665 54.85500 101.93995
#
# Poissons Ratio (x) = 0.19617 0.32578
# Poissons Ratio (y) = 0.35582 0.18015
# Poissons Ratio (z) = 0.31797 0.09694
#
# Static dielectric constant tensor:
#      x y z
#    x 1.698660 0.000000 0.025670 
#    y 0.000000 1.661140 0.000000 
#    z 0.025670 0.000000 1.731200 
# 
# From -- ./inp_files/18618.got.cif
#   From: 2010.05.17/outbox.cif.g08.bks.cpg/sg9_10_cif.got.tgz:18618.got - 2010.06.03 20:04:27.
