data_PCOD9135176
_publ_section_title
;
Structure prediction by ZEFSAII (Michael W. Deem and Ramdas Pophale) SiO2 
 PCOD9135176
Probable space group: C C
;
_chemical_formula_sum "Si O2"
_cell_formula_units_Z 28
_cell_length_a 22.465297
_cell_length_b 6.921550
_cell_length_c 22.552904
_cell_angle_alpha 90.000000
_cell_angle_beta 18.166617
_cell_angle_gamma 90.000000
_cell_volume 1093.372530
_symmetry_space_group_name_H-M "C C"
_symmetry_group_IT_number 9
_symmetry_cell_setting 'monoclinic'
loop_
_space_group_symop_operation_xyz
x,y,z
x,-y,1/2+z
1/2+x,1/2+y,z
1/2+x,1/2-y,1/2+z
loop_
_atom_site_type_symbol
_atom_site_label
_atom_site_fract_x
_atom_site_fract_y
_atom_site_fract_z
Si Si1 0.420870 0.016702 0.491560
Si Si2 0.951831 0.102376 0.143784
Si Si3 0.260100 0.396412 0.594777
Si Si4 0.171393 0.438539 0.498083
Si Si5 0.284110 0.018372 0.410385
Si Si6 0.564636 0.011119 0.980208
Si Si7 0.605725 0.502457 0.701569
O O1 0.385027 0.252008 0.519437
O O2 0.613720 0.985925 0.272572
O O3 0.447270 0.946010 0.533004
O O4 0.244750 0.932219 0.622171
O O5 0.995089 0.301634 0.069675
O O6 0.824283 0.085737 0.325457
O O7 0.794058 0.997307 0.251267
O O8 0.155916 0.031286 0.974329
O O9 0.390393 0.518569 0.427096
O O10 0.137712 0.236936 0.674568
O O11 0.052212 0.365741 0.552080
O O12 0.279403 0.252759 0.419209
O O13 0.006993 0.529843 0.693234
O O14 0.183867 0.940529 0.564364
#
# Coordination Sequence:
#
# PCOD9135176 Si02
#       7
#     4   4   4   4   4   4   4
#     4   9  16  30  48  75 110 132 177 227 281 319
#     4  10  23  34  55  78 117 151 184 229 269 331
#     4   8  16  25  44  77  98 138 162 218 290 308
#     4  10  23  33  58  78 116 156 177 232 272 331
#     4  12  20  39  53  87 117 144 191 220 286 335
#     4  10  20  38  52  83 114 149 183 225 276 331
#     4   9  18  27  52  76 108 138 168 235 278 321
#
# _framework density 25.608837999999999
#
# number of rings (size 3 to 8) (size 9 to 14) (size 15 to 20)
#    1.714    0.571    1.429    2.571    0.000    0.000 
#    2.571    0.000    0.000    0.000    0.000   10.000 
#    0.000    0.000    0.000    0.000    0.000    0.000 
#
# Total GULP energy -78059.766419 kJ/mol
# GULP energy per Si atom -5575.697601 kJ/mol
# Density = 2.555055 g / cm^3
# Si number density = 25.608838 Si / 1000 Ang^3
#
#
#
# Elastic Constant Matrix: (Units=GPa)
#
#
# Indices 1 2 3 4 5 6 
#
# 1 102.2340 15.5405 19.6930 -0.0009 -15.9049 -0.0001
# 2 15.5405 69.3699 19.8895 -0.0197 0.1335 0.0032
# 3 19.6930 19.8895 142.7290 -0.0247 8.6857 0.0037
# 4 -0.0009 -0.0197 -0.0247 13.2205 -0.0003 1.7932
# 5 -15.9049 0.1335 8.6857 -0.0003 39.1848 0.0019
# 6 -0.0001 0.0032 0.0037 1.7932 0.0019 7.6660
#
#
#
# Elastic Compliance Matrix: (Units=1/GPa)
#
#
# Indices 1 2 3 4 5 6 
#
# 1 0.011152 -0.002064 -0.001548 -0.000005 0.004877 0.000002
# 2 -0.002064 0.015404 -0.001832 0.000021 -0.000484 -0.000010
# 3 -0.001548 -0.001832 0.007616 0.000012 -0.002310 -0.000005
# 4 -0.000005 0.000021 0.000012 0.078119 -0.000003 -0.018273
# 5 0.004877 -0.000484 -0.002310 -0.000003 0.028013 -0.000005
# 6 0.000002 -0.000010 -0.000005 -0.018273 -0.000005 0.134720
#
#
# Mechanical properties :
#
#
# Convention : Reuss Voigt Hill
#
# Bulk Modulus (GPa) = 42.94850 47.17544 45.06197
# Shear Modulus (GPa) = 17.02572 29.29491 23.16031
#
# Velocity S-wave (km/s) = 2.58124 3.38588 3.01057
# Velocity P-wave (km/s) = 5.06864 5.80923 5.45153
#
# Compressibility (1/GPa) = 0.02328370
#
# Stress axis : x y z
#
# Youngs Moduli (GPa) = 89.66953 64.91757 131.30634
#
# Poissons Ratio (x) = 0.13398 0.20324
# Poissons Ratio (y) = 0.18507 0.24060
# Poissons Ratio (z) = 0.13880 0.11895
#
# Static dielectric constant tensor:
#      x y z
#    x 2.051360 0.000000 -0.013910 
#    y 0.000000 2.065950 0.000010 
#    z -0.013910 0.000010 2.032780 
# 
# From -- ./inp_files/31360.got.cif
#   From: 2010.05.17/outbox.cif.g08.bks.cpg/sg9_16_cif.got.tgz:31360.got - 2010.06.03 20:04:27.
