data_PCOD9135960
_publ_section_title
;
Structure prediction by ZEFSAII (Michael W. Deem and Ramdas Pophale) SiO2 
 PCOD9135960
Probable space group: C C
;
_chemical_formula_sum "Si O2"
_cell_formula_units_Z 28
_cell_length_a 12.085561
_cell_length_b 19.781109
_cell_length_c 14.523312
_cell_angle_alpha 90.000000
_cell_angle_beta 160.618224
_cell_angle_gamma 90.000000
_cell_volume 1152.230783
_symmetry_space_group_name_H-M "C C"
_symmetry_group_IT_number 9
_symmetry_cell_setting 'monoclinic'
loop_
_space_group_symop_operation_xyz
x,y,z
x,-y,1/2+z
1/2+x,1/2+y,z
1/2+x,1/2-y,1/2+z
loop_
_atom_site_type_symbol
_atom_site_label
_atom_site_fract_x
_atom_site_fract_y
_atom_site_fract_z
Si Si1 0.489250 0.420140 0.551860
Si Si2 0.309619 0.675780 0.164543
Si Si3 0.377356 0.901456 0.192672
Si Si4 0.905237 0.935632 0.082180
Si Si5 0.220410 0.788189 0.323100
Si Si6 0.772847 0.709183 0.358580
Si Si7 0.148193 0.949879 0.475255
O O1 0.529804 0.496208 0.626837
O O2 0.745136 0.366152 0.796065
O O3 0.508228 0.416622 0.457291
O O4 0.123050 0.396513 0.297988
O O5 0.575263 0.649973 0.446798
O O6 0.518306 0.709486 0.246278
O O7 0.121819 0.612348 0.968960
O O8 0.008217 0.716339 0.971595
O O9 0.214293 0.973877 0.059893
O O10 0.103410 0.865766 0.226249
O O11 0.931104 0.948902 0.212473
O O12 0.524747 0.924175 0.751417
O O13 0.414835 0.762015 0.564903
O O14 0.119214 0.738619 0.664614
#
# Coordination Sequence:
#
# PCOD9135960 Si02
#       7
#     4   4   4   4   4   4   4
#     4  10  24  44  69  96 134 178 223 275 337 398
#     4  11  21  38  63  95 132 169 211 266 341 407
#     4  10  21  37  63  99 130 166 215 275 328 397
#     4  11  26  45  68  99 131 171 229 283 327 401
#     4  12  25  44  68  97 132 177 221 278 344 398
#     4  11  22  38  58  91 129 164 210 266 318 387
#     4  11  23  42  67  97 132 175 225 277 335 390
#
# _framework density 24.300688999999998
#
# number of rings (size 3 to 8) (size 9 to 14) (size 15 to 20)
#    0.000    1.143    0.000    7.714    0.000    9.143 
#    0.000    5.714    0.000    0.000    0.000    0.000 
#    0.000    0.000    0.000    0.000    0.000    0.000 
#
# Total GULP energy -78337.437671 kJ/mol
# GULP energy per Si atom -5595.531262 kJ/mol
# Density = 2.424538 g / cm^3
# Si number density = 24.300689 Si / 1000 Ang^3
#
#
#
# Elastic Constant Matrix: (Units=GPa)
#
#
# Indices 1 2 3 4 5 6 
#
# 1 51.0476 5.3686 -1.6782 0.0176 -7.4802 0.0155
# 2 5.3686 126.6147 41.4602 0.0083 10.4235 0.0027
# 3 -1.6782 41.4602 86.1402 0.0374 -15.8348 0.0051
# 4 0.0176 0.0083 0.0374 42.7811 0.0091 -0.3297
# 5 -7.4802 10.4235 -15.8348 0.0091 21.6219 0.0098
# 6 0.0155 0.0027 0.0051 -0.3297 0.0098 20.9593
#
#
#
# Elastic Compliance Matrix: (Units=1/GPa)
#
#
# Indices 1 2 3 4 5 6 
#
# 1 0.021894 -0.003358 0.004313 -0.000015 0.012352 -0.000023
# 2 -0.003358 0.011718 -0.008040 0.000009 -0.012699 0.000009
# 3 0.004313 -0.008040 0.019124 -0.000021 0.019374 -0.000016
# 4 -0.000015 0.000009 -0.000021 0.023378 -0.000035 0.000368
# 5 0.012352 -0.012699 0.019374 -0.000035 0.070833 -0.000046
# 6 -0.000023 0.000009 -0.000016 0.000368 -0.000046 0.047717
#
#
# Mechanical properties :
#
#
# Convention : Reuss Voigt Hill
#
# Bulk Modulus (GPa) = 25.92807 39.34486 32.63646
# Shear Modulus (GPa) = 22.55403 31.64926 27.10165
#
# Velocity S-wave (km/s) = 3.04982 3.61280 3.34318
# Velocity P-wave (km/s) = 4.80569 5.79906 5.32559
#
# Compressibility (1/GPa) = 0.03856824
#
# Stress axis : x y z
#
# Youngs Moduli (GPa) = 45.67372 85.33516 52.28977
#
# Poissons Ratio (x) = 0.28652 -0.22554
# Poissons Ratio (y) = 0.15335 0.42041
# Poissons Ratio (z) = -0.19700 0.68610
#
# Static dielectric constant tensor:
#      x y z
#    x 1.981540 0.000010 -0.000990 
#    y 0.000010 1.967830 -0.000010 
#    z -0.000990 -0.000010 1.910810 
# 
# From -- ./inp_files/25099.got.cif
#   From: 2010.05.17/outbox.cif.g08.bks.cpg/sg9_13_cif.got.tgz:25099.got - 2010.06.03 20:04:27.
