data_PCOD9135099
_publ_section_title
;
Structure prediction by ZEFSAII (Michael W. Deem and Ramdas Pophale) SiO2 
 PCOD9135099
Probable space group: C C
;
_chemical_formula_sum "Si O2"
_cell_formula_units_Z 32
_cell_length_a 23.474536
_cell_length_b 14.254396
_cell_length_c 9.047469
_cell_angle_alpha 90.000000
_cell_angle_beta 148.480329
_cell_angle_gamma 90.000000
_cell_volume 1582.709697
_symmetry_space_group_name_H-M "C C"
_symmetry_group_IT_number 9
_symmetry_cell_setting 'monoclinic'
loop_
_space_group_symop_operation_xyz
x,y,z
x,-y,1/2+z
1/2+x,1/2+y,z
1/2+x,1/2-y,1/2+z
loop_
_atom_site_type_symbol
_atom_site_label
_atom_site_fract_x
_atom_site_fract_y
_atom_site_fract_z
Si Si1 0.933990 0.709348 0.083740
Si Si2 0.175084 0.970669 0.250070
Si Si3 0.262448 0.711249 0.602017
Si Si4 0.426821 0.068862 0.329550
Si Si5 0.982138 0.291656 0.175904
Si Si6 0.060526 0.604806 0.128166
Si Si7 0.703313 0.285604 0.143140
Si Si8 0.106821 0.133968 0.894611
O O1 0.934605 0.662528 0.247313
O O2 0.992001 0.628465 0.120246
O O3 0.999235 0.804939 0.194741
O O4 0.806265 0.717827 0.764044
O O5 0.306326 0.975448 0.559252
O O6 0.165591 0.889719 0.104096
O O7 0.114475 0.930946 0.262601
O O8 0.132565 0.067351 0.089690
O O9 0.188354 0.618062 0.443575
O O10 0.246469 0.741782 0.395001
O O11 0.198729 0.787981 0.560861
O O12 0.386662 0.716992 0.932136
O O13 0.440592 0.109316 0.523518
O O14 0.520284 0.996659 0.491794
O O15 0.019250 0.313149 0.425012
O O16 0.096122 0.266169 0.351087
#
# Coordination Sequence:
#
# PCOD9135099 Si02
#       8
#     4   4   4   4   4   4   4   4
#     4  10  21  40  58  88 130 152 202 259 299 361
#     4  10  21  37  60  93 121 153 213 253 294 366
#     4   9  18  40  55  88 120 153 195 250 299 361
#     4  11  21  37  61  91 118 158 205 252 301 362
#     4  11  19  38  63  80 118 166 199 236 319 355
#     4  10  22  34  63  89 122 148 203 261 296 354
#     4   9  20  37  59  83 117 161 198 248 295 363
#     4  10  20  37  61  86 124 157 195 259 307 344
#
# _framework density 20.218489999999999
#
# number of rings (size 3 to 8) (size 9 to 14) (size 15 to 20)
#    0.000    2.000    3.750    2.250    3.500    1.000 
#    4.500    1.250    2.750    0.000    0.000    0.000 
#    0.000    0.000    0.000    0.000    0.000    0.000 
#
# Total GULP energy -89095.771214 kJ/mol
# GULP energy per Si atom -5568.485701 kJ/mol
# Density = 2.017247 g / cm^3
# Si number density = 20.218490 Si / 1000 Ang^3
#
#
#
# Elastic Constant Matrix: (Units=GPa)
#
#
# Indices 1 2 3 4 5 6 
#
# 1 67.6722 23.0927 31.0598 0.0000 19.2290 0.0000
# 2 23.0927 78.8466 38.1219 0.0000 14.9636 0.0000
# 3 31.0598 38.1219 102.9945 0.0000 24.4526 0.0000
# 4 0.0000 0.0000 0.0000 20.2719 0.0000 0.5070
# 5 19.2290 14.9636 24.4526 0.0000 27.8021 0.0000
# 6 0.0000 0.0000 0.0000 0.5070 0.0000 18.8225
#
#
#
# Elastic Compliance Matrix: (Units=1/GPa)
#
#
# Indices 1 2 3 4 5 6 
#
# 1 0.019686 -0.002622 -0.002615 0.000000 -0.009905 0.000000
# 2 -0.002622 0.016185 -0.004503 0.000000 -0.002938 0.000000
# 3 -0.002615 -0.004503 0.014105 0.000000 -0.008174 0.000000
# 4 0.000000 0.000000 0.000000 0.049363 0.000000 -0.001330
# 5 -0.009905 -0.002938 -0.008174 0.000000 0.051589 0.000000
# 6 0.000000 0.000000 0.000000 -0.001330 0.000000 0.053164
#
#
# Mechanical properties :
#
#
# Convention : Reuss Voigt Hill
#
# Bulk Modulus (GPa) = 32.78877 48.22911 40.50894
# Shear Modulus (GPa) = 21.39161 23.86190 22.62676
#
# Velocity S-wave (km/s) = 3.25625 3.43913 3.34894
# Velocity P-wave (km/s) = 5.51271 6.29888 5.91887
#
# Compressibility (1/GPa) = 0.03049825
#
# Stress axis : x y z
#
# Youngs Moduli (GPa) = 50.79653 61.78467 70.89711
#
# Poissons Ratio (x) = 0.16199 0.18538
# Poissons Ratio (y) = 0.13318 0.31922
# Poissons Ratio (z) = 0.13282 0.27819
#
# Static dielectric constant tensor:
#      x y z
#    x 1.761970 0.000000 -0.001550 
#    y 0.000000 1.733470 0.000000 
#    z -0.001550 0.000000 1.746470 
# 
# From -- ./inp_files/12240.got.cif
#   From: 2010.05.17/outbox.cif.g08.bks.cpg/sg9_7_cif.got.tgz:12240.got - 2010.06.03 20:04:27.
