data_PCOD9135520
_publ_section_title
;
Structure prediction by ZEFSAII (Michael W. Deem and Ramdas Pophale) SiO2 
 PCOD9135520
Probable space group: C C
;
_chemical_formula_sum "Si O2"
_cell_formula_units_Z 32
_cell_length_a 5.005492
_cell_length_b 23.666081
_cell_length_c 12.567857
_cell_angle_alpha 90.000000
_cell_angle_beta 66.850165
_cell_angle_gamma 90.000000
_cell_volume 1368.915336
_symmetry_space_group_name_H-M "C C"
_symmetry_group_IT_number 9
_symmetry_cell_setting 'monoclinic'
loop_
_space_group_symop_operation_xyz
x,y,z
x,-y,1/2+z
1/2+x,1/2+y,z
1/2+x,1/2-y,1/2+z
loop_
_atom_site_type_symbol
_atom_site_label
_atom_site_fract_x
_atom_site_fract_y
_atom_site_fract_z
Si Si1 0.791620 0.708927 0.379680
Si Si2 0.121845 0.191319 0.750435
Si Si3 0.207277 0.502364 0.304260
Si Si4 0.155697 0.855795 0.705358
Si Si5 0.665728 0.430903 0.343508
Si Si6 0.747785 0.814399 0.099326
Si Si7 0.158778 0.392895 0.931781
Si Si8 0.267091 0.591728 0.105509
O O1 0.988779 0.764044 0.353451
O O2 0.745776 0.698403 0.260209
O O3 0.482920 0.715663 0.485767
O O4 0.956561 0.654804 0.406405
O O5 0.900781 0.180415 0.688403
O O6 0.179140 0.131620 0.795335
O O7 0.955684 0.071689 0.978057
O O8 0.513395 0.475556 0.288593
O O9 0.073402 0.543811 0.416576
O O10 0.233432 0.541621 0.196426
O O11 0.982466 0.452377 0.322613
O O12 0.930894 0.712887 0.657489
O O13 0.936872 0.857732 0.641155
O O14 0.974661 0.888181 0.826368
O O15 0.948295 0.386878 0.625645
O O16 0.690830 0.874187 0.047932
#
# Coordination Sequence:
#
# PCOD9135520 Si02
#       8
#     4   4   4   4   4   4   4   4
#     4  11  24  48  76 108 137 191 249 298 351 439
#     4  12  29  48  68 108 156 186 236 298 373 444
#     4  11  24  45  72 100 139 191 247 292 338 440
#     4  10  20  40  72 103 132 170 239 304 330 414
#     4  12  28  47  66 106 152 188 226 297 371 431
#     4  11  26  47  74 109 143 198 234 299 379 412
#     4  10  22  45  77 106 134 177 261 297 339 422
#     4  11  23  44  69 106 137 185 240 287 367 404
#
# _framework density 23.376170999999999
#
# number of rings (size 3 to 8) (size 9 to 14) (size 15 to 20)
#    0.000    1.000    3.750    3.000    5.250    4.000 
#    2.250    0.000    0.000    0.000    0.000    0.000 
#    0.000    0.000    0.000    0.000    0.000    0.000 
#
# Total GULP energy -89522.695212 kJ/mol
# GULP energy per Si atom -5595.168451 kJ/mol
# Density = 2.332297 g / cm^3
# Si number density = 23.376171 Si / 1000 Ang^3
#
#
#
# Elastic Constant Matrix: (Units=GPa)
#
#
# Indices 1 2 3 4 5 6 
#
# 1 99.8985 9.7437 14.2076 0.0000 3.7170 0.0000
# 2 9.7437 105.4133 8.7587 0.0000 4.6272 0.0000
# 3 14.2076 8.7587 49.2884 0.0000 -17.7301 0.0000
# 4 0.0000 0.0000 0.0000 16.0823 0.0000 2.4463
# 5 3.7170 4.6272 -17.7301 0.0000 32.8522 0.0000
# 6 0.0000 0.0000 0.0000 2.4463 0.0000 21.6657
#
#
#
# Elastic Compliance Matrix: (Units=1/GPa)
#
#
# Indices 1 2 3 4 5 6 
#
# 1 0.010793 -0.000492 -0.004267 0.000000 -0.003455 0.000000
# 2 -0.000492 0.009868 -0.002596 0.000000 -0.002735 0.000000
# 3 -0.004267 -0.002596 0.027654 0.000000 0.015773 0.000000
# 4 0.000000 0.000000 0.000000 0.063267 0.000000 -0.007144
# 5 -0.003455 -0.002735 0.015773 0.000000 0.039728 0.000000
# 6 0.000000 0.000000 0.000000 -0.007144 0.000000 0.046962
#
#
# Mechanical properties :
#
#
# Convention : Reuss Voigt Hill
#
# Bulk Modulus (GPa) = 29.75563 35.55780 32.65671
# Shear Modulus (GPa) = 22.30334 28.91275 25.60804
#
# Velocity S-wave (km/s) = 3.09221 3.52070 3.31339
# Velocity P-wave (km/s) = 5.05032 5.63660 5.35149
#
# Compressibility (1/GPa) = 0.03360709
#
# Stress axis : x y z
#
# Youngs Moduli (GPa) = 92.64884 101.34137 36.16154
#
# Poissons Ratio (x) = 0.04981 0.15429
# Poissons Ratio (y) = 0.04554 0.09386
# Poissons Ratio (z) = 0.39530 0.26305
#
# Static dielectric constant tensor:
#      x y z
#    x 1.882030 0.000000 0.026150 
#    y 0.000000 1.937090 0.000000 
#    z 0.026150 0.000000 1.890620 
# 
# From -- ./inp_files/13739.got.cif
#   From: 2010.05.17/outbox.cif.g08.bks.cpg/sg9_7_cif.got.tgz:13739.got - 2010.06.03 20:04:27.
