data_PCOD9135535
_publ_section_title
;
Structure prediction by ZEFSAII (Michael W. Deem and Ramdas Pophale) SiO2 
 PCOD9135535
Probable space group: C C
;
_chemical_formula_sum "Si O2"
_cell_formula_units_Z 32
_cell_length_a 10.323812
_cell_length_b 9.461359
_cell_length_c 30.125596
_cell_angle_alpha 90.000000
_cell_angle_beta 34.567955
_cell_angle_gamma 90.000000
_cell_volume 1669.574462
_symmetry_space_group_name_H-M "C C"
_symmetry_group_IT_number 9
_symmetry_cell_setting 'monoclinic'
loop_
_space_group_symop_operation_xyz
x,y,z
x,-y,1/2+z
1/2+x,1/2+y,z
1/2+x,1/2-y,1/2+z
loop_
_atom_site_type_symbol
_atom_site_label
_atom_site_fract_x
_atom_site_fract_y
_atom_site_fract_z
Si Si1 0.310280 0.399059 0.367490
Si Si2 0.060192 0.684689 0.542187
Si Si3 0.900127 0.134699 0.009467
Si Si4 0.697450 0.147613 0.596694
Si Si5 0.536360 0.865208 0.537266
Si Si6 0.295234 0.909084 0.270603
Si Si7 0.346591 0.266898 0.840700
Si Si8 0.583986 0.299815 0.858724
O O1 0.171420 0.371148 0.452229
O O2 0.572296 0.364668 0.305392
O O3 0.296005 0.565167 0.358497
O O4 0.207985 0.304974 0.357188
O O5 0.084721 0.726370 0.586455
O O6 0.964419 0.526025 0.567128
O O7 0.321140 0.679821 0.449422
O O8 0.911694 0.784585 0.552942
O O9 0.701486 0.176565 0.031223
O O10 0.869084 0.969124 0.028002
O O11 0.133468 0.178250 0.919804
O O12 0.503533 0.066618 0.678584
O O13 0.832721 0.256984 0.588496
O O14 0.372109 0.790652 0.284069
O O15 0.213127 0.050858 0.318925
O O16 0.554406 0.244305 0.816531
#
# Coordination Sequence:
#
# PCOD9135535 Si02
#       8
#     4   4   4   4   4   4   4   4
#     4  11  21  38  66  89 115 158 208 250 300 355
#     4  10  20  41  62  91 119 153 201 256 296 355
#     4  10  21  39  62  92 118 155 200 254 297 354
#     4  11  25  37  62  88 129 161 196 249 308 360
#     4  11  20  37  61  95 114 156 203 251 297 357
#     4  11  23  43  56  89 128 163 197 248 308 357
#     4  10  21  38  63  92 120 153 204 258 295 354
#     4  10  21  39  66  88 119 153 207 252 297 356
#
# _framework density 19.16656
#
# number of rings (size 3 to 8) (size 9 to 14) (size 15 to 20)
#    0.000    1.500    6.250    0.750    0.000    9.000 
#    0.000    0.000    0.000    0.000    0.000    0.000 
#    0.000    0.000    0.000    0.000    0.000    0.000 
#
# Total GULP energy -89278.406443 kJ/mol
# GULP energy per Si atom -5579.900403 kJ/mol
# Density = 1.912294 g / cm^3
# Si number density = 19.166560 Si / 1000 Ang^3
#
#
#
# Elastic Constant Matrix: (Units=GPa)
#
#
# Indices 1 2 3 4 5 6 
#
# 1 141.3352 71.3503 6.4578 -0.0008 13.4041 -0.0004
# 2 71.3503 58.8511 11.0235 -0.0003 4.0009 -0.0005
# 3 6.4578 11.0235 25.3819 0.0009 3.8651 -0.0006
# 4 -0.0008 -0.0003 0.0009 6.0772 -0.0001 5.6796
# 5 13.4041 4.0009 3.8651 -0.0001 15.3216 0.0004
# 6 -0.0004 -0.0005 -0.0006 5.6796 0.0004 41.2925
#
#
#
# Elastic Compliance Matrix: (Units=1/GPa)
#
#
# Indices 1 2 3 4 5 6 
#
# 1 0.021437 -0.026583 0.008205 0.000000 -0.013882 0.000000
# 2 -0.026583 0.051587 -0.017816 0.000003 0.014279 0.000000
# 3 0.008205 -0.017816 0.047248 -0.000009 -0.014445 0.000002
# 4 0.000000 0.000003 -0.000009 0.188823 0.000004 -0.025972
# 5 -0.013882 0.014279 -0.014445 0.000004 0.077327 -0.000001
# 6 0.000000 0.000000 0.000002 -0.025972 -0.000001 0.027790
#
#
# Mechanical properties :
#
#
# Convention : Reuss Voigt Hill
#
# Bulk Modulus (GPa) = 20.88357 44.80349 32.84353
# Shear Modulus (GPa) = 9.94904 21.65403 15.80153
#
# Velocity S-wave (km/s) = 2.28081 3.36487 2.87441
# Velocity P-wave (km/s) = 4.22559 6.20670 5.30936
#
# Compressibility (1/GPa) = 0.04788453
#
# Stress axis : x y z
#
# Youngs Moduli (GPa) = 46.64834 19.38463 21.16506
#
# Poissons Ratio (x) = 0.51530 -0.17366
# Poissons Ratio (y) = 1.24005 0.37707
# Poissons Ratio (z) = -0.38275 0.34535
#
# Static dielectric constant tensor:
#      x y z
#    x 1.677770 0.000000 0.026980 
#    y 0.000000 1.660650 0.000000 
#    z 0.026980 0.000000 1.695020 
# 
# From -- ./inp_files/29810.got.cif
#   From: 2010.05.17/outbox.cif.g08.bks.cpg/sg9_15_cif.got.tgz:29810.got - 2010.06.03 20:04:27.
