data_PCOD9135521
_publ_section_title
;
Structure prediction by ZEFSAII (Michael W. Deem and Ramdas Pophale) SiO2 
 PCOD9135521
Probable space group: C C
;
_chemical_formula_sum "Si O2"
_cell_formula_units_Z 28
_cell_length_a 18.365617
_cell_length_b 6.360161
_cell_length_c 13.306722
_cell_angle_alpha 90.000000
_cell_angle_beta 132.857166
_cell_angle_gamma 90.000000
_cell_volume 1139.407990
_symmetry_space_group_name_H-M "C C"
_symmetry_group_IT_number 9
_symmetry_cell_setting 'monoclinic'
loop_
_space_group_symop_operation_xyz
x,y,z
x,-y,1/2+z
1/2+x,1/2+y,z
1/2+x,1/2-y,1/2+z
loop_
_atom_site_type_symbol
_atom_site_label
_atom_site_fract_x
_atom_site_fract_y
_atom_site_fract_z
Si Si1 0.493100 0.852174 0.507240
Si Si2 0.756655 0.266768 0.104698
Si Si3 0.536267 0.774512 0.914970
Si Si4 0.855431 0.037060 0.822546
Si Si5 0.663382 0.486816 0.178007
Si Si6 0.103428 0.963059 0.825164
Si Si7 0.409228 0.219540 0.566449
O O1 0.514180 0.992017 0.428504
O O2 0.455742 0.007473 0.560992
O O3 0.411887 0.675574 0.408197
O O4 0.592960 0.719522 0.621178
O O5 0.765300 0.043790 0.169628
O O6 0.754789 0.439902 0.191670
O O7 0.842480 0.297978 0.103507
O O8 0.651789 0.311470 0.953032
O O9 0.430172 0.659125 0.820031
O O10 0.586313 0.689811 0.860652
O O11 0.599741 0.668585 0.065152
O O12 0.848247 0.168433 0.918147
O O13 0.683609 0.531878 0.311802
O O14 0.002348 0.868972 0.684969
#
# Coordination Sequence:
#
# PCOD9135521 Si02
#       7
#     4   4   4   4   4   4   4
#     4  10  20  40  72  93 128 191 225 277 356 416
#     4  11  26  42  70 104 143 181 229 299 350 407
#     4   9  19  40  66  95 132 179 230 284 345 411
#     4  10  21  43  64 100 139 174 236 292 336 426
#     4  10  22  44  63 100 141 171 237 294 335 423
#     4  11  21  44  71  97 142 187 233 291 347 421
#     4  11  23  45  74  95 139 189 234 285 359 418
#
# _framework density 24.574166999999999
#
# number of rings (size 3 to 8) (size 9 to 14) (size 15 to 20)
#    0.000    1.714    5.714    0.000    2.000    2.286 
#    2.571    1.429    0.000    0.000    0.000    0.000 
#    0.000    0.000    0.000    0.000    0.000    0.000 
#
# Total GULP energy -78280.072362 kJ/mol
# GULP energy per Si atom -5591.433740 kJ/mol
# Density = 2.451823 g / cm^3
# Si number density = 24.574167 Si / 1000 Ang^3
#
#
#
# Elastic Constant Matrix: (Units=GPa)
#
#
# Indices 1 2 3 4 5 6 
#
# 1 168.2083 45.3404 33.4815 0.0000 -38.0271 0.0000
# 2 45.3404 114.8945 27.4606 0.0000 -7.3396 0.0000
# 3 33.4815 27.4606 83.5227 0.0000 -21.9500 0.0000
# 4 0.0000 0.0000 0.0000 35.6584 0.0000 -0.0755
# 5 -38.0271 -7.3396 -21.9500 0.0000 33.6371 0.0000
# 6 0.0000 0.0000 0.0000 -0.0755 0.0000 42.5204
#
#
#
# Elastic Compliance Matrix: (Units=1/GPa)
#
#
# Indices 1 2 3 4 5 6 
#
# 1 0.008843 -0.002857 -0.000172 0.000000 0.009262 0.000000
# 2 -0.002857 0.010369 -0.003039 0.000000 -0.002951 0.000000
# 3 -0.000172 -0.003039 0.015468 0.000000 0.009237 0.000000
# 4 0.000000 0.000000 0.000000 0.028044 0.000000 0.000050
# 5 0.009262 -0.002951 0.009237 0.000000 0.045583 0.000000
# 6 0.000000 0.000000 0.000000 0.000050 0.000000 0.023518
#
#
# Mechanical properties :
#
#
# Convention : Reuss Voigt Hill
#
# Bulk Modulus (GPa) = 44.35634 64.35450 54.35542
# Shear Modulus (GPa) = 33.00837 39.71938 36.36387
#
# Velocity S-wave (km/s) = 3.66896 4.02469 3.85094
# Velocity P-wave (km/s) = 6.00313 6.91681 6.47610
#
# Compressibility (1/GPa) = 0.02254469
#
# Stress axis : x y z
#
# Youngs Moduli (GPa) = 113.08219 96.44103 64.64847
#
# Poissons Ratio (x) = 0.27554 0.01109
# Poissons Ratio (y) = 0.32308 0.19649
# Poissons Ratio (z) = 0.01939 0.29311
#
# Static dielectric constant tensor:
#      x y z
#    x 1.937000 0.000000 0.005580 
#    y 0.000000 1.960400 0.000000 
#    z 0.005580 0.000000 1.999660 
# 
# From -- ./inp_files/27080.got.cif
#   From: 2010.05.17/outbox.cif.g08.bks.cpg/sg9_14_cif.got.tgz:27080.got - 2010.06.03 20:04:27.
