data_PCOD9135993
_publ_section_title
;
Structure prediction by ZEFSAII (Michael W. Deem and Ramdas Pophale) SiO2 
 PCOD9135993
Probable space group: C C
;
_chemical_formula_sum "Si O2"
_cell_formula_units_Z 24
_cell_length_a 5.004898
_cell_length_b 34.847799
_cell_length_c 5.480105
_cell_angle_alpha 90.000000
_cell_angle_beta 98.441133
_cell_angle_gamma 90.000000
_cell_volume 945.429551
_symmetry_space_group_name_H-M "C C"
_symmetry_group_IT_number 9
_symmetry_cell_setting 'monoclinic'
loop_
_space_group_symop_operation_xyz
x,y,z
x,-y,1/2+z
1/2+x,1/2+y,z
1/2+x,1/2-y,1/2+z
loop_
_atom_site_type_symbol
_atom_site_label
_atom_site_fract_x
_atom_site_fract_y
_atom_site_fract_z
Si Si1 0.190750 0.782838 0.134800
Si Si2 0.151142 0.297760 0.834677
Si Si3 0.076662 0.141903 0.807223
Si Si4 0.845088 0.571604 0.091230
Si Si5 0.523371 0.875014 0.979809
Si Si6 0.308043 0.523674 0.973681
O O1 0.103002 0.738998 0.161626
O O2 0.135487 0.812599 0.349700
O O3 0.487613 0.787209 0.062457
O O4 0.971336 0.797561 0.912201
O O5 0.071354 0.341665 0.782056
O O6 0.250495 0.132335 0.588925
O O7 0.768391 0.133126 0.698627
O O8 0.186698 0.110937 0.009786
O O9 0.610218 0.540259 0.046410
O O10 0.000762 0.583200 0.359728
O O11 0.083808 0.557211 0.950147
O O12 0.269477 0.498535 0.214219
#
# Coordination Sequence:
#
# PCOD9135993 Si02
#       6
#     4   4   4   4   4   4
#     4  10  21  38  59  90 131 180 229 292 344 407
#     4  10  21  38  59  90 131 180 229 292 344 407
#     4  10  23  42  66 100 139 181 240 289 351 419
#     4  12  26  46  80 102 141 190 227 302 350 444
#     4  10  23  42  66 100 139 181 240 289 351 419
#     4  12  30  52  80 114 147 190 237 296 378 448
#
# _framework density 25.385287999999999
#
# number of rings (size 3 to 8) (size 9 to 14) (size 15 to 20)
#    0.000    1.333    0.000    4.000    9.333    0.000 
#    3.000    0.000    0.000    0.000    0.000    0.000 
#    0.000    0.000    0.000    0.000    0.000    0.000 
#
# Total GULP energy -67073.860474 kJ/mol
# GULP energy per Si atom -5589.488373 kJ/mol
# Density = 2.532751 g / cm^3
# Si number density = 25.385288 Si / 1000 Ang^3
#
#
#
# Elastic Constant Matrix: (Units=GPa)
#
#
# Indices 1 2 3 4 5 6 
#
# 1 104.2682 25.1217 19.6465 0.0000 2.7633 0.0000
# 2 25.1217 71.5416 31.0390 0.0000 9.6242 0.0000
# 3 19.6465 31.0390 70.4528 0.0000 3.1046 0.0000
# 4 0.0000 0.0000 0.0000 48.8069 0.0000 5.7078
# 5 2.7633 9.6242 3.1046 0.0000 21.3780 0.0000
# 6 0.0000 0.0000 0.0000 5.7078 0.0000 43.3688
#
#
#
# Elastic Compliance Matrix: (Units=1/GPa)
#
#
# Indices 1 2 3 4 5 6 
#
# 1 0.010628 -0.003058 -0.001627 0.000000 0.000239 0.000000
# 2 -0.003058 0.019176 -0.007279 0.000000 -0.007180 0.000000
# 3 -0.001627 -0.007279 0.017815 0.000000 0.000900 0.000000
# 4 0.000000 0.000000 0.000000 0.020809 0.000000 -0.002739
# 5 0.000239 -0.007180 0.000900 0.000000 0.049848 0.000000
# 6 0.000000 0.000000 0.000000 -0.002739 0.000000 0.023419
#
#
# Mechanical properties :
#
#
# Convention : Reuss Voigt Hill
#
# Bulk Modulus (GPa) = 42.21165 44.20856 43.21010
# Shear Modulus (GPa) = 28.81537 34.07442 31.44490
#
# Velocity S-wave (km/s) = 3.37281 3.66770 3.52334
# Velocity P-wave (km/s) = 5.64201 5.94886 5.79746
#
# Compressibility (1/GPa) = 0.02369014
#
# Stress axis : x y z
#
# Youngs Moduli (GPa) = 94.09391 52.14914 56.13335
#
# Poissons Ratio (x) = 0.15949 0.09132
# Poissons Ratio (y) = 0.28777 0.40859
# Poissons Ratio (z) = 0.15307 0.37959
#
# Static dielectric constant tensor:
#      x y z
#    x 1.895060 0.000000 0.045580 
#    y 0.000000 2.086860 0.000000 
#    z 0.045580 0.000000 2.059840 
# 
# From -- ./inp_files/346.got.cif
#   From: 2010.05.17/outbox.cif.g08.bks.cpg/sg9_1_cif.got.tgz:346.got - 2010.06.03 20:04:27.
