data_PCOD9135582
_publ_section_title
;
Structure prediction by ZEFSAII (Michael W. Deem and Ramdas Pophale) SiO2 
 PCOD9135582
Probable space group: C C
;
_chemical_formula_sum "Si O2"
_cell_formula_units_Z 32
_cell_length_a 5.511862
_cell_length_b 21.461818
_cell_length_c 10.538961
_cell_angle_alpha 90.000000
_cell_angle_beta 101.975737
_cell_angle_gamma 90.000000
_cell_volume 1219.568182
_symmetry_space_group_name_H-M "C C"
_symmetry_group_IT_number 9
_symmetry_cell_setting 'monoclinic'
loop_
_space_group_symop_operation_xyz
x,y,z
x,-y,1/2+z
1/2+x,1/2+y,z
1/2+x,1/2-y,1/2+z
loop_
_atom_site_type_symbol
_atom_site_label
_atom_site_fract_x
_atom_site_fract_y
_atom_site_fract_z
Si Si1 0.054570 0.813401 0.654890
Si Si2 0.648394 0.034927 0.536883
Si Si3 0.467896 0.732882 0.771100
Si Si4 0.269256 0.139107 0.931760
Si Si5 0.595980 0.489898 0.430018
Si Si6 0.606931 0.881489 0.261495
Si Si7 0.227239 0.800645 0.063754
Si Si8 0.879419 0.113889 0.354094
O O1 0.275284 0.787934 0.771053
O O2 0.195772 0.856483 0.570119
O O3 0.851256 0.848229 0.720396
O O4 0.929735 0.754699 0.565225
O O5 0.667418 0.059032 0.683033
O O6 0.668402 0.091980 0.433148
O O7 0.379648 0.003795 0.499451
O O8 0.888373 0.995491 0.518456
O O9 0.711830 0.709002 0.871024
O O10 0.539133 0.736357 0.632951
O O11 0.304923 0.671845 0.768650
O O12 0.105990 0.078582 0.872669
O O13 0.531920 0.118995 0.900978
O O14 0.514949 0.548823 0.336344
O O15 0.365954 0.852964 0.163191
O O16 0.060500 0.841772 0.954000
#
# Coordination Sequence:
#
# PCOD9135582 Si02
#       8
#     4   4   4   4   4   4   4   4
#     4  11  25  42  67 107 145 191 242 313 370 447
#     4  10  21  45  73 104 136 193 247 291 367 433
#     4  10  22  42  68  97 137 194 234 306 365 436
#     4  11  26  43  67 108 146 186 252 301 383 432
#     4  10  24  44  73 108 143 191 243 307 362 446
#     4  10  20  41  71  94 137 186 243 296 357 446
#     4  10  20  41  68 100 133 192 245 296 368 431
#     4  10  22  42  69 100 147 185 248 296 376 437
#
# _framework density 26.238793000000001
#
# number of rings (size 3 to 8) (size 9 to 14) (size 15 to 20)
#    0.750    1.000    2.500    0.750    3.500    6.000 
#    2.250    0.000    0.000    0.000    0.000    0.000 
#    0.000    0.000    0.000    0.000    0.000    0.000 
#
# Total GULP energy -89174.674842 kJ/mol
# GULP energy per Si atom -5573.417178 kJ/mol
# Density = 2.617907 g / cm^3
# Si number density = 26.238793 Si / 1000 Ang^3
#
#
#
# Elastic Constant Matrix: (Units=GPa)
#
#
# Indices 1 2 3 4 5 6 
#
# 1 121.1019 40.2000 40.4689 0.0000 -29.4430 0.0000
# 2 40.2000 101.9670 37.0183 0.0000 -5.9649 0.0000
# 3 40.4689 37.0183 64.3939 0.0000 -11.1696 0.0000
# 4 0.0000 0.0000 0.0000 31.7917 0.0000 5.0386
# 5 -29.4430 -5.9649 -11.1696 0.0000 32.9255 0.0000
# 6 0.0000 0.0000 0.0000 5.0386 0.0000 25.1748
#
#
#
# Elastic Compliance Matrix: (Units=1/GPa)
#
#
# Indices 1 2 3 4 5 6 
#
# 1 0.013202 -0.002825 -0.005008 0.000000 0.009595 0.000000
# 2 -0.002825 0.012999 -0.006085 0.000000 -0.002236 0.000000
# 3 -0.005008 -0.006085 0.022533 0.000000 0.002063 0.000000
# 4 0.000000 0.000000 0.000000 0.032485 0.000000 -0.006502
# 5 0.009595 -0.002236 0.002063 0.000000 0.039246 0.000000
# 6 0.000000 0.000000 0.000000 -0.006502 0.000000 0.041024
#
#
# Mechanical properties :
#
#
# Convention : Reuss Voigt Hill
#
# Bulk Modulus (GPa) = 47.85495 58.09301 52.97398
# Shear Modulus (GPa) = 25.47226 29.29677 27.38452
#
# Velocity S-wave (km/s) = 3.11912 3.34510 3.23409
# Velocity P-wave (km/s) = 5.59015 6.09161 5.84626
#
# Compressibility (1/GPa) = 0.02089648
#
# Stress axis : x y z
#
# Youngs Moduli (GPa) = 75.74809 76.92703 44.37928
#
# Poissons Ratio (x) = 0.21733 0.22227
# Poissons Ratio (y) = 0.21400 0.27006
# Poissons Ratio (z) = 0.37937 0.46812
#
# Static dielectric constant tensor:
#      x y z
#    x 2.169610 0.000000 0.005570 
#    y 0.000000 2.093300 0.000000 
#    z 0.005570 0.000000 2.120340 
# 
# From -- ./inp_files/13737.got.cif
#   From: 2010.05.17/outbox.cif.g08.bks.cpg/sg9_7_cif.got.tgz:13737.got - 2010.06.03 20:04:27.
