data_PCOD9135009
_publ_section_title
;
Structure prediction by ZEFSAII (Michael W. Deem and Ramdas Pophale) SiO2 
 PCOD9135009
Probable space group: C C
;
_chemical_formula_sum "Si O2"
_cell_formula_units_Z 32
_cell_length_a 5.433316
_cell_length_b 32.743728
_cell_length_c 7.460271
_cell_angle_alpha 90.000000
_cell_angle_beta 84.930023
_cell_angle_gamma 90.000000
_cell_volume 1322.041798
_symmetry_space_group_name_H-M "C C"
_symmetry_group_IT_number 9
_symmetry_cell_setting 'monoclinic'
loop_
_space_group_symop_operation_xyz
x,y,z
x,-y,1/2+z
1/2+x,1/2+y,z
1/2+x,1/2-y,1/2+z
loop_
_atom_site_type_symbol
_atom_site_label
_atom_site_fract_x
_atom_site_fract_y
_atom_site_fract_z
Si Si1 0.152300 0.193498 0.079640
Si Si2 0.182396 0.379264 0.402221
Si Si3 0.029176 0.760409 0.911538
Si Si4 0.952203 0.534353 0.458145
Si Si5 0.378992 0.304539 0.257441
Si Si6 0.978098 0.883679 0.726144
Si Si7 0.343537 0.055775 0.068398
Si Si8 0.431389 0.574188 0.585206
O O1 0.968093 0.219772 0.221714
O O2 0.184389 0.152095 0.191549
O O3 0.361943 0.224943 0.006429
O O4 0.063410 0.178367 0.892429
O O5 0.161726 0.338012 0.285929
O O6 0.265849 0.370489 0.601487
O O7 0.950869 0.408558 0.438625
O O8 0.378388 0.406715 0.280990
O O9 0.286263 0.737979 0.852221
O O10 0.004293 0.795317 0.061847
O O11 0.982147 0.549547 0.251117
O O12 0.874629 0.486957 0.467170
O O13 0.206834 0.543289 0.547769
O O14 0.707972 0.556750 0.551976
O O15 0.079625 0.927313 0.650074
O O16 0.906830 0.890705 0.934741
#
# Coordination Sequence:
#
# PCOD9135009 Si02
#       8
#     4   4   4   4   4   4   4   4
#     4  10  20  37  60  86 123 160 206 257 317 373
#     4  11  23  39  66  89 130 167 215 267 326 387
#     4  10  20  36  60  87 123 160 205 264 303 388
#     4  11  26  43  69  95 134 170 223 267 329 381
#     4  10  21  37  59  91 119 163 209 252 320 373
#     4  10  23  41  61  91 129 167 214 266 328 385
#     4  11  24  42  64  93 128 169 213 272 322 391
#     4  11  25  45  65 100 130 176 217 271 321 390
#
# _framework density 24.204984
#
# number of rings (size 3 to 8) (size 9 to 14) (size 15 to 20)
#    0.000    1.500    1.250    3.000    5.250    1.000 
#    0.000    0.000    8.250    0.000    0.000    0.000 
#    0.000    0.000    0.000    0.000    0.000    0.000 
#
# Total GULP energy -89221.918020 kJ/mol
# GULP energy per Si atom -5576.369876 kJ/mol
# Density = 2.414989 g / cm^3
# Si number density = 24.204984 Si / 1000 Ang^3
#
#
#
# Elastic Constant Matrix: (Units=GPa)
#
#
# Indices 1 2 3 4 5 6 
#
# 1 47.6586 1.8033 19.7018 0.0000 -12.0805 0.0000
# 2 1.8033 85.3813 15.9990 0.0000 -15.9364 0.0000
# 3 19.7018 15.9990 121.1380 0.0000 -16.9254 0.0000
# 4 0.0000 0.0000 0.0000 32.5294 0.0000 -4.1146
# 5 -12.0805 -15.9364 -16.9254 0.0000 31.3542 0.0000
# 6 0.0000 0.0000 0.0000 -4.1146 0.0000 18.2598
#
#
#
# Elastic Compliance Matrix: (Units=1/GPa)
#
#
# Indices 1 2 3 4 5 6 
#
# 1 0.024331 0.001650 -0.002972 0.000000 0.008609 0.000000
# 2 0.001650 0.013134 -0.001062 0.000000 0.006738 0.000000
# 3 -0.002972 -0.001062 0.009348 0.000000 0.003362 0.000000
# 4 0.000000 0.000000 0.000000 0.031643 0.000000 0.007130
# 5 0.008609 0.006738 0.003362 0.000000 0.040450 0.000000
# 6 0.000000 0.000000 0.000000 0.007130 0.000000 0.056372
#
#
# Mechanical properties :
#
#
# Convention : Reuss Voigt Hill
#
# Bulk Modulus (GPa) = 23.78379 36.57622 30.18000
# Shear Modulus (GPa) = 25.76507 30.87361 28.31934
#
# Velocity S-wave (km/s) = 3.26614 3.57530 3.42421
# Velocity P-wave (km/s) = 4.90620 5.67340 5.30369
#
# Compressibility (1/GPa) = 0.04204544
#
# Stress axis : x y z
#
# Youngs Moduli (GPa) = 41.09985 76.13877 106.97092
#
# Poissons Ratio (x) = -0.12562 0.31795
# Poissons Ratio (y) = -0.06781 0.11355
# Poissons Ratio (z) = 0.12216 0.08082
#
# Static dielectric constant tensor:
#      x y z
#    x 2.033100 0.000000 0.008360 
#    y 0.000000 2.039720 0.000000 
#    z 0.008360 0.000000 1.899450 
# 
# From -- ./inp_files/4313.got.cif
#   From: 2010.05.17/outbox.cif.g08.bks.cpg/sg9_3_cif.got.tgz:4313.got - 2010.06.03 20:04:27.
