data_PCOD9135872
_publ_section_title
;
Structure prediction by ZEFSAII (Michael W. Deem and Ramdas Pophale) SiO2 
 PCOD9135872
Probable space group: C C
;
_chemical_formula_sum "Si O2"
_cell_formula_units_Z 24
_cell_length_a 21.619658
_cell_length_b 8.523266
_cell_length_c 5.471781
_cell_angle_alpha 90.000000
_cell_angle_beta 71.720413
_cell_angle_gamma 90.000000
_cell_volume 957.404780
_symmetry_space_group_name_H-M "C C"
_symmetry_group_IT_number 9
_symmetry_cell_setting 'monoclinic'
loop_
_space_group_symop_operation_xyz
x,y,z
x,-y,1/2+z
1/2+x,1/2+y,z
1/2+x,1/2-y,1/2+z
loop_
_atom_site_type_symbol
_atom_site_label
_atom_site_fract_x
_atom_site_fract_y
_atom_site_fract_z
Si Si1 0.183870 0.443219 0.405480
Si Si2 0.383082 0.446857 0.956178
Si Si3 0.030187 0.926006 0.248543
Si Si4 0.210655 0.911955 0.765602
Si Si5 0.368325 0.087854 0.071715
Si Si6 0.535047 0.058635 0.156064
O O1 0.213248 0.464799 0.638677
O O2 0.183198 0.262095 0.331584
O O3 0.109297 0.501360 0.531534
O O4 0.350043 0.482941 0.738449
O O5 0.453189 0.532173 0.849736
O O6 0.392862 0.262474 0.982322
O O7 0.036519 0.740382 0.222870
O O8 0.056901 0.994420 0.469021
O O9 0.289332 0.897455 0.667535
O O10 0.192937 0.988586 0.528452
O O11 0.384184 0.027590 0.325240
O O12 0.505623 0.967263 0.423592
#
# Coordination Sequence:
#
# PCOD9135872 Si02
#       6
#     4   4   4   4   4   4
#     4  10  21  36  56  84 114 146 184 224 273 329
#     4  10  21  38  56  81 110 140 185 232 274 326
#     4  10  21  38  56  81 110 140 185 232 274 326
#     4  10  21  36  56  84 114 146 184 224 273 329
#     4  10  21  38  58  81 112 148 184 226 276 329
#     4  10  21  38  58  81 112 148 184 226 276 329
#
# _framework density 25.067768000000001
#
# number of rings (size 3 to 8) (size 9 to 14) (size 15 to 20)
#    0.000    2.000    0.000    3.000    0.000    2.667 
#    0.000   20.000    0.000    0.000    0.000    0.000 
#    0.000    0.000    0.000    0.000    0.000    0.000 
#
# Total GULP energy -67207.587964 kJ/mol
# GULP energy per Si atom -5600.632330 kJ/mol
# Density = 2.501071 g / cm^3
# Si number density = 25.067768 Si / 1000 Ang^3
#
#
#
# Elastic Constant Matrix: (Units=GPa)
#
#
# Indices 1 2 3 4 5 6 
#
# 1 78.1370 -18.9536 31.9437 0.0000 6.7443 0.0000
# 2 -18.9536 150.2906 67.8535 0.0000 18.9090 0.0000
# 3 31.9437 67.8535 230.6286 0.0000 30.3502 0.0000
# 4 0.0000 0.0000 0.0000 59.6192 0.0000 -0.1058
# 5 6.7443 18.9090 30.3502 0.0000 50.4871 0.0000
# 6 0.0000 0.0000 0.0000 -0.1058 0.0000 32.4018
#
#
#
# Elastic Compliance Matrix: (Units=1/GPa)
#
#
# Indices 1 2 3 4 5 6 
#
# 1 0.014912 0.003362 -0.002852 0.000000 -0.001536 0.000000
# 2 0.003362 0.008559 -0.002718 0.000000 -0.002021 0.000000
# 3 -0.002852 -0.002718 0.005806 0.000000 -0.002091 0.000000
# 4 0.000000 0.000000 0.000000 0.016773 0.000000 0.000055
# 5 -0.001536 -0.002021 -0.002091 0.000000 0.022026 0.000000
# 6 0.000000 0.000000 0.000000 0.000055 0.000000 0.030863
#
#
# Mechanical properties :
#
#
# Convention : Reuss Voigt Hill
#
# Bulk Modulus (GPa) = 40.22503 68.97152 54.59827
# Shear Modulus (GPa) = 44.78570 53.71582 49.25076
#
# Velocity S-wave (km/s) = 4.23139 4.63409 4.43731
# Velocity P-wave (km/s) = 6.32093 7.49712 6.93401
#
# Compressibility (1/GPa) = 0.02486014
#
# Stress axis : x y z
#
# Youngs Moduli (GPa) = 67.05942 116.83553 172.23978
#
# Poissons Ratio (x) = -0.39276 0.49128
# Poissons Ratio (y) = -0.22543 0.46812
# Poissons Ratio (z) = 0.19127 0.31754
#
# Static dielectric constant tensor:
#      x y z
#    x 2.083600 0.000000 0.015330 
#    y 0.000000 1.857080 0.000000 
#    z 0.015330 0.000000 2.016150 
# 
# From -- ./inp_files/359.got.cif
#   From: 2010.05.17/outbox.cif.g08.bks.cpg/sg9_1_cif.got.tgz:359.got - 2010.06.03 20:04:27.
