data_PCOD9135608
_publ_section_title
;
Structure prediction by ZEFSAII (Michael W. Deem and Ramdas Pophale) SiO2 
 PCOD9135608
Probable space group: C C
;
_chemical_formula_sum "Si O2"
_cell_formula_units_Z 28
_cell_length_a 10.015004
_cell_length_b 12.141190
_cell_length_c 14.489957
_cell_angle_alpha 90.000000
_cell_angle_beta 35.252305
_cell_angle_gamma 90.000000
_cell_volume 1016.925835
_symmetry_space_group_name_H-M "C C"
_symmetry_group_IT_number 9
_symmetry_cell_setting 'monoclinic'
loop_
_space_group_symop_operation_xyz
x,y,z
x,-y,1/2+z
1/2+x,1/2+y,z
1/2+x,1/2-y,1/2+z
loop_
_atom_site_type_symbol
_atom_site_label
_atom_site_fract_x
_atom_site_fract_y
_atom_site_fract_z
Si Si1 0.042870 0.863648 0.244270
Si Si2 0.559236 0.745576 0.479448
Si Si3 0.593419 0.007074 0.167376
Si Si4 0.447533 0.406775 0.706167
Si Si5 0.085155 0.724711 0.769643
Si Si6 0.596758 0.488285 0.423595
Si Si7 0.007509 0.673454 0.377217
O O1 0.102447 0.797170 0.306084
O O2 0.781597 0.818089 0.375016
O O3 0.250225 0.820158 0.060972
O O4 0.036461 0.989758 0.214287
O O5 0.333025 0.770358 0.667603
O O6 0.448830 0.771723 0.441405
O O7 0.583974 0.614456 0.467014
O O8 0.599605 0.899486 0.228396
O O9 0.866287 0.020978 0.988294
O O10 0.362787 0.983676 0.236840
O O11 0.535251 0.111327 0.264009
O O12 0.488340 0.300067 0.744780
O O13 0.552255 0.415662 0.542326
O O14 0.170428 0.401245 0.849161
#
# Coordination Sequence:
#
# PCOD9135608 Si02
#       7
#     4   4   4   4   4   4   4
#     4  12  23  46  73 102 141 186 244 299 366 433
#     4  11  22  43  72 104 130 189 242 296 354 454
#     4  10  20  42  67  98 136 185 228 295 360 429
#     4  11  25  44  67 103 147 187 229 306 369 435
#     4  11  25  43  72 101 144 185 243 293 378 439
#     4  10  20  41  72  96 136 187 232 298 368 430
#     4  11  25  45  73 104 138 193 238 301 369 436
#
# _framework density 27.533964000000001
#
# number of rings (size 3 to 8) (size 9 to 14) (size 15 to 20)
#    0.000    1.143    2.857    4.286    2.000    3.429 
#   10.286    0.000    0.000    0.000    0.000    0.000 
#    0.000    0.000    0.000    0.000    0.000    0.000 
#
# Total GULP energy -78178.494778 kJ/mol
# GULP energy per Si atom -5584.178198 kJ/mol
# Density = 2.747130 g / cm^3
# Si number density = 27.533964 Si / 1000 Ang^3
#
#
#
# Elastic Constant Matrix: (Units=GPa)
#
#
# Indices 1 2 3 4 5 6 
#
# 1 85.3177 12.1262 31.3058 -0.0006 -18.8033 -0.0004
# 2 12.1262 106.1945 -0.7684 -0.0014 2.4755 0.0000
# 3 31.3058 -0.7684 98.0998 -0.0073 -39.5641 0.0013
# 4 -0.0006 -0.0014 -0.0073 31.7788 0.0014 -5.3826
# 5 -18.8033 2.4755 -39.5641 0.0014 60.2473 0.0002
# 6 -0.0004 0.0000 0.0013 -5.3826 0.0002 40.9999
#
#
#
# Elastic Compliance Matrix: (Units=1/GPa)
#
#
# Indices 1 2 3 4 5 6 
#
# 1 0.013708 -0.001638 -0.003584 -0.000001 0.001992 0.000000
# 2 -0.001638 0.009622 0.000316 0.000000 -0.000699 0.000000
# 3 -0.003584 0.000316 0.014804 0.000003 0.008590 0.000000
# 4 -0.000001 0.000000 0.000003 0.032183 0.000001 0.004225
# 5 0.001992 -0.000699 0.008590 0.000001 0.022890 0.000000
# 6 0.000000 0.000000 0.000000 0.004225 0.000000 0.024945
#
#
# Mechanical properties :
#
#
# Convention : Reuss Voigt Hill
#
# Bulk Modulus (GPa) = 35.30625 41.65990 38.48307
# Shear Modulus (GPa) = 36.38888 43.06843 39.72865
#
# Velocity S-wave (km/s) = 3.63933 3.95928 3.80267
# Velocity P-wave (km/s) = 5.52361 6.00536 5.76952
#
# Compressibility (1/GPa) = 0.02832360
#
# Stress axis : x y z
#
# Youngs Moduli (GPa) = 72.95164 103.92564 67.54721
#
# Poissons Ratio (x) = 0.17019 0.24208
# Poissons Ratio (y) = 0.11947 -0.02135
# Poissons Ratio (z) = 0.26145 -0.03285
#
# Static dielectric constant tensor:
#      x y z
#    x 2.250500 0.000000 -0.010100 
#    y 0.000000 2.073190 0.000000 
#    z -0.010100 0.000000 2.153680 
# 
# From -- ./inp_files/16350.got.cif
#   From: 2010.05.17/outbox.cif.g08.bks.cpg/sg9_9_cif.got.tgz:16350.got - 2010.06.03 20:04:27.
