data_PCOD9135357
_publ_section_title
;
Structure prediction by ZEFSAII (Michael W. Deem and Ramdas Pophale) SiO2 
 PCOD9135357
Probable space group: C C
;
_chemical_formula_sum "Si O2"
_cell_formula_units_Z 28
_cell_length_a 9.794277
_cell_length_b 18.027373
_cell_length_c 16.343747
_cell_angle_alpha 90.000000
_cell_angle_beta 150.514564
_cell_angle_gamma 90.000000
_cell_volume 1420.365466
_symmetry_space_group_name_H-M "C C"
_symmetry_group_IT_number 9
_symmetry_cell_setting 'monoclinic'
loop_
_space_group_symop_operation_xyz
x,y,z
x,-y,1/2+z
1/2+x,1/2+y,z
1/2+x,1/2-y,1/2+z
loop_
_atom_site_type_symbol
_atom_site_label
_atom_site_fract_x
_atom_site_fract_y
_atom_site_fract_z
Si Si1 0.342820 0.198384 0.951900
Si Si2 0.806746 0.910540 0.728335
Si Si3 0.158315 0.059123 0.558629
Si Si4 0.240568 0.295438 0.209389
Si Si5 0.161250 0.801794 0.817907
Si Si6 0.247446 0.451269 0.290174
Si Si7 0.797639 0.691175 0.738409
O O1 0.391311 0.196437 0.880211
O O2 0.020894 0.206854 0.803704
O O3 0.503175 0.125920 0.070243
O O4 0.507087 0.266407 0.077145
O O5 0.981213 0.874769 0.745708
O O6 0.794050 0.999105 0.732464
O O7 0.979378 0.889974 0.901420
O O8 0.436543 0.035401 0.657764
O O9 0.249492 0.107900 0.682445
O O10 0.961823 0.987903 0.465935
O O11 0.182851 0.223987 0.235728
O O12 0.283502 0.365385 0.292222
O O13 0.969436 0.310376 0.014108
O O14 0.005573 0.736253 0.787557
#
# Coordination Sequence:
#
# PCOD9135357 Si02
#       7
#     4   4   4   4   4   4   4
#     4  11  23  36  60  93 129 166 209 267 327 373
#     4   9  20  38  63  90 122 176 207 259 324 401
#     4  10  20  39  66  88 122 171 219 256 323 390
#     4  12  22  38  63  98 126 163 212 277 311 381
#     4  11  20  37  65  92 123 162 220 260 315 374
#     4  10  20  39  66  90 124 168 218 256 331 393
#     4  11  21  41  59  91 126 172 213 261 321 394
#
# _framework density 19.713235999999998
#
# number of rings (size 3 to 8) (size 9 to 14) (size 15 to 20)
#    0.857    0.571    2.857    5.143    0.000    0.000 
#    0.000    1.429    3.143    0.000    0.000    0.000 
#    0.000    0.000    0.000    0.000    0.000    0.000 
#
# Total GULP energy -78046.241188 kJ/mol
# GULP energy per Si atom -5574.731513 kJ/mol
# Density = 1.966837 g / cm^3
# Si number density = 19.713236 Si / 1000 Ang^3
#
#
#
# Elastic Constant Matrix: (Units=GPa)
#
#
# Indices 1 2 3 4 5 6 
#
# 1 39.4790 -8.5362 9.0647 -0.0060 9.9393 0.0015
# 2 -8.5362 46.9524 -7.6841 -0.0215 -3.5933 -0.0038
# 3 9.0647 -7.6841 61.3405 -0.0353 15.1401 -0.0042
# 4 -0.0060 -0.0215 -0.0353 33.9003 -0.0031 1.2369
# 5 9.9393 -3.5933 15.1401 -0.0031 34.9070 0.0035
# 6 0.0015 -0.0038 -0.0042 1.2369 0.0035 25.3851
#
#
#
# Elastic Compliance Matrix: (Units=1/GPa)
#
#
# Indices 1 2 3 4 5 6 
#
# 1 0.028430 0.004324 -0.001984 0.000005 -0.006789 -0.000001
# 2 0.004324 0.022446 0.002135 0.000017 0.000153 0.000003
# 3 -0.001984 0.002135 0.018668 0.000020 -0.007312 0.000004
# 4 0.000005 0.000017 0.000020 0.029551 -0.000005 -0.001440
# 5 -0.006789 0.000153 -0.007312 -0.000005 0.033768 -0.000005
# 6 -0.000001 0.000003 0.000004 -0.001440 -0.000005 0.039463
#
#
# Mechanical properties :
#
#
# Convention : Reuss Voigt Hill
#
# Bulk Modulus (GPa) = 12.73980 14.82896 13.78438
# Shear Modulus (GPa) = 26.37983 29.16699 27.77341
#
# Velocity S-wave (km/s) = 3.66208 3.85068 3.75757
# Velocity P-wave (km/s) = 4.93535 5.22580 5.08265
#
# Compressibility (1/GPa) = 0.07849419
#
# Stress axis : x y z
#
# Youngs Moduli (GPa) = 35.17446 44.55236 53.56810
#
# Poissons Ratio (x) = -0.19266 0.10627
# Poissons Ratio (y) = -0.15211 -0.11436
# Poissons Ratio (z) = 0.06978 -0.09511
#
# Static dielectric constant tensor:
#      x y z
#    x 1.694500 0.000000 0.004360 
#    y 0.000000 1.706680 0.000000 
#    z 0.004360 0.000000 1.697120 
# 
# From -- ./inp_files/5651.got.cif
#   From: 2010.05.17/outbox.cif.g08.bks.cpg/sg9_3_cif.got.tgz:5651.got - 2010.06.03 20:04:27.
