data_PCOD9135588
_publ_section_title
;
Structure prediction by ZEFSAII (Michael W. Deem and Ramdas Pophale) SiO2 
 PCOD9135588
Probable space group: C C
;
_chemical_formula_sum "Si O2"
_cell_formula_units_Z 28
_cell_length_a 20.037476
_cell_length_b 10.342229
_cell_length_c 11.067929
_cell_angle_alpha 90.000000
_cell_angle_beta 148.747731
_cell_angle_gamma 90.000000
_cell_volume 1189.952023
_symmetry_space_group_name_H-M "C C"
_symmetry_group_IT_number 9
_symmetry_cell_setting 'monoclinic'
loop_
_space_group_symop_operation_xyz
x,y,z
x,-y,1/2+z
1/2+x,1/2+y,z
1/2+x,1/2-y,1/2+z
loop_
_atom_site_type_symbol
_atom_site_label
_atom_site_fract_x
_atom_site_fract_y
_atom_site_fract_z
Si Si1 0.887030 0.850971 0.393710
Si Si2 0.777848 0.167307 0.966222
Si Si3 0.442701 0.199382 0.927494
Si Si4 0.010279 0.565117 0.618115
Si Si5 0.832547 0.401540 0.477084
Si Si6 0.119307 0.100691 0.090097
Si Si7 0.679793 0.281623 0.437715
O O1 0.857258 0.901753 0.481777
O O2 0.943942 0.704988 0.502634
O O3 0.990623 0.919479 0.468436
O O4 0.752700 0.835682 0.115842
O O5 0.872636 0.229309 0.211108
O O6 0.662180 0.084499 0.843294
O O7 0.700159 0.285283 0.781384
O O8 0.361437 0.212198 0.926697
O O9 0.582758 0.248333 0.181096
O O10 0.460709 0.043666 0.946440
O O11 0.955968 0.495733 0.654864
O O12 0.711693 0.478913 0.237708
O O13 0.794304 0.358189 0.549674
O O14 0.106932 0.143457 0.932151
#
# Coordination Sequence:
#
# PCOD9135588 Si02
#       7
#     4   4   4   4   4   4   4
#     4  10  21  41  65  97 131 173 229 274 342 418
#     4  10  20  41  69 101 131 179 223 283 338 416
#     4  10  23  41  65 100 137 170 226 288 336 411
#     4   9  21  41  66  98 128 180 218 276 346 402
#     4  10  22  41  65  98 123 179 223 276 345 408
#     4  10  22  40  67  94 127 177 228 278 340 420
#     4  11  21  41  65  96 135 174 221 281 347 403
#
# _framework density 23.530360000000002
#
# number of rings (size 3 to 8) (size 9 to 14) (size 15 to 20)
#    0.857    1.143    2.857    0.857    4.000    2.286 
#    7.714    1.429    0.000    0.000    0.000    0.000 
#    0.000    0.000    0.000    0.000    0.000    0.000 
#
# Total GULP energy -78142.190638 kJ/mol
# GULP energy per Si atom -5581.585046 kJ/mol
# Density = 2.347680 g / cm^3
# Si number density = 23.530360 Si / 1000 Ang^3
#
#
#
# Elastic Constant Matrix: (Units=GPa)
#
#
# Indices 1 2 3 4 5 6 
#
# 1 121.5795 43.6770 65.6747 0.0000 29.2446 0.0000
# 2 43.6770 38.0030 24.9952 0.0000 -0.6618 0.0000
# 3 65.6747 24.9952 96.8304 0.0000 1.7229 0.0000
# 4 0.0000 0.0000 0.0000 18.3717 0.0000 40.2265
# 5 29.2446 -0.6618 1.7229 0.0000 37.3000 0.0000
# 6 0.0000 0.0000 0.0000 40.2265 0.0000 -27.2835
#
#
#
# Elastic Compliance Matrix: (Units=1/GPa)
#
#
# Indices 1 2 3 4 5 6 
#
# 1 0.031456 -0.027504 -0.013799 0.000000 -0.024513 0.000000
# 2 -0.027504 0.055776 0.003858 0.000000 0.022375 0.000000
# 3 -0.013799 0.003858 0.018512 0.000000 0.010032 0.000000
# 4 0.000000 0.000000 0.000000 0.012873 0.000000 0.018980
# 5 -0.024513 0.022375 0.010032 0.000000 0.045963 0.000000
# 6 0.000000 0.000000 0.000000 0.018980 0.000000 -0.008668
#
#
# Mechanical properties :
#
#
# Convention : Reuss Voigt Hill
#
# Bulk Modulus (GPa) = 32.40946 58.34518 45.37732
# Shear Modulus (GPa) = 20.73963 13.81536 17.27749
#
# Velocity S-wave (km/s) = 2.97206 2.42570 2.71267
# Velocity P-wave (km/s) = 5.05775 5.71795 5.39795
#
# Compressibility (1/GPa) = 0.03085519
#
# Stress axis : x y z
#
# Youngs Moduli (GPa) = 31.79045 17.92901 54.01899
#
# Poissons Ratio (x) = 0.49311 0.74541
# Poissons Ratio (y) = 0.87435 -0.20843
# Poissons Ratio (z) = 0.43868 -0.06918
#
# Static dielectric constant tensor:
#      x y z
#    x 1.997560 0.000000 0.002070 
#    y 0.000000 2.216630 0.000000 
#    z 0.002070 0.000000 1.870560 
# 
# From -- ./inp_files/20281.got.cif
#   From: 2010.05.17/outbox.cif.g08.bks.cpg/sg9_11_cif.got.tgz:20281.got - 2010.06.03 20:04:27.
