data_PCOD9135990
_publ_section_title
;
Structure prediction by ZEFSAII (Michael W. Deem and Ramdas Pophale) SiO2 
 PCOD9135990
Probable space group: C C
;
_chemical_formula_sum "Si O2"
_cell_formula_units_Z 32
_cell_length_a 14.755499
_cell_length_b 22.672132
_cell_length_c 9.122962
_cell_angle_alpha 90.000000
_cell_angle_beta 148.295768
_cell_angle_gamma 90.000000
_cell_volume 1603.922404
_symmetry_space_group_name_H-M "C C"
_symmetry_group_IT_number 9
_symmetry_cell_setting 'monoclinic'
loop_
_space_group_symop_operation_xyz
x,y,z
x,-y,1/2+z
1/2+x,1/2+y,z
1/2+x,1/2-y,1/2+z
loop_
_atom_site_type_symbol
_atom_site_label
_atom_site_fract_x
_atom_site_fract_y
_atom_site_fract_z
Si Si1 0.695910 0.112656 0.932830
Si Si2 0.477835 0.493016 0.825256
Si Si3 0.297386 0.186841 0.879592
Si Si4 0.258357 0.404188 0.970307
Si Si5 0.448502 0.911566 0.360463
Si Si6 0.001986 0.378363 0.861430
Si Si7 0.899732 0.184416 0.412194
Si Si8 0.228260 0.984138 0.425479
O O1 0.554848 0.111146 0.867686
O O2 0.593402 0.114278 0.641166
O O3 0.839012 0.059787 0.134699
O O4 0.801978 0.169743 0.126549
O O5 0.376412 0.552152 0.727126
O O6 0.548022 0.514287 0.764657
O O7 0.652191 0.481616 0.157283
O O8 0.361451 0.138301 0.845302
O O9 0.346958 0.251009 0.891390
O O10 0.097788 0.179369 0.640727
O O11 0.385064 0.176996 0.159312
O O12 0.347795 0.362353 0.971131
O O13 0.103915 0.439763 0.672899
O O14 0.151365 0.370493 0.945921
O O15 0.319082 0.956691 0.106373
O O16 0.867997 0.432914 0.648306
#
# Coordination Sequence:
#
# PCOD9135990 Si02
#       8
#     4   4   4   4   4   4   4   4
#     4  11  22  39  61  90 123 161 203 252 304 361
#     4  12  22  35  57  89 125 163 202 250 305 363
#     4  11  23  44  67  89 120 162 207 252 305 367
#     4  10  21  38  59  86 121 164 203 248 303 361
#     4  10  21  38  59  86 121 164 203 248 303 361
#     4  11  22  39  61  90 123 161 203 252 304 361
#     4  11  23  44  67  89 120 162 207 252 305 367
#     4  12  22  35  57  89 125 163 202 250 305 363
#
# _framework density 19.951090000000001
#
# number of rings (size 3 to 8) (size 9 to 14) (size 15 to 20)
#    0.000    1.000    0.000   10.500    0.000    0.000 
#    0.000    6.250    0.000    0.000    0.000    0.000 
#    0.000    0.000    0.000    0.000    0.000    0.000 
#
# Total GULP energy -89100.012388 kJ/mol
# GULP energy per Si atom -5568.750774 kJ/mol
# Density = 1.990568 g / cm^3
# Si number density = 19.951090 Si / 1000 Ang^3
#
#
#
# Elastic Constant Matrix: (Units=GPa)
#
#
# Indices 1 2 3 4 5 6 
#
# 1 107.6943 19.8352 45.6473 0.0000 8.4170 0.0000
# 2 19.8352 108.1122 59.9784 0.0000 0.0937 0.0000
# 3 45.6473 59.9784 157.5754 0.0000 -10.7135 0.0000
# 4 0.0000 0.0000 0.0000 20.3034 0.0000 -2.2459
# 5 8.4170 0.0937 -10.7135 0.0000 39.2907 0.0000
# 6 0.0000 0.0000 0.0000 -2.2459 0.0000 30.8861
#
#
#
# Elastic Compliance Matrix: (Units=1/GPa)
#
#
# Indices 1 2 3 4 5 6 
#
# 1 0.010988 -0.000157 -0.003345 0.000000 -0.003266 0.000000
# 2 -0.000157 0.011790 -0.004526 0.000000 -0.001228 0.000000
# 3 -0.003345 -0.004526 0.009259 0.000000 0.003252 0.000000
# 4 0.000000 0.000000 0.000000 0.049652 0.000000 0.003611
# 5 -0.003266 -0.001228 0.003252 0.000000 0.027041 0.000000
# 6 0.000000 0.000000 0.000000 0.003611 0.000000 0.032640
#
#
# Mechanical properties :
#
#
# Convention : Reuss Voigt Hill
#
# Bulk Modulus (GPa) = 62.57568 69.36707 65.97138
# Shear Modulus (GPa) = 30.72151 34.62411 32.67281
#
# Velocity S-wave (km/s) = 3.92834 4.17039 4.05117
# Velocity P-wave (km/s) = 7.21169 7.61798 7.41762
#
# Compressibility (1/GPa) = 0.01598065
#
# Stress axis : x y z
#
# Youngs Moduli (GPa) = 91.01184 84.81500 108.00345
#
# Poissons Ratio (x) = 0.01334 0.36128
# Poissons Ratio (y) = 0.01431 0.48880
# Poissons Ratio (z) = 0.30444 0.38385
#
# Static dielectric constant tensor:
#      x y z
#    x 1.832030 0.000000 0.091120 
#    y 0.000000 1.714550 0.000000 
#    z 0.091120 0.000000 1.821420 
# 
# From -- ./inp_files/6172.got.cif
#   From: 2010.05.17/outbox.cif.g08.bks.cpg/sg9_4_cif.got.tgz:6172.got - 2010.06.03 20:04:27.
