data_PCOD9135703
_publ_section_title
;
Structure prediction by ZEFSAII (Michael W. Deem and Ramdas Pophale) SiO2 
 PCOD9135703
Probable space group: C C
;
_chemical_formula_sum "Si O2"
_cell_formula_units_Z 32
_cell_length_a 11.627433
_cell_length_b 7.418854
_cell_length_c 27.907193
_cell_angle_alpha 90.000000
_cell_angle_beta 33.438258
_cell_angle_gamma 90.000000
_cell_volume 1326.534133
_symmetry_space_group_name_H-M "C C"
_symmetry_group_IT_number 9
_symmetry_cell_setting 'monoclinic'
loop_
_space_group_symop_operation_xyz
x,y,z
x,-y,1/2+z
1/2+x,1/2+y,z
1/2+x,1/2-y,1/2+z
loop_
_atom_site_type_symbol
_atom_site_label
_atom_site_fract_x
_atom_site_fract_y
_atom_site_fract_z
Si Si1 0.070300 0.743665 0.909930
Si Si2 0.330541 0.516414 0.564399
Si Si3 0.124615 0.050579 0.830621
Si Si4 0.515569 0.318177 0.267558
Si Si5 0.205191 0.064634 0.985402
Si Si6 0.438144 0.896921 0.303513
Si Si7 0.179470 0.347458 0.524928
Si Si8 0.215964 0.862688 0.659291
O O1 0.161647 0.842112 0.830940
O O2 0.268152 0.632846 0.859757
O O3 0.846834 0.662199 0.975510
O O4 0.017445 0.892460 0.968224
O O5 0.461340 0.400762 0.557851
O O6 0.197601 0.398148 0.574381
O O7 0.209218 0.693009 0.625069
O O8 0.269470 0.148907 0.820040
O O9 0.142998 0.125213 0.771035
O O10 0.881141 0.070129 0.929223
O O11 0.522008 0.100095 0.262912
O O12 0.596870 0.448002 0.197008
O O13 0.336217 0.096863 0.891239
O O14 0.197938 0.861651 0.006887
O O15 0.612923 0.743581 0.239843
O O16 0.958250 0.408202 0.581612
#
# Coordination Sequence:
#
# PCOD9135703 Si02
#       8
#     4   4   4   4   4   4   4   4
#     4  10  22  40  71 103 122 173 242 274 322 422
#     4  10  22  49  62  96 144 174 224 281 340 410
#     4  10  20  42  73  90 133 185 224 277 334 397
#     4  11  22  43  67 100 137 179 225 280 346 398
#     4  11  20  41  71  98 126 173 235 279 327 404
#     4  11  23  43  68 106 135 176 237 287 328 414
#     4  10  21  43  69  94 134 184 217 279 345 398
#     4  11  26  41  67 103 143 178 222 287 356 403
#
# _framework density 24.123011999999999
#
# number of rings (size 3 to 8) (size 9 to 14) (size 15 to 20)
#    0.000    1.500    5.000    1.500    3.500    1.000 
#   11.250    1.250    0.000    0.000    0.000    0.000 
#    0.000    0.000    0.000    0.000    0.000    0.000 
#
# Total GULP energy -89221.868214 kJ/mol
# GULP energy per Si atom -5576.366763 kJ/mol
# Density = 2.406811 g / cm^3
# Si number density = 24.123012 Si / 1000 Ang^3
#
#
#
# Elastic Constant Matrix: (Units=GPa)
#
#
# Indices 1 2 3 4 5 6 
#
# 1 102.1289 15.4739 3.9490 0.0000 -3.7854 -0.0005
# 2 15.4739 52.1382 1.7170 -0.0003 -0.7432 -0.0011
# 3 3.9490 1.7170 67.1825 0.0002 -10.4085 0.0000
# 4 0.0000 -0.0003 0.0002 45.1169 0.0002 2.2660
# 5 -3.7854 -0.7432 -10.4085 0.0002 19.2472 0.0001
# 6 -0.0005 -0.0011 0.0000 2.2660 0.0001 40.7512
#
#
#
# Elastic Compliance Matrix: (Units=1/GPa)
#
#
# Indices 1 2 3 4 5 6 
#
# 1 0.010326 -0.003031 -0.000254 0.000000 0.001776 0.000000
# 2 -0.003031 0.020090 -0.000336 0.000000 -0.000002 0.000000
# 3 -0.000254 -0.000336 0.016261 0.000000 0.008731 0.000000
# 4 0.000000 0.000000 0.000000 0.022227 0.000000 -0.001236
# 5 0.001776 -0.000002 0.008731 0.000000 0.057026 0.000000
# 6 0.000000 0.000000 0.000000 -0.001236 0.000000 0.024608
#
#
# Mechanical properties :
#
#
# Convention : Reuss Voigt Hill
#
# Bulk Modulus (GPa) = 25.35756 29.30327 27.33042
# Shear Modulus (GPa) = 29.25243 34.37703 31.81473
#
# Velocity S-wave (km/s) = 3.48607 3.77911 3.63554
# Velocity P-wave (km/s) = 5.17090 5.58713 5.38304
#
# Compressibility (1/GPa) = 0.03943596
#
# Stress axis : x y z
#
# Youngs Moduli (GPa) = 96.83848 49.77501 61.49690
#
# Poissons Ratio (x) = 0.15087 0.01564
# Poissons Ratio (y) = 0.29352 0.02064
# Poissons Ratio (z) = 0.02463 0.01670
#
# Static dielectric constant tensor:
#      x y z
#    x 2.051110 0.000000 0.007470 
#    y 0.000000 1.954010 0.000000 
#    z 0.007470 0.000000 1.989130 
# 
# From -- ./inp_files/35259.got.cif
#   From: 2010.05.17/outbox.cif.g08.bks.cpg/sg9_18_cif.got.tgz:35259.got - 2010.06.03 20:04:27.
