data_PCOD9135937
_publ_section_title
;
Structure prediction by ZEFSAII (Michael W. Deem and Ramdas Pophale) SiO2 
 PCOD9135937
Probable space group: C C
;
_chemical_formula_sum "Si O2"
_cell_formula_units_Z 32
_cell_length_a 12.811557
_cell_length_b 7.045094
_cell_length_c 15.163246
_cell_angle_alpha 90.000000
_cell_angle_beta 83.357479
_cell_angle_gamma 90.000000
_cell_volume 1359.426471
_symmetry_space_group_name_H-M "C C"
_symmetry_group_IT_number 9
_symmetry_cell_setting 'monoclinic'
loop_
_space_group_symop_operation_xyz
x,y,z
x,-y,1/2+z
1/2+x,1/2+y,z
1/2+x,1/2-y,1/2+z
loop_
_atom_site_type_symbol
_atom_site_label
_atom_site_fract_x
_atom_site_fract_y
_atom_site_fract_z
Si Si1 0.810110 0.579184 0.043670
Si Si2 0.749582 0.875217 0.766497
Si Si3 0.425347 0.163898 0.647696
Si Si4 0.165179 0.654839 0.469982
Si Si5 0.995689 0.968757 0.525675
Si Si6 0.003048 0.356342 0.429346
Si Si7 0.131770 0.103428 0.659953
Si Si8 0.125075 0.702353 0.737306
O O1 0.884521 0.540134 0.120496
O O2 0.719644 0.426749 0.075015
O O3 0.749632 0.778614 0.035456
O O4 0.889242 0.546852 0.954369
O O5 0.853147 0.760766 0.728959
O O6 0.726743 0.857368 0.871724
O O7 0.655806 0.782401 0.716833
O O8 0.734483 0.092789 0.739320
O O9 0.413903 0.310560 0.566309
O O10 0.546895 0.157343 0.663377
O O11 0.090493 0.469092 0.479719
O O12 0.086900 0.835530 0.476012
O O13 0.979650 0.142185 0.462313
O O14 0.027245 0.071013 0.615000
O O15 0.054341 0.350531 0.328722
O O16 0.144354 0.924937 0.724348
#
# Coordination Sequence:
#
# PCOD9135937 Si02
#       8
#     4   4   4   4   4   4   4   4
#     4  10  21  38  62  88 123 162 208 267 316 372
#     4  10  21  37  63  85 123 168 207 260 324 374
#     4  10  21  41  62  94 128 165 219 267 316 390
#     4  10  21  41  58  88 127 164 209 266 321 379
#     4  10  21  37  61  85 126 161 212 262 316 379
#     4  11  22  38  63  91 122 172 209 263 326 383
#     4   9  21  37  57  87 117 160 209 263 307 377
#     4  10  22  39  62  88 126 166 213 262 320 380
#
# _framework density 23.539338000000001
#
# number of rings (size 3 to 8) (size 9 to 14) (size 15 to 20)
#    0.000    2.000    1.250    1.500    3.500    0.000 
#    4.500    0.000    2.750    0.000    0.000    0.000 
#    0.000    0.000    0.000    0.000    0.000    0.000 
#
# Total GULP energy -89157.163062 kJ/mol
# GULP energy per Si atom -5572.322691 kJ/mol
# Density = 2.348576 g / cm^3
# Si number density = 23.539338 Si / 1000 Ang^3
#
#
#
# Elastic Constant Matrix: (Units=GPa)
#
#
# Indices 1 2 3 4 5 6 
#
# 1 65.4653 21.8225 11.7591 0.0000 -19.2218 0.0000
# 2 21.8225 77.8523 21.5703 0.0000 0.0062 0.0000
# 3 11.7591 21.5703 86.0256 0.0000 -20.6038 0.0000
# 4 0.0000 0.0000 0.0000 29.3876 0.0000 5.8622
# 5 -19.2218 0.0062 -20.6038 0.0000 29.0956 0.0000
# 6 0.0000 0.0000 0.0000 5.8622 0.0000 22.2964
#
#
#
# Elastic Compliance Matrix: (Units=1/GPa)
#
#
# Indices 1 2 3 4 5 6 
#
# 1 0.021885 -0.006868 0.002642 0.000000 0.016330 0.000000
# 2 -0.006868 0.016173 -0.005063 0.000000 -0.008126 0.000000
# 3 0.002642 -0.005063 0.015596 0.000000 0.012791 0.000000
# 4 0.000000 0.000000 0.000000 0.035911 0.000000 -0.009442
# 5 0.016330 -0.008126 0.012791 0.000000 0.054217 0.000000
# 6 0.000000 0.000000 0.000000 -0.009442 0.000000 0.047333
#
#
# Mechanical properties :
#
#
# Convention : Reuss Voigt Hill
#
# Bulk Modulus (GPa) = 28.50865 37.73855 33.12360
# Shear Modulus (GPa) = 22.58501 27.76867 25.17684
#
# Velocity S-wave (km/s) = 3.10087 3.43836 3.27397
# Velocity P-wave (km/s) = 4.99579 5.64181 5.32860
#
# Compressibility (1/GPa) = 0.03507707
#
# Stress axis : x y z
#
# Youngs Moduli (GPa) = 45.69351 61.83046 64.11808
#
# Poissons Ratio (x) = 0.42463 -0.16938
# Poissons Ratio (y) = 0.31381 0.32461
# Poissons Ratio (z) = -0.12071 0.31303
#
# Static dielectric constant tensor:
#      x y z
#    x 1.990240 0.000000 -0.019910 
#    y 0.000000 1.899000 0.000000 
#    z -0.019910 0.000000 1.919250 
# 
# From -- ./inp_files/30367.got.cif
#   From: 2010.05.17/outbox.cif.g08.bks.cpg/sg9_16_cif.got.tgz:30367.got - 2010.06.03 20:04:27.
