data_PCOD9135493
_publ_section_title
;
Structure prediction by ZEFSAII (Michael W. Deem and Ramdas Pophale) SiO2 
 PCOD9135493
Probable space group: C C
;
_chemical_formula_sum "Si O2"
_cell_formula_units_Z 32
_cell_length_a 7.374059
_cell_length_b 14.386006
_cell_length_c 14.173636
_cell_angle_alpha 90.000000
_cell_angle_beta 107.644614
_cell_angle_gamma 90.000000
_cell_volume 1432.849195
_symmetry_space_group_name_H-M "C C"
_symmetry_group_IT_number 9
_symmetry_cell_setting 'monoclinic'
loop_
_space_group_symop_operation_xyz
x,y,z
x,-y,1/2+z
1/2+x,1/2+y,z
1/2+x,1/2-y,1/2+z
loop_
_atom_site_type_symbol
_atom_site_label
_atom_site_fract_x
_atom_site_fract_y
_atom_site_fract_z
Si Si1 0.415420 0.989971 0.145840
Si Si2 0.108618 0.782344 0.735277
Si Si3 0.967421 0.800395 0.923586
Si Si4 0.378392 0.190304 0.542541
Si Si5 0.818133 0.607677 0.955367
Si Si6 0.284685 0.478104 0.827602
Si Si7 0.395948 0.328666 0.373436
Si Si8 0.686282 0.511126 0.278391
O O1 0.594885 0.023918 0.235605
O O2 0.254279 0.957011 0.195671
O O3 0.479906 0.904221 0.089986
O O4 0.333406 0.066431 0.061667
O O5 0.276146 0.706404 0.765285
O O6 0.206573 0.882336 0.749557
O O7 0.005189 0.775351 0.820002
O O8 0.954682 0.763931 0.631048
O O9 0.939908 0.700515 0.966703
O O10 0.816945 0.884759 0.893802
O O11 0.157953 0.839185 0.001476
O O12 0.402100 0.244295 0.448273
O O13 0.612904 0.646739 0.892619
O O14 0.831047 0.522763 0.882930
O O15 0.295678 0.574499 0.888577
O O16 0.471058 0.488035 0.787083
#
# Coordination Sequence:
#
# PCOD9135493 Si02
#       8
#     4   4   4   4   4   4   4   4
#     4  12  24  45  71 102 134 185 230 276 344 412
#     4  10  20  40  68  95 129 179 216 280 342 397
#     4  10  24  41  64  96 138 171 222 288 332 397
#     4  11  22  41  68  97 131 175 229 271 343 406
#     4  11  24  43  65 104 135 176 232 282 336 416
#     4  10  23  46  69  98 139 180 228 279 344 406
#     4  10  21  42  64  96 137 171 219 281 339 397
#     4  10  24  44  69  96 141 179 220 289 338 393
#
# _framework density 22.333124000000002
#
# number of rings (size 3 to 8) (size 9 to 14) (size 15 to 20)
#    0.000    1.500    1.250    4.500    7.000    0.000 
#    2.250    0.000    0.000    0.000    0.000    0.000 
#    0.000    0.000    0.000    0.000    0.000    0.000 
#
# Total GULP energy -89150.137969 kJ/mol
# GULP energy per Si atom -5571.883623 kJ/mol
# Density = 2.228229 g / cm^3
# Si number density = 22.333124 Si / 1000 Ang^3
#
#
#
# Elastic Constant Matrix: (Units=GPa)
#
#
# Indices 1 2 3 4 5 6 
#
# 1 25.5575 4.4699 12.9962 0.0000 3.5032 0.0000
# 2 4.4699 82.0539 11.2368 0.0000 4.7452 0.0000
# 3 12.9962 11.2368 96.8150 0.0000 9.1896 0.0000
# 4 0.0000 0.0000 0.0000 24.1594 0.0000 -0.9164
# 5 3.5032 4.7452 9.1896 0.0000 32.1086 0.0000
# 6 0.0000 0.0000 0.0000 -0.9164 0.0000 21.2633
#
#
#
# Elastic Compliance Matrix: (Units=1/GPa)
#
#
# Indices 1 2 3 4 5 6 
#
# 1 0.042449 -0.001424 -0.005256 0.000000 -0.002917 0.000000
# 2 -0.001424 0.012499 -0.001130 0.000000 -0.001368 0.000000
# 3 -0.005256 -0.001130 0.011405 0.000000 -0.002524 0.000000
# 4 0.000000 0.000000 0.000000 0.041459 0.000000 0.001787
# 5 -0.002917 -0.001368 -0.002524 0.000000 0.032387 0.000000
# 6 0.000000 0.000000 0.000000 0.001787 0.000000 0.047106
#
#
# Mechanical properties :
#
#
# Convention : Reuss Voigt Hill
#
# Bulk Modulus (GPa) = 19.71088 29.09248 24.40168
# Shear Modulus (GPa) = 22.74421 27.22117 24.98269
#
# Velocity S-wave (km/s) = 3.19471 3.49502 3.34823
# Velocity P-wave (km/s) = 4.73849 5.41680 5.08896
#
# Compressibility (1/GPa) = 0.05073339
#
# Stress axis : x y z
#
# Youngs Moduli (GPa) = 23.55764 80.00952 87.67921
#
# Poissons Ratio (x) = 0.11393 0.46085
# Poissons Ratio (y) = 0.03355 0.09904
# Poissons Ratio (z) = 0.12382 0.09038
#
# Static dielectric constant tensor:
#      x y z
#    x 1.930630 0.000000 -0.040950 
#    y 0.000000 1.963920 0.000000 
#    z -0.040950 0.000000 1.777670 
# 
# From -- ./inp_files/23195.got.cif
#   From: 2010.05.17/outbox.cif.g08.bks.cpg/sg9_12_cif.got.tgz:23195.got - 2010.06.03 20:04:27.
