data_PCOD9135059
_publ_section_title
;
Structure prediction by ZEFSAII (Michael W. Deem and Ramdas Pophale) SiO2 
 PCOD9135059
Probable space group: C C
;
_chemical_formula_sum "Si O2"
_cell_formula_units_Z 32
_cell_length_a 9.279054
_cell_length_b 25.961276
_cell_length_c 7.425938
_cell_angle_alpha 90.000000
_cell_angle_beta 104.944958
_cell_angle_gamma 90.000000
_cell_volume 1728.368769
_symmetry_space_group_name_H-M "C C"
_symmetry_group_IT_number 9
_symmetry_cell_setting 'monoclinic'
loop_
_space_group_symop_operation_xyz
x,y,z
x,-y,1/2+z
1/2+x,1/2+y,z
1/2+x,1/2-y,1/2+z
loop_
_atom_site_type_symbol
_atom_site_label
_atom_site_fract_x
_atom_site_fract_y
_atom_site_fract_z
Si Si1 0.871480 0.762720 0.150690
Si Si2 0.876051 0.167137 0.309951
Si Si3 0.923891 0.642427 0.521637
Si Si4 0.318679 0.958686 0.125042
Si Si5 0.631814 0.598723 0.303357
Si Si6 0.520346 0.252077 0.588834
Si Si7 0.531914 0.841717 0.656411
Si Si8 0.306524 0.929780 0.516293
O O1 0.697815 0.749291 0.121540
O O2 0.947002 0.767421 0.372119
O O3 0.955362 0.713151 0.094379
O O4 0.880234 0.810732 0.015626
O O5 0.962110 0.208286 0.215381
O O6 0.707584 0.161560 0.184992
O O7 0.967993 0.115090 0.304278
O O8 0.938903 0.585966 0.614077
O O9 0.747866 0.642343 0.414329
O O10 0.968438 0.694725 0.632486
O O11 0.011117 0.646206 0.362580
O O12 0.257829 0.943972 0.300505
O O13 0.369285 0.017508 0.126345
O O14 0.189445 0.950069 0.935527
O O15 0.678300 0.590432 0.110717
O O16 0.434962 0.886989 0.538220
#
# Coordination Sequence:
#
# PCOD9135059 Si02
#       8
#     4   4   4   4   4   4   4   4
#     4  11  24  40  60  89 125 173 206 253 303 367
#     4  12  24  39  62  87 134 161 203 260 310 355
#     4   8  18  38  55  90 118 154 204 247 293 359
#     4  10  20  36  72  88 113 160 202 256 306 370
#     4   9  22  37  60  91 121 150 205 252 300 370
#     4  11  23  38  60  90 129 166 214 249 300 374
#     4  10  22  38  58  92 121 162 206 253 299 368
#     4  11  19  40  67  89 119 152 212 250 311 369
#
# _framework density 18.514567
#
# number of rings (size 3 to 8) (size 9 to 14) (size 15 to 20)
#    0.750    1.000    3.750    2.250    5.250    2.000 
#    0.000    0.000    5.500    0.000    0.000    0.000 
#    0.000    0.000    0.000    0.000    0.000    0.000 
#
# Total GULP energy -89080.379598 kJ/mol
# GULP energy per Si atom -5567.523725 kJ/mol
# Density = 1.847243 g / cm^3
# Si number density = 18.514567 Si / 1000 Ang^3
#
#
#
# Elastic Constant Matrix: (Units=GPa)
#
#
# Indices 1 2 3 4 5 6 
#
# 1 88.5130 2.2082 15.6012 0.0000 6.1121 0.0000
# 2 2.2082 58.1916 -12.5446 0.0000 -0.4087 0.0000
# 3 15.6012 -12.5446 37.0764 0.0000 -7.8141 0.0000
# 4 0.0000 0.0000 0.0000 29.4670 0.0000 -6.6737
# 5 6.1121 -0.4087 -7.8141 0.0000 19.4465 0.0000
# 6 0.0000 0.0000 0.0000 -6.6737 0.0000 22.9978
#
#
#
# Elastic Compliance Matrix: (Units=1/GPa)
#
#
# Indices 1 2 3 4 5 6 
#
# 1 0.013257 -0.002258 -0.007899 0.000000 -0.007388 0.000000
# 2 -0.002258 0.019103 0.008355 0.000000 0.004468 0.000000
# 3 -0.007899 0.008355 0.036799 0.000000 0.017445 0.000000
# 4 0.000000 0.000000 0.000000 0.036324 0.000000 0.010541
# 5 -0.007388 0.004468 0.017445 0.000000 0.060849 0.000000
# 6 0.000000 0.000000 0.000000 0.010541 0.000000 0.046541
#
#
# Mechanical properties :
#
#
# Convention : Reuss Voigt Hill
#
# Bulk Modulus (GPa) = 15.25449 21.59008 18.42228
# Shear Modulus (GPa) = 20.97957 26.28333 23.63145
#
# Velocity S-wave (km/s) = 3.36986 3.77185 3.57651
# Velocity P-wave (km/s) = 4.83719 5.53675 5.19875
#
# Compressibility (1/GPa) = 0.06555447
#
# Stress axis : x y z
#
# Youngs Moduli (GPa) = 75.43422 52.34831 27.17480
#
# Poissons Ratio (x) = 0.11819 0.21466
# Poissons Ratio (y) = 0.17032 -0.22705
# Poissons Ratio (z) = 0.59587 -0.43738
#
# Static dielectric constant tensor:
#      x y z
#    x 1.620950 0.000000 -0.008600 
#    y 0.000000 1.692080 0.000000 
#    z -0.008600 0.000000 1.689520 
# 
# From -- ./inp_files/6095.got.cif
#   From: 2010.05.17/outbox.cif.g08.bks.cpg/sg9_4_cif.got.tgz:6095.got - 2010.06.03 20:04:27.
