data_PCOD9135243
_publ_section_title
;
Structure prediction by ZEFSAII (Michael W. Deem and Ramdas Pophale) SiO2 
 PCOD9135243
Probable space group: C C
;
_chemical_formula_sum "Si O2"
_cell_formula_units_Z 24
_cell_length_a 11.927224
_cell_length_b 12.451640
_cell_length_c 5.543593
_cell_angle_alpha 90.000000
_cell_angle_beta 98.483035
_cell_angle_gamma 90.000000
_cell_volume 814.291170
_symmetry_space_group_name_H-M "C C"
_symmetry_group_IT_number 9
_symmetry_cell_setting 'monoclinic'
loop_
_space_group_symop_operation_xyz
x,y,z
x,-y,1/2+z
1/2+x,1/2+y,z
1/2+x,1/2-y,1/2+z
loop_
_atom_site_type_symbol
_atom_site_label
_atom_site_fract_x
_atom_site_fract_y
_atom_site_fract_z
Si Si1 0.033360 0.437594 0.347450
Si Si2 0.766969 0.860322 0.259814
Si Si3 0.702072 0.454733 0.226306
Si Si4 0.908492 0.267776 0.503550
Si Si5 0.129560 0.734749 0.371220
Si Si6 0.484848 0.603834 0.140146
O O1 0.025869 0.508861 0.583089
O O2 0.158893 0.380787 0.389654
O O3 0.922446 0.360967 0.315652
O O4 0.816254 0.744528 0.186427
O O5 0.878347 0.911418 0.419644
O O6 0.703357 0.868068 0.975741
O O7 0.749127 0.500620 0.491888
O O8 0.694746 0.325838 0.239857
O O9 0.570344 0.503344 0.197264
O O10 0.929584 0.157143 0.362273
O O11 0.020828 0.293933 0.687249
O O12 0.071628 0.803664 0.570734
#
# Coordination Sequence:
#
# PCOD9135243 Si02
#       6
#     4   4   4   4   4   4
#     4  12  29  52  77 114 165 213 270 342 412 491
#     4  11  26  44  78 114 150 216 278 326 411 502
#     4  10  20  38  65 103 144 190 239 324 399 455
#     4  11  24  47  75 106 157 215 265 329 413 495
#     4  10  21  43  69 107 155 203 260 337 408 486
#     4  10  22  40  72 106 153 199 260 338 403 479
#
# _framework density 29.473486999999999
#
# number of rings (size 3 to 8) (size 9 to 14) (size 15 to 20)
#    0.000    1.333    3.333    1.000    7.000    4.000 
#    0.000    3.333    0.000    0.000    0.000    0.000 
#    0.000    0.000    0.000    0.000    0.000    0.000 
#
# Total GULP energy -66964.050219 kJ/mol
# GULP energy per Si atom -5580.337518 kJ/mol
# Density = 2.940640 g / cm^3
# Si number density = 29.473487 Si / 1000 Ang^3
#
#
#
# Elastic Constant Matrix: (Units=GPa)
#
#
# Indices 1 2 3 4 5 6 
#
# 1 221.6266 43.4611 40.7486 0.0000 -17.3028 0.0000
# 2 43.4611 108.3831 36.0564 0.0000 -12.9844 0.0000
# 3 40.7486 36.0564 167.5710 0.0000 2.7477 0.0000
# 4 0.0000 0.0000 0.0000 59.0189 0.0000 -9.0035
# 5 -17.3028 -12.9844 2.7477 0.0000 63.5268 0.0000
# 6 0.0000 0.0000 0.0000 -9.0035 0.0000 27.5748
#
#
#
# Elastic Compliance Matrix: (Units=1/GPa)
#
#
# Indices 1 2 3 4 5 6 
#
# 1 0.005079 -0.001603 -0.000908 0.000000 0.001095 0.000000
# 2 -0.001603 0.010739 -0.001951 0.000000 0.001843 0.000000
# 3 -0.000908 -0.001951 0.006624 0.000000 -0.000933 0.000000
# 4 0.000000 0.000000 0.000000 0.017832 0.000000 0.005822
# 5 0.001095 0.001843 -0.000933 0.000000 0.016457 0.000000
# 6 0.000000 0.000000 0.000000 0.005822 0.000000 0.038166
#
#
# Mechanical properties :
#
#
# Convention : Reuss Voigt Hill
#
# Bulk Modulus (GPa) = 73.98199 82.01253 77.99726
# Shear Modulus (GPa) = 46.15656 55.17842 50.66749
#
# Velocity S-wave (km/s) = 3.96161 4.33151 4.15069
# Velocity P-wave (km/s) = 6.78834 7.27340 7.03505
#
# Compressibility (1/GPa) = 0.01351680
#
# Stress axis : x y z
#
# Youngs Moduli (GPa) = 196.89118 93.11571 150.97682
#
# Poissons Ratio (x) = 0.14930 0.13709
# Poissons Ratio (y) = 0.31569 0.29457
# Poissons Ratio (z) = 0.17878 0.18168
#
# Static dielectric constant tensor:
#      x y z
#    x 2.570250 0.000000 0.124040 
#    y 0.000000 2.490230 0.000000 
#    z 0.124040 0.000000 2.368180 
# 
# From -- ./inp_files/1558.got.cif
#   From: 2010.05.17/outbox.cif.g08.bks.cpg/sg9_1_cif.got.tgz:1558.got - 2010.06.03 20:04:27.
