data_PCOD9135002
_publ_section_title
;
Structure prediction by ZEFSAII (Michael W. Deem and Ramdas Pophale) SiO2 
 PCOD9135002
Probable space group: C C
;
_chemical_formula_sum "Si O2"
_cell_formula_units_Z 32
_cell_length_a 7.735424
_cell_length_b 7.995400
_cell_length_c 19.375287
_cell_angle_alpha 90.000000
_cell_angle_beta 94.360864
_cell_angle_gamma 90.000000
_cell_volume 1194.849824
_symmetry_space_group_name_H-M "C C"
_symmetry_group_IT_number 9
_symmetry_cell_setting 'monoclinic'
loop_
_space_group_symop_operation_xyz
x,y,z
x,-y,1/2+z
1/2+x,1/2+y,z
1/2+x,1/2-y,1/2+z
loop_
_atom_site_type_symbol
_atom_site_label
_atom_site_fract_x
_atom_site_fract_y
_atom_site_fract_z
Si Si1 0.849250 0.517595 0.301590
Si Si2 0.754649 0.006988 0.332331
Si Si3 0.385606 0.617734 0.549537
Si Si4 0.365717 0.202077 0.175239
Si Si5 0.374005 0.693183 0.956210
Si Si6 0.790875 0.615436 0.581956
Si Si7 0.275968 0.695366 0.208220
Si Si8 0.772160 0.682738 0.926409
O O1 0.776054 0.654935 0.245227
O O2 0.843903 0.350189 0.255101
O O3 0.769500 0.471584 0.372967
O O4 0.050697 0.544173 0.324368
O O5 0.818409 0.031479 0.255409
O O6 0.828262 0.161446 0.379175
O O7 0.791858 0.842868 0.378577
O O8 0.293627 0.660519 0.619434
O O9 0.315982 0.464558 0.502082
O O10 0.584921 0.586373 0.573793
O O11 0.383620 0.778678 0.497975
O O12 0.568261 0.224039 0.199205
O O13 0.366512 0.038515 0.126262
O O14 0.577882 0.693278 0.948770
O O15 0.339361 0.849462 0.004649
O O16 0.837371 0.775738 0.632050
#
# Coordination Sequence:
#
# PCOD9135002 Si02
#       8
#     4   4   4   4   4   4   4   4
#     4   9  17  36  62  83 112 155 195 238 294 347
#     4   9  19  37  57  79 113 152 194 243 293 345
#     4  10  21  38  58  83 119 156 195 243 293 346
#     4   9  18  35  63  88 113 155 198 239 291 344
#     4  11  23  36  57  89 119 153 195 238 292 351
#     4  10  20  36  59  85 116 156 198 239 292 350
#     4   8  17  35  59  84 113 152 194 242 292 342
#     4  10  21  35  55  85 117 151 195 244 293 347
#
# _framework density 26.781611000000002
#
# number of rings (size 3 to 8) (size 9 to 14) (size 15 to 20)
#    0.000    2.500    0.000    1.500    0.000    6.000 
#    0.000    8.750    0.000   19.500    0.000    0.000 
#    0.000    0.000    0.000    0.000    0.000    0.000 
#
# Total GULP energy -89404.771863 kJ/mol
# GULP energy per Si atom -5587.798241 kJ/mol
# Density = 2.672065 g / cm^3
# Si number density = 26.781611 Si / 1000 Ang^3
#
#
#
# Elastic Constant Matrix: (Units=GPa)
#
#
# Indices 1 2 3 4 5 6 
#
# 1 32.0363 -22.7859 2.3961 0.0000 -5.4203 0.0000
# 2 -22.7859 84.5840 28.9068 0.0000 2.2831 0.0000
# 3 2.3961 28.9068 197.3487 0.0000 -9.6297 0.0000
# 4 0.0000 0.0000 0.0000 60.5822 0.0000 -0.3469
# 5 -5.4203 2.2831 -9.6297 0.0000 35.0412 0.0000
# 6 0.0000 0.0000 0.0000 -0.3469 0.0000 14.7324
#
#
#
# Elastic Compliance Matrix: (Units=1/GPa)
#
#
# Indices 1 2 3 4 5 6 
#
# 1 0.040286 0.011372 -0.001913 0.000000 0.004965 0.000000
# 2 0.011372 0.015717 -0.002437 0.000000 0.000065 0.000000
# 3 -0.001913 -0.002437 0.005515 0.000000 0.001378 0.000000
# 4 0.000000 0.000000 0.000000 0.016509 0.000000 0.000389
# 5 0.004965 0.000065 0.001378 0.000000 0.029680 0.000000
# 6 0.000000 0.000000 0.000000 0.000389 0.000000 0.067887
#
#
# Mechanical properties :
#
#
# Convention : Reuss Voigt Hill
#
# Bulk Modulus (GPa) = 13.23398 36.77812 25.00605
# Shear Modulus (GPa) = 26.77568 42.43463 34.60515
#
# Velocity S-wave (km/s) = 3.16536 3.98486 3.59851
# Velocity P-wave (km/s) = 4.27919 5.91054 5.15975
#
# Compressibility (1/GPa) = 0.07556307
#
# Stress axis : x y z
#
# Youngs Moduli (GPa) = 24.82241 63.62452 181.33595
#
# Poissons Ratio (x) = -0.72355 0.34682
# Poissons Ratio (y) = -0.28229 0.44193
# Poissons Ratio (z) = 0.04748 0.15506
#
# Static dielectric constant tensor:
#      x y z
#    x 1.995200 0.000000 -0.037850 
#    y 0.000000 2.272210 0.000000 
#    z -0.037850 0.000000 2.099910 
# 
# From -- ./inp_files/32325.got.cif
#   From: 2010.05.17/outbox.cif.g08.bks.cpg/sg9_17_cif.got.tgz:32325.got - 2010.06.03 20:04:27.
