data_PCOD9135162
_publ_section_title
;
Structure prediction by ZEFSAII (Michael W. Deem and Ramdas Pophale) SiO2 
 PCOD9135162
Probable space group: C C
;
_chemical_formula_sum "Si O2"
_cell_formula_units_Z 28
_cell_length_a 21.894689
_cell_length_b 8.957791
_cell_length_c 15.942829
_cell_angle_alpha 90.000000
_cell_angle_beta 24.164496
_cell_angle_gamma 90.000000
_cell_volume 1279.994520
_symmetry_space_group_name_H-M "C C"
_symmetry_group_IT_number 9
_symmetry_cell_setting 'monoclinic'
loop_
_space_group_symop_operation_xyz
x,y,z
x,-y,1/2+z
1/2+x,1/2+y,z
1/2+x,1/2-y,1/2+z
loop_
_atom_site_type_symbol
_atom_site_label
_atom_site_fract_x
_atom_site_fract_y
_atom_site_fract_z
Si Si1 0.177850 0.609983 0.674020
Si Si2 0.397328 0.363624 0.368970
Si Si3 0.119720 0.096005 0.993241
Si Si4 0.492892 0.042699 0.280275
Si Si5 0.858015 0.320981 0.326232
Si Si6 0.262290 0.666475 0.863403
Si Si7 0.606452 0.658827 0.407351
O O1 0.282777 0.468082 0.563143
O O2 0.026440 0.544775 0.823832
O O3 0.257394 0.700182 0.500001
O O4 0.158516 0.729012 0.771008
O O5 0.517356 0.481951 0.179409
O O6 0.462650 0.218251 0.331983
O O7 0.309450 0.290180 0.399565
O O8 0.015089 0.239601 0.112218
O O9 0.270165 0.128363 0.854397
O O10 0.154122 0.011659 0.862963
O O11 0.376693 0.956161 0.368304
O O12 0.645261 0.037493 0.032987
O O13 0.427355 0.643622 0.620620
O O14 0.170775 0.764535 0.911988
#
# Coordination Sequence:
#
# PCOD9135162 Si02
#       7
#     4   4   4   4   4   4   4
#     4  10  24  40  64 105 141 177 227 283 353 409
#     4   9  20  39  68 103 127 180 233 275 330 424
#     4  10  21  39  66 104 130 180 234 275 339 410
#     4  11  20  39  69 102 135 178 237 280 331 421
#     4  11  22  39  68 103 137 179 233 286 330 419
#     4  10  20  37  67  98 125 176 231 274 330 415
#     4  11  23  39  66  99 137 184 221 281 349 408
#
# _framework density 21.875093
#
# number of rings (size 3 to 8) (size 9 to 14) (size 15 to 20)
#    0.000    1.714    4.286    1.714    4.000    0.000 
#    0.000    0.000    3.143    6.857    0.000    0.000 
#    0.000    0.000    0.000    0.000    0.000    0.000 
#
# Total GULP energy -77952.519113 kJ/mol
# GULP energy per Si atom -5568.037080 kJ/mol
# Density = 2.182530 g / cm^3
# Si number density = 21.875093 Si / 1000 Ang^3
#
#
#
# Elastic Constant Matrix: (Units=GPa)
#
#
# Indices 1 2 3 4 5 6 
#
# 1 75.7226 39.6771 23.8542 0.0000 -22.4568 0.0000
# 2 39.6771 126.0812 27.8859 -0.0001 -5.6831 0.0000
# 3 23.8542 27.8859 33.3034 0.0000 -9.5988 0.0000
# 4 0.0000 -0.0001 0.0000 33.5738 0.0000 -3.5047
# 5 -22.4568 -5.6831 -9.5988 0.0000 32.0302 0.0000
# 6 0.0000 0.0000 0.0000 -3.5047 0.0000 47.1913
#
#
#
# Elastic Compliance Matrix: (Units=1/GPa)
#
#
# Indices 1 2 3 4 5 6 
#
# 1 0.021712 -0.004437 -0.008401 0.000000 0.011918 0.000000
# 2 -0.004437 0.010659 -0.006675 0.000000 -0.003220 0.000000
# 3 -0.008401 -0.006675 0.043338 0.000000 0.005913 0.000000
# 4 0.000000 0.000000 0.000000 0.030018 0.000000 0.002229
# 5 0.011918 -0.003220 0.005913 0.000000 0.040777 0.000000
# 6 0.000000 0.000000 0.000000 0.002229 0.000000 0.021356
#
#
# Mechanical properties :
#
#
# Convention : Reuss Voigt Hill
#
# Bulk Modulus (GPa) = 27.26139 46.43795 36.84967
# Shear Modulus (GPa) = 22.81921 32.13839 27.47880
#
# Velocity S-wave (km/s) = 3.23330 3.83714 3.54809
# Velocity P-wave (km/s) = 5.14085 6.39581 5.80236
#
# Compressibility (1/GPa) = 0.03668192
#
# Stress axis : x y z
#
# Youngs Moduli (GPa) = 46.05718 93.81781 23.07459
#
# Poissons Ratio (x) = 0.41630 0.19386
# Poissons Ratio (y) = 0.20437 0.15402
# Poissons Ratio (z) = 0.38694 0.62622
#
# Static dielectric constant tensor:
#      x y z
#    x 1.817600 0.000000 -0.011380 
#    y 0.000000 1.855540 0.000000 
#    z -0.011380 0.000000 1.886270 
# 
# From -- ./inp_files/25736.got.cif
#   From: 2010.05.17/outbox.cif.g08.bks.cpg/sg9_13_cif.got.tgz:25736.got - 2010.06.03 20:04:27.
