data_PCOD9135006
_publ_section_title
;
Structure prediction by ZEFSAII (Michael W. Deem and Ramdas Pophale) SiO2 
 PCOD9135006
Probable space group: C C
;
_chemical_formula_sum "Si O2"
_cell_formula_units_Z 32
_cell_length_a 9.687785
_cell_length_b 11.084031
_cell_length_c 13.682838
_cell_angle_alpha 90.000000
_cell_angle_beta 64.966555
_cell_angle_gamma 90.000000
_cell_volume 1331.238341
_symmetry_space_group_name_H-M "C C"
_symmetry_group_IT_number 9
_symmetry_cell_setting 'monoclinic'
loop_
_space_group_symop_operation_xyz
x,y,z
x,-y,1/2+z
1/2+x,1/2+y,z
1/2+x,1/2-y,1/2+z
loop_
_atom_site_type_symbol
_atom_site_label
_atom_site_fract_x
_atom_site_fract_y
_atom_site_fract_z
Si Si1 0.325290 0.415432 0.679180
Si Si2 0.031170 0.728076 0.528282
Si Si3 0.990542 0.154569 0.628706
Si Si4 0.503626 0.115673 0.210455
Si Si5 0.556907 0.405078 0.336174
Si Si6 0.387252 0.112419 0.814602
Si Si7 0.347598 0.369514 0.888379
Si Si8 0.821610 0.592411 0.461366
O O1 0.464072 0.320840 0.626782
O O2 0.376174 0.548491 0.632162
O O3 0.183324 0.358550 0.665204
O O4 0.277371 0.419111 0.807012
O O5 0.915668 0.623784 0.529748
O O6 0.199127 0.674099 0.492308
O O7 0.022162 0.811495 0.432989
O O8 0.944998 0.295948 0.643060
O O9 0.149228 0.134402 0.525483
O O10 0.017436 0.127500 0.736606
O O11 0.505038 0.970049 0.220075
O O12 0.400744 0.142645 0.337787
O O13 0.738666 0.404697 0.291559
O O14 0.465699 0.528685 0.386000
O O15 0.336191 0.048025 0.930904
O O16 0.430546 0.245539 0.833099
#
# Coordination Sequence:
#
# PCOD9135006 Si02
#       8
#     4   4   4   4   4   4   4   4
#     4  11  22  37  64  85 113 158 198 246 295 354
#     4  11  20  39  61  86 114 151 205 247 295 356
#     4  11  20  36  62  86 113 154 204 237 293 357
#     4  10  20  38  59  84 113 155 194 237 299 346
#     4  10  20  36  60  84 116 155 194 246 298 355
#     4   9  20  37  56  83 123 152 183 251 295 350
#     4  10  20  38  60  86 114 156 197 241 302 359
#     4  10  20  37  62  82 116 157 193 249 299 349
#
# _framework density 24.037770999999999
#
# number of rings (size 3 to 8) (size 9 to 14) (size 15 to 20)
#    0.750    1.000    3.750    2.250    0.000    1.000 
#    2.250    1.250   13.750    0.000    0.000    0.000 
#    0.000    0.000    0.000    0.000    0.000    0.000 
#
# Total GULP energy -89156.505205 kJ/mol
# GULP energy per Si atom -5572.281575 kJ/mol
# Density = 2.398306 g / cm^3
# Si number density = 24.037771 Si / 1000 Ang^3
#
#
#
# Elastic Constant Matrix: (Units=GPa)
#
#
# Indices 1 2 3 4 5 6 
#
# 1 24.1400 18.0899 24.2981 0.0000 -0.6613 0.0000
# 2 18.0899 74.4310 12.7584 0.0000 -0.4449 0.0000
# 3 24.2981 12.7584 91.8719 0.0000 -19.0739 0.0000
# 4 0.0000 0.0000 0.0000 21.6950 0.0000 -0.8189
# 5 -0.6613 -0.4449 -19.0739 0.0000 28.3952 0.0000
# 6 0.0000 0.0000 0.0000 -0.8189 0.0000 32.8130
#
#
#
# Elastic Compliance Matrix: (Units=1/GPa)
#
#
# Indices 1 2 3 4 5 6 
#
# 1 0.070936 -0.014019 -0.019193 0.000000 -0.011461 0.000000
# 2 -0.014019 0.016571 0.001618 0.000000 0.001020 0.000000
# 3 -0.019193 0.001618 0.018185 0.000000 0.011794 0.000000
# 4 0.000000 0.000000 0.000000 0.046137 0.000000 0.001151
# 5 -0.011461 0.001020 0.011794 0.000000 0.042889 0.000000
# 6 0.000000 0.000000 0.000000 0.001151 0.000000 0.030504
#
#
# Mechanical properties :
#
#
# Convention : Reuss Voigt Hill
#
# Bulk Modulus (GPa) = 23.52757 33.41507 28.47132
# Shear Modulus (GPa) = 16.52468 25.60040 21.06254
#
# Velocity S-wave (km/s) = 2.62476 3.26699 2.96332
# Velocity P-wave (km/s) = 4.35831 5.30680 4.85577
#
# Compressibility (1/GPa) = 0.04250333
#
# Stress axis : x y z
#
# Youngs Moduli (GPa) = 14.09728 60.34576 54.99102
#
# Poissons Ratio (x) = 0.84598 1.05547
# Poissons Ratio (y) = 0.19763 -0.08899
# Poissons Ratio (z) = 0.27058 -0.09765
#
# Static dielectric constant tensor:
#      x y z
#    x 1.921180 0.000000 -0.029430 
#    y 0.000000 2.118960 0.000000 
#    z -0.029430 0.000000 1.998800 
# 
# From -- ./inp_files/24634.got.cif
#   From: 2010.05.17/outbox.cif.g08.bks.cpg/sg9_13_cif.got.tgz:24634.got - 2010.06.03 20:04:27.
