data_PCOD9135138
_publ_section_title
;
Structure prediction by ZEFSAII (Michael W. Deem and Ramdas Pophale) SiO2 
 PCOD9135138
Probable space group: C C
;
_chemical_formula_sum "Si O2"
_cell_formula_units_Z 24
_cell_length_a 9.028632
_cell_length_b 14.745115
_cell_length_c 15.216394
_cell_angle_alpha 90.000000
_cell_angle_beta 29.115319
_cell_angle_gamma 90.000000
_cell_volume 985.658065
_symmetry_space_group_name_H-M "C C"
_symmetry_group_IT_number 9
_symmetry_cell_setting 'monoclinic'
loop_
_space_group_symop_operation_xyz
x,y,z
x,-y,1/2+z
1/2+x,1/2+y,z
1/2+x,1/2-y,1/2+z
loop_
_atom_site_type_symbol
_atom_site_label
_atom_site_fract_x
_atom_site_fract_y
_atom_site_fract_z
Si Si1 0.628170 0.378043 0.192510
Si Si2 0.693638 0.657109 0.942281
Si Si3 0.171507 0.865862 0.807619
Si Si4 0.602825 0.207790 0.335496
Si Si5 0.020013 0.532443 0.635390
Si Si6 0.021068 0.325320 0.455310
O O1 0.573874 0.294777 0.288177
O O2 0.285985 0.397740 0.340549
O O3 0.846818 0.445130 0.132914
O O4 0.800239 0.345065 0.016312
O O5 0.698657 0.748940 0.880546
O O6 0.817234 0.582001 0.813608
O O7 0.898746 0.659034 0.921710
O O8 0.357420 0.647880 0.156772
O O9 0.131892 0.779425 0.890821
O O10 0.266327 0.833011 0.661591
O O11 0.461261 0.927120 0.684686
O O12 0.858054 0.924804 0.964957
#
# Coordination Sequence:
#
# PCOD9135138 Si02
#       6
#     4   4   4   4   4   4
#     4  10  20  37  64  99 136 179 230 285 341 406
#     4  10  20  39  66  96 134 181 227 277 343 411
#     4  12  26  46  71 103 142 184 231 288 347 411
#     4   9  18  34  61  95 134 180 227 274 335 411
#     4  11  25  46  68  98 142 184 226 293 353 400
#     4  12  23  42  72 103 136 184 235 283 343 423
#
# _framework density 24.349215999999998
#
# number of rings (size 3 to 8) (size 9 to 14) (size 15 to 20)
#    0.000    1.333    0.000    8.000    0.000    2.667 
#    0.000   11.667    0.000    2.000    0.000    0.000 
#    0.000    0.000    0.000    0.000    0.000    0.000 
#
# Total GULP energy -67113.137421 kJ/mol
# GULP energy per Si atom -5592.761452 kJ/mol
# Density = 2.429380 g / cm^3
# Si number density = 24.349216 Si / 1000 Ang^3
#
#
#
# Elastic Constant Matrix: (Units=GPa)
#
#
# Indices 1 2 3 4 5 6 
#
# 1 96.1817 12.2537 46.6655 0.0279 -5.4924 0.0509
# 2 12.2537 65.5422 37.5237 0.0885 2.5085 -0.0023
# 3 46.6655 37.5237 184.8518 0.0586 20.0330 0.0199
# 4 0.0279 0.0885 0.0586 38.6030 0.0060 -14.1482
# 5 -5.4924 2.5085 20.0330 0.0060 36.8838 -0.0319
# 6 0.0509 -0.0023 0.0199 -14.1482 -0.0319 15.3706
#
#
#
# Elastic Compliance Matrix: (Units=1/GPa)
#
#
# Indices 1 2 3 4 5 6 
#
# 1 0.012330 -0.000492 -0.003417 -0.000021 0.003725 -0.000048
# 2 -0.000492 0.017304 -0.003456 -0.000046 0.000627 -0.000032
# 3 -0.003417 -0.003456 0.007442 -0.000005 -0.004315 -0.000012
# 4 -0.000021 -0.000046 -0.000005 0.039093 0.000027 0.035985
# 5 0.003725 0.000627 -0.004315 0.000027 0.029968 0.000081
# 6 -0.000048 -0.000032 -0.000012 0.035985 0.000081 0.098182
#
#
# Mechanical properties :
#
#
# Convention : Reuss Voigt Hill
#
# Bulk Modulus (GPa) = 44.75013 59.94014 52.34514
# Shear Modulus (GPa) = 22.07524 34.84701 28.46113
#
# Velocity S-wave (km/s) = 3.01426 3.78714 3.42259
# Velocity P-wave (km/s) = 5.52564 6.61767 6.09616
#
# Compressibility (1/GPa) = 0.02234630
#
# Stress axis : x y z
#
# Youngs Moduli (GPa) = 81.10267 57.78945 134.38025
#
# Poissons Ratio (x) = 0.02842 0.45912
# Poissons Ratio (y) = 0.03988 0.46448
# Poissons Ratio (z) = 0.27709 0.19975
#
# Static dielectric constant tensor:
#      x y z
#    x 1.967160 0.000000 -0.045500 
#    y 0.000000 1.989300 0.000030 
#    z -0.045500 0.000030 1.904600 
# 
# From -- ./inp_files/5180.got.cif
#   From: 2010.05.17/outbox.cif.g08.bks.cpg/sg9_3_cif.got.tgz:5180.got - 2010.06.03 20:04:27.
