data_PCOD9135036
_publ_section_title
;
Structure prediction by ZEFSAII (Michael W. Deem and Ramdas Pophale) SiO2 
 PCOD9135036
Probable space group: C C
;
_chemical_formula_sum "Si O2"
_cell_formula_units_Z 28
_cell_length_a 19.166502
_cell_length_b 7.239840
_cell_length_c 11.959133
_cell_angle_alpha 90.000000
_cell_angle_beta 132.694424
_cell_angle_gamma 90.000000
_cell_volume 1219.684186
_symmetry_space_group_name_H-M "C C"
_symmetry_group_IT_number 9
_symmetry_cell_setting 'monoclinic'
loop_
_space_group_symop_operation_xyz
x,y,z
x,-y,1/2+z
1/2+x,1/2+y,z
1/2+x,1/2-y,1/2+z
loop_
_atom_site_type_symbol
_atom_site_label
_atom_site_fract_x
_atom_site_fract_y
_atom_site_fract_z
Si Si1 0.264840 0.238249 0.534950
Si Si2 0.379451 0.319529 0.443815
Si Si3 0.551488 0.230671 0.781514
Si Si4 0.273390 0.320911 0.102448
Si Si5 0.560134 0.826129 0.858840
Si Si6 0.899649 0.777480 0.038294
Si Si7 0.934571 0.406015 0.350067
O O1 0.312024 0.230258 0.464315
O O2 0.154941 0.183910 0.407744
O O3 0.273466 0.454186 0.584450
O O4 0.329182 0.114097 0.685559
O O5 0.485361 0.285672 0.606428
O O6 0.338442 0.273007 0.278634
O O7 0.369071 0.539773 0.441741
O O8 0.491678 0.244126 0.833397
O O9 0.571057 0.009746 0.793478
O O10 0.317194 0.234484 0.037143
O O11 0.164517 0.264020 0.003215
O O12 0.492445 0.690105 0.716828
O O13 0.499002 0.915634 0.892706
O O14 0.925377 0.632935 0.970468
#
# Coordination Sequence:
#
# PCOD9135036 Si02
#       7
#     4   4   4   4   4   4   4
#     4   9  17  37  59  85 114 171 203 246 312 379
#     4  10  20  36  63  87 123 158 213 260 309 365
#     4   8  19  38  62  84 124 168 206 249 323 373
#     4  10  21  37  62  91 120 169 208 252 312 388
#     4   9  22  40  58  90 124 167 211 247 317 378
#     4  11  22  37  64  93 127 159 214 264 310 370
#     4   9  19  37  62  86 122 164 209 254 301 379
#
# _framework density 22.956762000000001
#
# number of rings (size 3 to 8) (size 9 to 14) (size 15 to 20)
#    0.857    1.714    1.429    0.000    0.000    6.857 
#    2.571    0.000    0.000    0.000    0.000    0.000 
#    0.000    0.000    0.000    0.000    0.000    0.000 
#
# Total GULP energy -78102.943143 kJ/mol
# GULP energy per Si atom -5578.781653 kJ/mol
# Density = 2.290451 g / cm^3
# Si number density = 22.956762 Si / 1000 Ang^3
#
#
#
# Elastic Constant Matrix: (Units=GPa)
#
#
# Indices 1 2 3 4 5 6 
#
# 1 139.8163 30.2958 131.4072 0.0000 20.0043 0.0000
# 2 30.2958 48.1300 26.7985 0.0000 -7.6528 0.0000
# 3 131.4072 26.7985 174.5720 0.0000 12.3582 0.0000
# 4 0.0000 0.0000 0.0000 38.3585 0.0000 -3.9061
# 5 20.0043 -7.6528 12.3582 0.0000 50.7354 0.0000
# 6 0.0000 0.0000 0.0000 -3.9061 0.0000 30.4203
#
#
#
# Elastic Compliance Matrix: (Units=1/GPa)
#
#
# Indices 1 2 3 4 5 6 
#
# 1 0.028497 -0.008223 -0.019644 0.000000 -0.007691 0.000000
# 2 -0.008223 0.026077 0.001708 0.000000 0.006759 0.000000
# 3 -0.019644 0.001708 0.020032 0.000000 0.003124 0.000000
# 4 0.000000 0.000000 0.000000 0.026415 0.000000 0.003392
# 5 -0.007691 0.006759 0.003124 0.000000 0.023001 0.000000
# 6 0.000000 0.000000 0.000000 0.003392 0.000000 0.033308
#
#
# Mechanical properties :
#
#
# Convention : Reuss Voigt Hill
#
# Bulk Modulus (GPa) = 44.86732 82.16904 63.51818
# Shear Modulus (GPa) = 23.03325 35.50396 29.26860
#
# Velocity S-wave (km/s) = 3.17098 3.93690 3.57451
# Velocity P-wave (km/s) = 5.74400 7.51906 6.69065
#
# Compressibility (1/GPa) = 0.02228794
#
# Stress axis : x y z
#
# Youngs Moduli (GPa) = 35.09134 38.34839 49.92059
#
# Poissons Ratio (x) = 0.31534 0.98064
# Poissons Ratio (y) = 0.28855 -0.08527
# Poissons Ratio (z) = 0.68934 -0.06551
#
# Static dielectric constant tensor:
#      x y z
#    x 1.854340 0.000000 0.000530 
#    y 0.000000 1.932630 0.000000 
#    z 0.000530 0.000000 1.807940 
# 
# From -- ./inp_files/19094.got.cif
#   From: 2010.05.17/outbox.cif.g08.bks.cpg/sg9_10_cif.got.tgz:19094.got - 2010.06.03 20:04:27.
