data_PCOD9135145
_publ_section_title
;
Structure prediction by ZEFSAII (Michael W. Deem and Ramdas Pophale) SiO2 
 PCOD9135145
Probable space group: C C
;
_chemical_formula_sum "Si O2"
_cell_formula_units_Z 32
_cell_length_a 5.672126
_cell_length_b 25.052796
_cell_length_c 12.040605
_cell_angle_alpha 90.000000
_cell_angle_beta 53.495408
_cell_angle_gamma 90.000000
_cell_volume 1375.318693
_symmetry_space_group_name_H-M "C C"
_symmetry_group_IT_number 9
_symmetry_cell_setting 'monoclinic'
loop_
_space_group_symop_operation_xyz
x,y,z
x,-y,1/2+z
1/2+x,1/2+y,z
1/2+x,1/2-y,1/2+z
loop_
_atom_site_type_symbol
_atom_site_label
_atom_site_fract_x
_atom_site_fract_y
_atom_site_fract_z
Si Si1 0.209540 0.251419 0.400880
Si Si2 0.497937 0.162051 0.816540
Si Si3 0.782828 0.990568 0.538117
Si Si4 0.753627 0.441327 0.791431
Si Si5 0.316182 0.933446 0.522420
Si Si6 0.903691 0.789172 0.554094
Si Si7 0.148826 0.322159 0.038818
Si Si8 0.111860 0.348342 0.808087
O O1 0.156388 0.285243 0.528590
O O2 0.477758 0.211622 0.338243
O O3 0.225992 0.294269 0.298921
O O4 0.954144 0.208836 0.455835
O O5 0.457184 0.114089 0.912521
O O6 0.583222 0.146287 0.668920
O O7 0.193210 0.194370 0.904662
O O8 0.047493 0.957303 0.524220
O O9 0.506702 0.987800 0.702458
O O10 0.605183 0.968178 0.479498
O O11 0.971253 0.039832 0.438624
O O12 0.687479 0.423715 0.683072
O O13 0.911759 0.393012 0.809608
O O14 0.878862 0.835897 0.650962
O O15 0.936562 0.729595 0.591967
O O16 0.140830 0.356694 0.930235
#
# Coordination Sequence:
#
# PCOD9135145 Si02
#       8
#     4   4   4   4   4   4   4   4
#     4  10  21  36  62  98 141 189 237 291 350 426
#     4  11  22  40  66  98 143 190 235 298 352 449
#     4  10  25  49  78 110 142 185 251 314 386 439
#     4  10  25  48  79 107 143 194 247 319 379 454
#     4  10  25  46  77 108 141 190 246 298 385 442
#     4  10  20  37  65  92 143 194 241 290 351 430
#     4  10  22  38  56 104 147 185 237 286 355 422
#     4  11  22  42  67 101 138 191 238 298 360 444
#
# _framework density 23.267333000000001
#
# number of rings (size 3 to 8) (size 9 to 14) (size 15 to 20)
#    0.750    1.000    0.000    4.500    3.500    5.000 
#    4.500    0.000    0.000    0.000    0.000    0.000 
#    0.000    0.000    0.000    0.000    0.000    0.000 
#
# Total GULP energy -89165.275661 kJ/mol
# GULP energy per Si atom -5572.829729 kJ/mol
# Density = 2.321438 g / cm^3
# Si number density = 23.267333 Si / 1000 Ang^3
#
#
#
# Elastic Constant Matrix: (Units=GPa)
#
#
# Indices 1 2 3 4 5 6 
#
# 1 80.3647 19.2020 22.0687 0.0000 3.1376 0.0000
# 2 19.2020 51.9229 40.4945 0.0000 3.9619 0.0000
# 3 22.0687 40.4945 121.3162 0.0000 16.8049 0.0000
# 4 0.0000 0.0000 0.0000 29.1186 0.0000 8.1899
# 5 3.1376 3.9619 16.8049 0.0000 31.6573 0.0000
# 6 0.0000 0.0000 0.0000 8.1899 0.0000 38.3217
#
#
#
# Elastic Compliance Matrix: (Units=1/GPa)
#
#
# Indices 1 2 3 4 5 6 
#
# 1 0.013757 -0.004251 -0.001045 0.000000 -0.000277 0.000000
# 2 -0.004251 0.027414 -0.008592 0.000000 0.001552 0.000000
# 3 -0.001045 -0.008592 0.012022 0.000000 -0.005203 0.000000
# 4 0.000000 0.000000 0.000000 0.036539 0.000000 -0.007809
# 5 -0.000277 0.001552 -0.005203 0.000000 0.034183 0.000000
# 6 0.000000 0.000000 0.000000 -0.007809 0.000000 0.027764
#
#
# Mechanical properties :
#
#
# Convention : Reuss Voigt Hill
#
# Bulk Modulus (GPa) = 39.34615 46.34822 42.84719
# Shear Modulus (GPa) = 26.60597 31.27542 28.94069
#
# Velocity S-wave (km/s) = 3.38522 3.67028 3.53063
# Velocity P-wave (km/s) = 5.67687 6.15828 5.92247
#
# Compressibility (1/GPa) = 0.02541545
#
# Stress axis : x y z
#
# Youngs Moduli (GPa) = 72.69095 36.47745 83.18249
#
# Poissons Ratio (x) = 0.15508 0.08694
# Poissons Ratio (y) = 0.30903 0.71472
# Poissons Ratio (z) = 0.07597 0.31342
#
# Static dielectric constant tensor:
#      x y z
#    x 1.969680 0.000000 0.002060 
#    y 0.000000 1.870520 0.000000 
#    z 0.002060 0.000000 2.029110 
# 
# From -- ./inp_files/13871.got.cif
#   From: 2010.05.17/outbox.cif.g08.bks.cpg/sg9_7_cif.got.tgz:13871.got - 2010.06.03 20:04:27.
