data_PCOD9135090
_publ_section_title
;
Structure prediction by ZEFSAII (Michael W. Deem and Ramdas Pophale) SiO2 
 PCOD9135090
Probable space group: C C
;
_chemical_formula_sum "Si O2"
_cell_formula_units_Z 32
_cell_length_a 12.893752
_cell_length_b 24.518813
_cell_length_c 13.092763
_cell_angle_alpha 90.000000
_cell_angle_beta 157.337502
_cell_angle_gamma 90.000000
_cell_volume 1594.819246
_symmetry_space_group_name_H-M "C C"
_symmetry_group_IT_number 9
_symmetry_cell_setting 'monoclinic'
loop_
_space_group_symop_operation_xyz
x,y,z
x,-y,1/2+z
1/2+x,1/2+y,z
1/2+x,1/2-y,1/2+z
loop_
_atom_site_type_symbol
_atom_site_label
_atom_site_fract_x
_atom_site_fract_y
_atom_site_fract_z
Si Si1 0.930830 0.720107 0.317510
Si Si2 0.469595 0.421273 0.887357
Si Si3 0.156120 0.287486 0.422105
Si Si4 0.902693 0.606350 0.382701
Si Si5 0.059139 0.279554 0.693942
Si Si6 0.942584 0.355829 0.415848
Si Si7 0.488251 0.605437 0.171719
Si Si8 0.906643 0.042295 0.902494
O O1 0.005174 0.661736 0.428435
O O2 0.991281 0.719518 0.251715
O O3 0.118705 0.764628 0.542843
O O4 0.543403 0.416001 0.835051
O O5 0.488668 0.481128 0.952003
O O6 0.158818 0.404078 0.608240
O O7 0.659508 0.378547 0.119355
O O8 0.289807 0.342166 0.494970
O O9 0.890133 0.258373 0.136418
O O10 0.060687 0.309107 0.447341
O O11 0.767040 0.620328 0.368721
O O12 0.132156 0.561477 0.601610
O O13 0.651609 0.581806 0.091980
O O14 0.876060 0.232158 0.476288
O O15 0.957142 0.332379 0.542658
O O16 0.378328 0.557709 0.997137
#
# Coordination Sequence:
#
# PCOD9135090 Si02
#       8
#     4   4   4   4   4   4   4   4
#     4  10  21  38  60  88 121 162 200 245 307 370
#     4  11  23  42  63  87 121 161 206 263 309 363
#     4  11  22  35  59  93 125 163 198 239 309 378
#     4  10  22  41  61  87 121 154 202 254 309 370
#     4  10  20  37  60  87 126 164 194 246 305 355
#     4  11  22  38  61  91 125 158 209 255 297 372
#     4   9  25  40  64  87 129 156 202 262 307 371
#     4  10  23  43  60  86 116 162 203 254 319 353
#
# _framework density 20.064971
#
# number of rings (size 3 to 8) (size 9 to 14) (size 15 to 20)
#    0.750    1.000    0.000    4.500    5.250    1.000 
#    4.500    0.000    0.000    0.000    0.000    0.000 
#    0.000    0.000    0.000    0.000    0.000    0.000 
#
# Total GULP energy -89204.349634 kJ/mol
# GULP energy per Si atom -5575.271852 kJ/mol
# Density = 2.001930 g / cm^3
# Si number density = 20.064971 Si / 1000 Ang^3
#
#
#
# Elastic Constant Matrix: (Units=GPa)
#
#
# Indices 1 2 3 4 5 6 
#
# 1 16.5223 34.1150 28.4327 -0.0041 -4.5431 -0.0010
# 2 34.1150 83.3655 4.0375 0.0002 -6.4693 -0.0003
# 3 28.4327 4.0375 68.7139 -0.0173 7.6870 -0.0052
# 4 -0.0041 0.0002 -0.0173 37.5397 -0.0107 -6.7905
# 5 -4.5431 -6.4693 7.6870 -0.0107 17.1160 -0.0026
# 6 -0.0010 -0.0003 -0.0052 -6.7905 -0.0026 19.1985
#
#
#
# Elastic Compliance Matrix: (Units=1/GPa)
#
#
# Indices 1 2 3 4 5 6 
#
# 1 -0.105104 0.038218 0.045011 0.000000 -0.033668 0.000003
# 2 0.038218 -0.001425 -0.017694 0.000001 0.017552 0.000000
# 3 0.045011 -0.017694 -0.003812 0.000006 0.006972 0.000004
# 4 0.000000 0.000001 0.000006 0.028459 0.000017 0.010066
# 5 -0.033668 0.017552 0.006972 0.000017 0.052991 0.000014
# 6 0.000003 0.000000 0.000004 0.010066 0.000014 0.055648
#
#
# Mechanical properties :
#
#
# Convention : Reuss Voigt Hill
#
# Bulk Modulus (GPa) = 48.24058 33.53022 40.88540
# Shear Modulus (GPa) = -51.33224 21.57194 -14.88015
#
# Velocity S-wave (km/s) = -5.06345 3.28244 -2.72618
# Velocity P-wave (km/s) = 3.17653 5.57790 3.24211
#
# Compressibility (1/GPa) = 0.02072944
#
# Stress axis : x y z
#
# Youngs Moduli (GPa) = -9.51435 -701.58023 -262.32563
#
# Poissons Ratio (x) = 26.81321 11.80759
# Poissons Ratio (y) = 0.36362 -4.64157
# Poissons Ratio (z) = 0.42825 -12.41370
#
# Static dielectric constant tensor:
#      x y z
#    x 1.719930 0.000000 -0.001980 
#    y 0.000000 1.679490 0.000000 
#    z -0.001980 0.000000 1.724460 
# 
# From -- ./inp_files/26185.got.cif
#   From: 2010.05.17/outbox.cif.g08.bks.cpg/sg9_14_cif.got.tgz:26185.got - 2010.06.03 20:04:27.
