data_PCOD9135067
_publ_section_title
;
Structure prediction by ZEFSAII (Michael W. Deem and Ramdas Pophale) SiO2 
 PCOD9135067
Probable space group: C C
;
_chemical_formula_sum "Si O2"
_cell_formula_units_Z 32
_cell_length_a 12.234170
_cell_length_b 18.515049
_cell_length_c 8.404523
_cell_angle_alpha 90.000000
_cell_angle_beta 36.754584
_cell_angle_gamma 90.000000
_cell_volume 1139.189132
_symmetry_space_group_name_H-M "C C"
_symmetry_group_IT_number 9
_symmetry_cell_setting 'monoclinic'
loop_
_space_group_symop_operation_xyz
x,y,z
x,-y,1/2+z
1/2+x,1/2+y,z
1/2+x,1/2-y,1/2+z
loop_
_atom_site_type_symbol
_atom_site_label
_atom_site_fract_x
_atom_site_fract_y
_atom_site_fract_z
Si Si1 0.742520 0.133555 0.506140
Si Si2 0.873125 0.900313 0.509945
Si Si3 0.633178 0.742991 0.632854
Si Si4 0.206248 0.899057 0.761203
Si Si5 0.625372 0.286123 0.635209
Si Si6 0.258998 0.967661 0.031056
Si Si7 0.387288 0.838683 0.052236
Si Si8 0.269600 0.613982 0.808298
O O1 0.778191 0.098716 0.293377
O O2 0.606484 0.200795 0.656284
O O3 0.695501 0.090530 0.722462
O O4 0.934707 0.173874 0.323884
O O5 0.982345 0.823800 0.332587
O O6 0.743366 0.920856 0.512876
O O7 0.045011 0.953860 0.318190
O O8 0.813820 0.698997 0.472711
O O9 0.694508 0.803326 0.428406
O O10 0.578453 0.798237 0.838845
O O11 0.986849 0.902038 0.040976
O O12 0.290552 0.933074 0.821753
O O13 0.212485 0.816613 0.697693
O O14 0.281470 0.947687 0.529313
O O15 0.756759 0.312171 0.341500
O O16 0.363894 0.921794 0.042082
#
# Coordination Sequence:
#
# PCOD9135067 Si02
#       8
#     4   4   4   4   4   4   4   4
#     4  11  22  34  57  87 124 152 198 240 301 358
#     4  10  20  37  57  87 119 160 190 247 303 356
#     4  11  19  34  57  90 127 155 192 237 313 358
#     4  10  23  38  61  86 115 156 214 253 296 363
#     4  11  20  36  55  92 118 156 198 245 297 364
#     4  10  21  38  60  84 112 159 206 252 297 357
#     4  11  20  34  63  86 126 162 193 244 304 368
#     4  10  23  35  58  88 125 156 203 248 297 364
#
# _framework density 28.090157000000001
#
# number of rings (size 3 to 8) (size 9 to 14) (size 15 to 20)
#    0.000    1.500    5.000    0.750    8.750    0.000 
#    0.000    0.000    0.000    7.500    0.000    0.000 
#    0.000    0.000    0.000    0.000    0.000    0.000 
#
# Total GULP energy -89243.048202 kJ/mol
# GULP energy per Si atom -5577.690513 kJ/mol
# Density = 2.802622 g / cm^3
# Si number density = 28.090157 Si / 1000 Ang^3
#
#
#
# Elastic Constant Matrix: (Units=GPa)
#
#
# Indices 1 2 3 4 5 6 
#
# 1 96.5422 18.2140 56.6985 -0.0002 40.3904 0.0002
# 2 18.2140 70.2754 6.2946 0.0000 4.6547 0.0000
# 3 56.6985 6.2946 93.4604 -0.0005 7.5451 0.0008
# 4 -0.0002 0.0000 -0.0005 40.8490 0.0005 13.6499
# 5 40.3904 4.6547 7.5451 0.0005 50.3048 -0.0004
# 6 0.0002 0.0000 0.0008 13.6499 -0.0004 13.9410
#
#
#
# Elastic Compliance Matrix: (Units=1/GPa)
#
#
# Indices 1 2 3 4 5 6 
#
# 1 0.029015 -0.004762 -0.015626 0.000000 -0.020512 0.000000
# 2 -0.004762 0.015169 0.001692 0.000000 0.002166 0.000000
# 3 -0.015626 0.001692 0.019299 0.000000 0.009495 -0.000001
# 4 0.000000 0.000000 0.000000 0.036385 -0.000001 -0.035625
# 5 -0.020512 0.002166 0.009495 -0.000001 0.034724 0.000002
# 6 0.000000 0.000000 -0.000001 -0.035625 0.000002 0.106612
#
#
# Mechanical properties :
#
#
# Convention : Reuss Voigt Hill
#
# Bulk Modulus (GPa) = 38.32541 46.96581 42.64561
# Shear Modulus (GPa) = 17.40393 32.95701 25.18047
#
# Velocity S-wave (km/s) = 2.49182 3.42900 2.99727
# Velocity P-wave (km/s) = 4.68532 5.69503 5.21467
#
# Compressibility (1/GPa) = 0.02609235
#
# Stress axis : x y z
#
# Youngs Moduli (GPa) = 34.46477 65.92450 51.81724
#
# Poissons Ratio (x) = 0.31393 0.80967
# Poissons Ratio (y) = 0.16412 -0.08769
# Poissons Ratio (z) = 0.53853 -0.11157
#
# Static dielectric constant tensor:
#      x y z
#    x 2.435340 0.000000 -0.045610 
#    y 0.000000 2.261730 0.000000 
#    z -0.045610 0.000000 2.234910 
# 
# From -- ./inp_files/8212.got.cif
#   From: 2010.05.17/outbox.cif.g08.bks.cpg/sg9_5_cif.got.tgz:8212.got - 2010.06.03 20:04:27.
