data_PCOD9135253
_publ_section_title
;
Structure prediction by ZEFSAII (Michael W. Deem and Ramdas Pophale) SiO2 
 PCOD9135253
Probable space group: C C
;
_chemical_formula_sum "Si O2"
_cell_formula_units_Z 28
_cell_length_a 18.896068
_cell_length_b 6.900227
_cell_length_c 23.497067
_cell_angle_alpha 90.000000
_cell_angle_beta 22.672452
_cell_angle_gamma 90.000000
_cell_volume 1180.947363
_symmetry_space_group_name_H-M "C C"
_symmetry_group_IT_number 9
_symmetry_cell_setting 'monoclinic'
loop_
_space_group_symop_operation_xyz
x,y,z
x,-y,1/2+z
1/2+x,1/2+y,z
1/2+x,1/2-y,1/2+z
loop_
_atom_site_type_symbol
_atom_site_label
_atom_site_fract_x
_atom_site_fract_y
_atom_site_fract_z
Si Si1 0.252550 0.484111 0.533120
Si Si2 0.212934 0.558704 0.248261
Si Si3 0.299230 0.243516 0.907339
Si Si4 0.205875 0.243537 0.158895
Si Si5 0.826722 0.304385 0.068096
Si Si6 0.178356 0.804370 0.998156
Si Si7 0.792163 0.941305 0.317980
O O1 0.170644 0.641832 0.548649
O O2 0.334477 0.641821 0.517574
O O3 0.520111 0.173537 0.392504
O O4 0.306727 0.329221 0.443394
O O5 0.208634 0.364639 0.214283
O O6 0.347623 0.700528 0.113476
O O7 0.252553 0.500012 0.283117
O O8 0.256772 0.021258 0.127532
O O9 0.502555 0.249967 0.783114
O O10 0.296487 0.364635 0.851942
O O11 0.248290 0.021249 0.938729
O O12 0.198363 0.670777 0.122853
O O13 0.157457 0.700503 0.952776
O O14 0.984968 0.826435 0.173749
#
# Coordination Sequence:
#
# PCOD9135253 Si02
#       7
#     4   4   4   4   4   4   4
#     4  10  20  38  66 100 128 166 220 272 338 390
#     4  11  27  44  66  99 136 183 228 277 342 408
#     4  11  22  40  69  99 136 175 226 277 340 402
#     4  11  22  40  69  99 136 175 226 277 340 402
#     4  11  24  44  69  98 139 174 225 281 337 407
#     4  11  24  44  69  98 139 174 225 281 337 407
#     4  11  27  44  66  99 136 183 228 277 342 408
#
# _framework density 23.709779000000001
#
# number of rings (size 3 to 8) (size 9 to 14) (size 15 to 20)
#    0.000    1.143    0.000    6.000    4.000    8.000 
#    0.000    0.000    0.000    0.000    0.000    0.000 
#    0.000    0.000    0.000    0.000    0.000    0.000 
#
# Total GULP energy -78042.303410 kJ/mol
# GULP energy per Si atom -5574.450244 kJ/mol
# Density = 2.365581 g / cm^3
# Si number density = 23.709779 Si / 1000 Ang^3
#
#
#
# Elastic Constant Matrix: (Units=GPa)
#
#
# Indices 1 2 3 4 5 6 
#
# 1 108.3650 51.4571 32.8855 -0.0028 60.4421 0.0037
# 2 51.4571 202.1941 43.1462 -0.0044 42.7555 0.0084
# 3 32.8855 43.1462 75.9179 -0.0073 36.5369 0.0019
# 4 -0.0028 -0.0044 -0.0073 50.2908 0.0038 18.7234
# 5 60.4421 42.7555 36.5369 0.0038 58.6069 -0.0018
# 6 0.0037 0.0084 0.0019 18.7234 -0.0018 29.2053
#
#
#
# Elastic Compliance Matrix: (Units=1/GPa)
#
#
# Indices 1 2 3 4 5 6 
#
# 1 0.022161 -0.001182 0.002367 0.000006 -0.023467 -0.000008
# 2 -0.001182 0.006091 -0.001997 0.000001 -0.001979 -0.000002
# 3 0.002367 -0.001997 0.019652 0.000006 -0.013235 -0.000006
# 4 0.000006 0.000001 0.000006 0.026118 -0.000013 -0.016744
# 5 -0.023467 -0.001979 -0.013235 -0.000013 0.050960 0.000016
# 6 -0.000008 -0.000002 -0.000006 -0.016744 0.000016 0.044975
#
#
# Mechanical properties :
#
#
# Convention : Reuss Voigt Hill
#
# Bulk Modulus (GPa) = 21.60853 71.27274 46.44064
# Shear Modulus (GPa) = 26.73675 44.88650 35.81162
#
# Velocity S-wave (km/s) = 3.36172 4.35577 3.89062
# Velocity P-wave (km/s) = 4.91953 7.44464 6.30969
#
# Compressibility (1/GPa) = 0.04627802
#
# Stress axis : x y z
#
# Youngs Moduli (GPa) = 45.12523 164.16667 50.88651
#
# Poissons Ratio (x) = 0.19411 -0.12044
# Poissons Ratio (y) = 0.05336 0.10163
# Poissons Ratio (z) = -0.10680 0.32786
#
# Static dielectric constant tensor:
#      x y z
#    x 1.908440 0.000000 -0.068150 
#    y 0.000000 1.885620 0.000000 
#    z -0.068150 0.000000 2.088140 
# 
# From -- ./inp_files/34263.got.cif
#   From: 2010.05.17/outbox.cif.g08.bks.cpg/sg9_18_cif.got.tgz:34263.got - 2010.06.03 20:04:27.
