data_PCOD9135368
_publ_section_title
;
Structure prediction by ZEFSAII (Michael W. Deem and Ramdas Pophale) SiO2 
 PCOD9135368
Probable space group: C C
;
_chemical_formula_sum "Si O2"
_cell_formula_units_Z 32
_cell_length_a 6.796880
_cell_length_b 17.869532
_cell_length_c 14.029719
_cell_angle_alpha 90.000000
_cell_angle_beta 125.759600
_cell_angle_gamma 90.000000
_cell_volume 1382.762126
_symmetry_space_group_name_H-M "C C"
_symmetry_group_IT_number 9
_symmetry_cell_setting 'monoclinic'
loop_
_space_group_symop_operation_xyz
x,y,z
x,-y,1/2+z
1/2+x,1/2+y,z
1/2+x,1/2-y,1/2+z
loop_
_atom_site_type_symbol
_atom_site_label
_atom_site_fract_x
_atom_site_fract_y
_atom_site_fract_z
Si Si1 0.633540 0.276802 0.250000
Si Si2 0.022326 0.862641 0.407023
Si Si3 0.728476 0.399583 0.979652
Si Si4 0.662624 0.258073 0.866916
Si Si5 0.460415 0.861645 0.806507
Si Si6 0.378320 0.498218 0.746946
Si Si7 0.829990 0.468496 0.628096
Si Si8 0.283675 0.398236 0.062845
O O1 0.653853 0.314162 0.361769
O O2 0.535676 0.193854 0.242799
O O3 0.441583 0.327179 0.139184
O O4 0.894047 0.272240 0.274269
O O5 0.193871 0.910427 0.522037
O O6 0.850988 0.809753 0.421382
O O7 0.872422 0.924423 0.305795
O O8 0.727309 0.449301 0.074733
O O9 0.202199 0.388885 0.930332
O O10 0.012741 0.396904 0.032187
O O11 0.650447 0.313219 0.954433
O O12 0.776967 0.311847 0.817998
O O13 0.073804 0.946116 0.856508
O O14 0.327852 0.935383 0.732599
O O15 0.400555 0.528229 0.644504
O O16 0.112963 0.464280 0.680839
#
# Coordination Sequence:
#
# PCOD9135368 Si02
#       8
#     4   4   4   4   4   4   4   4
#     4  10  21  40  65  91 131 177 227 277 345 399
#     4   9  21  41  67  96 131 178 230 283 342 400
#     4   9  19  38  66  97 129 173 221 274 341 402
#     4  10  21  42  63  99 133 172 234 285 335 408
#     4  10  22  38  64  97 130 179 221 279 341 405
#     4   9  18  40  69  94 132 180 221 275 342 406
#     4  10  20  39  67  94 135 183 218 282 351 404
#     4   9  20  40  63  92 131 178 214 283 337 394
#
# _framework density 23.142085000000002
#
# number of rings (size 3 to 8) (size 9 to 14) (size 15 to 20)
#    0.000    2.500    0.000    0.750    5.250    0.000 
#    2.250   23.750    0.000    1.500    0.000    0.000 
#    0.000    0.000    0.000    0.000    0.000    0.000 
#
# Total GULP energy -89323.139271 kJ/mol
# GULP energy per Si atom -5582.696204 kJ/mol
# Density = 2.308941 g / cm^3
# Si number density = 23.142085 Si / 1000 Ang^3
#
#
#
# Elastic Constant Matrix: (Units=GPa)
#
#
# Indices 1 2 3 4 5 6 
#
# 1 94.1002 42.1096 40.4661 0.0000 23.8339 0.0000
# 2 42.1096 128.9037 49.6337 0.0000 22.4575 0.0000
# 3 40.4661 49.6337 123.2398 0.0000 28.9817 0.0000
# 4 0.0000 0.0000 0.0000 17.2313 0.0000 24.1394
# 5 23.8339 22.4575 28.9817 0.0000 34.0644 0.0000
# 6 0.0000 0.0000 0.0000 24.1394 0.0000 26.6430
#
#
#
# Elastic Compliance Matrix: (Units=1/GPa)
#
#
# Indices 1 2 3 4 5 6 
#
# 1 0.014407 -0.002773 -0.002091 0.000000 -0.006472 0.000000
# 2 -0.002773 0.010090 -0.002557 0.000000 -0.002536 0.000000
# 3 -0.002091 -0.002557 0.011364 0.000000 -0.006519 0.000000
# 4 0.000000 0.000000 0.000000 -0.215534 0.000000 0.195280
# 5 -0.006472 -0.002536 -0.006519 0.000000 0.041103 0.000000
# 6 0.000000 0.000000 0.000000 0.195280 0.000000 -0.139396
#
#
# Mechanical properties :
#
#
# Convention : Reuss Voigt Hill
#
# Bulk Modulus (GPa) = 47.57902 67.85137 57.71519
# Shear Modulus (GPa) = -19.52233 29.85671 5.16719
#
# Velocity S-wave (km/s) = -2.90761 3.59576 1.49588
# Velocity P-wave (km/s) = 3.05482 6.82806 5.28935
#
# Compressibility (1/GPa) = 0.02101767
#
# Stress axis : x y z
#
# Youngs Moduli (GPa) = 69.41181 99.10790 87.99905
#
# Poissons Ratio (x) = 0.27487 0.18405
# Poissons Ratio (y) = 0.19251 0.22497
# Poissons Ratio (z) = 0.14517 0.25337
#
# Static dielectric constant tensor:
#      x y z
#    x 1.927470 0.000000 -0.072010 
#    y 0.000000 1.874030 0.000000 
#    z -0.072010 0.000000 1.903550 
# 
# From -- ./inp_files/22107.got.cif
#   From: 2010.05.17/outbox.cif.g08.bks.cpg/sg9_12_cif.got.tgz:22107.got - 2010.06.03 20:04:27.
