data_PCOD9135666
_publ_section_title
;
Structure prediction by ZEFSAII (Michael W. Deem and Ramdas Pophale) SiO2 
 PCOD9135666
Probable space group: C C
;
_chemical_formula_sum "Si O2"
_cell_formula_units_Z 32
_cell_length_a 5.160244
_cell_length_b 19.219954
_cell_length_c 14.282265
_cell_angle_alpha 90.000000
_cell_angle_beta 69.387011
_cell_angle_gamma 90.000000
_cell_volume 1325.824746
_symmetry_space_group_name_H-M "C C"
_symmetry_group_IT_number 9
_symmetry_cell_setting 'monoclinic'
loop_
_space_group_symop_operation_xyz
x,y,z
x,-y,1/2+z
1/2+x,1/2+y,z
1/2+x,1/2-y,1/2+z
loop_
_atom_site_type_symbol
_atom_site_label
_atom_site_fract_x
_atom_site_fract_y
_atom_site_fract_z
Si Si1 0.686670 0.836498 0.122260
Si Si2 0.787569 0.486180 0.544387
Si Si3 0.469894 0.198716 0.294650
Si Si4 0.986983 0.190846 0.103637
Si Si5 0.155371 0.604785 0.429349
Si Si6 0.037257 0.850135 0.256425
Si Si7 0.868693 0.911028 0.463806
Si Si8 0.630221 0.423473 0.740062
O O1 0.693470 0.754102 0.096013
O O2 0.367751 0.846191 0.196468
O O3 0.886779 0.862614 0.177605
O O4 0.765239 0.873910 0.016246
O O5 0.895096 0.557887 0.487731
O O6 0.047017 0.432197 0.500784
O O7 0.530058 0.464162 0.511985
O O8 0.743699 0.487136 0.663356
O O9 0.594314 0.174268 0.377566
O O10 0.375136 0.278550 0.312541
O O11 0.306572 0.129334 0.282683
O O12 0.691118 0.210035 0.183989
O O13 0.063196 0.127103 0.161404
O O14 0.937749 0.161898 0.007080
O O15 0.362941 0.562018 0.336551
O O16 0.985408 0.904583 0.345370
#
# Coordination Sequence:
#
# PCOD9135666 Si02
#       8
#     4   4   4   4   4   4   4   4
#     4  11  24  42  65 103 143 175 230 292 351 419
#     4  11  26  46  70 100 137 184 243 282 342 418
#     4  10  20  42  68 101 134 179 227 285 359 423
#     4   9  19  40  66 100 130 177 224 286 351 421
#     4  11  27  43  70 104 137 194 238 289 352 417
#     4  11  24  43  68 103 145 175 228 295 357 416
#     4  11  23  44  69  97 134 187 231 286 350 413
#     4  10  21  44  70  96 142 179 233 289 356 417
#
# _framework density 24.135918
#
# number of rings (size 3 to 8) (size 9 to 14) (size 15 to 20)
#    0.000    1.500    2.500    1.500    3.500    1.000 
#    6.750    0.000    0.000    0.000    0.000    0.000 
#    0.000    0.000    0.000    0.000    0.000    0.000 
#
# Total GULP energy -89297.948022 kJ/mol
# GULP energy per Si atom -5581.121751 kJ/mol
# Density = 2.408098 g / cm^3
# Si number density = 24.135918 Si / 1000 Ang^3
#
#
#
# Elastic Constant Matrix: (Units=GPa)
#
#
# Indices 1 2 3 4 5 6 
#
# 1 78.0105 1.5401 23.6714 0.0000 13.4756 0.0000
# 2 1.5401 56.7695 37.2874 0.0000 2.2729 0.0000
# 3 23.6714 37.2874 156.1480 0.0000 18.4776 0.0000
# 4 0.0000 0.0000 0.0000 12.9779 0.0000 2.6511
# 5 13.4756 2.2729 18.4776 0.0000 42.8925 0.0000
# 6 0.0000 0.0000 0.0000 2.6511 0.0000 19.9044
#
#
#
# Elastic Compliance Matrix: (Units=1/GPa)
#
#
# Indices 1 2 3 4 5 6 
#
# 1 0.014014 0.001042 -0.001945 0.000000 -0.003620 0.000000
# 2 0.001042 0.021019 -0.005276 0.000000 0.000831 0.000000
# 3 -0.001945 -0.005276 0.008275 0.000000 -0.002674 0.000000
# 4 0.000000 0.000000 0.000000 0.079209 0.000000 -0.010550
# 5 -0.003620 0.000831 -0.002674 0.000000 0.025559 0.000000
# 6 0.000000 0.000000 0.000000 -0.010550 0.000000 0.051645
#
#
# Mechanical properties :
#
#
# Convention : Reuss Voigt Hill
#
# Bulk Modulus (GPa) = 32.30896 46.21398 39.26147
# Shear Modulus (GPa) = 22.48254 30.38358 26.43306
#
# Velocity S-wave (km/s) = 3.05535 3.55188 3.31293
# Velocity P-wave (km/s) = 5.08549 6.00084 5.56203
#
# Compressibility (1/GPa) = 0.03095116
#
# Stress axis : x y z
#
# Youngs Moduli (GPa) = 71.35869 47.57683 120.84214
#
# Poissons Ratio (x) = -0.04959 0.23503
# Poissons Ratio (y) = -0.07437 0.63751
# Poissons Ratio (z) = 0.13879 0.25099
#
# Static dielectric constant tensor:
#      x y z
#    x 1.941480 0.000000 -0.030770 
#    y 0.000000 2.206730 0.000000 
#    z -0.030770 0.000000 1.900040 
# 
# From -- ./inp_files/13338.got.cif
#   From: 2010.05.17/outbox.cif.g08.bks.cpg/sg9_7_cif.got.tgz:13338.got - 2010.06.03 20:04:27.
