data_PCOD9135648
_publ_section_title
;
Structure prediction by ZEFSAII (Michael W. Deem and Ramdas Pophale) SiO2 
 PCOD9135648
Probable space group: C C
;
_chemical_formula_sum "Si O2"
_cell_formula_units_Z 28
_cell_length_a 5.107971
_cell_length_b 19.289344
_cell_length_c 15.927605
_cell_angle_alpha 90.000000
_cell_angle_beta 61.268182
_cell_angle_gamma 90.000000
_cell_volume 1376.119659
_symmetry_space_group_name_H-M "C C"
_symmetry_group_IT_number 9
_symmetry_cell_setting 'monoclinic'
loop_
_space_group_symop_operation_xyz
x,y,z
x,-y,1/2+z
1/2+x,1/2+y,z
1/2+x,1/2-y,1/2+z
loop_
_atom_site_type_symbol
_atom_site_label
_atom_site_fract_x
_atom_site_fract_y
_atom_site_fract_z
Si Si1 0.408470 0.046350 0.446400
Si Si2 0.556216 0.260845 0.546769
Si Si3 0.254391 0.489919 0.547469
Si Si4 0.510007 0.202139 0.227918
Si Si5 0.322806 0.124701 0.102066
Si Si6 0.757392 0.952289 0.728457
Si Si7 0.705299 0.295640 0.945821
O O1 0.578655 0.037708 0.508434
O O2 0.631690 0.024768 0.336833
O O3 0.303113 0.125376 0.448751
O O4 0.107259 0.001589 0.486646
O O5 0.295407 0.252649 0.657076
O O6 0.687719 0.338022 0.542076
O O7 0.385881 0.249322 0.485858
O O8 0.849177 0.213128 0.507641
O O9 0.184168 0.497763 0.657858
O O10 0.137398 0.412773 0.542355
O O11 0.333081 0.185260 0.169988
O O12 0.624256 0.124930 0.234441
O O13 0.311027 0.225519 0.336096
O O14 0.108157 0.064413 0.170426
#
# Coordination Sequence:
#
# PCOD9135648 Si02
#       7
#     4   4   4   4   4   4   4
#     4  11  24  38  65  92 124 163 207 252 312 367
#     4  11  22  39  64  90 125 156 208 256 307 360
#     4  11  22  39  64  90 125 156 208 256 307 360
#     4   9  21  38  65  92 119 157 215 257 295 358
#     4  10  20  42  66  92 118 162 208 268 296 356
#     4   9  21  38  65  92 119 157 215 257 295 358
#     4  11  24  38  65  92 124 163 207 252 312 367
#
# _framework density 20.347066000000002
#
# number of rings (size 3 to 8) (size 9 to 14) (size 15 to 20)
#    0.000    1.714    2.857    0.857   12.000    0.000 
#    0.000    0.000   18.857    0.000    0.000    0.000 
#    0.000    0.000    0.000    0.000    0.000    0.000 
#
# Total GULP energy -78047.365329 kJ/mol
# GULP energy per Si atom -5574.811809 kJ/mol
# Density = 2.030076 g / cm^3
# Si number density = 20.347066 Si / 1000 Ang^3
#
#
#
# Elastic Constant Matrix: (Units=GPa)
#
#
# Indices 1 2 3 4 5 6 
#
# 1 142.8054 32.0637 62.7801 0.0000 0.1951 0.0000
# 2 32.0637 42.1460 51.5552 0.0000 1.1912 0.0000
# 3 62.7801 51.5552 142.2785 0.0000 1.4636 0.0000
# 4 0.0000 0.0000 0.0000 30.9108 0.0000 -0.3328
# 5 0.1951 1.1912 1.4636 0.0000 34.2964 0.0000
# 6 0.0000 0.0000 0.0000 -0.3328 0.0000 45.3981
#
#
#
# Elastic Compliance Matrix: (Units=1/GPa)
#
#
# Indices 1 2 3 4 5 6 
#
# 1 0.008977 -0.003569 -0.002670 0.000000 0.000187 0.000000
# 2 -0.003569 0.044059 -0.014381 0.000000 -0.000896 0.000000
# 3 -0.002670 -0.014381 0.013418 0.000000 -0.000058 0.000000
# 4 0.000000 0.000000 0.000000 0.032354 0.000000 0.000237
# 5 0.000187 -0.000896 -0.000058 0.000000 0.029190 0.000000
# 6 0.000000 0.000000 0.000000 0.000237 0.000000 0.022029
#
#
# Mechanical properties :
#
#
# Convention : Reuss Voigt Hill
#
# Bulk Modulus (GPa) = 39.65920 68.89197 54.27559
# Shear Modulus (GPa) = 25.04101 34.17645 29.60873
#
# Velocity S-wave (km/s) = 3.51193 4.10283 3.81883
# Velocity P-wave (km/s) = 5.99821 7.50841 6.79539
#
# Compressibility (1/GPa) = 0.02521483
#
# Stress axis : x y z
#
# Youngs Moduli (GPa) = 111.39105 22.69672 74.52603
#
# Poissons Ratio (x) = 0.08101 0.19898
# Poissons Ratio (y) = 0.39757 1.07175
# Poissons Ratio (z) = 0.29740 0.32640
#
# Static dielectric constant tensor:
#      x y z
#    x 1.773580 0.000000 -0.000600 
#    y 0.000000 1.760750 0.000000 
#    z -0.000600 0.000000 1.745920 
# 
# From -- ./inp_files/13210.got.cif
#   From: 2010.05.17/outbox.cif.g08.bks.cpg/sg9_7_cif.got.tgz:13210.got - 2010.06.03 20:04:27.
