data_PCOD9135318
_publ_section_title
;
Structure prediction by ZEFSAII (Michael W. Deem and Ramdas Pophale) SiO2 
 PCOD9135318
Probable space group: C C
;
_chemical_formula_sum "Si O2"
_cell_formula_units_Z 28
_cell_length_a 14.565705
_cell_length_b 9.404069
_cell_length_c 19.793427
_cell_angle_alpha 90.000000
_cell_angle_beta 28.761152
_cell_angle_gamma 90.000000
_cell_volume 1304.539669
_symmetry_space_group_name_H-M "C C"
_symmetry_group_IT_number 9
_symmetry_cell_setting 'monoclinic'
loop_
_space_group_symop_operation_xyz
x,y,z
x,-y,1/2+z
1/2+x,1/2+y,z
1/2+x,1/2-y,1/2+z
loop_
_atom_site_type_symbol
_atom_site_label
_atom_site_fract_x
_atom_site_fract_y
_atom_site_fract_z
Si Si1 0.935340 0.642915 0.728410
Si Si2 0.534210 0.982372 0.029599
Si Si3 0.523325 0.471463 0.503144
Si Si4 0.823415 0.465814 0.039681
Si Si5 0.616893 0.996600 0.238990
Si Si6 0.451984 0.527741 0.210485
Si Si7 0.373367 0.756929 0.588007
O O1 0.711059 0.612676 0.862528
O O2 0.048662 0.607821 0.587166
O O3 0.012286 0.540286 0.737257
O O4 0.959977 0.807842 0.728338
O O5 0.735702 0.016390 0.864997
O O6 0.399055 0.905006 0.061710
O O7 0.433105 0.134168 0.107935
O O8 0.319912 0.423823 0.602903
O O9 0.497998 0.474125 0.600947
O O10 0.533413 0.636866 0.473860
O O11 0.973421 0.434209 0.884115
O O12 0.841572 0.635500 0.046409
O O13 0.611043 0.442204 0.149935
O O14 0.690199 0.841598 0.218759
#
# Coordination Sequence:
#
# PCOD9135318 Si02
#       7
#     4   4   4   4   4   4   4
#     4  12  23  35  64  93 117 155 202 243 293 354
#     4  10  23  37  61  90 124 144 207 248 287 345
#     4  10  21  37  66  83 121 152 203 243 296 341
#     4  10  20  39  64  86 115 159 205 242 288 346
#     4  10  20  39  63  89 113 156 208 246 282 347
#     4  12  21  39  63  87 122 163 188 241 305 354
#     4   8  20  38  61  84 110 159 199 251 277 337
#
# _framework density 21.463509999999999
#
# number of rings (size 3 to 8) (size 9 to 14) (size 15 to 20)
#    1.714    0.000    4.286    0.857    2.000    1.143 
#    0.000    0.000   18.857    0.000    0.000    0.000 
#    0.000    0.000    0.000    0.000    0.000    0.000 
#
# Total GULP energy -77965.471205 kJ/mol
# GULP energy per Si atom -5568.962229 kJ/mol
# Density = 2.141466 g / cm^3
# Si number density = 21.463510 Si / 1000 Ang^3
#
#
#
# Elastic Constant Matrix: (Units=GPa)
#
#
# Indices 1 2 3 4 5 6 
#
# 1 52.7613 -6.5433 5.3997 -0.0002 -15.4664 0.0000
# 2 -6.5433 31.5296 -0.8643 -0.0008 -7.4747 0.0002
# 3 5.3997 -0.8643 63.7302 -0.0011 -11.8583 0.0000
# 4 -0.0002 -0.0008 -0.0011 22.8619 0.0002 -0.9602
# 5 -15.4664 -7.4747 -11.8583 0.0002 36.8013 0.0000
# 6 0.0000 0.0002 0.0000 -0.9602 0.0000 18.6117
#
#
#
# Elastic Compliance Matrix: (Units=1/GPa)
#
#
# Indices 1 2 3 4 5 6 
#
# 1 0.023186 0.007509 0.000249 0.000000 0.011350 0.000000
# 2 0.007509 0.035952 0.001912 0.000001 0.011074 0.000000
# 3 0.000249 0.001912 0.016795 0.000001 0.005905 0.000000
# 4 0.000000 0.000001 0.000001 0.043836 0.000000 0.002262
# 5 0.011350 0.011074 0.005905 0.000000 0.036095 0.000000
# 6 0.000000 0.000000 0.000000 0.002262 0.000000 0.053846
#
#
# Mechanical properties :
#
#
# Convention : Reuss Voigt Hill
#
# Bulk Modulus (GPa) = 10.49601 16.00058 13.24830
# Shear Modulus (GPa) = 22.50958 25.65690 24.08324
#
# Velocity S-wave (km/s) = 3.24193 3.46117 3.35334
# Velocity P-wave (km/s) = 4.34906 4.84189 4.60207
#
# Compressibility (1/GPa) = 0.09527430
#
# Stress axis : x y z
#
# Youngs Moduli (GPa) = 43.12918 27.81454 59.54273
#
# Poissons Ratio (x) = -0.20887 -0.01484
# Poissons Ratio (y) = -0.32387 -0.11384
# Poissons Ratio (z) = -0.01075 -0.05318
#
# Static dielectric constant tensor:
#      x y z
#    x 1.796500 0.000000 -0.046600 
#    y 0.000000 1.830420 0.000000 
#    z -0.046600 0.000000 1.762700 
# 
# From -- ./inp_files/33753.got.cif
#   From: 2010.05.17/outbox.cif.g08.bks.cpg/sg9_17_cif.got.tgz:33753.got - 2010.06.03 20:04:27.
