data_PCOD9135880
_publ_section_title
;
Structure prediction by ZEFSAII (Michael W. Deem and Ramdas Pophale) SiO2 
 PCOD9135880
Probable space group: C C
;
_chemical_formula_sum "Si O2"
_cell_formula_units_Z 32
_cell_length_a 12.823885
_cell_length_b 23.233972
_cell_length_c 8.151432
_cell_angle_alpha 90.000000
_cell_angle_beta 35.830781
_cell_angle_gamma 90.000000
_cell_volume 1421.754945
_symmetry_space_group_name_H-M "C C"
_symmetry_group_IT_number 9
_symmetry_cell_setting 'monoclinic'
loop_
_space_group_symop_operation_xyz
x,y,z
x,-y,1/2+z
1/2+x,1/2+y,z
1/2+x,1/2-y,1/2+z
loop_
_atom_site_type_symbol
_atom_site_label
_atom_site_fract_x
_atom_site_fract_y
_atom_site_fract_z
Si Si1 0.554540 0.324522 0.402360
Si Si2 0.657014 0.171242 0.497851
Si Si3 0.294483 0.456043 0.284482
Si Si4 0.576686 0.858475 0.449070
Si Si5 0.463420 0.789406 0.915156
Si Si6 0.316727 0.039489 0.177680
Si Si7 0.990879 0.450799 0.135527
Si Si8 0.497434 0.551376 0.831529
O O1 0.502967 0.277980 0.326216
O O2 0.552340 0.391336 0.355590
O O3 0.369433 0.319063 0.740867
O O4 0.756132 0.308434 0.200509
O O5 0.580950 0.179697 0.778526
O O6 0.563808 0.203287 0.462884
O O7 0.606226 0.106011 0.510934
O O8 0.252922 0.398689 0.235047
O O9 0.126155 0.498234 0.508152
O O10 0.332530 0.436721 0.420654
O O11 0.440938 0.497026 0.012291
O O12 0.541680 0.825831 0.663733
O O13 0.427632 0.907237 0.611929
O O14 0.147472 0.037841 0.507728
O O15 0.404216 0.975732 0.082083
O O16 0.328781 0.053737 0.971277
#
# Coordination Sequence:
#
# PCOD9135880 Si02
#       8
#     4   4   4   4   4   4   4   4
#     4  12  26  47  75 108 138 195 252 303 373 438
#     4  11  24  48  72 102 145 187 243 306 362 435
#     4  11  23  38  69 101 143 195 227 292 375 433
#     4  10  24  47  68 105 139 192 244 293 369 438
#     4  12  26  51  77 100 145 196 249 309 368 430
#     4  10  21  36  59  94 137 178 232 277 359 430
#     4  10  21  38  61  93 138 186 223 285 365 424
#     4  12  23  41  65 107 149 179 244 301 361 452
#
# _framework density 22.507396
#
# number of rings (size 3 to 8) (size 9 to 14) (size 15 to 20)
#    0.000    1.000    3.750    3.750    3.500    1.000 
#    6.750    0.000    0.000    0.000    0.000    0.000 
#    0.000    0.000    0.000    0.000    0.000    0.000 
#
# Total GULP energy -89123.423853 kJ/mol
# GULP energy per Si atom -5570.213991 kJ/mol
# Density = 2.245617 g / cm^3
# Si number density = 22.507396 Si / 1000 Ang^3
#
#
#
# Elastic Constant Matrix: (Units=GPa)
#
#
# Indices 1 2 3 4 5 6 
#
# 1 77.1043 31.0811 37.0556 0.0000 8.3017 0.0000
# 2 31.0811 68.4647 43.1176 0.0000 9.0294 0.0000
# 3 37.0556 43.1176 144.4352 0.0000 2.2545 0.0000
# 4 0.0000 0.0000 0.0000 28.7936 0.0000 -1.4634
# 5 8.3017 9.0294 2.2545 0.0000 31.0959 0.0000
# 6 0.0000 0.0000 0.0000 -1.4634 0.0000 16.1551
#
#
#
# Elastic Compliance Matrix: (Units=1/GPa)
#
#
# Indices 1 2 3 4 5 6 
#
# 1 0.016766 -0.005639 -0.002577 0.000000 -0.002652 0.000000
# 2 -0.005639 0.020643 -0.004651 0.000000 -0.004151 0.000000
# 3 -0.002577 -0.004651 0.008951 0.000000 0.001389 0.000000
# 4 0.000000 0.000000 0.000000 0.034891 0.000000 0.003161
# 5 -0.002652 -0.004151 0.001389 0.000000 0.033971 0.000000
# 6 0.000000 0.000000 0.000000 0.003161 0.000000 0.062186
#
#
# Mechanical properties :
#
#
# Convention : Reuss Voigt Hill
#
# Bulk Modulus (GPa) = 48.47977 56.94588 52.71282
# Shear Modulus (GPa) = 23.80760 27.12558 25.46659
#
# Velocity S-wave (km/s) = 3.25586 3.47534 3.36739
# Velocity P-wave (km/s) = 5.97666 6.43894 6.21210
#
# Compressibility (1/GPa) = 0.02062716
#
# Stress axis : x y z
#
# Youngs Moduli (GPa) = 59.64299 48.44373 111.71567
#
# Poissons Ratio (x) = 0.27317 0.28786
# Poissons Ratio (y) = 0.33633 0.51957
# Poissons Ratio (z) = 0.15368 0.22530
#
# Static dielectric constant tensor:
#      x y z
#    x 1.951500 0.000000 -0.078900 
#    y 0.000000 1.870240 0.000000 
#    z -0.078900 0.000000 1.874240 
# 
# From -- ./inp_files/10148.got.cif
#   From: 2010.05.17/outbox.cif.g08.bks.cpg/sg9_6_cif.got.tgz:10148.got - 2010.06.03 20:04:27.
