data_PCOD9135000
_publ_section_title
;
Structure prediction by ZEFSAII (Michael W. Deem and Ramdas Pophale) SiO2 
 PCOD9135000
Probable space group: C C
;
_chemical_formula_sum "Si O2"
_cell_formula_units_Z 32
_cell_length_a 19.667194
_cell_length_b 4.959043
_cell_length_c 16.444945
_cell_angle_alpha 90.000000
_cell_angle_beta 90.680222
_cell_angle_gamma 90.000000
_cell_volume 1603.770033
_symmetry_space_group_name_H-M "C C"
_symmetry_group_IT_number 9
_symmetry_cell_setting 'monoclinic'
loop_
_space_group_symop_operation_xyz
x,y,z
x,-y,1/2+z
1/2+x,1/2+y,z
1/2+x,1/2-y,1/2+z
loop_
_atom_site_type_symbol
_atom_site_label
_atom_site_fract_x
_atom_site_fract_y
_atom_site_fract_z
Si Si1 0.977800 0.797019 0.046690
Si Si2 0.755434 0.629712 0.644342
Si Si3 0.977921 0.701686 0.433612
Si Si4 0.335197 0.410459 0.397075
Si Si5 0.125907 0.814721 0.431508
Si Si6 0.832262 0.123977 0.582429
Si Si7 0.257959 0.099079 0.831599
Si Si8 0.125155 0.681463 0.046030
O O1 0.909937 0.785689 0.098638
O O2 0.967347 0.596927 0.969144
O O3 0.050032 0.707878 0.083584
O O4 0.982809 0.099821 0.012184
O O5 0.784759 0.382370 0.592653
O O6 0.748542 0.538466 0.736875
O O7 0.684776 0.732851 0.606359
O O8 0.806871 0.881237 0.637939
O O9 0.911743 0.802168 0.385265
O O10 0.051902 0.735668 0.394637
O O11 0.329416 0.509449 0.490418
O O12 0.313068 0.664388 0.343654
O O13 0.284711 0.163993 0.378783
O O14 0.187932 0.799712 0.370574
O O15 0.136616 0.610614 0.507151
O O16 0.123738 0.112612 0.469706
#
# Coordination Sequence:
#
# PCOD9135000 Si02
#       8
#     4   4   4   4   4   4   4   4
#     4   9  18  33  57  86 107 133 185 240 274 318
#     4  12  24  37  54  85 120 150 185 233 284 338
#     4   9  18  33  57  86 107 133 185 240 274 318
#     4  11  21  38  62  83 108 149 194 234 280 337
#     4  10  20  36  59  82 107 144 188 229 274 331
#     4  11  21  38  62  83 108 149 194 234 280 337
#     4  12  24  37  54  85 120 150 185 233 284 338
#     4  10  20  36  59  82 107 144 188 229 274 331
#
# _framework density 19.952985999999999
#
# number of rings (size 3 to 8) (size 9 to 14) (size 15 to 20)
#    0.000    1.500    0.000    8.250    0.000    0.000 
#    0.000    2.500    0.000    0.000    0.000    0.000 
#    0.000    0.000    0.000    0.000    0.000    0.000 
#
# Total GULP energy -89383.619818 kJ/mol
# GULP energy per Si atom -5586.476239 kJ/mol
# Density = 1.990757 g / cm^3
# Si number density = 19.952986 Si / 1000 Ang^3
#
#
#
# Elastic Constant Matrix: (Units=GPa)
#
#
# Indices 1 2 3 4 5 6 
#
# 1 154.3579 25.8420 44.7173 0.0000 1.1300 0.0000
# 2 25.8420 94.0856 3.9382 0.0000 0.6959 0.0000
# 3 44.7173 3.9382 47.1309 0.0000 2.1541 0.0000
# 4 0.0000 0.0000 0.0000 12.1200 0.0000 -1.6297
# 5 1.1300 0.6959 2.1541 0.0000 -4.4787 0.0000
# 6 0.0000 0.0000 0.0000 -1.6297 0.0000 27.4465
#
#
#
# Elastic Compliance Matrix: (Units=1/GPa)
#
#
# Indices 1 2 3 4 5 6 
#
# 1 0.009350 -0.002193 -0.008591 0.000000 -0.002114 0.000000
# 2 -0.002193 0.011174 0.001069 0.000000 0.001697 0.000000
# 3 -0.008591 0.001069 0.028739 0.000000 0.011821 0.000000
# 4 0.000000 0.000000 0.000000 0.083173 0.000000 0.004939
# 5 -0.002114 0.001697 0.011821 0.000000 -0.217862 0.000000
# 6 0.000000 0.000000 0.000000 0.004939 0.000000 0.036728
#
#
# Mechanical properties :
#
#
# Convention : Reuss Voigt Hill
#
# Bulk Modulus (GPa) = 33.51977 49.39661 41.45819
# Shear Modulus (GPa) = -258.73669 21.75601 -118.49034
#
# Velocity S-wave (km/s) = -11.39977 3.30565 -7.71451
# Velocity P-wave (km/s) = 12.50748 6.27535 7.65039
#
# Compressibility (1/GPa) = 0.02983314
#
# Stress axis : x y z
#
# Youngs Moduli (GPa) = 106.95266 89.49658 34.79570
#
# Poissons Ratio (x) = 0.19625 0.29894
# Poissons Ratio (y) = 0.23453 -0.03721
# Poissons Ratio (z) = 0.91886 -0.09570
#
# Static dielectric constant tensor:
#      x y z
#    x 1.768030 0.000000 0.002250 
#    y 0.000000 1.690210 0.000000 
#    z 0.002250 0.000000 1.667850 
# 
# From -- ./inp_files/26470.got.cif
#   From: 2010.05.17/outbox.cif.g08.bks.cpg/sg9_14_cif.got.tgz:26470.got - 2010.06.03 20:04:27.
