data_PCOD9135841
_publ_section_title
;
Structure prediction by ZEFSAII (Michael W. Deem and Ramdas Pophale) SiO2 
 PCOD9135841
Probable space group: C C
;
_chemical_formula_sum "Si O2"
_cell_formula_units_Z 32
_cell_length_a 10.694714
_cell_length_b 24.553709
_cell_length_c 5.283333
_cell_angle_alpha 90.000000
_cell_angle_beta 98.074378
_cell_angle_gamma 90.000000
_cell_volume 1373.622616
_symmetry_space_group_name_H-M "C C"
_symmetry_group_IT_number 9
_symmetry_cell_setting 'monoclinic'
loop_
_space_group_symop_operation_xyz
x,y,z
x,-y,1/2+z
1/2+x,1/2+y,z
1/2+x,1/2-y,1/2+z
loop_
_atom_site_type_symbol
_atom_site_label
_atom_site_fract_x
_atom_site_fract_y
_atom_site_fract_z
Si Si1 0.909590 0.777265 0.527970
Si Si2 0.641424 0.556356 0.965396
Si Si3 0.753414 0.200547 0.474314
Si Si4 0.375381 0.889109 0.501482
Si Si5 0.140244 0.811553 0.312755
Si Si6 0.553236 0.615488 0.424151
Si Si7 0.896904 0.978580 0.894899
Si Si8 0.504648 0.848735 0.049720
O O1 0.820208 0.780691 0.253885
O O2 0.023954 0.816863 0.474740
O O3 0.951942 0.713999 0.573718
O O4 0.849999 0.802544 0.765999
O O5 0.791966 0.554835 0.962412
O O6 0.634692 0.588619 0.227847
O O7 0.537591 0.508476 0.958737
O O8 0.589896 0.590844 0.713943
O O9 0.666555 0.248171 0.338735
O O10 0.653437 0.154551 0.525461
O O11 0.268672 0.842195 0.421967
O O12 0.471577 0.880916 0.297182
O O13 0.436032 0.876119 0.789301
O O14 0.096318 0.824659 0.014822
O O15 0.419467 0.585034 0.352078
O O16 0.834062 0.992365 0.140754
#
# Coordination Sequence:
#
# PCOD9135841 Si02
#       8
#     4   4   4   4   4   4   4   4
#     4  11  22  36  49  68  92 131 173 219 242 288
#     4   9  17  26  45  67  96 129 149 183 229 300
#     4  11  23  36  50  66  95 132 178 212 246 278
#     4  11  19  33  49  73  97 125 167 201 249 294
#     4  10  21  33  52  71  97 128 172 202 253 293
#     4   9  17  28  44  68  95 128 153 186 229 297
#     4   8  14  26  40  63  95 128 148 170 231 288
#     4  11  21  34  49  68  93 129 170 219 241 290
#
# _framework density 23.296067000000001
#
# number of rings (size 3 to 8) (size 9 to 14) (size 15 to 20)
#    0.000    2.000    2.500    2.250    0.000    6.000 
#    0.000    0.000    0.000    0.000    0.000    0.000 
#    0.000    0.000    0.000  360.000    0.000    0.125 
#
# Total GULP energy -89089.455760 kJ/mol
# GULP energy per Si atom -5568.090985 kJ/mol
# Density = 2.324304 g / cm^3
# Si number density = 23.296067 Si / 1000 Ang^3
#
#
#
# Elastic Constant Matrix: (Units=GPa)
#
#
# Indices 1 2 3 4 5 6 
#
# 1 50.1638 -4.4953 15.0592 0.0000 -20.9245 0.0000
# 2 -4.4953 28.0179 10.9655 0.0000 3.6063 0.0000
# 3 15.0592 10.9655 136.0631 0.0000 -23.4944 0.0000
# 4 0.0000 0.0000 0.0000 33.9327 0.0000 0.6335
# 5 -20.9245 3.6063 -23.4944 0.0000 27.2652 0.0000
# 6 0.0000 0.0000 0.0000 0.6335 0.0000 19.8520
#
#
#
# Elastic Compliance Matrix: (Units=1/GPa)
#
#
# Indices 1 2 3 4 5 6 
#
# 1 0.029449 0.001558 0.000566 0.000000 0.022882 0.000000
# 2 0.001558 0.038796 -0.004674 0.000000 -0.007963 0.000000
# 3 0.000566 -0.004674 0.009217 0.000000 0.008995 0.000000
# 4 0.000000 0.000000 0.000000 0.029488 0.000000 -0.000941
# 5 0.022882 -0.007963 0.008995 0.000000 0.063042 0.000000
# 6 0.000000 0.000000 0.000000 -0.000941 0.000000 0.050403
#
#
# Mechanical properties :
#
#
# Convention : Reuss Voigt Hill
#
# Bulk Modulus (GPa) = 13.81944 28.58929 21.20437
# Shear Modulus (GPa) = 20.03094 29.05769 24.54431
#
# Velocity S-wave (km/s) = 2.93549 3.53558 3.24941
# Velocity P-wave (km/s) = 4.17545 5.38199 4.81665
#
# Compressibility (1/GPa) = 0.07236181
#
# Stress axis : x y z
#
# Youngs Moduli (GPa) = 33.95698 25.77602 108.49864
#
# Poissons Ratio (x) = -0.04016 -0.06143
# Poissons Ratio (y) = -0.05291 0.50713
# Poissons Ratio (z) = -0.01923 0.12048
#
# Static dielectric constant tensor:
#      x y z
#    x 1.976240 0.000000 -0.053540 
#    y 0.000000 2.227670 0.000000 
#    z -0.053540 0.000000 1.972980 
# 
# From -- ./inp_files/2222.got.cif
#   From: 2010.05.17/outbox.cif.g08.bks.cpg/sg9_2_cif.got.tgz:2222.got - 2010.06.03 20:04:27.
