data_PCOD9135173
_publ_section_title
;
Structure prediction by ZEFSAII (Michael W. Deem and Ramdas Pophale) SiO2 
 PCOD9135173
Probable space group: C C
;
_chemical_formula_sum "Si O2"
_cell_formula_units_Z 32
_cell_length_a 9.837158
_cell_length_b 19.439059
_cell_length_c 9.461231
_cell_angle_alpha 90.000000
_cell_angle_beta 135.936422
_cell_angle_gamma 90.000000
_cell_volume 1258.236519
_symmetry_space_group_name_H-M "C C"
_symmetry_group_IT_number 9
_symmetry_cell_setting 'monoclinic'
loop_
_space_group_symop_operation_xyz
x,y,z
x,-y,1/2+z
1/2+x,1/2+y,z
1/2+x,1/2-y,1/2+z
loop_
_atom_site_type_symbol
_atom_site_label
_atom_site_fract_x
_atom_site_fract_y
_atom_site_fract_z
Si Si1 0.470140 0.997626 0.439920
Si Si2 0.889163 0.850070 0.160978
Si Si3 0.057173 0.159620 0.191950
Si Si4 0.946272 0.708180 0.082250
Si Si5 0.507916 0.188284 0.550402
Si Si6 0.847739 0.828032 0.825953
Si Si7 0.689813 0.920930 0.354596
Si Si8 0.743617 0.424198 0.521434
O O1 0.611138 0.956792 0.437167
O O2 0.324284 0.959075 0.438585
O O3 0.609773 0.037743 0.657202
O O4 0.331655 0.037392 0.222508
O O5 0.980407 0.772739 0.215099
O O6 0.673508 0.835021 0.060590
O O7 0.891030 0.872107 0.997850
O O8 0.014913 0.907053 0.333394
O O9 0.999019 0.229601 0.065145
O O10 0.919184 0.096851 0.039571
O O11 0.991060 0.164529 0.305417
O O12 0.853225 0.748865 0.882739
O O13 0.827468 0.652903 0.078979
O O14 0.118476 0.665075 0.138018
O O15 0.587689 0.153550 0.754181
O O16 0.291247 0.159033 0.363811
#
# Coordination Sequence:
#
# PCOD9135173 Si02
#       8
#     4   4   4   4   4   4   4   4
#     4  10  27  51  86 118 159 236 288 333 396 502
#     4  10  25  44  76 122 168 207 269 337 433 489
#     4  12  26  47  82 123 178 203 266 350 435 493
#     4  10  20  37  76 115 156 199 266 336 415 487
#     4  12  28  45  78 125 169 214 258 347 431 495
#     4  10  22  39  70 124 150 214 257 323 433 496
#     4  11  27  54  82 120 168 215 287 337 419 493
#     4  11  23  49  84 115 170 212 289 343 402 499
#
# _framework density 25.43242
#
# number of rings (size 3 to 8) (size 9 to 14) (size 15 to 20)
#    0.750    0.500    2.500    1.500    8.750    1.000 
#    0.000    5.000    0.000    0.000    0.000    0.000 
#    0.000    0.000    0.000    0.000    0.000    0.000 
#
# Total GULP energy -89338.986632 kJ/mol
# GULP energy per Si atom -5583.686664 kJ/mol
# Density = 2.537454 g / cm^3
# Si number density = 25.432420 Si / 1000 Ang^3
#
#
#
# Elastic Constant Matrix: (Units=GPa)
#
#
# Indices 1 2 3 4 5 6 
#
# 1 230.2577 43.5565 107.9548 0.0000 -6.9691 0.0000
# 2 43.5565 41.0567 39.0379 0.0000 -6.8509 0.0000
# 3 107.9548 39.0379 139.7358 0.0000 -15.7008 0.0000
# 4 0.0000 0.0000 0.0000 45.6776 0.0000 -6.9559
# 5 -6.9691 -6.8509 -15.7008 0.0000 64.9284 0.0000
# 6 0.0000 0.0000 0.0000 -6.9559 0.0000 38.2329
#
#
#
# Elastic Compliance Matrix: (Units=1/GPa)
#
#
# Indices 1 2 3 4 5 6 
#
# 1 0.007129 -0.003225 -0.004686 0.000000 -0.000708 0.000000
# 2 -0.003225 0.034732 -0.007029 0.000000 0.001619 0.000000
# 3 -0.004686 -0.007029 0.012952 0.000000 0.001887 0.000000
# 4 0.000000 0.000000 0.000000 0.022516 0.000000 0.004097
# 5 -0.000708 0.001619 0.001887 0.000000 0.015953 0.000000
# 6 0.000000 0.000000 0.000000 0.004097 0.000000 0.026901
#
#
# Mechanical properties :
#
#
# Convention : Reuss Voigt Hill
#
# Bulk Modulus (GPa) = 40.10928 88.01651 64.06290
# Shear Modulus (GPa) = 31.57069 44.46783 38.01926
#
# Velocity S-wave (km/s) = 3.52711 4.18601 3.87061
# Velocity P-wave (km/s) = 5.69144 7.61884 6.72455
#
# Compressibility (1/GPa) = 0.02493188
#
# Stress axis : x y z
#
# Youngs Moduli (GPa) = 140.28118 28.79174 77.20643
#
# Poissons Ratio (x) = 0.09286 0.36177
# Poissons Ratio (y) = 0.45246 0.54272
# Poissons Ratio (z) = 0.65732 0.20239
#
# Static dielectric constant tensor:
#      x y z
#    x 1.993510 0.000000 0.020210 
#    y 0.000000 2.076190 0.000000 
#    z 0.020210 0.000000 2.103420 
# 
# From -- ./inp_files/8308.got.cif
#   From: 2010.05.17/outbox.cif.g08.bks.cpg/sg9_5_cif.got.tgz:8308.got - 2010.06.03 20:04:27.
