data_PCOD9135277
_publ_section_title
;
Structure prediction by ZEFSAII (Michael W. Deem and Ramdas Pophale) SiO2 
 PCOD9135277
Probable space group: C C
;
_chemical_formula_sum "Si O2"
_cell_formula_units_Z 28
_cell_length_a 11.352121
_cell_length_b 8.652900
_cell_length_c 17.495597
_cell_angle_alpha 90.000000
_cell_angle_beta 37.088992
_cell_angle_gamma 90.000000
_cell_volume 1036.392349
_symmetry_space_group_name_H-M "C C"
_symmetry_group_IT_number 9
_symmetry_cell_setting 'monoclinic'
loop_
_space_group_symop_operation_xyz
x,y,z
x,-y,1/2+z
1/2+x,1/2+y,z
1/2+x,1/2-y,1/2+z
loop_
_atom_site_type_symbol
_atom_site_label
_atom_site_fract_x
_atom_site_fract_y
_atom_site_fract_z
Si Si1 0.403900 0.397168 0.723090
Si Si2 0.780131 0.998145 0.999520
Si Si3 0.950876 0.364004 0.569539
Si Si4 0.639363 0.417721 0.236082
Si Si5 0.229527 0.181261 0.938042
Si Si6 0.203794 0.715243 0.815339
Si Si7 0.500294 0.910351 0.769796
O O1 0.544765 0.486756 0.712986
O O2 0.301298 0.247957 0.816811
O O3 0.523623 0.372816 0.582380
O O4 0.248170 0.532961 0.792338
O O5 0.653842 0.122243 0.012562
O O6 0.668180 0.004533 0.135853
O O7 0.762039 0.835316 0.969066
O O8 0.008950 0.035033 0.876945
O O9 0.864598 0.536539 0.614660
O O10 0.767551 0.274893 0.700474
O O11 0.002668 0.282176 0.464369
O O12 0.604231 0.236050 0.252827
O O13 0.373246 0.036792 0.879138
O O14 0.349107 0.823729 0.790318
#
# Coordination Sequence:
#
# PCOD9135277 Si02
#       7
#     4   4   4   4   4   4   4
#     4  10  21  37  63  93 131 173 220 266 333 390
#     4  10  21  41  63  96 134 171 221 275 333 396
#     4  11  21  41  69  98 136 171 227 271 330 402
#     4  10  23  39  65  93 134 176 223 274 327 406
#     4  11  19  36  66  95 123 177 219 270 328 393
#     4  10  21  40  66  98 130 178 214 271 331 401
#     4  10  20  38  68  91 130 180 218 267 344 390
#
# _framework density 27.016795999999999
#
# number of rings (size 3 to 8) (size 9 to 14) (size 15 to 20)
#    0.000    1.714    5.714    0.857    4.000    2.286 
#    0.000    4.286    6.286    0.000    0.000    0.000 
#    0.000    0.000    0.000    0.000    0.000    0.000 
#
# Total GULP energy -78245.238900 kJ/mol
# GULP energy per Si atom -5588.945636 kJ/mol
# Density = 2.695530 g / cm^3
# Si number density = 27.016796 Si / 1000 Ang^3
#
#
#
# Elastic Constant Matrix: (Units=GPa)
#
#
# Indices 1 2 3 4 5 6 
#
# 1 63.5305 20.7849 32.5683 0.0000 -9.9910 0.0000
# 2 20.7849 122.8338 68.4273 0.0000 3.2737 0.0000
# 3 32.5683 68.4273 267.1286 0.0000 6.1108 0.0000
# 4 0.0000 0.0000 0.0000 54.5128 0.0000 -6.9161
# 5 -9.9910 3.2737 6.1108 0.0000 24.2518 0.0000
# 6 0.0000 0.0000 0.0000 -6.9161 0.0000 36.3174
#
#
#
# Elastic Compliance Matrix: (Units=1/GPa)
#
#
# Indices 1 2 3 4 5 6 
#
# 1 0.018824 -0.002363 -0.001885 0.000000 0.008549 0.000000
# 2 -0.002363 0.009804 -0.002183 0.000000 -0.001747 0.000000
# 3 -0.001885 -0.002183 0.004570 0.000000 -0.001634 0.000000
# 4 0.000000 0.000000 0.000000 0.018798 0.000000 0.003580
# 5 0.008549 -0.001747 -0.001634 0.000000 0.045403 0.000000
# 6 0.000000 0.000000 0.000000 0.003580 0.000000 0.028217
#
#
# Mechanical properties :
#
#
# Convention : Reuss Voigt Hill
#
# Bulk Modulus (GPa) = 49.17591 77.45043 63.31317
# Shear Modulus (GPa) = 34.42145 45.13056 39.77600
#
# Velocity S-wave (km/s) = 3.57329 4.09156 3.84118
# Velocity P-wave (km/s) = 5.93852 7.14499 6.56951
#
# Compressibility (1/GPa) = 0.02033516
#
# Stress axis : x y z
#
# Youngs Moduli (GPa) = 53.12228 102.00230 218.81797
#
# Poissons Ratio (x) = 0.24102 0.41255
# Poissons Ratio (y) = 0.12552 0.47774
# Poissons Ratio (z) = 0.10016 0.22270
#
# Static dielectric constant tensor:
#      x y z
#    x 2.274360 0.000000 0.057220 
#    y 0.000000 2.118680 0.000000 
#    z 0.057220 0.000000 2.074200 
# 
# From -- ./inp_files/17871.got.cif
#   From: 2010.05.17/outbox.cif.g08.bks.cpg/sg9_9_cif.got.tgz:17871.got - 2010.06.03 20:04:27.
