data_PCOD9135340
_publ_section_title
;
Structure prediction by ZEFSAII (Michael W. Deem and Ramdas Pophale) SiO2 
 PCOD9135340
Probable space group: C C
;
_chemical_formula_sum "Si O2"
_cell_formula_units_Z 28
_cell_length_a 10.451593
_cell_length_b 8.830942
_cell_length_c 16.774261
_cell_angle_alpha 90.000000
_cell_angle_beta 126.793439
_cell_angle_gamma 90.000000
_cell_volume 1239.815213
_symmetry_space_group_name_H-M "C C"
_symmetry_group_IT_number 9
_symmetry_cell_setting 'monoclinic'
loop_
_space_group_symop_operation_xyz
x,y,z
x,-y,1/2+z
1/2+x,1/2+y,z
1/2+x,1/2-y,1/2+z
loop_
_atom_site_type_symbol
_atom_site_label
_atom_site_fract_x
_atom_site_fract_y
_atom_site_fract_z
Si Si1 0.079910 0.311906 0.867490
Si Si2 0.402111 0.210133 0.447462
Si Si3 0.253643 0.816057 0.145272
Si Si4 0.044732 0.151194 0.328278
Si Si5 0.012012 0.129066 0.696824
Si Si6 0.175316 0.501430 0.033538
Si Si7 0.120272 0.951848 0.490939
O O1 0.912834 0.293437 0.854074
O O2 0.055321 0.273606 0.767808
O O3 0.009780 0.931930 0.899201
O O4 0.006492 0.142871 0.007747
O O5 0.223356 0.209204 0.406416
O O6 0.512292 0.066623 0.510662
O O7 0.150170 0.534413 0.429877
O O8 0.414005 0.771932 0.252249
O O9 0.113962 0.854182 0.155444
O O10 0.175876 0.172774 0.946413
O O11 0.257014 0.958558 0.087346
O O12 0.055546 0.020406 0.264810
O O13 0.824318 0.103838 0.613684
O O14 0.208256 0.668104 0.076549
#
# Coordination Sequence:
#
# PCOD9135340 Si02
#       7
#     4   4   4   4   4   4   4
#     4   7  18  42  62  84 119 175 207 247 317 375
#     4   8  19  42  66  82 122 174 210 247 313 381
#     4  11  22  37  63 102 125 157 213 268 316 367
#     4  10  21  42  62  93 131 165 210 264 314 379
#     4  10  20  39  64  92 131 163 214 266 310 380
#     4   8  20  38  61  91 124 164 208 257 314 368
#     4   8  20  40  56  88 128 162 204 255 312 368
#
# _framework density 22.584011
#
# number of rings (size 3 to 8) (size 9 to 14) (size 15 to 20)
#    1.714    1.143    0.000    0.000    0.000    8.000 
#    7.714    2.857    0.000    0.000    0.000    0.000 
#    0.000    0.000    0.000    0.000    0.000    0.000 
#
# Total GULP energy -77941.743130 kJ/mol
# GULP energy per Si atom -5567.267366 kJ/mol
# Density = 2.253261 g / cm^3
# Si number density = 22.584011 Si / 1000 Ang^3
#
#
#
# Elastic Constant Matrix: (Units=GPa)
#
#
# Indices 1 2 3 4 5 6 
#
# 1 42.7783 8.9595 17.7172 0.0000 2.8118 0.0000
# 2 8.9595 55.0261 42.1705 0.0000 16.8131 0.0000
# 3 17.7172 42.1705 59.5189 0.0000 11.7845 0.0000
# 4 0.0000 0.0000 0.0000 44.0979 0.0000 -3.5862
# 5 2.8118 16.8131 11.7845 0.0000 34.7524 0.0000
# 6 0.0000 0.0000 0.0000 -3.5862 0.0000 22.1487
#
#
#
# Elastic Compliance Matrix: (Units=1/GPa)
#
#
# Indices 1 2 3 4 5 6 
#
# 1 0.027040 0.004022 -0.010806 0.000000 -0.000469 0.000000
# 2 0.004022 0.044195 -0.030243 0.000000 -0.011451 0.000000
# 3 -0.010806 -0.030243 0.041138 0.000000 0.001556 0.000000
# 4 0.000000 0.000000 0.000000 0.022979 0.000000 0.003721
# 5 -0.000469 -0.011451 0.001556 0.000000 0.033826 0.000000
# 6 0.000000 0.000000 0.000000 0.003721 0.000000 0.045752
#
#
# Mechanical properties :
#
#
# Convention : Reuss Voigt Hill
#
# Bulk Modulus (GPa) = 26.09665 32.77974 29.43819
# Shear Modulus (GPa) = 16.56970 26.09820 21.33395
#
# Velocity S-wave (km/s) = 2.71161 3.40311 3.07685
# Velocity P-wave (km/s) = 4.62431 5.47609 5.06813
#
# Compressibility (1/GPa) = 0.03831909
#
# Stress axis : x y z
#
# Youngs Moduli (GPa) = 36.98195 22.62722 24.30864
#
# Poissons Ratio (x) = -0.09101 0.26268
# Poissons Ratio (y) = -0.14874 0.73516
# Poissons Ratio (z) = 0.39962 0.68431
#
# Static dielectric constant tensor:
#      x y z
#    x 1.852640 0.000000 -0.008130 
#    y 0.000000 1.917490 0.000000 
#    z -0.008130 0.000000 1.838460 
# 
# From -- ./inp_files/33233.got.cif
#   From: 2010.05.17/outbox.cif.g08.bks.cpg/sg9_17_cif.got.tgz:33233.got - 2010.06.03 20:04:27.
