data_PCOD9135005
_publ_section_title
;
Structure prediction by ZEFSAII (Michael W. Deem and Ramdas Pophale) SiO2 
 PCOD9135005
Probable space group: C C
;
_chemical_formula_sum "Si O2"
_cell_formula_units_Z 24
_cell_length_a 14.281333
_cell_length_b 14.033735
_cell_length_c 5.362769
_cell_angle_alpha 90.000000
_cell_angle_beta 60.369497
_cell_angle_gamma 90.000000
_cell_volume 934.257805
_symmetry_space_group_name_H-M "C C"
_symmetry_group_IT_number 9
_symmetry_cell_setting 'monoclinic'
loop_
_space_group_symop_operation_xyz
x,y,z
x,-y,1/2+z
1/2+x,1/2+y,z
1/2+x,1/2-y,1/2+z
loop_
_atom_site_type_symbol
_atom_site_label
_atom_site_fract_x
_atom_site_fract_y
_atom_site_fract_z
Si Si1 0.431620 0.326621 0.805380
Si Si2 0.120981 0.942261 0.642560
Si Si3 0.916013 0.735419 0.327796
Si Si4 0.714343 0.234682 0.373919
Si Si5 0.918100 0.526014 0.534899
Si Si6 0.157259 0.465963 0.821421
O O1 0.491268 0.422792 0.801352
O O2 0.303794 0.311105 0.942368
O O3 0.647575 0.510201 0.372782
O O4 0.458435 0.255866 0.998927
O O5 0.168900 0.835277 0.528689
O O6 0.969223 0.800512 0.473944
O O7 0.787514 0.750500 0.530068
O O8 0.927461 0.629179 0.405942
O O9 0.640502 0.144736 0.408259
O O10 0.865931 0.532472 0.876802
O O11 0.038942 0.489640 0.430258
O O12 0.212598 0.482322 0.481902
#
# Coordination Sequence:
#
# PCOD9135005 Si02
#       6
#     4   4   4   4   4   4
#     4  10  24  45  65  98 136 191 236 292 354 429
#     4  12  28  47  75 111 150 197 248 302 372 449
#     4  10  22  41  65  95 131 191 228 287 357 424
#     4  10  27  44  73 100 149 186 242 300 365 431
#     4  10  20  36  59  91 125 163 219 283 339 403
#     4  10  23  39  65  97 127 172 227 286 345 414
#
# _framework density 25.688842000000001
#
# number of rings (size 3 to 8) (size 9 to 14) (size 15 to 20)
#    1.000    0.667    0.000    3.000    4.667    5.333 
#    0.000    0.000    0.000    0.000    0.000    0.000 
#    0.000    0.000    0.000    0.000    0.000    0.000 
#
# Total GULP energy -66926.884581 kJ/mol
# GULP energy per Si atom -5577.240382 kJ/mol
# Density = 2.563037 g / cm^3
# Si number density = 25.688842 Si / 1000 Ang^3
#
#
#
# Elastic Constant Matrix: (Units=GPa)
#
#
# Indices 1 2 3 4 5 6 
#
# 1 68.1738 32.4549 49.4139 0.0000 8.5034 0.0000
# 2 32.4549 118.3953 46.3644 0.0000 10.6521 0.0000
# 3 49.4139 46.3644 150.7824 0.0000 39.8542 0.0000
# 4 0.0000 0.0000 0.0000 42.7221 0.0000 3.4606
# 5 8.5034 10.6521 39.8542 0.0000 38.5455 0.0000
# 6 0.0000 0.0000 0.0000 3.4606 0.0000 36.4833
#
#
#
# Elastic Compliance Matrix: (Units=1/GPa)
#
#
# Indices 1 2 3 4 5 6 
#
# 1 0.020635 -0.003371 -0.006562 0.000000 0.003164 0.000000
# 2 -0.003371 0.010162 -0.002029 0.000000 0.000033 0.000000
# 3 -0.006562 -0.002029 0.012213 0.000000 -0.010620 0.000000
# 4 0.000000 0.000000 0.000000 0.023588 0.000000 -0.002237
# 5 0.003164 0.000033 -0.010620 0.000000 0.036217 0.000000
# 6 0.000000 0.000000 0.000000 -0.002237 0.000000 0.027622
#
#
# Mechanical properties :
#
#
# Convention : Reuss Voigt Hill
#
# Bulk Modulus (GPa) = 52.39437 65.97977 59.18707
# Shear Modulus (GPa) = 31.10930 37.49138 34.30034
#
# Velocity S-wave (km/s) = 3.48372 3.82441 3.65803
# Velocity P-wave (km/s) = 6.05160 6.72618 6.39778
#
# Compressibility (1/GPa) = 0.01908602
#
# Stress axis : x y z
#
# Youngs Moduli (GPa) = 48.46104 98.40676 81.87766
#
# Poissons Ratio (x) = 0.33178 0.53730
# Poissons Ratio (y) = 0.16338 0.16609
# Poissons Ratio (z) = 0.31801 0.19962
#
# Static dielectric constant tensor:
#      x y z
#    x 2.127190 0.000000 -0.041240 
#    y 0.000000 1.983670 0.000000 
#    z -0.041240 0.000000 2.218370 
# 
# From -- ./inp_files/1546.got.cif
#   From: 2010.05.17/outbox.cif.g08.bks.cpg/sg9_1_cif.got.tgz:1546.got - 2010.06.03 20:04:27.
