data_PCOD9135878
_publ_section_title
;
Structure prediction by ZEFSAII (Michael W. Deem and Ramdas Pophale) SiO2 
 PCOD9135878
Probable space group: C C
;
_chemical_formula_sum "Si O2"
_cell_formula_units_Z 32
_cell_length_a 10.074681
_cell_length_b 21.399050
_cell_length_c 7.411869
_cell_angle_alpha 90.000000
_cell_angle_beta 50.055520
_cell_angle_gamma 90.000000
_cell_volume 1225.068218
_symmetry_space_group_name_H-M "C C"
_symmetry_group_IT_number 9
_symmetry_cell_setting 'monoclinic'
loop_
_space_group_symop_operation_xyz
x,y,z
x,-y,1/2+z
1/2+x,1/2+y,z
1/2+x,1/2-y,1/2+z
loop_
_atom_site_type_symbol
_atom_site_label
_atom_site_fract_x
_atom_site_fract_y
_atom_site_fract_z
Si Si1 0.741980 0.850858 0.672330
Si Si2 0.952569 0.559861 0.085401
Si Si3 0.580925 0.468199 0.722273
Si Si4 0.231103 0.859392 0.395635
Si Si5 0.434777 0.408301 0.180692
Si Si6 0.582379 0.067189 0.603486
Si Si7 0.742621 0.324208 0.800241
Si Si8 0.892509 0.730965 0.482316
O O1 0.786886 0.884616 0.444958
O O2 0.893564 0.799738 0.569853
O O3 0.715742 0.902089 0.850598
O O4 0.572819 0.806051 0.822196
O O5 0.772563 0.533681 0.149633
O O6 0.875828 0.620700 0.245439
O O7 0.048177 0.506300 0.111044
O O8 0.082686 0.580918 0.814736
O O9 0.595766 0.415343 0.553101
O O10 0.537561 0.537472 0.700230
O O11 0.434382 0.443931 0.987741
O O12 0.402329 0.900296 0.208985
O O13 0.245428 0.824429 0.579881
O O14 0.255174 0.809857 0.216995
O O15 0.557388 0.349134 0.026775
O O16 0.811567 0.265613 0.850866
#
# Coordination Sequence:
#
# PCOD9135878 Si02
#       8
#     4   4   4   4   4   4   4   4
#     4  11  25  41  59  90 114 166 209 252 301 359
#     4   9  17  33  59  97 120 157 188 240 304 368
#     4   9  18  34  60  93 125 152 192 241 303 369
#     4   8  18  36  62  97 115 153 205 245 294 362
#     4  10  21  36  59  90 131 154 200 242 306 364
#     4   9  19  32  57  86 128 146 198 238 297 362
#     4   9  19  37  67  94 117 158 202 246 298 366
#     4  11  23  43  67  79 124 164 210 254 299 350
#
# _framework density 26.120994
#
# number of rings (size 3 to 8) (size 9 to 14) (size 15 to 20)
#    0.000    3.000    0.000    3.750    8.750    1.000 
#    0.000   11.250    0.000    0.000    0.000    0.000 
#    0.000    0.000    0.000    0.000    0.000    0.000 
#
# Total GULP energy -89357.526937 kJ/mol
# GULP energy per Si atom -5584.845434 kJ/mol
# Density = 2.606154 g / cm^3
# Si number density = 26.120994 Si / 1000 Ang^3
#
#
#
# Elastic Constant Matrix: (Units=GPa)
#
#
# Indices 1 2 3 4 5 6 
#
# 1 39.4445 13.3104 41.0545 0.0000 -12.3253 0.0000
# 2 13.3104 64.7985 36.6423 0.0000 8.6760 0.0000
# 3 41.0545 36.6423 195.2834 0.0000 -16.4706 0.0000
# 4 0.0000 0.0000 0.0000 46.9135 0.0000 -6.5183
# 5 -12.3253 8.6760 -16.4706 0.0000 44.4494 0.0000
# 6 0.0000 0.0000 0.0000 -6.5183 0.0000 24.6319
#
#
#
# Elastic Compliance Matrix: (Units=1/GPa)
#
#
# Indices 1 2 3 4 5 6 
#
# 1 0.035957 -0.005277 -0.005823 0.000000 0.008843 0.000000
# 2 -0.005277 0.019053 -0.002996 0.000000 -0.006293 0.000000
# 3 -0.005823 -0.002996 0.007040 0.000000 0.001579 0.000000
# 4 0.000000 0.000000 0.000000 0.022130 0.000000 0.005856
# 5 0.008843 -0.006293 0.001579 0.000000 0.026763 0.000000
# 6 0.000000 0.000000 0.000000 0.005856 0.000000 0.042148
#
#
# Mechanical properties :
#
#
# Convention : Reuss Voigt Hill
#
# Bulk Modulus (GPa) = 29.53579 53.50451 41.52015
# Shear Modulus (GPa) = 25.96468 37.10024 31.53246
#
# Velocity S-wave (km/s) = 3.15622 3.77281 3.47820
# Velocity P-wave (km/s) = 4.96127 6.28542 5.66219
#
# Compressibility (1/GPa) = 0.03385723
#
# Stress axis : x y z
#
# Youngs Moduli (GPa) = 27.81117 52.48424 142.03736
#
# Poissons Ratio (x) = 0.27696 0.82712
# Poissons Ratio (y) = 0.14676 0.42561
# Poissons Ratio (z) = 0.16195 0.15727
#
# Static dielectric constant tensor:
#      x y z
#    x 2.194920 0.000000 -0.017850 
#    y 0.000000 2.025530 0.000000 
#    z -0.017850 0.000000 2.045900 
# 
# From -- ./inp_files/11074.got.cif
#   From: 2010.05.17/outbox.cif.g08.bks.cpg/sg9_6_cif.got.tgz:11074.got - 2010.06.03 20:04:27.
