data_PCOD9135491
_publ_section_title
;
Structure prediction by ZEFSAII (Michael W. Deem and Ramdas Pophale) SiO2 
 PCOD9135491
Probable space group: C C
;
_chemical_formula_sum "Si O2"
_cell_formula_units_Z 28
_cell_length_a 11.772711
_cell_length_b 14.525276
_cell_length_c 7.590690
_cell_angle_alpha 90.000000
_cell_angle_beta 114.004042
_cell_angle_gamma 90.000000
_cell_volume 1185.765068
_symmetry_space_group_name_H-M "C C"
_symmetry_group_IT_number 9
_symmetry_cell_setting 'monoclinic'
loop_
_space_group_symop_operation_xyz
x,y,z
x,-y,1/2+z
1/2+x,1/2+y,z
1/2+x,1/2-y,1/2+z
loop_
_atom_site_type_symbol
_atom_site_label
_atom_site_fract_x
_atom_site_fract_y
_atom_site_fract_z
Si Si1 0.648090 0.616901 0.527890
Si Si2 0.023817 0.614924 0.395605
Si Si3 0.952251 0.743866 0.863675
Si Si4 0.426684 0.306805 0.444866
Si Si5 0.801460 0.130847 0.536324
Si Si6 0.018025 0.986825 0.649982
Si Si7 0.419871 0.061687 0.685835
O O1 0.591951 0.718661 0.490274
O O2 0.628200 0.561449 0.695058
O O3 0.544892 0.563235 0.349783
O O4 0.782695 0.594653 0.539477
O O5 0.160784 0.607078 0.404979
O O6 0.988365 0.721866 0.381004
O O7 0.017793 0.582392 0.594862
O O8 0.929309 0.543975 0.245114
O O9 0.911157 0.773792 0.637938
O O10 0.947651 0.633647 0.860967
O O11 0.860635 0.792394 0.944341
O O12 0.312310 0.334323 0.246473
O O13 0.510105 0.398613 0.515328
O O14 0.889464 0.041871 0.573082
#
# Coordination Sequence:
#
# PCOD9135491 Si02
#       7
#     4   4   4   4   4   4   4
#     4  10  20  40  68  94 133 181 226 285 342 416
#     4  11  28  44  68 106 143 188 232 289 363 418
#     4   9  24  44  70 103 133 188 240 285 351 416
#     4  10  23  45  66 103 140 182 235 285 351 412
#     4  11  24  45  73 106 135 183 236 296 351 419
#     4  10  20  40  70 100 128 179 240 281 344 416
#     4  11  25  46  65 104 144 187 229 295 358 415
#
# _framework density 23.613447000000001
#
# number of rings (size 3 to 8) (size 9 to 14) (size 15 to 20)
#    0.000    1.714    1.429    0.857    4.000   10.286 
#    2.571    0.000    0.000    0.000    0.000    0.000 
#    0.000    0.000    0.000    0.000    0.000    0.000 
#
# Total GULP energy -78128.490941 kJ/mol
# GULP energy per Si atom -5580.606496 kJ/mol
# Density = 2.355970 g / cm^3
# Si number density = 23.613447 Si / 1000 Ang^3
#
#
#
# Elastic Constant Matrix: (Units=GPa)
#
#
# Indices 1 2 3 4 5 6 
#
# 1 101.2258 22.2259 22.0295 0.0000 7.9106 0.0000
# 2 22.2259 120.2488 27.8942 0.0000 5.1551 0.0000
# 3 22.0295 27.8942 51.8702 0.0000 -4.4980 0.0000
# 4 0.0000 0.0000 0.0000 46.3289 0.0000 -4.5046
# 5 7.9106 5.1551 -4.4980 0.0000 27.5419 0.0000
# 6 0.0000 0.0000 0.0000 -4.5046 0.0000 19.3391
#
#
#
# Elastic Compliance Matrix: (Units=1/GPa)
#
#
# Indices 1 2 3 4 5 6 
#
# 1 0.011396 -0.000844 -0.004723 0.000000 -0.003886 0.000000
# 2 -0.000844 0.009759 -0.005099 0.000000 -0.002417 0.000000
# 3 -0.004723 -0.005099 0.024575 0.000000 0.006324 0.000000
# 4 0.000000 0.000000 0.000000 0.022085 0.000000 0.005144
# 5 -0.003886 -0.002417 0.006324 0.000000 0.038910 0.000000
# 6 0.000000 0.000000 0.000000 0.005144 0.000000 0.052907
#
#
# Mechanical properties :
#
#
# Convention : Reuss Voigt Hill
#
# Bulk Modulus (GPa) = 40.98759 46.40488 43.69623
# Shear Modulus (GPa) = 26.44165 32.05500 29.24832
#
# Velocity S-wave (km/s) = 3.34993 3.68841 3.52324
# Velocity P-wave (km/s) = 5.68842 6.15091 5.92418
#
# Compressibility (1/GPa) = 0.02439763
#
# Stress axis : x y z
#
# Youngs Moduli (GPa) = 87.75163 102.47466 40.69145
#
# Poissons Ratio (x) = 0.08650 0.19218
# Poissons Ratio (y) = 0.07407 0.20748
# Poissons Ratio (z) = 0.41444 0.52251
#
# Static dielectric constant tensor:
#      x y z
#    x 1.861090 0.000000 -0.050630 
#    y 0.000000 1.965840 0.000000 
#    z -0.050630 0.000000 2.013180 
# 
# From -- ./inp_files/7531.got.cif
#   From: 2010.05.17/outbox.cif.g08.bks.cpg/sg9_4_cif.got.tgz:7531.got - 2010.06.03 20:04:27.
