data_PCOD9135362
_publ_section_title
;
Structure prediction by ZEFSAII (Michael W. Deem and Ramdas Pophale) SiO2 
 PCOD9135362
Probable space group: C C
;
_chemical_formula_sum "Si O2"
_cell_formula_units_Z 28
_cell_length_a 14.721396
_cell_length_b 11.546514
_cell_length_c 11.859587
_cell_angle_alpha 90.000000
_cell_angle_beta 31.512200
_cell_angle_gamma 90.000000
_cell_volume 1053.671946
_symmetry_space_group_name_H-M "C C"
_symmetry_group_IT_number 9
_symmetry_cell_setting 'monoclinic'
loop_
_space_group_symop_operation_xyz
x,y,z
x,-y,1/2+z
1/2+x,1/2+y,z
1/2+x,1/2-y,1/2+z
loop_
_atom_site_type_symbol
_atom_site_label
_atom_site_fract_x
_atom_site_fract_y
_atom_site_fract_z
Si Si1 0.257520 0.151004 0.569550
Si Si2 0.104801 0.144460 0.401688
Si Si3 0.739724 0.839057 0.391660
Si Si4 0.902202 0.144333 0.020735
Si Si5 0.634772 0.901567 0.003614
Si Si6 0.420546 0.413261 0.864694
Si Si7 0.263876 0.041826 0.881721
O O1 0.210999 0.245860 0.521157
O O2 0.399714 0.222731 0.484175
O O3 0.293195 0.035151 0.464611
O O4 0.106706 0.127180 0.819553
O O5 0.180897 0.270804 0.342195
O O6 0.245816 0.051714 0.298945
O O7 0.941282 0.132621 0.659720
O O8 0.018013 0.133513 0.371988
O O9 0.638404 0.958012 0.506768
O O10 0.758918 0.127596 0.266950
O O11 0.870700 0.045096 0.958346
O O12 0.743662 0.862181 0.998771
O O13 0.431620 0.874905 0.200251
O O14 0.572316 0.406646 0.609121
#
# Coordination Sequence:
#
# PCOD9135362 Si02
#       7
#     4   4   4   4   4   4   4
#     4  10  20  39  67 101 130 176 236 304 347 415
#     4  11  22  41  69 105 144 181 243 310 358 420
#     4  11  19  39  68 101 133 178 235 296 353 416
#     4  11  22  40  67  98 137 180 236 297 360 421
#     4  12  23  41  70 101 139 185 240 294 363 438
#     4  11  22  43  64 100 143 182 229 300 366 426
#     4  10  22  41  69  98 136 182 241 297 357 432
#
# _framework density 26.573737000000001
#
# number of rings (size 3 to 8) (size 9 to 14) (size 15 to 20)
#    0.000    1.143    4.286    4.286    0.000    1.143 
#    7.714    1.429    0.000    0.000    0.000    0.000 
#    0.000    0.000    0.000    0.000    0.000    0.000 
#
# Total GULP energy -78242.140724 kJ/mol
# GULP energy per Si atom -5588.724337 kJ/mol
# Density = 2.651325 g / cm^3
# Si number density = 26.573737 Si / 1000 Ang^3
#
#
#
# Elastic Constant Matrix: (Units=GPa)
#
#
# Indices 1 2 3 4 5 6 
#
# 1 143.4292 27.2413 42.7784 0.0000 -1.2600 0.0000
# 2 27.2413 55.2641 7.6368 0.0000 -6.6456 0.0000
# 3 42.7784 7.6368 152.7662 0.0000 -8.5122 0.0000
# 4 0.0000 0.0000 0.0000 17.7647 0.0000 -6.5865
# 5 -1.2600 -6.6456 -8.5122 0.0000 49.8396 0.0000
# 6 0.0000 0.0000 0.0000 -6.5865 0.0000 43.6077
#
#
#
# Elastic Compliance Matrix: (Units=1/GPa)
#
#
# Indices 1 2 3 4 5 6 
#
# 1 0.008358 -0.003900 -0.002183 0.000000 -0.000682 0.000000
# 2 -0.003900 0.020305 0.000225 0.000000 0.002647 0.000000
# 3 -0.002183 0.000225 0.007213 0.000000 0.001207 0.000000
# 4 0.000000 0.000000 0.000000 0.059631 0.000000 0.009007
# 5 -0.000682 0.002647 0.001207 0.000000 0.020606 0.000000
# 6 0.000000 0.000000 0.000000 0.009007 0.000000 0.024292
#
#
# Mechanical properties :
#
#
# Convention : Reuss Voigt Hill
#
# Bulk Modulus (GPa) = 41.39401 56.30806 48.85104
# Shear Modulus (GPa) = 31.21565 40.49594 35.85579
#
# Velocity S-wave (km/s) = 3.43108 3.90796 3.67726
# Velocity P-wave (km/s) = 5.59529 6.44967 6.03761
#
# Compressibility (1/GPa) = 0.02415808
#
# Stress axis : x y z
#
# Youngs Moduli (GPa) = 119.64464 49.24966 138.63096
#
# Poissons Ratio (x) = 0.19208 0.30270
# Poissons Ratio (y) = 0.46664 -0.03114
# Poissons Ratio (z) = 0.26124 -0.01106
#
# Static dielectric constant tensor:
#      x y z
#    x 2.155030 0.000000 0.002320 
#    y 0.000000 2.156160 0.000000 
#    z 0.002320 0.000000 2.093990 
# 
# From -- ./inp_files/9711.got.cif
#   From: 2010.05.17/outbox.cif.g08.bks.cpg/sg9_5_cif.got.tgz:9711.got - 2010.06.03 20:04:27.
