data_PCOD9135304
_publ_section_title
;
Structure prediction by ZEFSAII (Michael W. Deem and Ramdas Pophale) SiO2 
 PCOD9135304
Probable space group: C C
;
_chemical_formula_sum "Si O2"
_cell_formula_units_Z 28
_cell_length_a 7.028110
_cell_length_b 22.967995
_cell_length_c 9.262214
_cell_angle_alpha 90.000000
_cell_angle_beta 130.005829
_cell_angle_gamma 90.000000
_cell_volume 1145.231632
_symmetry_space_group_name_H-M "C C"
_symmetry_group_IT_number 9
_symmetry_cell_setting 'monoclinic'
loop_
_space_group_symop_operation_xyz
x,y,z
x,-y,1/2+z
1/2+x,1/2+y,z
1/2+x,1/2-y,1/2+z
loop_
_atom_site_type_symbol
_atom_site_label
_atom_site_fract_x
_atom_site_fract_y
_atom_site_fract_z
Si Si1 0.774070 0.884071 0.828050
Si Si2 0.670974 0.327199 0.817200
Si Si3 0.734952 0.570084 0.981809
Si Si4 0.446112 0.875099 0.185792
Si Si5 0.660231 0.477607 0.153505
Si Si6 0.410515 0.293324 0.417605
Si Si7 0.023722 0.171526 0.686835
O O1 0.916024 0.849052 0.769473
O O2 0.513244 0.907383 0.644543
O O3 0.786477 0.839959 0.970634
O O4 0.939763 0.937622 0.976350
O O5 0.622966 0.317614 0.625974
O O6 0.784979 0.264805 0.921513
O O7 0.861730 0.372883 0.978310
O O8 0.640402 0.541546 0.081201
O O9 0.695550 0.519938 0.841962
O O10 0.580806 0.619479 0.826532
O O11 0.404293 0.940270 0.222532
O O12 0.702731 0.843112 0.321157
O O13 0.253763 0.835052 0.188099
O O14 0.488792 0.279657 0.290097
#
# Coordination Sequence:
#
# PCOD9135304 Si02
#       7
#     4   4   4   4   4   4   4
#     4   9  21  43  59  83 132 169 197 256 316 362
#     4  10  21  38  60  86 116 163 207 249 313 363
#     4  10  20  39  61  91 123 163 204 250 311 365
#     4   9  21  44  57  84 127 159 195 258 310 364
#     4   9  21  35  60  90 119 158 207 244 302 376
#     4  12  21  39  61  88 117 158 210 257 303 360
#     4   9  23  40  58  90 124 156 208 250 301 372
#
# _framework density 24.449203000000001
#
# number of rings (size 3 to 8) (size 9 to 14) (size 15 to 20)
#    0.000    2.857    1.429    1.714    0.000    8.000 
#    5.143    0.000    0.000    0.000    0.000    0.000 
#    0.000    0.000    0.000    0.000    0.000    0.000 
#
# Total GULP energy -78045.551497 kJ/mol
# GULP energy per Si atom -5574.682250 kJ/mol
# Density = 2.439356 g / cm^3
# Si number density = 24.449203 Si / 1000 Ang^3
#
#
#
# Elastic Constant Matrix: (Units=GPa)
#
#
# Indices 1 2 3 4 5 6 
#
# 1 73.3147 15.1498 18.4858 0.0000 -16.2010 0.0000
# 2 15.1498 55.0431 19.6051 0.0000 8.4580 0.0000
# 3 18.4858 19.6051 132.8903 0.0000 -26.0692 0.0000
# 4 0.0000 0.0000 0.0000 37.8802 0.0000 -3.8980
# 5 -16.2010 8.4580 -26.0692 0.0000 25.0410 0.0000
# 6 0.0000 0.0000 0.0000 -3.8980 0.0000 12.3703
#
#
#
# Elastic Compliance Matrix: (Units=1/GPa)
#
#
# Indices 1 2 3 4 5 6 
#
# 1 0.018635 -0.008443 0.001983 0.000000 0.016973 0.000000
# 2 -0.008443 0.026270 -0.006928 0.000000 -0.021549 0.000000
# 3 0.001983 -0.006928 0.011287 0.000000 0.015374 0.000000
# 4 0.000000 0.000000 0.000000 0.027284 0.000000 0.008597
# 5 0.016973 -0.021549 0.015374 0.000000 0.074199 0.000000
# 6 0.000000 0.000000 0.000000 0.008597 0.000000 0.083548
#
#
# Mechanical properties :
#
#
# Convention : Reuss Voigt Hill
#
# Bulk Modulus (GPa) = 33.99602 40.85883 37.42743
# Shear Modulus (GPa) = 17.99810 28.92544 23.46177
#
# Velocity S-wave (km/s) = 2.71614 3.44333 3.10112
# Velocity P-wave (km/s) = 4.87560 5.70585 5.30698
#
# Compressibility (1/GPa) = 0.02941521
#
# Stress axis : x y z
#
# Youngs Moduli (GPa) = 53.66162 38.06553 88.59608
#
# Poissons Ratio (x) = 0.32141 -0.17568
# Poissons Ratio (y) = 0.45309 0.61383
# Poissons Ratio (z) = -0.10641 0.26373
#
# Static dielectric constant tensor:
#      x y z
#    x 2.051920 0.000000 -0.050010 
#    y 0.000000 2.087620 0.000000 
#    z -0.050010 0.000000 1.962910 
# 
# From -- ./inp_files/6287.got.cif
#   From: 2010.05.17/outbox.cif.g08.bks.cpg/sg9_4_cif.got.tgz:6287.got - 2010.06.03 20:04:27.
