data_PCOD9135142
_publ_section_title
;
Structure prediction by ZEFSAII (Michael W. Deem and Ramdas Pophale) SiO2 
 PCOD9135142
Probable space group: C C
;
_chemical_formula_sum "Si O2"
_cell_formula_units_Z 28
_cell_length_a 16.141939
_cell_length_b 16.682481
_cell_length_c 8.429824
_cell_angle_alpha 90.000000
_cell_angle_beta 28.387913
_cell_angle_gamma 90.000000
_cell_volume 1079.268032
_symmetry_space_group_name_H-M "C C"
_symmetry_group_IT_number 9
_symmetry_cell_setting 'monoclinic'
loop_
_space_group_symop_operation_xyz
x,y,z
x,-y,1/2+z
1/2+x,1/2+y,z
1/2+x,1/2-y,1/2+z
loop_
_atom_site_type_symbol
_atom_site_label
_atom_site_fract_x
_atom_site_fract_y
_atom_site_fract_z
Si Si1 0.531560 0.914981 0.820350
Si Si2 0.381526 0.241644 0.106998
Si Si3 0.508564 0.917338 0.219433
Si Si4 0.912305 0.897954 0.513841
Si Si5 0.500939 0.369975 0.711523
Si Si6 0.820118 0.278794 0.046468
Si Si7 0.453829 0.399037 0.113254
O O1 0.743061 0.910241 0.473792
O O2 0.453984 0.998311 0.886513
O O3 0.458626 0.902885 0.120938
O O4 0.470271 0.844398 0.809125
O O5 0.258100 0.223712 0.466159
O O6 0.503714 0.304422 0.002849
O O7 0.453572 0.159559 0.915004
O O8 0.348533 0.305708 0.019367
O O9 0.716495 0.930727 0.857569
O O10 0.981786 0.909377 0.573201
O O11 0.872874 0.804744 0.536015
O O12 0.016380 0.923325 0.180184
O O13 0.664605 0.312941 0.413537
O O14 0.511392 0.429132 0.844421
#
# Coordination Sequence:
#
# PCOD9135142 Si02
#       7
#     4   4   4   4   4   4   4
#     4  11  24  38  69  90 133 158 224 259 319 377
#     4   9  20  36  60  89 125 158 214 247 319 365
#     4  11  22  42  62  98 118 178 211 264 311 386
#     4  10  20  37  65  90 125 160 222 254 307 378
#     4  10  21  38  64  89 127 162 208 263 316 361
#     4  11  22  38  60  98 129 163 210 266 318 376
#     4   8  21  39  60  96 117 167 209 261 308 375
#
# _framework density 25.943507
#
# number of rings (size 3 to 8) (size 9 to 14) (size 15 to 20)
#    0.857    1.143    1.429    1.714    8.000    0.000 
#    7.714    0.000    6.286    0.000    0.000    0.000 
#    0.000    0.000    0.000    0.000    0.000    0.000 
#
# Total GULP energy -78025.288682 kJ/mol
# GULP energy per Si atom -5573.234906 kJ/mol
# Density = 2.588446 g / cm^3
# Si number density = 25.943507 Si / 1000 Ang^3
#
#
#
# Elastic Constant Matrix: (Units=GPa)
#
#
# Indices 1 2 3 4 5 6 
#
# 1 127.4265 42.8632 61.6079 -0.0007 60.0615 -0.0002
# 2 42.8632 124.8634 23.3718 -0.0003 26.2788 -0.0002
# 3 61.6079 23.3718 107.3645 -0.0024 50.8208 0.0013
# 4 -0.0007 -0.0003 -0.0024 27.1372 0.0010 18.4376
# 5 60.0615 26.2788 50.8208 0.0010 65.4205 -0.0004
# 6 -0.0002 -0.0002 0.0013 18.4376 -0.0004 34.6207
#
#
#
# Elastic Compliance Matrix: (Units=1/GPa)
#
#
# Indices 1 2 3 4 5 6 
#
# 1 0.015122 -0.002395 -0.003226 0.000001 -0.010415 0.000000
# 2 -0.002395 0.009138 0.000129 0.000000 -0.001572 0.000000
# 3 -0.003226 0.000129 0.015436 0.000003 -0.009081 -0.000002
# 4 0.000001 0.000000 0.000003 0.057743 -0.000004 -0.030752
# 5 -0.010415 -0.001572 -0.009081 -0.000004 0.032534 0.000003
# 6 0.000000 0.000000 -0.000002 -0.030752 0.000003 0.045262
#
#
# Mechanical properties :
#
#
# Convention : Reuss Voigt Hill
#
# Bulk Modulus (GPa) = 34.82909 68.37113 51.60011
# Shear Modulus (GPa) = 25.53781 40.88978 33.21379
#
# Velocity S-wave (km/s) = 3.14086 3.97433 3.58192
# Velocity P-wave (km/s) = 5.15824 6.88995 6.08600
#
# Compressibility (1/GPa) = 0.02871163
#
# Stress axis : x y z
#
# Youngs Moduli (GPa) = 66.12791 109.43754 64.78553
#
# Poissons Ratio (x) = 0.26214 0.20900
# Poissons Ratio (y) = 0.15840 -0.00838
# Poissons Ratio (z) = 0.21333 -0.01416
#
# Static dielectric constant tensor:
#      x y z
#    x 2.127930 0.000000 0.040720 
#    y 0.000000 2.123710 0.000000 
#    z 0.040720 0.000000 2.093290 
# 
# From -- ./inp_files/10973.got.cif
#   From: 2010.05.17/outbox.cif.g08.bks.cpg/sg9_6_cif.got.tgz:10973.got - 2010.06.03 20:04:27.
