data_PCOD9135636
_publ_section_title
;
Structure prediction by ZEFSAII (Michael W. Deem and Ramdas Pophale) SiO2 
 PCOD9135636
Probable space group: C C
;
_chemical_formula_sum "Si O2"
_cell_formula_units_Z 32
_cell_length_a 7.222825
_cell_length_b 13.780448
_cell_length_c 13.770078
_cell_angle_alpha 90.000000
_cell_angle_beta 98.191752
_cell_angle_gamma 90.000000
_cell_volume 1356.603253
_symmetry_space_group_name_H-M "C C"
_symmetry_group_IT_number 9
_symmetry_cell_setting 'monoclinic'
loop_
_space_group_symop_operation_xyz
x,y,z
x,-y,1/2+z
1/2+x,1/2+y,z
1/2+x,1/2-y,1/2+z
loop_
_atom_site_type_symbol
_atom_site_label
_atom_site_fract_x
_atom_site_fract_y
_atom_site_fract_z
Si Si1 0.531850 0.895526 0.953260
Si Si2 0.876274 0.514242 0.262268
Si Si3 0.614261 0.591827 0.508896
Si Si4 0.393821 0.301881 0.445193
Si Si5 0.044855 0.301741 0.536251
Si Si6 0.492689 0.482895 0.321876
Si Si7 0.177419 0.119977 0.093096
Si Si8 0.682162 0.000809 0.138182
O O1 0.519066 0.963117 0.859211
O O2 0.514926 0.786936 0.912795
O O3 0.330635 0.899524 0.992284
O O4 0.681765 0.934693 0.041348
O O5 0.700714 0.462063 0.297146
O O6 0.779029 0.609817 0.204497
O O7 0.001041 0.468174 0.187636
O O8 0.552748 0.687357 0.563278
O O9 0.505498 0.572929 0.398877
O O10 0.171824 0.295590 0.448223
O O11 0.426559 0.393334 0.380770
O O12 0.496101 0.316266 0.558102
O O13 0.142548 0.387975 0.604716
O O14 0.832698 0.340509 0.528238
O O15 0.357563 0.497373 0.221350
O O16 0.113808 0.010148 0.065028
#
# Coordination Sequence:
#
# PCOD9135636 Si02
#       8
#     4   4   4   4   4   4   4   4
#     4  10  21  42  64  93 136 171 220 287 334 395
#     4  10  22  42  65  88 134 172 216 274 336 403
#     4   9  19  42  66  93 132 173 219 280 330 403
#     4  10  23  40  64  99 133 172 226 280 335 415
#     4  10  21  40  67  94 129 175 223 270 345 397
#     4  10  23  40  66  98 134 174 221 275 344 399
#     4  10  20  42  65  92 130 176 216 282 336 392
#     4  11  23  42  67  99 128 179 223 278 342 406
#
# _framework density 23.588329000000002
#
# number of rings (size 3 to 8) (size 9 to 14) (size 15 to 20)
#    0.000    2.000    2.500    0.750    1.750    2.000 
#    9.000    5.000    0.000    0.000    0.000    0.000 
#    0.000    0.000    0.000    0.000    0.000    0.000 
#
# Total GULP energy -89212.899593 kJ/mol
# GULP energy per Si atom -5575.806225 kJ/mol
# Density = 2.353464 g / cm^3
# Si number density = 23.588329 Si / 1000 Ang^3
#
#
#
# Elastic Constant Matrix: (Units=GPa)
#
#
# Indices 1 2 3 4 5 6 
#
# 1 92.9264 16.4448 26.4552 0.0000 -4.5696 0.0000
# 2 16.4448 112.8173 21.9206 0.0000 4.7905 0.0000
# 3 26.4552 21.9206 88.2599 0.0000 13.2447 0.0000
# 4 0.0000 0.0000 0.0000 14.6108 0.0000 -0.3738
# 5 -4.5696 4.7905 13.2447 0.0000 43.9207 0.0000
# 6 0.0000 0.0000 0.0000 -0.3738 0.0000 21.5562
#
#
#
# Elastic Compliance Matrix: (Units=1/GPa)
#
#
# Indices 1 2 3 4 5 6 
#
# 1 0.012152 -0.001153 -0.003734 0.000000 0.002516 0.000000
# 2 -0.001153 0.009427 -0.001910 0.000000 -0.000572 0.000000
# 3 -0.003734 -0.001910 0.013565 0.000000 -0.004271 0.000000
# 4 0.000000 0.000000 0.000000 0.068473 0.000000 0.001187
# 5 0.002516 -0.000572 -0.004271 0.000000 0.024380 0.000000
# 6 0.000000 0.000000 0.000000 0.001187 0.000000 0.046411
#
#
# Mechanical properties :
#
#
# Convention : Reuss Voigt Hill
#
# Bulk Modulus (GPa) = 46.40172 47.07166 46.73669
# Shear Modulus (GPa) = 25.61676 31.29638 28.45657
#
# Velocity S-wave (km/s) = 3.29902 3.64644 3.47707
# Velocity P-wave (km/s) = 5.85026 6.14227 5.99804
#
# Compressibility (1/GPa) = 0.02155093
#
# Stress axis : x y z
#
# Youngs Moduli (GPa) = 82.29190 106.07453 73.72143
#
# Poissons Ratio (x) = 0.12227 0.27525
# Poissons Ratio (y) = 0.09486 0.14081
# Poissons Ratio (z) = 0.30725 0.20261
#
# Static dielectric constant tensor:
#      x y z
#    x 1.946960 0.000000 -0.015230 
#    y 0.000000 1.970290 0.000000 
#    z -0.015230 0.000000 1.925320 
# 
# From -- ./inp_files/22078.got.cif
#   From: 2010.05.17/outbox.cif.g08.bks.cpg/sg9_12_cif.got.tgz:22078.got - 2010.06.03 20:04:27.
