data_PCOD9135558
_publ_section_title
;
Structure prediction by ZEFSAII (Michael W. Deem and Ramdas Pophale) SiO2 
 PCOD9135558
Probable space group: C C
;
_chemical_formula_sum "Si O2"
_cell_formula_units_Z 32
_cell_length_a 6.884940
_cell_length_b 17.633088
_cell_length_c 13.532508
_cell_angle_alpha 90.000000
_cell_angle_beta 102.699753
_cell_angle_gamma 90.000000
_cell_volume 1602.691382
_symmetry_space_group_name_H-M "C C"
_symmetry_group_IT_number 9
_symmetry_cell_setting 'monoclinic'
loop_
_space_group_symop_operation_xyz
x,y,z
x,-y,1/2+z
1/2+x,1/2+y,z
1/2+x,1/2-y,1/2+z
loop_
_atom_site_type_symbol
_atom_site_label
_atom_site_fract_x
_atom_site_fract_y
_atom_site_fract_z
Si Si1 0.125000 0.458663 0.630400
Si Si2 0.700318 0.513053 0.603588
Si Si3 0.429434 0.296857 0.352758
Si Si4 0.036682 0.365630 0.819883
Si Si5 0.605026 0.313457 0.787725
Si Si6 0.931556 0.865705 0.563592
Si Si7 0.494583 0.459655 0.269977
Si Si8 0.928029 0.086916 0.426128
O O1 0.080185 0.402158 0.717941
O O2 0.719040 0.907738 0.553832
O O3 0.302957 0.513918 0.684471
O O4 0.923804 0.504628 0.590421
O O5 0.592655 0.432822 0.570315
O O6 0.681313 0.527795 0.718526
O O7 0.566646 0.576802 0.535690
O O8 0.561467 0.225583 0.331819
O O9 0.204784 0.268657 0.304789
O O10 0.443050 0.311343 0.471378
O O11 0.479996 0.374183 0.304197
O O12 0.189413 0.407476 0.911011
O O13 0.800037 0.368994 0.811970
O O14 0.486116 0.326603 0.673716
O O15 0.480673 0.339101 0.867858
O O16 0.482690 0.515758 0.361973
#
# Coordination Sequence:
#
# PCOD9135558 Si02
#       8
#     4   4   4   4   4   4   4   4
#     4  10  20  41  65  89 119 175 202 256 319 367
#     4  11  21  38  65  93 121 162 215 260 311 368
#     4  10  23  42  61  97 127 164 205 266 310 378
#     4   9  20  40  63  82 126 167 197 246 329 356
#     4  10  21  41  62  84 133 164 203 253 321 372
#     4  11  20  41  64  87 130 167 209 258 318 376
#     4  10  21  41  62  91 125 152 215 270 296 367
#     4  11  20  40  64  85 125 165 208 253 314 378
#
# _framework density 19.966415000000001
#
# number of rings (size 3 to 8) (size 9 to 14) (size 15 to 20)
#    0.750    1.000    6.250    0.000    0.000    3.000 
#   11.250    0.000    0.000    0.000    0.000    0.000 
#    0.000    0.000    0.000    0.000    0.000    0.000 
#
# Total GULP energy -89148.721204 kJ/mol
# GULP energy per Si atom -5571.795075 kJ/mol
# Density = 1.992097 g / cm^3
# Si number density = 19.966415 Si / 1000 Ang^3
#
#
#
# Elastic Constant Matrix: (Units=GPa)
#
#
# Indices 1 2 3 4 5 6 
#
# 1 72.7817 6.8443 14.9351 0.0000 5.4894 0.0000
# 2 6.8443 77.0680 13.0622 0.0000 -3.5762 0.0000
# 3 14.9351 13.0622 41.6642 0.0000 -1.8772 0.0000
# 4 0.0000 0.0000 0.0000 15.4558 0.0000 3.3210
# 5 5.4894 -3.5762 -1.8772 0.0000 13.8445 0.0000
# 6 0.0000 0.0000 0.0000 3.3210 0.0000 21.6393
#
#
#
# Elastic Compliance Matrix: (Units=1/GPa)
#
#
# Indices 1 2 3 4 5 6 
#
# 1 0.015504 -0.000750 -0.005643 0.000000 -0.007106 0.000000
# 2 -0.000750 0.013863 -0.003926 0.000000 0.003346 0.000000
# 3 -0.005643 -0.003926 0.027478 0.000000 0.004949 0.000000
# 4 0.000000 0.000000 0.000000 0.066907 0.000000 -0.010268
# 5 -0.007106 0.003346 0.004949 0.000000 0.076584 0.000000
# 6 0.000000 0.000000 0.000000 -0.010268 0.000000 0.047788
#
#
# Mechanical properties :
#
#
# Convention : Reuss Voigt Hill
#
# Bulk Modulus (GPa) = 27.61948 29.02191 28.32070
# Shear Modulus (GPa) = 17.80428 20.63275 19.21852
#
# Velocity S-wave (km/s) = 2.98939 3.21810 3.10585
# Velocity P-wave (km/s) = 5.07723 5.32683 5.20353
#
# Compressibility (1/GPa) = 0.03620633
#
# Stress axis : x y z
#
# Youngs Moduli (GPa) = 64.49889 72.13467 36.39272
#
# Poissons Ratio (x) = 0.05412 0.20535
# Poissons Ratio (y) = 0.04839 0.14290
# Poissons Ratio (z) = 0.36394 0.28324
#
# Static dielectric constant tensor:
#      x y z
#    x 1.751700 0.000000 0.008710 
#    y 0.000000 1.696910 0.000000 
#    z 0.008710 0.000000 1.728400 
# 
# From -- ./inp_files/23399.got.cif
#   From: 2010.05.17/outbox.cif.g08.bks.cpg/sg9_12_cif.got.tgz:23399.got - 2010.06.03 20:04:27.
