data_PCOD9135030
_publ_section_title
;
Structure prediction by ZEFSAII (Michael W. Deem and Ramdas Pophale) SiO2 
 PCOD9135030
Probable space group: C C
;
_chemical_formula_sum "Si O2"
_cell_formula_units_Z 24
_cell_length_a 14.216540
_cell_length_b 14.437729
_cell_length_c 8.481294
_cell_angle_alpha 90.000000
_cell_angle_beta 146.430183
_cell_angle_gamma 90.000000
_cell_volume 962.593433
_symmetry_space_group_name_H-M "C C"
_symmetry_group_IT_number 9
_symmetry_cell_setting 'monoclinic'
loop_
_space_group_symop_operation_xyz
x,y,z
x,-y,1/2+z
1/2+x,1/2+y,z
1/2+x,1/2-y,1/2+z
loop_
_atom_site_type_symbol
_atom_site_label
_atom_site_fract_x
_atom_site_fract_y
_atom_site_fract_z
Si Si1 0.150060 0.616092 0.815550
Si Si2 0.917167 0.850264 0.904140
Si Si3 0.606151 0.362587 0.469906
Si Si4 0.390366 0.021396 0.245750
Si Si5 0.294673 0.139125 0.794693
Si Si6 0.883235 0.226771 0.914579
O O1 0.295169 0.672805 0.929090
O O2 0.065571 0.544268 0.579057
O O3 0.001701 0.690246 0.638638
O O4 0.257159 0.590551 0.117638
O O5 0.862344 0.743982 0.866711
O O6 0.975414 0.888558 0.153249
O O7 0.091935 0.855943 0.045790
O O8 0.744257 0.441822 0.661880
O O9 0.725062 0.272479 0.596954
O O10 0.502559 0.338341 0.478885
O O11 0.348792 0.913517 0.208388
O O12 0.371625 0.081864 0.057540
#
# Coordination Sequence:
#
# PCOD9135030 Si02
#       6
#     4   4   4   4   4   4
#     4  10  20  36  62  95 127 166 216 268 322 385
#     4  11  22  40  67  97 128 172 221 265 322 400
#     4   9  18  36  60  87 127 173 214 262 322 385
#     4  10  24  44  65  95 136 174 215 280 337 380
#     4  11  25  46  68  96 135 177 220 272 331 394
#     4   9  17  32  58  90 125 168 214 259 316 388
#
# _framework density 24.932642999999999
#
# number of rings (size 3 to 8) (size 9 to 14) (size 15 to 20)
#    0.000    2.000    0.000    5.000    0.000    6.667 
#    0.000   11.667    0.000    0.000    0.000    0.000 
#    0.000    0.000    0.000    0.000    0.000    0.000 
#
# Total GULP energy -67003.683906 kJ/mol
# GULP energy per Si atom -5583.640325 kJ/mol
# Density = 2.487590 g / cm^3
# Si number density = 24.932643 Si / 1000 Ang^3
#
#
#
# Elastic Constant Matrix: (Units=GPa)
#
#
# Indices 1 2 3 4 5 6 
#
# 1 115.2211 46.9368 36.0834 0.0000 16.5588 0.0000
# 2 46.9368 42.3458 22.0137 0.0000 4.4232 0.0000
# 3 36.0834 22.0137 191.8493 0.0000 -7.9280 0.0000
# 4 0.0000 0.0000 0.0000 -14.5722 0.0000 -38.9245
# 5 16.5588 4.4232 -7.9280 0.0000 25.7699 0.0000
# 6 0.0000 0.0000 0.0000 -38.9245 0.0000 -11.3020
#
#
#
# Elastic Compliance Matrix: (Units=1/GPa)
#
#
# Indices 1 2 3 4 5 6 
#
# 1 0.017761 -0.017904 -0.001652 0.000000 -0.008848 0.000000
# 2 -0.017904 0.043886 -0.001524 0.000000 0.003503 0.000000
# 3 -0.001652 -0.001524 0.005827 0.000000 0.003115 0.000000
# 4 0.000000 0.000000 0.000000 0.008369 0.000000 -0.028824
# 5 -0.008848 0.003503 0.003115 0.000000 0.044847 0.000000
# 6 0.000000 0.000000 0.000000 -0.028824 0.000000 0.010791
#
#
# Mechanical properties :
#
#
# Convention : Reuss Voigt Hill
#
# Bulk Modulus (GPa) = 39.50147 62.16491 50.83319
# Shear Modulus (GPa) = 27.46064 16.27129 21.86597
#
# Velocity S-wave (km/s) = 3.32232 2.55739 2.96463
# Velocity P-wave (km/s) = 5.53126 5.80583 5.67020
#
# Compressibility (1/GPa) = 0.02531552
#
# Stress axis : x y z
#
# Youngs Moduli (GPa) = 56.30248 22.78620 171.62482
#
# Poissons Ratio (x) = 0.40796 0.28349
# Poissons Ratio (y) = 1.00804 0.26148
# Poissons Ratio (z) = 0.09300 0.03472
#
# Static dielectric constant tensor:
#      x y z
#    x 1.995400 0.000000 -0.094560 
#    y 0.000000 1.994410 0.000000 
#    z -0.094560 0.000000 2.052160 
# 
# From -- ./inp_files/5085.got.cif
#   From: 2010.05.17/outbox.cif.g08.bks.cpg/sg9_3_cif.got.tgz:5085.got - 2010.06.03 20:04:27.
