data_PCOD9135314
_publ_section_title
;
Structure prediction by ZEFSAII (Michael W. Deem and Ramdas Pophale) SiO2 
 PCOD9135314
Probable space group: C C
;
_chemical_formula_sum "Si O2"
_cell_formula_units_Z 32
_cell_length_a 12.256751
_cell_length_b 8.338958
_cell_length_c 13.446856
_cell_angle_alpha 90.000000
_cell_angle_beta 64.475642
_cell_angle_gamma 90.000000
_cell_volume 1240.246586
_symmetry_space_group_name_H-M "C C"
_symmetry_group_IT_number 9
_symmetry_cell_setting 'monoclinic'
loop_
_space_group_symop_operation_xyz
x,y,z
x,-y,1/2+z
1/2+x,1/2+y,z
1/2+x,1/2-y,1/2+z
loop_
_atom_site_type_symbol
_atom_site_label
_atom_site_fract_x
_atom_site_fract_y
_atom_site_fract_z
Si Si1 0.057360 0.551107 0.339550
Si Si2 0.190859 0.196244 0.694584
Si Si3 0.780567 0.655041 0.156830
Si Si4 0.206243 0.292408 0.396091
Si Si5 0.033055 0.700102 0.686791
Si Si6 0.919069 0.785250 0.518098
Si Si7 0.434506 0.518797 0.779083
Si Si8 0.485399 0.612894 0.542871
O O1 0.166602 0.680829 0.293477
O O2 0.106121 0.410133 0.388425
O O3 0.030871 0.472599 0.241619
O O4 0.945649 0.648284 0.426862
O O5 0.275485 0.302524 0.590270
O O6 0.055365 0.128419 0.736139
O O7 0.268289 0.034880 0.663754
O O8 0.760218 0.697476 0.280526
O O9 0.669530 0.733686 0.139947
O O10 0.900204 0.733013 0.064653
O O11 0.318894 0.406950 0.378142
O O12 0.124304 0.171806 0.494131
O O13 0.984410 0.717719 0.593945
O O14 0.961297 0.830865 0.783282
O O15 0.979018 0.959971 0.472004
O O16 0.420970 0.533396 0.664421
#
# Coordination Sequence:
#
# PCOD9135314 Si02
#       8
#     4   4   4   4   4   4   4   4
#     4  11  23  39  65  99 130 174 221 271 341 403
#     4  11  22  39  61  93 134 168 220 279 324 395
#     4   9  19  38  62  87 123 171 212 271 333 379
#     4  10  20  39  62  89 125 167 220 271 326 394
#     4   9  20  42  64  87 132 179 218 273 333 395
#     4  11  23  41  66  99 135 175 223 277 335 398
#     4   9  21  40  63  89 126 174 218 272 334 384
#     4  10  20  40  67  95 129 172 222 274 330 392
#
# _framework density 25.801321000000002
#
# number of rings (size 3 to 8) (size 9 to 14) (size 15 to 20)
#    0.000    2.000    0.000    4.500    0.000    4.000 
#    0.000   17.500    0.000    0.000    0.000    0.000 
#    0.000    0.000    0.000    0.000    0.000    0.000 
#
# Total GULP energy -89301.338799 kJ/mol
# GULP energy per Si atom -5581.333675 kJ/mol
# Density = 2.574260 g / cm^3
# Si number density = 25.801321 Si / 1000 Ang^3
#
#
#
# Elastic Constant Matrix: (Units=GPa)
#
#
# Indices 1 2 3 4 5 6 
#
# 1 93.0768 24.8935 27.6338 0.0000 -16.7850 0.0000
# 2 24.8935 120.9164 43.4662 0.0000 -7.0197 0.0000
# 3 27.6338 43.4662 102.0287 0.0000 -29.6681 0.0000
# 4 0.0000 0.0000 0.0000 48.2745 0.0000 -5.0503
# 5 -16.7850 -7.0197 -29.6681 0.0000 41.9755 0.0000
# 6 0.0000 0.0000 0.0000 -5.0503 0.0000 26.7544
#
#
#
# Elastic Compliance Matrix: (Units=1/GPa)
#
#
# Indices 1 2 3 4 5 6 
#
# 1 0.012316 -0.001772 -0.001554 0.000000 0.003530 0.000000
# 2 -0.001772 0.010112 -0.004459 0.000000 -0.002169 0.000000
# 3 -0.001554 -0.004459 0.014757 0.000000 0.009063 0.000000
# 4 0.000000 0.000000 0.000000 0.021132 0.000000 0.003989
# 5 0.003530 -0.002169 0.009063 0.000000 0.031278 0.000000
# 6 0.000000 0.000000 0.000000 0.003989 0.000000 0.038130
#
#
# Mechanical properties :
#
#
# Convention : Reuss Voigt Hill
#
# Bulk Modulus (GPa) = 46.26441 56.44543 51.35492
# Shear Modulus (GPa) = 33.22282 38.06945 35.64614
#
# Velocity S-wave (km/s) = 3.59226 3.84537 3.72097
# Velocity P-wave (km/s) = 5.93092 6.45293 6.19742
#
# Compressibility (1/GPa) = 0.02161489
#
# Stress axis : x y z
#
# Youngs Moduli (GPa) = 81.19700 98.89461 67.76472
#
# Poissons Ratio (x) = 0.17522 0.10533
# Poissons Ratio (y) = 0.14386 0.30213
# Poissons Ratio (z) = 0.12621 0.44093
#
# Static dielectric constant tensor:
#      x y z
#    x 2.098790 0.000000 0.128230 
#    y 0.000000 2.063860 0.000000 
#    z 0.128230 0.000000 2.095380 
# 
# From -- ./inp_files/24349.got.cif
#   From: 2010.05.17/outbox.cif.g08.bks.cpg/sg9_13_cif.got.tgz:24349.got - 2010.06.03 20:04:27.
