data_PCOD9135908
_publ_section_title
;
Structure prediction by ZEFSAII (Michael W. Deem and Ramdas Pophale) SiO2 
 PCOD9135908
Probable space group: C C
;
_chemical_formula_sum "Si O2"
_cell_formula_units_Z 32
_cell_length_a 10.680453
_cell_length_b 23.759958
_cell_length_c 7.928493
_cell_angle_alpha 90.000000
_cell_angle_beta 127.738154
_cell_angle_gamma 90.000000
_cell_volume 1591.114780
_symmetry_space_group_name_H-M "C C"
_symmetry_group_IT_number 9
_symmetry_cell_setting 'monoclinic'
loop_
_space_group_symop_operation_xyz
x,y,z
x,-y,1/2+z
1/2+x,1/2+y,z
1/2+x,1/2-y,1/2+z
loop_
_atom_site_type_symbol
_atom_site_label
_atom_site_fract_x
_atom_site_fract_y
_atom_site_fract_z
Si Si1 0.828070 0.895711 0.979970
Si Si2 0.512118 0.075846 0.015879
Si Si3 0.526033 0.186993 0.838585
Si Si4 0.035365 0.986417 0.997514
Si Si5 0.904574 0.916466 0.573827
Si Si6 0.391377 0.027318 0.258328
Si Si7 0.884589 0.190442 0.254644
Si Si8 0.607783 0.888690 0.127101
O O1 0.686631 0.916096 0.737823
O O2 0.898973 0.840230 0.947989
O O3 0.730259 0.883694 0.070749
O O4 0.962451 0.944042 0.079821
O O5 0.407024 0.055809 0.088837
O O6 0.454221 0.133514 0.881235
O O7 0.510299 0.024243 0.885255
O O8 0.446737 0.246869 0.796438
O O9 0.540970 0.168130 0.655666
O O10 0.700343 0.193324 0.058454
O O11 0.222671 0.997250 0.145133
O O12 0.974916 0.049758 0.975356
O O13 0.965850 0.955488 0.776399
O O14 0.954193 0.853776 0.673264
O O15 0.720777 0.912074 0.370042
O O16 0.459602 0.073230 0.446939
#
# Coordination Sequence:
#
# PCOD9135908 Si02
#       8
#     4   4   4   4   4   4   4   4
#     4   9  20  39  61  87 119 162 204 244 303 381
#     4  10  21  37  58  85 120 161 200 243 309 378
#     4  10  21  40  61  83 115 160 207 257 308 361
#     4  11  21  35  58  89 126 155 194 254 307 353
#     4  10  21  37  57  86 121 163 199 239 305 378
#     4  11  22  36  59  94 123 153 200 258 308 358
#     4   9  21  39  59  83 114 156 207 253 306 360
#     4  10  21  39  63  87 118 164 209 244 302 381
#
# _framework density 20.111685000000001
#
# number of rings (size 3 to 8) (size 9 to 14) (size 15 to 20)
#    0.000    2.000    0.000    3.750    0.000   10.000 
#    0.000   10.000    0.000    0.000    0.000    0.000 
#    0.000    0.000    0.000    0.000    0.000    0.000 
#
# Total GULP energy -89096.666942 kJ/mol
# GULP energy per Si atom -5568.541684 kJ/mol
# Density = 2.006591 g / cm^3
# Si number density = 20.111685 Si / 1000 Ang^3
#
#
#
# Elastic Constant Matrix: (Units=GPa)
#
#
# Indices 1 2 3 4 5 6 
#
# 1 89.5666 64.2926 35.1446 0.0000 -8.4167 0.0000
# 2 64.2926 167.4162 42.7240 0.0000 -16.2087 0.0000
# 3 35.1446 42.7240 69.0809 0.0000 -16.7911 0.0000
# 4 0.0000 0.0000 0.0000 27.8544 0.0000 3.6650
# 5 -8.4167 -16.2087 -16.7911 0.0000 16.1879 0.0000
# 6 0.0000 0.0000 0.0000 3.6650 0.0000 45.1214
#
#
#
# Elastic Compliance Matrix: (Units=1/GPa)
#
#
# Indices 1 2 3 4 5 6 
#
# 1 0.017082 -0.005268 -0.006091 0.000000 -0.002712 0.000000
# 2 -0.005268 0.008861 -0.001751 0.000000 0.004317 0.000000
# 3 -0.006091 -0.001751 0.023348 0.000000 0.019298 0.000000
# 4 0.000000 0.000000 0.000000 0.036289 0.000000 -0.002948
# 5 -0.002712 0.004317 0.019298 0.000000 0.084705 0.000000
# 6 0.000000 0.000000 0.000000 -0.002948 0.000000 0.022402
#
#
# Mechanical properties :
#
#
# Convention : Reuss Voigt Hill
#
# Bulk Modulus (GPa) = 43.34471 67.82067 55.58269
# Shear Modulus (GPa) = 22.06566 30.09289 26.07927
#
# Velocity S-wave (km/s) = 3.31593 3.87239 3.60491
# Velocity P-wave (km/s) = 6.02157 7.33410 6.71001
#
# Compressibility (1/GPa) = 0.02307086
#
# Stress axis : x y z
#
# Youngs Moduli (GPa) = 58.54265 112.85495 42.82992
#
# Poissons Ratio (x) = 0.59450 0.26089
# Poissons Ratio (y) = 0.30839 0.07498
# Poissons Ratio (z) = 0.35660 0.19758
#
# Static dielectric constant tensor:
#      x y z
#    x 1.848740 0.000000 -0.043730 
#    y 0.000000 1.726680 0.000000 
#    z -0.043730 0.000000 1.766760 
# 
# From -- ./inp_files/8390.got.cif
#   From: 2010.05.17/outbox.cif.g08.bks.cpg/sg9_5_cif.got.tgz:8390.got - 2010.06.03 20:04:27.
