data_PCOD9135853
_publ_section_title
;
Structure prediction by ZEFSAII (Michael W. Deem and Ramdas Pophale) SiO2 
 PCOD9135853
Probable space group: C C
;
_chemical_formula_sum "Si O2"
_cell_formula_units_Z 32
_cell_length_a 5.349275
_cell_length_b 19.203050
_cell_length_c 12.271980
_cell_angle_alpha 90.000000
_cell_angle_beta 71.761448
_cell_angle_gamma 90.000000
_cell_volume 1197.276392
_symmetry_space_group_name_H-M "C C"
_symmetry_group_IT_number 9
_symmetry_cell_setting 'monoclinic'
loop_
_space_group_symop_operation_xyz
x,y,z
x,-y,1/2+z
1/2+x,1/2+y,z
1/2+x,1/2-y,1/2+z
loop_
_atom_site_type_symbol
_atom_site_label
_atom_site_fract_x
_atom_site_fract_y
_atom_site_fract_z
Si Si1 0.500000 0.995502 0.907950
Si Si2 0.683619 0.394562 0.795165
Si Si3 0.181145 0.329817 0.613864
Si Si4 0.726501 0.732035 0.415475
Si Si5 0.991563 0.966937 0.235194
Si Si6 0.909471 0.382590 0.054366
Si Si7 0.765371 0.283620 0.262704
Si Si8 0.673200 0.388086 0.432313
O O1 0.301034 0.943701 0.874573
O O2 0.356440 0.061918 0.976501
O O3 0.608961 0.943658 0.987157
O O4 0.679343 0.032355 0.791921
O O5 0.566787 0.323694 0.864360
O O6 0.533050 0.450053 0.742318
O O7 0.934079 0.368148 0.695042
O O8 0.098034 0.275472 0.530529
O O9 0.317669 0.288427 0.695078
O O10 0.403731 0.375478 0.529357
O O11 0.900802 0.677174 0.463948
O O12 0.938290 0.777247 0.315788
O O13 0.139911 0.927263 0.118187
O O14 0.097628 0.928363 0.330394
O O15 0.921935 0.337525 0.162897
O O16 0.812375 0.316098 0.375534
#
# Coordination Sequence:
#
# PCOD9135853 Si02
#       8
#     4   4   4   4   4   4   4   4
#     4  10  21  35  52  80 118 145 186 238 275 343
#     4   9  19  34  54  82 108 149 190 223 289 333
#     4   9  16  30  62  82 108 151 190 234 282 333
#     4   8  15  32  56  81 109 146 187 233 280 333
#     4  10  21  35  52  80 118 145 186 238 275 343
#     4   9  18  32  54  80 106 147 184 224 294 321
#     4   8  15  32  56  81 109 146 187 233 280 333
#     4   9  19  34  54  82 108 149 190 223 289 333
#
# _framework density 26.727329000000001
#
# number of rings (size 3 to 8) (size 9 to 14) (size 15 to 20)
#    0.000    3.000    0.000    0.000    3.500    0.000 
#    0.000    0.000    0.000   69.000    0.000    0.000 
#    0.000    0.000    0.000    0.000    0.000    0.000 
#
# Total GULP energy -89189.267214 kJ/mol
# GULP energy per Si atom -5574.329201 kJ/mol
# Density = 2.666650 g / cm^3
# Si number density = 26.727329 Si / 1000 Ang^3
#
#
#
# Elastic Constant Matrix: (Units=GPa)
#
#
# Indices 1 2 3 4 5 6 
#
# 1 36.2997 20.2053 20.8379 0.0000 14.0380 0.0000
# 2 20.2053 130.3086 43.3822 0.0000 -4.2815 0.0000
# 3 20.8379 43.3822 129.8858 0.0000 -2.9286 0.0000
# 4 0.0000 0.0000 0.0000 67.4313 0.0000 -5.5357
# 5 14.0380 -4.2815 -2.9286 0.0000 32.7634 0.0000
# 6 0.0000 0.0000 0.0000 -5.5357 0.0000 19.3338
#
#
#
# Elastic Compliance Matrix: (Units=1/GPa)
#
#
# Indices 1 2 3 4 5 6 
#
# 1 0.040575 -0.005169 -0.005201 0.000000 -0.018525 0.000000
# 2 -0.005169 0.009318 -0.002210 0.000000 0.003235 0.000000
# 3 -0.005201 -0.002210 0.009334 0.000000 0.002774 0.000000
# 4 0.000000 0.000000 0.000000 0.015187 0.000000 0.004348
# 5 -0.018525 0.003235 0.002774 0.000000 0.039130 0.000000
# 6 0.000000 0.000000 0.000000 0.004348 0.000000 0.052968
#
#
# Mechanical properties :
#
#
# Convention : Reuss Voigt Hill
#
# Bulk Modulus (GPa) = 29.35322 51.70500 40.52911
# Shear Modulus (GPa) = 24.62731 38.04362 31.33546
#
# Velocity S-wave (km/s) = 3.03880 3.77689 3.42777
# Velocity P-wave (km/s) = 4.82894 6.19735 5.55544
#
# Compressibility (1/GPa) = 0.03406782
#
# Stress axis : x y z
#
# Youngs Moduli (GPa) = 24.64559 107.32449 107.13359
#
# Poissons Ratio (x) = 0.55473 0.55719
# Poissons Ratio (y) = 0.12739 0.23676
# Poissons Ratio (z) = 0.12818 0.23718
#
# Static dielectric constant tensor:
#      x y z
#    x 2.285110 0.000000 0.062480 
#    y 0.000000 2.169450 0.000000 
#    z 0.062480 0.000000 2.090330 
# 
# From -- ./inp_files/22226.got.cif
#   From: 2010.05.17/outbox.cif.g08.bks.cpg/sg9_12_cif.got.tgz:22226.got - 2010.06.03 20:04:27.
