data_PCOD9135530
_publ_section_title
;
Structure prediction by ZEFSAII (Michael W. Deem and Ramdas Pophale) SiO2 
 PCOD9135530
Probable space group: C C
;
_chemical_formula_sum "Si O2"
_cell_formula_units_Z 32
_cell_length_a 9.174322
_cell_length_b 19.773577
_cell_length_c 11.731212
_cell_angle_alpha 90.000000
_cell_angle_beta 52.546394
_cell_angle_gamma 90.000000
_cell_volume 1689.422868
_symmetry_space_group_name_H-M "C C"
_symmetry_group_IT_number 9
_symmetry_cell_setting 'monoclinic'
loop_
_space_group_symop_operation_xyz
x,y,z
x,-y,1/2+z
1/2+x,1/2+y,z
1/2+x,1/2-y,1/2+z
loop_
_atom_site_type_symbol
_atom_site_label
_atom_site_fract_x
_atom_site_fract_y
_atom_site_fract_z
Si Si1 0.731150 0.394349 0.898360
Si Si2 0.590843 0.830285 0.671781
Si Si3 0.176173 0.858175 0.662368
Si Si4 0.470197 0.676934 0.696290
Si Si5 0.310600 0.047878 0.923259
Si Si6 0.572516 0.131010 0.933217
Si Si7 0.707310 0.337308 0.299682
Si Si8 0.952001 0.777606 0.608928
O O1 0.683455 0.378850 0.789432
O O2 0.773062 0.472000 0.905633
O O3 0.922552 0.355123 0.828387
O O4 0.569374 0.365167 0.051592
O O5 0.533880 0.754780 0.658686
O O6 0.607599 0.877840 0.552065
O O7 0.780859 0.822268 0.646441
O O8 0.167533 0.925236 0.587457
O O9 0.377377 0.829374 0.528761
O O10 0.025479 0.806043 0.693391
O O11 0.251021 0.667745 0.800340
O O12 0.554400 0.650500 0.776027
O O13 0.506872 0.065978 0.890460
O O14 0.278358 0.096918 0.831041
O O15 0.873728 0.297089 0.162027
O O16 0.610453 0.288878 0.439911
#
# Coordination Sequence:
#
# PCOD9135530 Si02
#       8
#     4   4   4   4   4   4   4   4
#     4  11  23  41  64  89 125 161 211 253 309 380
#     4  10  21  38  64  89 124 162 208 256 313 366
#     4   8  21  43  59  85 121 168 198 258 303 367
#     4  11  22  36  64  97 118 163 209 260 307 371
#     4   9  22  43  60  87 125 167 203 251 314 365
#     4   9  19  40  57  86 127 155 202 248 312 360
#     4  10  22  38  65  88 127 163 203 260 306 373
#     4  10  20  41  61  91 123 163 206 256 318 352
#
# _framework density 18.941379999999999
#
# number of rings (size 3 to 8) (size 9 to 14) (size 15 to 20)
#    0.750    1.500    1.250    0.750    7.000    3.000 
#    6.750    0.000    0.000    0.000    0.000    0.000 
#    0.000    0.000    0.000    0.000    0.000    0.000 
#
# Total GULP energy -89093.121661 kJ/mol
# GULP energy per Si atom -5568.320104 kJ/mol
# Density = 1.889827 g / cm^3
# Si number density = 18.941380 Si / 1000 Ang^3
#
#
#
# Elastic Constant Matrix: (Units=GPa)
#
#
# Indices 1 2 3 4 5 6 
#
# 1 100.6078 43.2927 39.3096 0.0000 -1.6872 0.0000
# 2 43.2927 76.4117 33.8517 0.0000 -3.9461 0.0000
# 3 39.3096 33.8517 85.6069 0.0000 0.4176 0.0000
# 4 0.0000 0.0000 0.0000 15.9432 0.0000 -0.0126
# 5 -1.6872 -3.9461 0.4176 0.0000 26.9735 0.0000
# 6 0.0000 0.0000 0.0000 -0.0126 0.0000 19.6311
#
#
#
# Elastic Compliance Matrix: (Units=1/GPa)
#
#
# Indices 1 2 3 4 5 6 
#
# 1 0.014217 -0.006257 -0.004054 0.000000 0.000037 0.000000
# 2 -0.006257 0.018780 -0.004565 0.000000 0.002427 0.000000
# 3 -0.004054 -0.004565 0.015354 0.000000 -0.001159 0.000000
# 4 0.000000 0.000000 0.000000 0.062723 0.000000 0.000040
# 5 0.000037 0.002427 -0.001159 0.000000 0.037449 0.000000
# 6 0.000000 0.000000 0.000000 0.000040 0.000000 0.050940
#
#
# Mechanical properties :
#
#
# Convention : Reuss Voigt Hill
#
# Bulk Modulus (GPa) = 53.76839 55.05939 54.41389
# Shear Modulus (GPa) = 21.23938 22.25438 21.74688
#
# Velocity S-wave (km/s) = 3.35225 3.43141 3.39206
# Velocity P-wave (km/s) = 6.59028 6.69559 6.64314
#
# Compressibility (1/GPa) = 0.01859829
#
# Stress axis : x y z
#
# Youngs Moduli (GPa) = 70.34031 53.24945 65.13108
#
# Poissons Ratio (x) = 0.33317 0.26405
# Poissons Ratio (y) = 0.44010 0.29731
# Poissons Ratio (z) = 0.28517 0.24308
#
# Static dielectric constant tensor:
#      x y z
#    x 1.695470 0.000000 0.017580 
#    y 0.000000 1.661850 0.000000 
#    z 0.017580 0.000000 1.676090 
# 
# From -- ./inp_files/15402.got.cif
#   From: 2010.05.17/outbox.cif.g08.bks.cpg/sg9_8_cif.got.tgz:15402.got - 2010.06.03 20:04:27.
