data_PCOD9135096
_publ_section_title
;
Structure prediction by ZEFSAII (Michael W. Deem and Ramdas Pophale) SiO2 
 PCOD9135096
Probable space group: C C
;
_chemical_formula_sum "Si O2"
_cell_formula_units_Z 28
_cell_length_a 25.686762
_cell_length_b 5.143574
_cell_length_c 16.610345
_cell_angle_alpha 90.000000
_cell_angle_beta 135.391523
_cell_angle_gamma 90.000000
_cell_volume 1541.167862
_symmetry_space_group_name_H-M "C C"
_symmetry_group_IT_number 9
_symmetry_cell_setting 'monoclinic'
loop_
_space_group_symop_operation_xyz
x,y,z
x,-y,1/2+z
1/2+x,1/2+y,z
1/2+x,1/2-y,1/2+z
loop_
_atom_site_type_symbol
_atom_site_label
_atom_site_fract_x
_atom_site_fract_y
_atom_site_fract_z
Si Si1 0.188200 0.070088 0.378560
Si Si2 0.627465 0.406850 0.473878
Si Si3 0.783862 0.381880 0.131755
Si Si4 0.691897 0.938565 0.775213
Si Si5 0.911011 0.558822 0.369017
Si Si6 0.833465 0.063114 0.325292
Si Si7 0.075472 0.401710 0.502631
O O1 0.129134 0.976370 0.381079
O O2 0.259231 0.142858 0.512776
O O3 0.168383 0.324256 0.306574
O O4 0.201187 0.826832 0.335089
O O5 0.713270 0.467911 0.593122
O O6 0.605137 0.116663 0.471891
O O7 0.577671 0.616845 0.465545
O O8 0.860173 0.530312 0.232530
O O9 0.794582 0.119070 0.195201
O O10 0.769894 0.001976 0.818253
O O11 0.631125 0.901932 0.639049
O O12 0.894379 0.840895 0.384974
O O13 0.994579 0.488187 0.442116
O O14 0.873500 0.339050 0.384297
#
# Coordination Sequence:
#
# PCOD9135096 Si02
#       7
#     4   4   4   4   4   4   4
#     4  10  23  34  62  85 117 140 197 236 288 322
#     4  10  21  38  61  85 109 152 199 235 269 345
#     4   8  21  37  62  78 113 146 196 239 270 324
#     4  12  21  36  61  87 113 150 188 237 286 342
#     4  10  21  35  62  84 113 143 200 237 272 335
#     4  10  20  37  61  84 110 148 200 230 276 331
#     4  12  21  37  63  85 113 153 194 230 291 335
#
# _framework density 18.168042
#
# number of rings (size 3 to 8) (size 9 to 14) (size 15 to 20)
#    1.714    0.000    1.429    4.286    2.000    0.000 
#    0.000    0.000   18.857    0.000    0.000    0.000 
#    0.000    0.000    0.000    0.000    0.000    0.000 
#
# Total GULP energy -77953.136683 kJ/mol
# GULP energy per Si atom -5568.081192 kJ/mol
# Density = 1.812669 g / cm^3
# Si number density = 18.168042 Si / 1000 Ang^3
#
#
#
# Elastic Constant Matrix: (Units=GPa)
#
#
# Indices 1 2 3 4 5 6 
#
# 1 53.6732 -2.6428 24.4726 0.0003 4.8423 -0.0007
# 2 -2.6428 70.8734 0.8141 0.0024 -15.0993 -0.0043
# 3 24.4726 0.8141 14.3086 -0.0004 2.3226 0.0008
# 4 0.0003 0.0024 -0.0004 -4.8081 0.0004 18.3719
# 5 4.8423 -15.0993 2.3226 0.0004 31.9243 -0.0007
# 6 -0.0007 -0.0043 0.0008 18.3719 -0.0007 15.6333
#
#
#
# Elastic Compliance Matrix: (Units=1/GPa)
#
#
# Indices 1 2 3 4 5 6 
#
# 1 0.086306 0.004916 -0.147891 0.000013 -0.000006 -0.000002
# 2 0.004916 0.016035 -0.010555 0.000006 0.007606 -0.000001
# 3 -0.147891 -0.010555 0.324435 -0.000027 -0.006164 0.000005
# 4 0.000013 0.000006 -0.000027 -0.037881 0.000004 0.044517
# 5 -0.000006 0.007606 -0.006164 0.000004 0.035371 -0.000001
# 6 -0.000002 -0.000001 0.000005 0.044517 -0.000001 0.011651
#
#
# Mechanical properties :
#
#
# Convention : Reuss Voigt Hill
#
# Bulk Modulus (GPa) = 8.35320 20.46031 14.40675
# Shear Modulus (GPa) = 6.38667 16.29732 11.34199
#
# Velocity S-wave (km/s) = 1.87696 2.99830 2.50128
# Velocity P-wave (km/s) = 3.05041 4.82416 4.03594
#
# Compressibility (1/GPa) = 0.11971463
#
# Stress axis : x y z
#
# Youngs Moduli (GPa) = 11.58670 62.36481 3.08228
#
# Poissons Ratio (x) = -0.30657 0.45584
# Poissons Ratio (y) = -0.05696 0.03253
# Poissons Ratio (z) = 1.71357 0.65823
#
# Static dielectric constant tensor:
#      x y z
#    x 1.617350 0.000000 -0.011360 
#    y 0.000000 1.637700 0.000000 
#    z -0.011360 0.000000 1.626700 
# 
# From -- ./inp_files/27591.got.cif
#   From: 2010.05.17/outbox.cif.g08.bks.cpg/sg9_14_cif.got.tgz:27591.got - 2010.06.03 20:04:27.
