data_PCOD9135890
_publ_section_title
;
Structure prediction by ZEFSAII (Michael W. Deem and Ramdas Pophale) SiO2 
 PCOD9135890
Probable space group: C C
;
_chemical_formula_sum "Si O2"
_cell_formula_units_Z 32
_cell_length_a 18.668490
_cell_length_b 8.973319
_cell_length_c 10.660146
_cell_angle_alpha 90.000000
_cell_angle_beta 132.555247
_cell_angle_gamma 90.000000
_cell_volume 1315.443613
_symmetry_space_group_name_H-M "C C"
_symmetry_group_IT_number 9
_symmetry_cell_setting 'monoclinic'
loop_
_space_group_symop_operation_xyz
x,y,z
x,-y,1/2+z
1/2+x,1/2+y,z
1/2+x,1/2-y,1/2+z
loop_
_atom_site_type_symbol
_atom_site_label
_atom_site_fract_x
_atom_site_fract_y
_atom_site_fract_z
Si Si1 0.219990 0.219512 0.338310
Si Si2 0.075193 0.021274 0.288122
Si Si3 0.741575 0.465681 0.183058
Si Si4 0.066598 0.538434 0.949183
Si Si5 0.242567 0.625547 0.595007
Si Si6 0.425738 0.738664 0.138373
Si Si7 0.646632 0.246913 0.233613
Si Si8 0.911912 0.322849 0.831760
O O1 0.120723 0.176612 0.287146
O O2 0.216965 0.314921 0.207035
O O3 0.310572 0.265521 0.530882
O O4 0.246411 0.054605 0.319296
O O5 0.146742 0.989954 0.489503
O O6 0.968523 0.072781 0.197558
O O7 0.078816 0.886361 0.194040
O O8 0.718612 0.301593 0.207056
O O9 0.834941 0.538347 0.225983
O O10 0.992582 0.654946 0.800168
O O11 0.010017 0.379886 0.883749
O O12 0.171555 0.517614 0.008479
O O13 0.087405 0.606471 0.111372
O O14 0.204795 0.708314 0.426652
O O15 0.356657 0.671330 0.726011
O O16 0.429782 0.797349 0.000092
#
# Coordination Sequence:
#
# PCOD9135890 Si02
#       8
#     4   4   4   4   4   4   4   4
#     4   9  20  36  63  88 123 175 206 259 335 392
#     4  11  18  38  67  91 133 165 217 273 334 391
#     4   9  18  36  63  94 124 170 215 256 333 403
#     4  12  23  39  67  99 130 173 235 274 326 407
#     4  10  22  41  64  92 132 176 221 272 337 395
#     4  10  21  36  62  93 125 165 219 266 322 396
#     4  11  22  39  66  98 129 173 223 277 333 407
#     4  10  22  41  66  93 132 181 214 273 342 395
#
# _framework density 24.326395000000002
#
# number of rings (size 3 to 8) (size 9 to 14) (size 15 to 20)
#    0.000    2.000    3.750    2.250    3.500    0.000 
#    0.000    2.500   13.750    0.000    0.000    0.000 
#    0.000    0.000    0.000    0.000    0.000    0.000 
#
# Total GULP energy -89099.166499 kJ/mol
# GULP energy per Si atom -5568.697906 kJ/mol
# Density = 2.427103 g / cm^3
# Si number density = 24.326395 Si / 1000 Ang^3
#
#
#
# Elastic Constant Matrix: (Units=GPa)
#
#
# Indices 1 2 3 4 5 6 
#
# 1 60.2472 46.1461 13.0578 0.0000 9.8965 0.0000
# 2 46.1461 56.4164 30.4447 0.0000 18.3855 0.0000
# 3 13.0578 30.4447 114.7203 0.0000 -2.8851 0.0000
# 4 0.0000 0.0000 0.0000 37.0732 0.0000 -1.3812
# 5 9.8965 18.3855 -2.8851 0.0000 27.5963 0.0000
# 6 0.0000 0.0000 0.0000 -1.3812 0.0000 49.3031
#
#
#
# Elastic Compliance Matrix: (Units=1/GPa)
#
#
# Indices 1 2 3 4 5 6 
#
# 1 0.053100 -0.053941 0.008719 0.000000 0.017806 0.000000
# 2 -0.053941 0.083358 -0.016937 0.000000 -0.037962 0.000000
# 3 0.008719 -0.016937 0.012457 0.000000 0.009459 0.000000
# 4 0.000000 0.000000 0.000000 0.027002 0.000000 0.000756
# 5 0.017806 -0.037962 0.009459 0.000000 0.056132 0.000000
# 6 0.000000 0.000000 0.000000 0.000756 0.000000 0.020304
#
#
# Mechanical properties :
#
#
# Convention : Reuss Voigt Hill
#
# Bulk Modulus (GPa) = 40.65569 45.63124 43.14347
# Shear Modulus (GPa) = 12.99142 32.24352 22.61747
#
# Velocity S-wave (km/s) = 2.31345 3.64463 3.05249
# Velocity P-wave (km/s) = 4.88722 6.04233 5.49521
#
# Compressibility (1/GPa) = 0.02459680
#
# Stress axis : x y z
#
# Youngs Moduli (GPa) = 18.83254 11.99641 80.27580
#
# Poissons Ratio (x) = 0.64710 -0.69992
# Poissons Ratio (y) = 1.01585 1.35961
# Poissons Ratio (z) = -0.16420 0.20318
#
# Static dielectric constant tensor:
#      x y z
#    x 2.024220 0.000000 0.052650 
#    y 0.000000 1.979380 0.000000 
#    z 0.052650 0.000000 1.913250 
# 
# From -- ./inp_files/17769.got.cif
#   From: 2010.05.17/outbox.cif.g08.bks.cpg/sg9_9_cif.got.tgz:17769.got - 2010.06.03 20:04:27.
