data_PCOD9135640
_publ_section_title
;
Structure prediction by ZEFSAII (Michael W. Deem and Ramdas Pophale) SiO2 
 PCOD9135640
Probable space group: C C
;
_chemical_formula_sum "Si O2"
_cell_formula_units_Z 20
_cell_length_a 18.832735
_cell_length_b 5.207052
_cell_length_c 10.623744
_cell_angle_alpha 90.000000
_cell_angle_beta 44.353508
_cell_angle_gamma 90.000000
_cell_volume 728.302619
_symmetry_space_group_name_H-M "C C"
_symmetry_group_IT_number 9
_symmetry_cell_setting 'monoclinic'
loop_
_space_group_symop_operation_xyz
x,y,z
x,-y,1/2+z
1/2+x,1/2+y,z
1/2+x,1/2-y,1/2+z
loop_
_atom_site_type_symbol
_atom_site_label
_atom_site_fract_x
_atom_site_fract_y
_atom_site_fract_z
Si Si1 0.686310 0.166885 0.914070
Si Si2 0.517406 0.055017 0.481614
Si Si3 0.880420 0.953085 0.593959
Si Si4 0.226445 0.170723 0.964491
Si Si5 0.400794 0.069931 0.383542
O O1 0.807336 0.178656 0.731142
O O2 0.629488 0.048580 0.866189
O O3 0.655544 0.441466 0.006274
O O4 0.674698 0.947156 0.035206
O O5 0.465355 0.956415 0.675953
O O6 0.491089 0.362488 0.504013
O O7 0.465540 0.954390 0.418501
O O8 0.883602 0.868506 0.444410
O O9 0.808231 0.732276 0.749872
O O10 0.293251 0.064792 0.993869
#
# Coordination Sequence:
#
# PCOD9135640 Si02
#       5
#     4   4   4   4   4
#     4  10  20  42  65  93 127 166 219 254 330 374
#     4   9  19  39  64  97 128 171 216 274 313 399
#     4   7  19  39  63  85 132 158 211 253 330 360
#     4   9  20  41  63  91 123 171 204 265 311 389
#     4   9  18  43  61  96 130 168 212 266 330 372
#
# _framework density 27.461116000000001
#
# number of rings (size 3 to 8) (size 9 to 14) (size 15 to 20)
#    2.400    0.800    0.000    0.000    0.000    1.600 
#   14.400    2.000    0.000    0.000    0.000    0.000 
#    0.000    0.000    0.000    0.000    0.000    0.000 
#
# Total GULP energy -55682.577243 kJ/mol
# GULP energy per Si atom -5568.257724 kJ/mol
# Density = 2.739861 g / cm^3
# Si number density = 27.461116 Si / 1000 Ang^3
#
#
#
# Elastic Constant Matrix: (Units=GPa)
#
#
# Indices 1 2 3 4 5 6 
#
# 1 193.5467 12.3814 22.1683 -0.0003 18.1054 0.0000
# 2 12.3814 76.1156 -9.9372 -0.0104 -1.8282 0.0065
# 3 22.1683 -9.9372 77.1379 -0.0046 18.0250 0.0022
# 4 -0.0003 -0.0104 -0.0046 13.7300 0.0014 2.0762
# 5 18.1054 -1.8282 18.0250 0.0014 42.4992 0.0001
# 6 0.0000 0.0065 0.0022 2.0762 0.0001 39.8032
#
#
#
# Elastic Compliance Matrix: (Units=1/GPa)
#
#
# Indices 1 2 3 4 5 6 
#
# 1 0.005562 -0.001120 -0.001307 -0.000001 -0.001863 0.000000
# 2 -0.001120 0.013589 0.002025 0.000011 0.000203 -0.000003
# 3 -0.001307 0.002025 0.014930 0.000007 -0.005688 -0.000002
# 4 -0.000001 0.000011 0.000007 0.073412 -0.000005 -0.003829
# 5 -0.001863 0.000203 -0.005688 -0.000005 0.026745 0.000000
# 6 0.000000 -0.000003 -0.000002 -0.003829 0.000000 0.025323
#
#
# Mechanical properties :
#
#
# Convention : Reuss Voigt Hill
#
# Bulk Modulus (GPa) = 30.05146 44.00281 37.02713
# Shear Modulus (GPa) = 29.16151 40.68566 34.92358
#
# Velocity S-wave (km/s) = 3.26225 3.85330 3.57002
# Velocity P-wave (km/s) = 5.01565 5.98796 5.52324
#
# Compressibility (1/GPa) = 0.03327626
#
# Stress axis : x y z
#
# Youngs Moduli (GPa) = 179.77730 73.58671 66.98135
#
# Poissons Ratio (x) = 0.08244 0.08758
# Poissons Ratio (y) = 0.20140 -0.13565
# Poissons Ratio (z) = 0.23505 -0.14903
#
# Static dielectric constant tensor:
#      x y z
#    x 2.224620 0.000000 -0.030430 
#    y 0.000000 2.358090 0.000000 
#    z -0.030430 0.000000 2.172250 
# 
# From -- ./inp_files/18718.got.cif
#   From: 2010.05.17/outbox.cif.g08.bks.cpg/sg9_10_cif.got.tgz:18718.got - 2010.06.03 20:04:27.
