data_PCOD9135024
_publ_section_title
;
Structure prediction by ZEFSAII (Michael W. Deem and Ramdas Pophale) SiO2 
 PCOD9135024
Probable space group: C C
;
_chemical_formula_sum "Si O2"
_cell_formula_units_Z 28
_cell_length_a 9.613508
_cell_length_b 14.057406
_cell_length_c 13.994828
_cell_angle_alpha 90.000000
_cell_angle_beta 141.317969
_cell_angle_gamma 90.000000
_cell_volume 1182.042744
_symmetry_space_group_name_H-M "C C"
_symmetry_group_IT_number 9
_symmetry_cell_setting 'monoclinic'
loop_
_space_group_symop_operation_xyz
x,y,z
x,-y,1/2+z
1/2+x,1/2+y,z
1/2+x,1/2-y,1/2+z
loop_
_atom_site_type_symbol
_atom_site_label
_atom_site_fract_x
_atom_site_fract_y
_atom_site_fract_z
Si Si1 0.278530 0.027212 0.721770
Si Si2 0.075560 0.466467 0.060704
Si Si3 0.897095 0.719907 0.791571
Si Si4 0.477432 0.169230 0.046579
Si Si5 0.685407 0.325850 0.614146
Si Si6 0.778970 0.703930 0.386028
Si Si7 0.989896 0.146585 0.722712
O O1 0.369309 0.121631 0.720004
O O2 0.084823 0.077567 0.685403
O O3 0.220885 0.939366 0.622434
O O4 0.468143 0.993483 0.899034
O O5 0.321696 0.426819 0.183154
O O6 0.054115 0.562485 0.108349
O O7 0.921676 0.379641 0.010023
O O8 0.656521 0.761747 0.690933
O O9 0.016626 0.696707 0.955596
O O10 0.043246 0.790255 0.809581
O O11 0.208871 0.168922 0.903682
O O12 0.750205 0.314187 0.759438
O O13 0.427545 0.298366 0.470638
O O14 0.833427 0.244202 0.639071
#
# Coordination Sequence:
#
# PCOD9135024 Si02
#       7
#     4   4   4   4   4   4   4
#     4   9  21  36  63  92 116 175 203 253 326 373
#     4   8  18  34  59  89 108 162 206 240 308 373
#     4  10  21  37  58  89 125 160 205 254 319 377
#     4  10  22  36  61  89 121 169 197 261 318 372
#     4  10  21  38  64  90 120 164 210 260 315 377
#     4  10  20  36  62  89 121 160 208 261 309 381
#     4   9  19  37  61  88 121 150 219 251 299 383
#
# _framework density 23.687805999999998
#
# number of rings (size 3 to 8) (size 9 to 14) (size 15 to 20)
#    0.000    2.857    0.000    0.857   10.000    6.857 
#    0.000    2.857   28.286    0.000    0.000    0.000 
#    0.000    0.000    0.000    0.000    0.000    0.000 
#
# Total GULP energy -77965.758507 kJ/mol
# GULP energy per Si atom -5568.982751 kJ/mol
# Density = 2.363389 g / cm^3
# Si number density = 23.687806 Si / 1000 Ang^3
#
#
#
# Elastic Constant Matrix: (Units=GPa)
#
#
# Indices 1 2 3 4 5 6 
#
# 1 50.1528 40.5160 29.6730 0.0000 7.0765 0.0000
# 2 40.5160 57.2164 20.7572 0.0000 29.8301 0.0000
# 3 29.6730 20.7572 57.1450 0.0001 29.2104 0.0000
# 4 0.0000 0.0000 0.0001 36.2120 0.0000 -4.0568
# 5 7.0765 29.8301 29.2104 0.0000 27.0785 0.0000
# 6 0.0000 0.0000 0.0000 -4.0568 0.0000 3.1224
#
#
#
# Elastic Compliance Matrix: (Units=1/GPa)
#
#
# Indices 1 2 3 4 5 6 
#
# 1 -0.015486 0.034194 0.028549 0.000000 -0.064418 0.000000
# 2 0.034194 -0.023596 -0.039911 0.000000 0.060111 0.000001
# 3 0.028549 -0.039911 -0.003318 0.000000 0.040085 0.000000
# 4 0.000000 0.000000 0.000000 0.032320 0.000000 0.041992
# 5 -0.064418 0.060111 0.040085 0.000000 -0.055696 0.000000
# 6 0.000000 0.000001 0.000000 0.041992 0.000000 0.374831
#
#
# Mechanical properties :
#
#
# Convention : Reuss Voigt Hill
#
# Bulk Modulus (GPa) = 306.35858 38.48963 172.42410
# Shear Modulus (GPa) = 18.90510 18.18709 18.54610
#
# Velocity S-wave (km/s) = 2.82812 2.77390 2.80114
# Velocity P-wave (km/s) = 11.84385 5.15202 9.13291
#
# Compressibility (1/GPa) = 0.00326415
#
# Stress axis : x y z
#
# Youngs Moduli (GPa) = -64.57293 -42.38020 -301.41747
#
# Poissons Ratio (x) = 1.44914 8.60521
# Poissons Ratio (y) = 2.20800 -12.02987
# Poissons Ratio (z) = 1.84350 -1.69144
#
# Static dielectric constant tensor:
#      x y z
#    x 1.994930 0.000000 -0.035100 
#    y 0.000000 1.995560 0.000000 
#    z -0.035100 0.000000 1.856430 
# 
# From -- ./inp_files/20338.got.cif
#   From: 2010.05.17/outbox.cif.g08.bks.cpg/sg9_11_cif.got.tgz:20338.got - 2010.06.03 20:04:27.
