data_PCOD9135975
_publ_section_title
;
Structure prediction by ZEFSAII (Michael W. Deem and Ramdas Pophale) SiO2 
 PCOD9135975
Probable space group: C C
;
_chemical_formula_sum "Si O2"
_cell_formula_units_Z 28
_cell_length_a 7.842434
_cell_length_b 16.081752
_cell_length_c 14.304839
_cell_angle_alpha 90.000000
_cell_angle_beta 144.190392
_cell_angle_gamma 90.000000
_cell_volume 1055.583542
_symmetry_space_group_name_H-M "C C"
_symmetry_group_IT_number 9
_symmetry_cell_setting 'monoclinic'
loop_
_space_group_symop_operation_xyz
x,y,z
x,-y,1/2+z
1/2+x,1/2+y,z
1/2+x,1/2-y,1/2+z
loop_
_atom_site_type_symbol
_atom_site_label
_atom_site_fract_x
_atom_site_fract_y
_atom_site_fract_z
Si Si1 0.205500 0.326877 0.912900
Si Si2 0.837398 0.164729 0.684906
Si Si3 0.864007 0.564148 0.982745
Si Si4 0.783994 0.084895 0.992790
Si Si5 0.875381 0.487169 0.690643
Si Si6 0.721592 0.217687 0.162535
Si Si7 0.328730 0.751014 0.017212
O O1 0.033627 0.248222 0.790355
O O2 0.090427 0.409999 0.814460
O O3 0.178140 0.334224 0.013199
O O4 0.548572 0.301922 0.063932
O O5 0.561131 0.178647 0.627975
O O6 0.052613 0.088982 0.800336
O O7 0.097824 0.549419 0.003598
O O8 0.836947 0.506373 0.061203
O O9 0.988259 0.649549 0.084108
O O10 0.905228 0.171672 0.989443
O O11 0.532010 0.064743 0.805716
O O12 0.071145 0.029487 0.107814
O O13 0.001819 0.224048 0.349898
O O14 0.834867 0.190318 0.110546
#
# Coordination Sequence:
#
# PCOD9135975 Si02
#       7
#     4   4   4   4   4   4   4
#     4  11  21  41  66 103 139 193 236 298 366 434
#     4  11  22  39  72 103 145 178 237 311 371 425
#     4  10  25  50  71 107 143 191 248 307 369 436
#     4  11  28  47  72 106 146 194 255 298 356 463
#     4  12  27  49  74  99 150 202 252 300 370 440
#     4  10  21  37  68 101 139 174 233 297 363 429
#     4  11  22  39  65 107 138 176 233 295 365 427
#
# _framework density 26.525611000000001
#
# number of rings (size 3 to 8) (size 9 to 14) (size 15 to 20)
#    0.000    1.143    1.429    6.000    8.000    1.143 
#    0.000    0.000    0.000    0.000    0.000    0.000 
#    0.000    0.000    0.000    0.000    0.000    0.000 
#
# Total GULP energy -78005.693408 kJ/mol
# GULP energy per Si atom -5571.835243 kJ/mol
# Density = 2.646524 g / cm^3
# Si number density = 26.525611 Si / 1000 Ang^3
#
#
#
# Elastic Constant Matrix: (Units=GPa)
#
#
# Indices 1 2 3 4 5 6 
#
# 1 135.1122 35.3419 30.5375 -0.0020 -3.2518 0.0026
# 2 35.3419 60.9593 16.5408 0.0017 0.6352 0.0008
# 3 30.5375 16.5408 91.6711 0.0030 15.5212 0.0048
# 4 -0.0020 0.0017 0.0030 115.7080 0.0040 -30.4735
# 5 -3.2518 0.6352 15.5212 0.0040 71.6938 0.0012
# 6 0.0026 0.0008 0.0048 -30.4735 0.0012 29.1490
#
#
#
# Elastic Compliance Matrix: (Units=1/GPa)
#
#
# Indices 1 2 3 4 5 6 
#
# 1 0.009190 -0.004692 -0.002379 0.000000 0.000974 0.000000
# 2 -0.004692 0.019665 -0.001993 0.000000 0.000044 0.000000
# 3 -0.002379 -0.001993 0.012536 -0.000001 -0.002804 -0.000003
# 4 0.000000 0.000000 -0.000001 0.011926 -0.000001 0.012468
# 5 0.000974 0.000044 -0.002804 -0.000001 0.014599 -0.000001
# 6 0.000000 0.000000 -0.000003 0.012468 -0.000001 0.047341
#
#
# Mechanical properties :
#
#
# Convention : Reuss Voigt Hill
#
# Bulk Modulus (GPa) = 42.98972 50.28700 46.63836
# Shear Modulus (GPa) = 35.42584 56.99830 46.21207
#
# Velocity S-wave (km/s) = 3.65846 4.64055 4.17846
# Velocity P-wave (km/s) = 5.83848 6.90738 6.39530
#
# Compressibility (1/GPa) = 0.02326137
#
# Stress axis : x y z
#
# Youngs Moduli (GPa) = 108.81493 50.85141 79.77314
#
# Poissons Ratio (x) = 0.23862 0.18982
# Poissons Ratio (y) = 0.51061 0.15896
# Poissons Ratio (z) = 0.25892 0.10133
#
# Static dielectric constant tensor:
#      x y z
#    x 2.311450 -0.000010 -0.106620 
#    y -0.000010 0.948580 0.000000 
#    z -0.106620 0.000000 2.070720 
# 
# From -- ./inp_files/5678.got.cif
#   From: 2010.05.17/outbox.cif.g08.bks.cpg/sg9_3_cif.got.tgz:5678.got - 2010.06.03 20:04:27.
