data_PCOD9135705
_publ_section_title
;
Structure prediction by ZEFSAII (Michael W. Deem and Ramdas Pophale) SiO2 
 PCOD9135705
Probable space group: C C
;
_chemical_formula_sum "Si O2"
_cell_formula_units_Z 28
_cell_length_a 7.212349
_cell_length_b 12.549416
_cell_length_c 13.947791
_cell_angle_alpha 90.000000
_cell_angle_beta 83.967443
_cell_angle_gamma 90.000000
_cell_volume 1255.434391
_symmetry_space_group_name_H-M "C C"
_symmetry_group_IT_number 9
_symmetry_cell_setting 'monoclinic'
loop_
_space_group_symop_operation_xyz
x,y,z
x,-y,1/2+z
1/2+x,1/2+y,z
1/2+x,1/2-y,1/2+z
loop_
_atom_site_type_symbol
_atom_site_label
_atom_site_fract_x
_atom_site_fract_y
_atom_site_fract_z
Si Si1 0.418000 0.725626 0.106200
Si Si2 0.342235 0.255869 0.104017
Si Si3 0.663802 0.109280 0.000592
Si Si4 0.649479 0.414597 0.073743
Si Si5 0.905738 0.476622 0.909538
Si Si6 0.879001 0.759614 0.330766
Si Si7 0.758772 0.364374 0.269768
O O1 0.635169 0.737528 0.078624
O O2 0.298670 0.815844 0.056889
O O3 0.363342 0.762574 0.216482
O O4 0.326829 0.617408 0.071634
O O5 0.447218 0.364940 0.069074
O O6 0.335446 0.259737 0.219910
O O7 0.484345 0.165270 0.059766
O O8 0.734590 0.176417 0.904780
O O9 0.388805 0.066981 0.829927
O O10 0.587132 0.998226 0.964690
O O11 0.685030 0.438441 0.184179
O O12 0.724891 0.490334 0.988163
O O13 0.899443 0.362778 0.859953
O O14 0.076705 0.819305 0.330905
#
# Coordination Sequence:
#
# PCOD9135705 Si02
#       7
#     4   4   4   4   4   4   4
#     4   9  19  44  66  97 138 183 229 287 350 414
#     4  10  20  42  74  87 142 189 220 295 356 408
#     4  11  24  41  68 105 135 183 233 289 357 419
#     4   8  20  42  61 102 135 177 231 287 343 416
#     4  12  23  41  75 101 140 182 237 293 352 421
#     4  11  22  47  67  99 144 179 233 295 349 426
#     4   9  22  41  69  99 138 183 235 282 349 426
#
# _framework density 22.303039999999999
#
# number of rings (size 3 to 8) (size 9 to 14) (size 15 to 20)
#    0.857    1.143    4.286    0.857    4.000    0.000 
#    2.571    2.857    3.143    0.000    0.000    0.000 
#    0.000    0.000    0.000    0.000    0.000    0.000 
#
# Total GULP energy -78052.142396 kJ/mol
# GULP energy per Si atom -5575.153028 kJ/mol
# Density = 2.225228 g / cm^3
# Si number density = 22.303040 Si / 1000 Ang^3
#
#
#
# Elastic Constant Matrix: (Units=GPa)
#
#
# Indices 1 2 3 4 5 6 
#
# 1 96.9790 0.5618 15.1655 0.0000 -8.7732 0.0000
# 2 0.5618 50.9504 21.2206 0.0000 1.5531 0.0000
# 3 15.1655 21.2206 82.8076 0.0000 -16.8863 0.0000
# 4 0.0000 0.0000 0.0000 12.3529 0.0000 -2.0873
# 5 -8.7732 1.5531 -16.8863 0.0000 24.4824 0.0000
# 6 0.0000 0.0000 0.0000 -2.0873 0.0000 19.3567
#
#
#
# Elastic Compliance Matrix: (Units=1/GPa)
#
#
# Indices 1 2 3 4 5 6 
#
# 1 0.010799 0.000428 -0.001517 0.000000 0.002796 0.000000
# 2 0.000428 0.022812 -0.007201 0.000000 -0.006261 0.000000
# 3 -0.001517 -0.007201 0.016503 0.000000 0.011296 0.000000
# 4 0.000000 0.000000 0.000000 0.082455 0.000000 0.008891
# 5 0.002796 -0.006261 0.011296 0.000000 0.050036 0.000000
# 6 0.000000 0.000000 0.000000 0.008891 0.000000 0.052620
#
#
# Mechanical properties :
#
#
# Convention : Reuss Voigt Hill
#
# Bulk Modulus (GPa) = 29.82111 33.84808 31.83460
# Shear Modulus (GPa) = 19.01251 24.15767 21.58509
#
# Velocity S-wave (km/s) = 2.92286 3.29470 3.11434
# Velocity P-wave (km/s) = 4.97903 5.44819 5.21889
#
# Compressibility (1/GPa) = 0.03353329
#
# Stress axis : x y z
#
# Youngs Moduli (GPa) = 92.59902 43.83615 60.59564
#
# Poissons Ratio (x) = -0.01874 0.09193
# Poissons Ratio (y) = -0.03959 0.43635
# Poissons Ratio (z) = 0.14048 0.31566
#
# Static dielectric constant tensor:
#      x y z
#    x 1.816670 0.000000 0.021160 
#    y 0.000000 1.904890 0.000000 
#    z 0.021160 0.000000 1.879450 
# 
# From -- ./inp_files/22582.got.cif
#   From: 2010.05.17/outbox.cif.g08.bks.cpg/sg9_12_cif.got.tgz:22582.got - 2010.06.03 20:04:27.
