data_PCOD9135713
_publ_section_title
;
Structure prediction by ZEFSAII (Michael W. Deem and Ramdas Pophale) SiO2 
 PCOD9135713
Probable space group: C C
;
_chemical_formula_sum "Si O2"
_cell_formula_units_Z 32
_cell_length_a 24.038224
_cell_length_b 4.947649
_cell_length_c 25.373509
_cell_angle_alpha 90.000000
_cell_angle_beta 148.524082
_cell_angle_gamma 90.000000
_cell_volume 1575.683100
_symmetry_space_group_name_H-M "C C"
_symmetry_group_IT_number 9
_symmetry_cell_setting 'monoclinic'
loop_
_space_group_symop_operation_xyz
x,y,z
x,-y,1/2+z
1/2+x,1/2+y,z
1/2+x,1/2-y,1/2+z
loop_
_atom_site_type_symbol
_atom_site_label
_atom_site_fract_x
_atom_site_fract_y
_atom_site_fract_z
Si Si1 0.150020 0.228776 0.991300
Si Si2 0.466509 0.605360 0.191367
Si Si3 0.381450 0.928606 0.679481
Si Si4 0.158714 0.539371 0.698897
Si Si5 0.580381 0.803507 0.375514
Si Si6 0.406248 0.511924 0.921783
Si Si7 0.529669 0.446762 0.126443
Si Si8 0.035001 0.478751 0.494197
O O1 0.160777 0.455853 0.954241
O O2 0.097859 0.960074 0.924855
O O3 0.264864 0.138598 0.105213
O O4 0.085080 0.388068 0.983161
O O5 0.431533 0.340071 0.195133
O O6 0.571705 0.715305 0.307324
O O7 0.485783 0.541235 0.146793
O O8 0.381073 0.842561 0.133578
O O9 0.462796 0.059303 0.787124
O O10 0.119145 0.842608 0.678242
O O11 0.126078 0.465431 0.612645
O O12 0.085536 0.343237 0.675116
O O13 0.282047 0.493024 0.809747
O O14 0.439053 0.439348 0.008223
O O15 0.446078 0.814749 0.943649
O O16 0.478178 0.310448 0.944338
#
# Coordination Sequence:
#
# PCOD9135713 Si02
#       8
#     4   4   4   4   4   4   4   4
#     4  12  22  41  64  90 122 175 201 255 314 364
#     4  10  20  43  58  89 131 165 193 275 296 355
#     4  10  22  40  60  86 130 161 212 254 297 367
#     4  10  21  40  63  91 120 157 201 258 305 379
#     4  10  22  40  59  88 128 159 210 255 296 366
#     4  10  21  42  61  92 120 155 202 257 306 376
#     4  10  21  39  63  88 126 155 204 249 314 363
#     4  10  23  39  62  90 123 153 205 257 304 362
#
# _framework density 20.308651000000001
#
# number of rings (size 3 to 8) (size 9 to 14) (size 15 to 20)
#    0.750    1.000    1.250    3.000    0.000    1.000 
#    9.000    2.500    0.000    0.000    0.000    0.000 
#    0.000    0.000    0.000    0.000    0.000    0.000 
#
# Total GULP energy -89251.999457 kJ/mol
# GULP energy per Si atom -5578.249966 kJ/mol
# Density = 2.026243 g / cm^3
# Si number density = 20.308651 Si / 1000 Ang^3
#
#
#
# Elastic Constant Matrix: (Units=GPa)
#
#
# Indices 1 2 3 4 5 6 
#
# 1 36.8720 -1.8680 15.5933 -0.0053 -3.4651 -0.0068
# 2 -1.8680 104.9211 21.0575 0.0086 -2.9763 0.0005
# 3 15.5933 21.0575 115.8756 -0.0014 9.0787 0.0053
# 4 -0.0053 0.0086 -0.0014 24.9847 0.0008 -2.1031
# 5 -3.4651 -2.9763 9.0787 0.0008 8.7875 0.0071
# 6 -0.0068 0.0005 0.0053 -2.1031 0.0071 21.7740
#
#
#
# Elastic Compliance Matrix: (Units=1/GPa)
#
#
# Indices 1 2 3 4 5 6 
#
# 1 0.031747 0.002382 -0.006255 0.000005 0.019788 0.000006
# 2 0.002382 0.010337 -0.002771 -0.000004 0.007303 -0.000002
# 3 -0.006255 -0.002771 0.011144 0.000001 -0.014919 0.000000
# 4 0.000005 -0.000004 0.000001 0.040353 -0.000007 0.003898
# 5 0.019788 0.007303 -0.014919 -0.000007 0.139488 -0.000036
# 6 0.000006 -0.000002 0.000000 0.003898 -0.000036 0.046303
#
#
# Mechanical properties :
#
#
# Convention : Reuss Voigt Hill
#
# Bulk Modulus (GPa) = 25.03858 36.35935 30.69897
# Shear Modulus (GPa) = 16.34132 25.96828 21.15480
#
# Velocity S-wave (km/s) = 2.83971 3.57974 3.23098
# Velocity P-wave (km/s) = 4.80705 5.91847 5.39148
#
# Compressibility (1/GPa) = 0.03993836
#
# Stress axis : x y z
#
# Youngs Moduli (GPa) = 31.49951 96.74238 89.73300
#
# Poissons Ratio (x) = -0.23044 0.56131
# Poissons Ratio (y) = -0.07503 0.24867
# Poissons Ratio (z) = 0.19704 0.26809
#
# Static dielectric constant tensor:
#      x y z
#    x 1.719900 -0.000010 -0.021130 
#    y -0.000010 1.724930 -0.000010 
#    z -0.021130 -0.000010 1.730840 
# 
# From -- ./inp_files/36988.got.cif
#   From: 2010.05.17/outbox.cif.g08.bks.cpg/sg9_19_cif.got.tgz:36988.got - 2010.06.03 20:04:27.
