data_PCOD9135338
_publ_section_title
;
Structure prediction by ZEFSAII (Michael W. Deem and Ramdas Pophale) SiO2 
 PCOD9135338
Probable space group: C C
;
_chemical_formula_sum "Si O2"
_cell_formula_units_Z 32
_cell_length_a 22.461623
_cell_length_b 7.758314
_cell_length_c 12.482247
_cell_angle_alpha 90.000000
_cell_angle_beta 36.030245
_cell_angle_gamma 90.000000
_cell_volume 1279.485324
_symmetry_space_group_name_H-M "C C"
_symmetry_group_IT_number 9
_symmetry_cell_setting 'monoclinic'
loop_
_space_group_symop_operation_xyz
x,y,z
x,-y,1/2+z
1/2+x,1/2+y,z
1/2+x,1/2-y,1/2+z
loop_
_atom_site_type_symbol
_atom_site_label
_atom_site_fract_x
_atom_site_fract_y
_atom_site_fract_z
Si Si1 0.981490 0.324386 0.089870
Si Si2 0.590629 0.820670 0.502931
Si Si3 0.974038 0.844285 0.371309
Si Si4 0.309519 0.058704 0.304535
Si Si5 0.258584 0.702531 0.079057
Si Si6 0.647442 0.336049 0.444208
Si Si7 0.456697 0.350926 0.031241
Si Si8 0.249777 0.488822 0.899503
O O1 0.866213 0.386557 0.262502
O O2 0.041368 0.497347 0.037696
O O3 0.992470 0.267826 0.950813
O O4 0.027272 0.182104 0.104035
O O5 0.535964 0.743337 0.686832
O O6 0.554006 0.693061 0.462206
O O7 0.700930 0.877524 0.383577
O O8 0.857905 0.838721 0.502867
O O9 0.995612 0.041421 0.373415
O O10 0.208153 0.005196 0.390098
O O11 0.285478 0.164962 0.445813
O O12 0.391488 0.173098 0.117752
O O13 0.183129 0.785331 0.272526
O O14 0.223594 0.539893 0.059713
O O15 0.694251 0.187171 0.451088
O O16 0.370638 0.479897 0.208733
#
# Coordination Sequence:
#
# PCOD9135338 Si02
#       8
#     4   4   4   4   4   4   4   4
#     4  10  21  38  66  93 124 175 220 271 335 390
#     4  10  22  41  62  92 137 171 223 285 323 388
#     4  12  20  39  65  93 132 179 214 273 336 396
#     4  10  21  42  63  98 135 172 220 279 337 396
#     4  11  21  38  63  92 132 173 213 273 332 392
#     4  11  22  41  66  92 132 172 222 277 336 392
#     4  10  21  38  63  94 128 174 220 266 336 393
#     4  10  20  39  64  92 124 174 218 270 331 395
#
# _framework density 25.010055999999999
#
# number of rings (size 3 to 8) (size 9 to 14) (size 15 to 20)
#    0.000    1.500    6.250    0.750    0.000    2.000 
#    2.250    2.500    0.000   10.500    0.000    0.000 
#    0.000    0.000    0.000    0.000    0.000    0.000 
#
# Total GULP energy -89415.513227 kJ/mol
# GULP energy per Si atom -5588.469577 kJ/mol
# Density = 2.495313 g / cm^3
# Si number density = 25.010056 Si / 1000 Ang^3
#
#
#
# Elastic Constant Matrix: (Units=GPa)
#
#
# Indices 1 2 3 4 5 6 
#
# 1 207.7867 67.6517 40.0009 -0.0001 -2.0026 0.0000
# 2 67.6517 116.6834 27.0421 -0.0007 12.1289 0.0004
# 3 40.0009 27.0421 40.3964 -0.0004 16.4506 0.0002
# 4 -0.0001 -0.0007 -0.0004 31.5760 0.0003 2.2749
# 5 -2.0026 12.1289 16.4506 0.0003 48.5784 -0.0001
# 6 0.0000 0.0004 0.0002 2.2749 -0.0001 61.1071
#
#
#
# Elastic Compliance Matrix: (Units=1/GPa)
#
#
# Indices 1 2 3 4 5 6 
#
# 1 0.007001 -0.002939 -0.006243 0.000000 0.003136 0.000000
# 2 -0.002939 0.011380 -0.004062 0.000000 -0.001587 0.000000
# 3 -0.006243 -0.004062 0.038682 0.000000 -0.012342 0.000000
# 4 0.000000 0.000000 0.000000 0.031755 0.000000 -0.001182
# 5 0.003136 -0.001587 -0.012342 0.000000 0.025290 0.000000
# 6 0.000000 0.000000 0.000000 -0.001182 0.000000 0.016409
#
#
# Mechanical properties :
#
#
# Convention : Reuss Voigt Hill
#
# Bulk Modulus (GPa) = 32.70501 70.47285 51.58893
# Shear Modulus (GPa) = 29.90475 43.59709 36.75092
#
# Velocity S-wave (km/s) = 3.46165 4.17967 3.83749
# Velocity P-wave (km/s) = 5.39282 7.17857 6.34879
#
# Compressibility (1/GPa) = 0.03057635
#
# Stress axis : x y z
#
# Youngs Moduli (GPa) = 142.82802 87.87103 25.85170
#
# Poissons Ratio (x) = 0.25821 0.16139
# Poissons Ratio (y) = 0.41970 0.10502
# Poissons Ratio (z) = 0.89168 0.35695
#
# Static dielectric constant tensor:
#      x y z
#    x 1.961930 0.000000 -0.067450 
#    y 0.000000 2.091960 0.000000 
#    z -0.067450 0.000000 2.019220 
# 
# From -- ./inp_files/20004.got.cif
#   From: 2010.05.17/outbox.cif.g08.bks.cpg/sg9_11_cif.got.tgz:20004.got - 2010.06.03 20:04:27.
