data_PCOD9135453
_publ_section_title
;
Structure prediction by ZEFSAII (Michael W. Deem and Ramdas Pophale) SiO2 
 PCOD9135453
Probable space group: C C
;
_chemical_formula_sum "Si O2"
_cell_formula_units_Z 32
_cell_length_a 11.464540
_cell_length_b 7.846840
_cell_length_c 23.104283
_cell_angle_alpha 90.000000
_cell_angle_beta 137.987234
_cell_angle_gamma 90.000000
_cell_volume 1391.112541
_symmetry_space_group_name_H-M "C C"
_symmetry_group_IT_number 9
_symmetry_cell_setting 'monoclinic'
loop_
_space_group_symop_operation_xyz
x,y,z
x,-y,1/2+z
1/2+x,1/2+y,z
1/2+x,1/2-y,1/2+z
loop_
_atom_site_type_symbol
_atom_site_label
_atom_site_fract_x
_atom_site_fract_y
_atom_site_fract_z
Si Si1 0.618800 0.838549 0.139580
Si Si2 0.808536 0.532335 0.727864
Si Si3 0.189415 0.277053 0.045366
Si Si4 0.818757 0.269850 0.110961
Si Si5 0.971880 0.977749 0.313113
Si Si6 0.492474 0.418134 0.948307
Si Si7 0.518907 0.572761 0.706266
Si Si8 0.650685 0.115814 0.402363
O O1 0.704528 0.648034 0.179077
O O2 0.581584 0.862671 0.058064
O O3 0.446301 0.864495 0.112999
O O4 0.772199 0.959270 0.218918
O O5 0.820954 0.640178 0.674069
O O6 0.685066 0.615435 0.730177
O O7 0.999758 0.510588 0.825264
O O8 0.382599 0.272433 0.146354
O O9 0.200009 0.376404 0.988335
O O10 0.096890 0.094548 0.001332
O O11 0.901653 0.084356 0.142158
O O12 0.622567 0.271930 0.016735
O O13 0.071574 0.999819 0.288891
O O14 0.051852 0.795532 0.359216
O O15 0.975247 0.086130 0.372543
O O16 0.315852 0.407446 0.920716
#
# Coordination Sequence:
#
# PCOD9135453 Si02
#       8
#     4   4   4   4   4   4   4   4
#     4   9  19  39  64  88 123 168 215 260 315 376
#     4  10  20  40  65  90 126 169 215 267 313 378
#     4  10  21  42  64  90 131 170 205 271 323 377
#     4  11  22  38  65  97 122 170 221 257 321 389
#     4   9  21  42  60  92 129 168 214 267 318 381
#     4  11  22  41  66  96 130 170 215 264 329 381
#     4  10  23  43  63  95 132 168 219 264 321 382
#     4  10  22  39  67  92 125 173 214 260 332 378
#
# _framework density 23.003170999999998
#
# number of rings (size 3 to 8) (size 9 to 14) (size 15 to 20)
#    0.000    2.000    1.250    1.500    1.750    3.000 
#   18.000    0.000    0.000    0.000    0.000    0.000 
#    0.000    0.000    0.000    0.000    0.000    0.000 
#
# Total GULP energy -89253.024228 kJ/mol
# GULP energy per Si atom -5578.314014 kJ/mol
# Density = 2.295081 g / cm^3
# Si number density = 23.003171 Si / 1000 Ang^3
#
#
#
# Elastic Constant Matrix: (Units=GPa)
#
#
# Indices 1 2 3 4 5 6 
#
# 1 195.0497 16.6187 52.8153 0.0000 -3.5806 0.0000
# 2 16.6187 48.3854 18.1369 0.0000 -0.6223 0.0000
# 3 52.8153 18.1369 93.4569 0.0000 -18.7237 0.0000
# 4 0.0000 0.0000 0.0000 17.4949 0.0000 -4.3084
# 5 -3.5806 -0.6223 -18.7237 0.0000 48.7585 0.0000
# 6 0.0000 0.0000 0.0000 -4.3084 0.0000 22.6449
#
#
#
# Elastic Compliance Matrix: (Units=1/GPa)
#
#
# Indices 1 2 3 4 5 6 
#
# 1 0.006122 -0.000809 -0.003483 0.000000 -0.000898 0.000000
# 2 -0.000809 0.022496 -0.004185 0.000000 -0.001379 0.000000
# 3 -0.003483 -0.004185 0.014537 0.000000 0.005273 0.000000
# 4 0.000000 0.000000 0.000000 0.059969 0.000000 0.011410
# 5 -0.000898 -0.001379 0.005273 0.000000 0.022451 0.000000
# 6 0.000000 0.000000 0.000000 0.011410 0.000000 0.046331
#
#
# Mechanical properties :
#
#
# Convention : Reuss Voigt Hill
#
# Bulk Modulus (GPa) = 38.16492 56.89265 47.52879
# Shear Modulus (GPa) = 25.30443 34.40109 29.85276
#
# Velocity S-wave (km/s) = 3.32028 3.87136 3.60636
# Velocity P-wave (km/s) = 5.59698 6.69100 6.16829
#
# Compressibility (1/GPa) = 0.02620207
#
# Stress axis : x y z
#
# Youngs Moduli (GPa) = 163.33380 44.45203 68.78971
#
# Poissons Ratio (x) = 0.03595 0.23959
# Poissons Ratio (y) = 0.13211 0.28789
# Poissons Ratio (z) = 0.56888 0.18603
#
# Static dielectric constant tensor:
#      x y z
#    x 1.897590 0.000000 -0.055940 
#    y 0.000000 1.950100 0.000000 
#    z -0.055940 0.000000 1.895820 
# 
# From -- ./inp_files/35322.got.cif
#   From: 2010.05.17/outbox.cif.g08.bks.cpg/sg9_18_cif.got.tgz:35322.got - 2010.06.03 20:04:27.
