data_PCOD9135547
_publ_section_title
;
Structure prediction by ZEFSAII (Michael W. Deem and Ramdas Pophale) SiO2 
 PCOD9135547
Probable space group: C C
;
_chemical_formula_sum "Si O2"
_cell_formula_units_Z 32
_cell_length_a 15.050480
_cell_length_b 7.494520
_cell_length_c 20.869350
_cell_angle_alpha 90.000000
_cell_angle_beta 144.061575
_cell_angle_gamma 90.000000
_cell_volume 1381.588329
_symmetry_space_group_name_H-M "C C"
_symmetry_group_IT_number 9
_symmetry_cell_setting 'monoclinic'
loop_
_space_group_symop_operation_xyz
x,y,z
x,-y,1/2+z
1/2+x,1/2+y,z
1/2+x,1/2-y,1/2+z
loop_
_atom_site_type_symbol
_atom_site_label
_atom_site_fract_x
_atom_site_fract_y
_atom_site_fract_z
Si Si1 0.946760 0.383027 0.125000
Si Si2 0.644529 0.312998 0.003914
Si Si3 0.280396 0.936777 0.405903
Si Si4 0.163368 0.244235 0.015209
Si Si5 0.009429 0.153899 0.557722
Si Si6 0.007671 0.760534 0.197931
Si Si7 0.917513 0.489369 0.346264
Si Si8 0.633658 0.690768 0.137796
O O1 0.816785 0.268794 0.084254
O O2 0.002759 0.545470 0.203016
O O3 0.093759 0.292348 0.179304
O O4 0.852216 0.457964 0.007514
O O5 0.636629 0.530375 0.991982
O O6 0.612256 0.277449 0.059761
O O7 0.511068 0.195800 0.892647
O O8 0.347521 0.739468 0.452840
O O9 0.102232 0.897155 0.296548
O O10 0.350136 0.001514 0.379406
O O11 0.330280 0.300042 0.092512
O O12 0.151031 0.297985 0.083035
O O13 0.038959 0.355474 0.906103
O O14 0.070389 0.211913 0.662467
O O15 0.993743 0.942637 0.546559
O O16 0.774247 0.553509 0.221649
#
# Coordination Sequence:
#
# PCOD9135547 Si02
#       8
#     4   4   4   4   4   4   4   4
#     4  10  22  41  65  97 134 165 218 278 319 391
#     4   9  22  42  62  92 131 167 213 269 326 378
#     4  10  20  41  64  93 128 174 212 265 334 382
#     4  10  23  42  61  97 133 164 217 270 320 391
#     4   9  20  38  64  88 130 167 212 268 319 385
#     4  10  21  41  66  92 127 172 216 264 330 388
#     4  11  22  40  67  90 129 174 215 263 328 386
#     4  11  22  39  63  95 126 169 219 265 324 387
#
# _framework density 23.161747999999999
#
# number of rings (size 3 to 8) (size 9 to 14) (size 15 to 20)
#    0.000    2.000    2.500    0.000    1.750    6.000 
#    0.000    6.250    0.000    0.000    0.000    0.000 
#    0.000    0.000    0.000    0.000    0.000    0.000 
#
# Total GULP energy -89160.432321 kJ/mol
# GULP energy per Si atom -5572.527020 kJ/mol
# Density = 2.310903 g / cm^3
# Si number density = 23.161748 Si / 1000 Ang^3
#
#
#
# Elastic Constant Matrix: (Units=GPa)
#
#
# Indices 1 2 3 4 5 6 
#
# 1 58.1873 10.1012 5.7852 0.0000 21.7261 0.0000
# 2 10.1012 65.1344 34.7642 0.0000 17.7751 0.0000
# 3 5.7852 34.7642 84.5126 0.0000 19.7001 0.0000
# 4 0.0000 0.0000 0.0000 41.1221 0.0000 6.7633
# 5 21.7261 17.7751 19.7001 0.0000 29.6653 0.0000
# 6 0.0000 0.0000 0.0000 6.7633 0.0000 29.3927
#
#
#
# Elastic Compliance Matrix: (Units=1/GPa)
#
#
# Indices 1 2 3 4 5 6 
#
# 1 0.024254 0.000071 0.002912 0.000000 -0.019740 0.000000
# 2 0.000071 0.021230 -0.006815 0.000000 -0.008247 0.000000
# 3 0.002912 -0.006815 0.016543 0.000000 -0.009034 0.000000
# 4 0.000000 0.000000 0.000000 0.025274 0.000000 -0.005816
# 5 -0.019740 -0.008247 -0.009034 0.000000 0.059107 0.000000
# 6 0.000000 0.000000 0.000000 -0.005816 0.000000 0.035360
#
#
# Mechanical properties :
#
#
# Convention : Reuss Voigt Hill
#
# Bulk Modulus (GPa) = 18.39497 34.34838 26.37168
# Shear Modulus (GPa) = 24.09005 30.51494 27.30249
#
# Velocity S-wave (km/s) = 3.22852 3.63364 3.43705
# Velocity P-wave (km/s) = 4.67515 5.69793 5.21169
#
# Compressibility (1/GPa) = 0.05436270
#
# Stress axis : x y z
#
# Youngs Moduli (GPa) = 41.22948 47.10313 60.44965
#
# Poissons Ratio (x) = -0.00337 -0.17601
# Poissons Ratio (y) = -0.00295 0.41199
# Poissons Ratio (z) = -0.12005 0.32103
#
# Static dielectric constant tensor:
#      x y z
#    x 1.952490 0.000000 -0.008760 
#    y 0.000000 1.938450 0.000000 
#    z -0.008760 0.000000 1.873270 
# 
# From -- ./inp_files/17921.got.cif
#   From: 2010.05.17/outbox.cif.g08.bks.cpg/sg9_9_cif.got.tgz:17921.got - 2010.06.03 20:04:27.
