data_PCOD9135262
_publ_section_title
;
Structure prediction by ZEFSAII (Michael W. Deem and Ramdas Pophale) SiO2 
 PCOD9135262
Probable space group: C C
;
_chemical_formula_sum "Si O2"
_cell_formula_units_Z 28
_cell_length_a 18.635894
_cell_length_b 7.674032
_cell_length_c 15.053220
_cell_angle_alpha 90.000000
_cell_angle_beta 148.733827
_cell_angle_gamma 90.000000
_cell_volume 1117.333406
_symmetry_space_group_name_H-M "C C"
_symmetry_group_IT_number 9
_symmetry_cell_setting 'monoclinic'
loop_
_space_group_symop_operation_xyz
x,y,z
x,-y,1/2+z
1/2+x,1/2+y,z
1/2+x,1/2-y,1/2+z
loop_
_atom_site_type_symbol
_atom_site_label
_atom_site_fract_x
_atom_site_fract_y
_atom_site_fract_z
Si Si1 0.799100 0.394869 0.197620
Si Si2 0.668010 0.922868 0.994639
Si Si3 0.524686 0.703607 0.333327
Si Si4 0.752814 0.564500 0.839165
Si Si5 0.889828 0.697582 0.164324
Si Si6 0.697553 0.178557 0.730749
Si Si7 0.979589 0.911517 0.586764
O O1 0.812567 0.347124 0.314766
O O2 0.857367 0.572474 0.215268
O O3 0.883373 0.249061 0.233048
O O4 0.635300 0.404428 0.006576
O O5 0.553831 0.791439 0.833351
O O6 0.604564 0.110723 0.907709
O O7 0.812333 0.875539 0.103094
O O8 0.678052 0.885130 0.110053
O O9 0.503302 0.626924 0.214562
O O10 0.770916 0.362930 0.829888
O O11 0.585354 0.567645 0.672134
O O12 0.826886 0.612156 0.008946
O O13 0.548469 0.238343 0.611616
O O14 0.817559 0.054948 0.897952
#
# Coordination Sequence:
#
# PCOD9135262 Si02
#       7
#     4   4   4   4   4   4   4
#     4  11  23  44  68  94 135 178 228 277 344 403
#     4  11  24  40  65  98 137 173 222 285 338 400
#     4  11  24  42  67  99 136 174 223 289 339 402
#     4  10  23  40  71  91 136 183 221 279 345 405
#     4  11  22  46  65  95 134 182 221 281 338 408
#     4  10  20  38  66  95 130 177 232 268 339 408
#     4  10  20  40  66  96 128 183 227 273 341 408
#
# _framework density 25.059664999999999
#
# number of rings (size 3 to 8) (size 9 to 14) (size 15 to 20)
#    0.857    0.571    2.857    3.429    2.000    3.429 
#    5.143    0.000    0.000    0.000    0.000    0.000 
#    0.000    0.000    0.000    0.000    0.000    0.000 
#
# Total GULP energy -78175.897888 kJ/mol
# GULP energy per Si atom -5583.992706 kJ/mol
# Density = 2.500263 g / cm^3
# Si number density = 25.059665 Si / 1000 Ang^3
#
#
#
# Elastic Constant Matrix: (Units=GPa)
#
#
# Indices 1 2 3 4 5 6 
#
# 1 100.9065 24.3979 7.6811 0.0000 -18.4817 0.0000
# 2 24.3979 58.6229 9.9273 0.0000 -8.7711 0.0000
# 3 7.6811 9.9273 86.4931 0.0000 -8.6412 0.0000
# 4 0.0000 0.0000 0.0000 -29.4738 0.0000 57.3268
# 5 -18.4817 -8.7711 -8.6412 0.0000 50.7005 0.0000
# 6 0.0000 0.0000 0.0000 57.3268 0.0000 -33.8888
#
#
#
# Elastic Compliance Matrix: (Units=1/GPa)
#
#
# Indices 1 2 3 4 5 6 
#
# 1 0.011591 -0.004275 -0.000194 0.000000 0.003453 0.000000
# 2 -0.004275 0.019348 -0.001691 0.000000 0.001501 0.000000
# 3 -0.000194 -0.001691 0.011940 0.000000 0.001672 0.000000
# 4 0.000000 0.000000 0.000000 0.014815 0.000000 0.025061
# 5 0.003453 0.001501 0.001672 0.000000 0.021527 0.000000
# 6 0.000000 0.000000 0.000000 0.025061 0.000000 0.012885
#
#
# Mechanical properties :
#
#
# Convention : Reuss Voigt Hill
#
# Bulk Modulus (GPa) = 32.72256 36.67058 34.69657
# Shear Modulus (GPa) = 43.62606 11.06865 27.34735
#
# Velocity S-wave (km/s) = 4.17692 2.10393 3.30705
# Velocity P-wave (km/s) = 6.02897 4.53509 5.33458
#
# Compressibility (1/GPa) = 0.03055996
#
# Stress axis : x y z
#
# Youngs Moduli (GPa) = 86.27524 51.68467 83.75248
#
# Poissons Ratio (x) = 0.22093 0.01623
# Poissons Ratio (y) = 0.36878 0.14164
# Poissons Ratio (z) = 0.01672 0.08741
#
# Static dielectric constant tensor:
#      x y z
#    x 1.971320 0.000000 0.042040 
#    y 0.000000 2.246850 0.000000 
#    z 0.042040 0.000000 2.002990 
# 
# From -- ./inp_files/27352.got.cif
#   From: 2010.05.17/outbox.cif.g08.bks.cpg/sg9_14_cif.got.tgz:27352.got - 2010.06.03 20:04:27.
