data_PCOD9135796
_publ_section_title
;
Structure prediction by ZEFSAII (Michael W. Deem and Ramdas Pophale) SiO2 
 PCOD9135796
Probable space group: C C
;
_chemical_formula_sum "Si O2"
_cell_formula_units_Z 32
_cell_length_a 8.944129
_cell_length_b 30.601221
_cell_length_c 6.210990
_cell_angle_alpha 90.000000
_cell_angle_beta 55.478930
_cell_angle_gamma 90.000000
_cell_volume 1400.623947
_symmetry_space_group_name_H-M "C C"
_symmetry_group_IT_number 9
_symmetry_cell_setting 'monoclinic'
loop_
_space_group_symop_operation_xyz
x,y,z
x,-y,1/2+z
1/2+x,1/2+y,z
1/2+x,1/2-y,1/2+z
loop_
_atom_site_type_symbol
_atom_site_label
_atom_site_fract_x
_atom_site_fract_y
_atom_site_fract_z
Si Si1 0.658820 0.785686 0.539090
Si Si2 0.516964 0.943388 0.911924
Si Si3 0.090448 0.392701 0.244450
Si Si4 0.816770 0.831252 0.771371
Si Si5 0.520526 0.692423 0.500666
Si Si6 0.354698 0.587625 0.916076
Si Si7 0.146357 0.017350 0.654150
Si Si8 0.858574 0.638927 0.292995
O O1 0.744330 0.788621 0.707102
O O2 0.606192 0.739036 0.490003
O O3 0.820880 0.804568 0.263025
O O4 0.489161 0.818518 0.687844
O O5 0.709309 0.946576 0.637357
O O6 0.430017 0.897048 0.900768
O O7 0.559704 0.935033 0.125119
O O8 0.363719 0.977941 0.984714
O O9 0.255367 0.400015 0.275620
O O10 0.907383 0.382440 0.522993
O O11 0.156462 0.352543 0.043851
O O12 0.861563 0.870596 0.568904
O O13 0.986191 0.818101 0.779301
O O14 0.655096 0.655635 0.480787
O O15 0.543074 0.563579 0.736101
O O16 0.102561 0.999579 0.441463
#
# Coordination Sequence:
#
# PCOD9135796 Si02
#       8
#     4   4   4   4   4   4   4   4
#     4  12  24  47  58 103 137 185 244 303 373 442
#     4  10  25  45  78 105 142 195 244 303 359 456
#     4  10  20  44  75 101 135 180 255 297 360 434
#     4  11  23  44  71  99 135 192 251 305 361 460
#     4  12  27  41  66  94 149 185 237 317 375 430
#     4  10  24  47  76 106 143 195 250 304 369 456
#     4  12  32  51  75 120 162 194 248 311 390 469
#     4  11  23  43  69 102 133 188 247 298 361 441
#
# _framework density 22.846962000000001
#
# number of rings (size 3 to 8) (size 9 to 14) (size 15 to 20)
#    0.000    1.000    6.250    0.000   12.250    2.000 
#    2.250    0.000    0.000    0.000    0.000    0.000 
#    0.000    0.000    0.000    0.000    0.000    0.000 
#
# Total GULP energy -89275.176548 kJ/mol
# GULP energy per Si atom -5579.698534 kJ/mol
# Density = 2.279496 g / cm^3
# Si number density = 22.846962 Si / 1000 Ang^3
#
#
#
# Elastic Constant Matrix: (Units=GPa)
#
#
# Indices 1 2 3 4 5 6 
#
# 1 89.2354 32.1532 43.4067 0.0000 5.8683 0.0000
# 2 32.1532 48.4003 36.8106 0.0000 7.7347 0.0000
# 3 43.4067 36.8106 81.2922 0.0000 17.2645 0.0000
# 4 0.0000 0.0000 0.0000 15.7950 0.0000 -4.4581
# 5 5.8683 7.7347 17.2645 0.0000 36.8303 0.0000
# 6 0.0000 0.0000 0.0000 -4.4581 0.0000 42.8778
#
#
#
# Elastic Compliance Matrix: (Units=1/GPa)
#
#
# Indices 1 2 3 4 5 6 
#
# 1 0.016446 -0.006473 -0.006200 0.000000 0.001645 0.000000
# 2 -0.006473 0.034062 -0.011847 0.000000 -0.000569 0.000000
# 3 -0.006200 -0.011847 0.022476 0.000000 -0.007060 0.000000
# 4 0.000000 0.000000 0.000000 0.065225 0.000000 0.006782
# 5 0.001645 -0.000569 -0.007060 0.000000 0.030318 0.000000
# 6 0.000000 0.000000 0.000000 0.006782 0.000000 0.024027
#
#
# Mechanical properties :
#
#
# Convention : Reuss Voigt Hill
#
# Bulk Modulus (GPa) = 41.76354 49.29655 45.53004
# Shear Modulus (GPa) = 20.03397 26.20445 23.11921
#
# Velocity S-wave (km/s) = 2.96442 3.39035 3.18451
# Velocity P-wave (km/s) = 5.48055 6.07862 5.78732
#
# Compressibility (1/GPa) = 0.02394433
#
# Stress axis : x y z
#
# Youngs Moduli (GPa) = 60.80375 29.35801 44.49274
#
# Poissons Ratio (x) = 0.19004 0.27585
# Poissons Ratio (y) = 0.39360 0.52710
# Poissons Ratio (z) = 0.37698 0.34780
#
# Static dielectric constant tensor:
#      x y z
#    x 1.845270 0.000000 0.050270 
#    y 0.000000 1.868800 0.000000 
#    z 0.050270 0.000000 1.933120 
# 
# From -- ./inp_files/1359.got.cif
#   From: 2010.05.17/outbox.cif.g08.bks.cpg/sg9_1_cif.got.tgz:1359.got - 2010.06.03 20:04:27.
