data_PCOD9135062
_publ_section_title
;
Structure prediction by ZEFSAII (Michael W. Deem and Ramdas Pophale) SiO2 
 PCOD9135062
Probable space group: C C
;
_chemical_formula_sum "Si O2"
_cell_formula_units_Z 32
_cell_length_a 19.106720
_cell_length_b 20.386220
_cell_length_c 4.942549
_cell_angle_alpha 90.000000
_cell_angle_beta 117.234628
_cell_angle_gamma 90.000000
_cell_volume 1711.764263
_symmetry_space_group_name_H-M "C C"
_symmetry_group_IT_number 9
_symmetry_cell_setting 'monoclinic'
loop_
_space_group_symop_operation_xyz
x,y,z
x,-y,1/2+z
1/2+x,1/2+y,z
1/2+x,1/2-y,1/2+z
loop_
_atom_site_type_symbol
_atom_site_label
_atom_site_fract_x
_atom_site_fract_y
_atom_site_fract_z
Si Si1 0.500000 0.148105 0.378270
Si Si2 0.195519 0.956572 0.597415
Si Si3 0.003213 0.736624 0.881321
Si Si4 0.379981 0.043968 0.399497
Si Si5 0.805559 0.044739 0.810136
Si Si6 0.950844 0.137684 0.043073
Si Si7 0.126057 0.544584 0.395086
Si Si8 0.557441 0.361987 0.198857
O O1 0.530641 0.192496 0.680465
O O2 0.431903 0.103752 0.388960
O O3 0.565806 0.100068 0.374624
O O4 0.473961 0.193549 0.080660
O O5 0.136100 0.899686 0.410932
O O6 0.181898 0.018856 0.377171
O O7 0.287366 0.939430 0.720815
O O8 0.940777 0.788938 0.647372
O O9 0.068444 0.787543 0.110996
O O10 0.396496 0.017649 0.729204
O O11 0.870659 0.098905 0.866960
O O12 0.815493 0.017606 0.129928
O O13 0.715950 0.067029 0.600761
O O14 0.007634 0.104109 0.368893
O O15 0.000220 0.141531 0.855764
O O16 0.114645 0.518326 0.071842
#
# Coordination Sequence:
#
# PCOD9135062 Si02
#       8
#     4   4   4   4   4   4   4   4
#     4  12  20  37  62  75 106 150 178 214 274 316
#     4  10  21  35  56  83 112 137 173 223 275 319
#     4  10  22  37  52  81 106 144 190 220 244 314
#     4  10  21  37  56  86 110 132 174 227 272 322
#     4  10  21  35  56  83 112 137 173 223 275 319
#     4  10  20  37  55  75 116 140 180 223 257 307
#     4  10  21  37  56  86 110 132 174 227 272 322
#     4  10  20  37  55  75 116 140 180 223 257 307
#
# _framework density 18.694161000000001
#
# number of rings (size 3 to 8) (size 9 to 14) (size 15 to 20)
#    0.750    1.000    1.250    3.750    0.000    3.000 
#    0.000    2.500    0.000    0.000    0.000    0.000 
#    0.000    0.000    0.000    0.000    0.000    0.000 
#
# Total GULP energy -89238.554142 kJ/mol
# GULP energy per Si atom -5577.409634 kJ/mol
# Density = 1.865161 g / cm^3
# Si number density = 18.694161 Si / 1000 Ang^3
#
#
#
# Elastic Constant Matrix: (Units=GPa)
#
#
# Indices 1 2 3 4 5 6 
#
# 1 78.5018 34.5957 17.8213 0.0000 0.0705 0.0000
# 2 34.5957 61.5412 7.2053 0.0000 20.2505 0.0000
# 3 17.8213 7.2053 42.3470 0.0000 -11.3996 0.0000
# 4 0.0000 0.0000 0.0000 -42.6844 0.0000 6.6607
# 5 0.0705 20.2505 -11.3996 0.0000 29.0908 0.0000
# 6 0.0000 0.0000 0.0000 6.6607 0.0000 -5.7818
#
#
#
# Elastic Compliance Matrix: (Units=1/GPa)
#
#
# Indices 1 2 3 4 5 6 
#
# 1 0.019254 -0.012751 -0.003976 0.000000 0.007272 0.000000
# 2 -0.012751 0.032603 -0.007023 0.000000 -0.025417 0.000000
# 3 -0.003976 -0.007023 0.031080 0.000000 0.017078 0.000000
# 4 0.000000 0.000000 0.000000 -0.028562 0.000000 -0.032905
# 5 0.007272 -0.025417 0.017078 0.000000 0.058743 0.000000
# 6 0.000000 0.000000 0.000000 -0.032905 0.000000 -0.210864
#
#
# Mechanical properties :
#
#
# Convention : Reuss Voigt Hill
#
# Bulk Modulus (GPa) = 28.21932 33.51495 30.86714
# Shear Modulus (GPa) = -130.09023 4.30943 -62.89040
#
# Velocity S-wave (km/s) = -8.35103 1.51995 -5.80644
# Velocity P-wave (km/s) = 8.82374 4.58773 5.32968
#
# Compressibility (1/GPa) = 0.03543671
#
# Stress axis : x y z
#
# Youngs Moduli (GPa) = 51.93735 30.67190 32.17527
#
# Poissons Ratio (x) = 0.39110 0.12792
# Poissons Ratio (y) = 0.66225 0.22598
# Poissons Ratio (z) = 0.20649 0.21542
#
# Static dielectric constant tensor:
#      x y z
#    x 1.626260 0.000000 -0.013230 
#    y 0.000000 1.654550 0.000000 
#    z -0.013230 0.000000 1.664370 
# 
# From -- ./inp_files/3223.got.cif
#   From: 2010.05.17/outbox.cif.g08.bks.cpg/sg9_2_cif.got.tgz:3223.got - 2010.06.03 20:04:27.
