data_PCOD9135164
_publ_section_title
;
Structure prediction by ZEFSAII (Michael W. Deem and Ramdas Pophale) SiO2 
 PCOD9135164
Probable space group: C C
;
_chemical_formula_sum "Si O2"
_cell_formula_units_Z 28
_cell_length_a 7.844282
_cell_length_b 18.900785
_cell_length_c 9.445354
_cell_angle_alpha 90.000000
_cell_angle_beta 42.994908
_cell_angle_gamma 90.000000
_cell_volume 954.977669
_symmetry_space_group_name_H-M "C C"
_symmetry_group_IT_number 9
_symmetry_cell_setting 'monoclinic'
loop_
_space_group_symop_operation_xyz
x,y,z
x,-y,1/2+z
1/2+x,1/2+y,z
1/2+x,1/2-y,1/2+z
loop_
_atom_site_type_symbol
_atom_site_label
_atom_site_fract_x
_atom_site_fract_y
_atom_site_fract_z
Si Si1 0.015620 0.354978 0.751750
Si Si2 0.394957 0.235147 0.936444
Si Si3 0.758898 0.124533 0.386167
Si Si4 0.267032 0.896347 0.338738
Si Si5 0.686253 0.924535 0.400241
Si Si6 0.558290 0.689431 0.711352
Si Si7 0.934587 0.020341 0.481725
O O1 0.222088 0.382426 0.740429
O O2 0.976701 0.406925 0.643301
O O3 0.084140 0.272918 0.681368
O O4 0.756066 0.347690 0.989269
O O5 0.195242 0.246145 0.197688
O O6 0.258777 0.292329 0.917815
O O7 0.347256 0.153448 0.921397
O O8 0.509629 0.088205 0.597177
O O9 0.961298 0.091577 0.370445
O O10 0.121216 0.839746 0.328100
O O11 0.137340 0.971974 0.441506
O O12 0.720144 0.960579 0.228557
O O13 0.800246 0.845869 0.323198
O O14 0.869909 0.968704 0.390620
#
# Coordination Sequence:
#
# PCOD9135164 Si02
#       7
#     4   4   4   4   4   4   4
#     4  11  20  39  73 101 134 184 255 306 376 455
#     4  10  21  38  75 111 144 190 268 328 380 462
#     4  10  22  41  74 111 142 194 262 321 385 470
#     4   9  21  40  71 107 146 196 255 318 384 473
#     4  11  25  42  69  99 145 190 237 309 381 468
#     4  10  20  37  68 105 132 182 248 312 371 455
#     4  11  25  45  68 102 153 198 245 310 391 477
#
# _framework density 29.320056999999998
#
# number of rings (size 3 to 8) (size 9 to 14) (size 15 to 20)
#    0.000    1.714    2.857    0.857    6.000    1.143 
#    0.000    7.143    0.000    0.000    0.000    0.000 
#    0.000    0.000    0.000    0.000    0.000    0.000 
#
# Total GULP energy -78021.638167 kJ/mol
# GULP energy per Si atom -5572.974155 kJ/mol
# Density = 2.925332 g / cm^3
# Si number density = 29.320057 Si / 1000 Ang^3
#
#
#
# Elastic Constant Matrix: (Units=GPa)
#
#
# Indices 1 2 3 4 5 6 
#
# 1 104.5687 33.3874 48.2912 0.0000 29.8820 0.0000
# 2 33.3874 173.4437 57.7291 0.0000 13.7361 0.0000
# 3 48.2912 57.7291 208.3374 0.0000 10.2921 0.0000
# 4 0.0000 0.0000 0.0000 78.2166 0.0000 -23.2985
# 5 29.8820 13.7361 10.2921 0.0000 40.1748 0.0000
# 6 0.0000 0.0000 0.0000 -23.2985 0.0000 75.8121
#
#
#
# Elastic Compliance Matrix: (Units=1/GPa)
#
#
# Indices 1 2 3 4 5 6 
#
# 1 0.013641 -0.001100 -0.002405 0.000000 -0.009154 0.000000
# 2 -0.001100 0.006563 -0.001512 0.000000 -0.001038 0.000000
# 3 -0.002405 -0.001512 0.005735 0.000000 0.000836 0.000000
# 4 0.000000 0.000000 0.000000 0.014073 0.000000 0.004325
# 5 -0.009154 -0.001038 0.000836 0.000000 0.031840 0.000000
# 6 0.000000 0.000000 0.000000 0.004325 0.000000 0.014520
#
#
# Mechanical properties :
#
#
# Convention : Reuss Voigt Hill
#
# Bulk Modulus (GPa) = 62.87742 85.01835 73.94789
# Shear Modulus (GPa) = 49.16027 61.97016 55.56521
#
# Velocity S-wave (km/s) = 4.09917 4.60235 4.35803
# Velocity P-wave (km/s) = 6.62540 7.56979 7.11329
#
# Compressibility (1/GPa) = 0.01590396
#
# Stress axis : x y z
#
# Youngs Moduli (GPa) = 73.30951 152.37117 174.36805
#
# Poissons Ratio (x) = 0.16768 0.41930
# Poissons Ratio (y) = 0.08068 0.26368
# Poissons Ratio (z) = 0.17629 0.23041
#
# Static dielectric constant tensor:
#      x y z
#    x 2.417410 0.000000 -0.130490 
#    y 0.000000 2.191620 0.000000 
#    z -0.130490 0.000000 2.528850 
# 
# From -- ./inp_files/5730.got.cif
#   From: 2010.05.17/outbox.cif.g08.bks.cpg/sg9_3_cif.got.tgz:5730.got - 2010.06.03 20:04:27.
