data_PCOD9135049
_publ_section_title
;
Structure prediction by ZEFSAII (Michael W. Deem and Ramdas Pophale) SiO2 
 PCOD9135049
Probable space group: C C
;
_chemical_formula_sum "Si O2"
_cell_formula_units_Z 32
_cell_length_a 8.520753
_cell_length_b 31.613059
_cell_length_c 5.119420
_cell_angle_alpha 90.000000
_cell_angle_beta 74.008977
_cell_angle_gamma 90.000000
_cell_volume 1325.642446
_symmetry_space_group_name_H-M "C C"
_symmetry_group_IT_number 9
_symmetry_cell_setting 'monoclinic'
loop_
_space_group_symop_operation_xyz
x,y,z
x,-y,1/2+z
1/2+x,1/2+y,z
1/2+x,1/2-y,1/2+z
loop_
_atom_site_type_symbol
_atom_site_label
_atom_site_fract_x
_atom_site_fract_y
_atom_site_fract_z
Si Si1 0.915930 0.654232 0.333310
Si Si2 0.834370 0.129730 0.548058
Si Si3 0.136170 0.877478 0.250255
Si Si4 0.100549 0.294086 0.119130
Si Si5 0.534567 0.021969 0.534269
Si Si6 0.174626 0.404428 0.606349
Si Si7 0.140971 0.974408 0.270853
Si Si8 0.234388 0.200468 0.029589
O O1 0.827985 0.624835 0.585821
O O2 0.773126 0.683845 0.298740
O O3 0.055965 0.685622 0.361996
O O4 0.008569 0.621379 0.110082
O O5 0.742343 0.174375 0.655541
O O6 0.793342 0.119040 0.266214
O O7 0.021124 0.129292 0.551621
O O8 0.763393 0.095689 0.788678
O O9 0.102808 0.925573 0.357896
O O10 0.128554 0.836072 0.438251
O O11 0.155812 0.246183 0.069371
O O12 0.921350 0.296686 0.334755
O O13 0.611711 0.058540 0.323358
O O14 0.337818 0.024270 0.642044
O O15 0.580479 0.016975 0.817222
O O16 0.081076 0.006353 0.523518
#
# Coordination Sequence:
#
# PCOD9135049 Si02
#       8
#     4   4   4   4   4   4   4   4
#     4  10  23  42  68  94 134 182 234 287 333 418
#     4  11  26  43  69  97 143 186 228 284 348 416
#     4  11  26  44  67 105 133 193 233 287 360 418
#     4  10  25  43  62 103 134 188 230 291 342 405
#     4  10  20  36  66 101 128 173 229 289 344 414
#     4  11  22  45  66  96 138 179 228 284 345 411
#     4  10  23  41  69 101 137 174 233 298 348 418
#     4  11  25  42  71  95 143 181 241 286 344 420
#
# _framework density 24.139240000000001
#
# number of rings (size 3 to 8) (size 9 to 14) (size 15 to 20)
#    0.000    1.500    2.500    0.750    7.000    3.000 
#    0.000    3.750    0.000    0.000    0.000    0.000 
#    0.000    0.000    0.000    0.000    0.000    0.000 
#
# Total GULP energy -89125.800823 kJ/mol
# GULP energy per Si atom -5570.362551 kJ/mol
# Density = 2.408430 g / cm^3
# Si number density = 24.139240 Si / 1000 Ang^3
#
#
#
# Elastic Constant Matrix: (Units=GPa)
#
#
# Indices 1 2 3 4 5 6 
#
# 1 60.4510 38.7116 9.6629 0.0000 9.4492 0.0000
# 2 38.7116 135.3264 11.8650 0.0000 -5.9566 0.0000
# 3 9.6629 11.8650 67.9124 0.0000 12.1811 0.0000
# 4 0.0000 0.0000 0.0000 31.8365 0.0000 -10.0240
# 5 9.4492 -5.9566 12.1811 0.0000 35.4521 0.0000
# 6 0.0000 0.0000 0.0000 -10.0240 0.0000 28.3027
#
#
#
# Elastic Compliance Matrix: (Units=1/GPa)
#
#
# Indices 1 2 3 4 5 6 
#
# 1 0.021852 -0.006475 -0.000787 0.000000 -0.006642 0.000000
# 2 -0.006475 0.009535 -0.001430 0.000000 0.003819 0.000000
# 3 -0.000787 -0.001430 0.016083 0.000000 -0.005557 0.000000
# 4 0.000000 0.000000 0.000000 0.035353 0.000000 0.012521
# 5 -0.006642 0.003819 -0.005557 0.000000 0.032528 0.000000
# 6 0.000000 0.000000 0.000000 0.012521 0.000000 0.039767
#
#
# Mechanical properties :
#
#
# Convention : Reuss Voigt Hill
#
# Bulk Modulus (GPa) = 33.23484 42.68544 37.96014
# Shear Modulus (GPa) = 27.39271 32.68159 30.03715
#
# Velocity S-wave (km/s) = 3.37230 3.68350 3.53133
# Velocity P-wave (km/s) = 5.38155 5.98434 5.69093
#
# Compressibility (1/GPa) = 0.03008891
#
# Stress axis : x y z
#
# Youngs Moduli (GPa) = 45.76146 104.87569 62.17650
#
# Poissons Ratio (x) = 0.67902 0.04892
# Poissons Ratio (y) = 0.29628 0.08889
# Poissons Ratio (z) = 0.03600 0.14994
#
# Static dielectric constant tensor:
#      x y z
#    x 1.983140 0.000000 0.010810 
#    y 0.000000 1.961790 0.000000 
#    z 0.010810 0.000000 2.004020 
# 
# From -- ./inp_files/1247.got.cif
#   From: 2010.05.17/outbox.cif.g08.bks.cpg/sg9_1_cif.got.tgz:1247.got - 2010.06.03 20:04:27.
