data_PCOD9135388
_publ_section_title
;
Structure prediction by ZEFSAII (Michael W. Deem and Ramdas Pophale) SiO2 
 PCOD9135388
Probable space group: C C
;
_chemical_formula_sum "Si O2"
_cell_formula_units_Z 32
_cell_length_a 19.054779
_cell_length_b 7.691753
_cell_length_c 23.998165
_cell_angle_alpha 90.000000
_cell_angle_beta 158.327602
_cell_angle_gamma 90.000000
_cell_volume 1298.929380
_symmetry_space_group_name_H-M "C C"
_symmetry_group_IT_number 9
_symmetry_cell_setting 'monoclinic'
loop_
_space_group_symop_operation_xyz
x,y,z
x,-y,1/2+z
1/2+x,1/2+y,z
1/2+x,1/2-y,1/2+z
loop_
_atom_site_type_symbol
_atom_site_label
_atom_site_fract_x
_atom_site_fract_y
_atom_site_fract_z
Si Si1 0.703960 0.263603 0.451960
Si Si2 0.341322 0.601744 0.942908
Si Si3 0.019903 0.042350 0.395731
Si Si4 0.118714 0.269204 0.769847
Si Si5 0.827318 0.248503 0.167946
Si Si6 0.612387 0.078315 0.490842
Si Si7 0.517502 0.628747 0.191182
Si Si8 0.234690 0.252883 0.190284
O O1 0.597564 0.421324 0.402947
O O2 0.590539 0.200793 0.315061
O O3 0.709540 0.116543 0.503298
O O4 0.918189 0.315463 0.593094
O O5 0.289438 0.404648 0.884593
O O6 0.173681 0.722504 0.796044
O O7 0.365389 0.613956 0.028377
O O8 0.537955 0.686274 0.068950
O O9 0.958827 0.218868 0.318422
O O10 0.201482 0.081650 0.567579
O O11 0.842782 0.932603 0.289685
O O12 0.127510 0.058964 0.771945
O O13 0.932106 0.193334 0.187706
O O14 0.667940 0.101362 0.058325
O O15 0.392211 0.110321 0.319888
O O16 0.694690 0.214315 0.595902
#
# Coordination Sequence:
#
# PCOD9135388 Si02
#       8
#     4   4   4   4   4   4   4   4
#     4  11  20  41  66 104 136 174 221 298 370 418
#     4  12  27  44  70  97 144 197 231 289 349 425
#     4  10  22  37  67  98 141 174 224 293 355 431
#     4  12  23  43  68 107 142 181 231 290 370 430
#     4  11  20  38  62 105 131 167 219 294 363 413
#     4  10  20  39  69  88 134 167 227 289 341 414
#     4  12  25  42  70 107 143 176 239 293 362 441
#     4  10  23  44  62  94 125 190 236 270 336 416
#
# _framework density 24.635674000000002
#
# number of rings (size 3 to 8) (size 9 to 14) (size 15 to 20)
#    0.000    1.000    3.750    3.750    1.750    3.000 
#    2.250    0.000    5.500    0.000    0.000    0.000 
#    0.000    0.000    0.000    0.000    0.000    0.000 
#
# Total GULP energy -89362.278499 kJ/mol
# GULP energy per Si atom -5585.142406 kJ/mol
# Density = 2.457960 g / cm^3
# Si number density = 24.635674 Si / 1000 Ang^3
#
#
#
# Elastic Constant Matrix: (Units=GPa)
#
#
# Indices 1 2 3 4 5 6 
#
# 1 27.2077 18.0354 -0.8817 0.0036 -0.8114 0.0022
# 2 18.0354 115.6919 35.4286 -0.0052 10.4092 -0.0002
# 3 -0.8817 35.4286 100.8119 -0.0124 2.8797 0.0001
# 4 0.0036 -0.0052 -0.0124 42.9479 0.0004 -6.8819
# 5 -0.8114 10.4092 2.8797 0.0004 39.0376 -0.0010
# 6 0.0022 -0.0002 0.0001 -6.8819 -0.0010 20.7595
#
#
#
# Elastic Compliance Matrix: (Units=1/GPa)
#
#
# Indices 1 2 3 4 5 6 
#
# 1 0.042049 -0.007719 0.003003 -0.000005 0.002711 -0.000006
# 2 -0.007719 0.011320 -0.003963 0.000001 -0.002887 0.000001
# 3 0.003003 -0.003963 0.011330 0.000003 0.000283 0.000000
# 4 -0.000005 0.000001 0.000003 0.024590 -0.000001 0.008152
# 5 0.002711 -0.002887 0.000283 -0.000001 0.026421 0.000001
# 6 -0.000006 0.000001 0.000000 0.008152 0.000001 0.050873
#
#
# Mechanical properties :
#
#
# Convention : Reuss Voigt Hill
#
# Bulk Modulus (GPa) = 21.12303 38.76401 29.94352
# Shear Modulus (GPa) = 25.03463 33.29094 29.16279
#
# Velocity S-wave (km/s) = 3.19124 3.68003 3.44432
# Velocity P-wave (km/s) = 4.70866 5.81601 5.29138
#
# Compressibility (1/GPa) = 0.04734169
#
# Stress axis : x y z
#
# Youngs Moduli (GPa) = 23.78180 88.33668 88.25745
#
# Poissons Ratio (x) = 0.68183 -0.26503
# Poissons Ratio (y) = 0.18356 0.34980
# Poissons Ratio (z) = -0.07141 0.35011
#
# Static dielectric constant tensor:
#      x y z
#    x 1.994540 0.000000 0.012260 
#    y 0.000000 2.043120 0.000000 
#    z 0.012260 0.000000 1.964560 
# 
# From -- ./inp_files/31206.got.cif
#   From: 2010.05.17/outbox.cif.g08.bks.cpg/sg9_16_cif.got.tgz:31206.got - 2010.06.03 20:04:27.
