data_PCOD9135716
_publ_section_title
;
Structure prediction by ZEFSAII (Michael W. Deem and Ramdas Pophale) SiO2 
 PCOD9135716
Probable space group: C C
;
_chemical_formula_sum "Si O2"
_cell_formula_units_Z 28
_cell_length_a 13.899012
_cell_length_b 4.821955
_cell_length_c 18.616930
_cell_angle_alpha 90.000000
_cell_angle_beta 109.527638
_cell_angle_gamma 90.000000
_cell_volume 1175.946214
_symmetry_space_group_name_H-M "C C"
_symmetry_group_IT_number 9
_symmetry_cell_setting 'monoclinic'
loop_
_space_group_symop_operation_xyz
x,y,z
x,-y,1/2+z
1/2+x,1/2+y,z
1/2+x,1/2-y,1/2+z
loop_
_atom_site_type_symbol
_atom_site_label
_atom_site_fract_x
_atom_site_fract_y
_atom_site_fract_z
Si Si1 0.892440 0.589860 0.828020
Si Si2 0.012192 0.310362 0.646074
Si Si3 0.891126 0.816197 0.671275
Si Si4 0.171194 0.937829 0.288752
Si Si5 0.393751 0.683859 0.484772
Si Si6 0.272684 0.810309 0.009974
Si Si7 0.113687 0.562163 0.867290
O O1 0.878522 0.762378 0.751616
O O2 0.784118 0.437389 0.807249
O O3 0.906359 0.762326 0.904432
O O4 0.000761 0.437385 0.848783
O O5 0.115937 0.191677 0.705507
O O6 0.981161 0.620753 0.660276
O O7 0.992717 0.260070 0.557256
O O8 0.924258 0.128065 0.663396
O O9 0.792161 0.739979 0.598792
O O10 0.177650 0.676767 0.344377
O O11 0.107237 0.176765 0.311670
O O12 0.360616 0.371996 0.492651
O O13 0.303718 0.879306 0.495770
O O14 0.168936 0.691643 0.950540
#
# Coordination Sequence:
#
# PCOD9135716 Si02
#       7
#     4   4   4   4   4   4   4
#     4  12  24  40  68 100 118 174 214 254 314 382
#     4  10  20  43  59  90 129 164 200 262 316 362
#     4  10  22  37  67  89 123 165 209 254 313 375
#     4  12  24  41  64  94 130 165 206 265 313 368
#     4  10  22  37  67  89 123 165 209 254 313 375
#     4  10  20  43  59  90 129 164 200 262 316 362
#     4  12  24  41  64  94 130 165 206 265 313 368
#
# _framework density 23.810611999999999
#
# number of rings (size 3 to 8) (size 9 to 14) (size 15 to 20)
#    0.000    1.143    5.714    0.000    0.000    5.714 
#    0.000    0.000    0.000   13.714    0.000    0.000 
#    0.000    0.000    0.000    0.000    0.000    0.000 
#
# Total GULP energy -78236.873025 kJ/mol
# GULP energy per Si atom -5588.348073 kJ/mol
# Density = 2.375642 g / cm^3
# Si number density = 23.810612 Si / 1000 Ang^3
#
#
#
# Elastic Constant Matrix: (Units=GPa)
#
#
# Indices 1 2 3 4 5 6 
#
# 1 90.9024 -1.4570 38.8896 0.0000 28.1376 0.0000
# 2 -1.4570 58.9685 -11.4298 -0.0001 5.9173 0.0001
# 3 38.8896 -11.4298 206.3717 0.0000 22.1919 0.0000
# 4 0.0000 -0.0001 0.0000 20.7243 0.0000 16.9327
# 5 28.1376 5.9173 22.1919 0.0000 48.6364 0.0000
# 6 0.0000 0.0001 0.0000 16.9327 0.0000 7.1646
#
#
#
# Elastic Compliance Matrix: (Units=1/GPa)
#
#
# Indices 1 2 3 4 5 6 
#
# 1 0.014083 0.000739 -0.001816 0.000000 -0.007409 0.000000
# 2 0.000739 0.017512 0.001163 0.000000 -0.003089 0.000000
# 3 -0.001816 0.001163 0.005420 0.000000 -0.001564 0.000000
# 4 0.000000 0.000000 0.000000 -0.051830 0.000000 0.122493
# 5 -0.007409 -0.003089 -0.001564 0.000000 0.025936 0.000000
# 6 0.000000 0.000000 0.000000 0.122493 0.000000 -0.149923
#
#
# Mechanical properties :
#
#
# Convention : Reuss Voigt Hill
#
# Bulk Modulus (GPa) = 26.89125 45.36092 36.12609
# Shear Modulus (GPa) = -39.50152 37.32106 -1.09023
#
# Velocity S-wave (km/s) = -4.07749 3.96335 -0.67740
# Velocity P-wave (km/s) = 3.29386 6.32742 3.82013
#
# Compressibility (1/GPa) = 0.03718682
#
# Stress axis : x y z
#
# Youngs Moduli (GPa) = 71.00812 57.10439 184.48625
#
# Poissons Ratio (x) = -0.04222 0.33507
# Poissons Ratio (y) = -0.05250 -0.21450
# Poissons Ratio (z) = 0.12897 -0.06640
#
# Static dielectric constant tensor:
#      x y z
#    x 1.902950 0.000000 0.053250 
#    y 0.000000 1.811990 0.000000 
#    z 0.053250 0.000000 1.957330 
# 
# From -- ./inp_files/26243.got.cif
#   From: 2010.05.17/outbox.cif.g08.bks.cpg/sg9_14_cif.got.tgz:26243.got - 2010.06.03 20:04:27.
