data_PCOD9135349
_publ_section_title
;
Structure prediction by ZEFSAII (Michael W. Deem and Ramdas Pophale) SiO2 
 PCOD9135349
Probable space group: C C
;
_chemical_formula_sum "Si O2"
_cell_formula_units_Z 32
_cell_length_a 12.281296
_cell_length_b 11.108280
_cell_length_c 11.850515
_cell_angle_alpha 90.000000
_cell_angle_beta 133.947077
_cell_angle_gamma 90.000000
_cell_volume 1163.990294
_symmetry_space_group_name_H-M "C C"
_symmetry_group_IT_number 9
_symmetry_cell_setting 'monoclinic'
loop_
_space_group_symop_operation_xyz
x,y,z
x,-y,1/2+z
1/2+x,1/2+y,z
1/2+x,1/2-y,1/2+z
loop_
_atom_site_type_symbol
_atom_site_label
_atom_site_fract_x
_atom_site_fract_y
_atom_site_fract_z
Si Si1 0.230900 0.295853 0.241930
Si Si2 0.674263 0.438172 0.633125
Si Si3 0.592627 0.263893 0.961487
Si Si4 0.763136 0.824466 0.969663
Si Si5 0.401619 0.165543 0.561228
Si Si6 0.879178 0.043317 0.326779
Si Si7 0.590116 0.638712 0.718036
Si Si8 0.500368 0.005877 0.807123
O O1 0.201587 0.200635 0.123433
O O2 0.353164 0.228675 0.408668
O O3 0.269960 0.429139 0.230737
O O4 0.072626 0.284275 0.195295
O O5 0.543547 0.481310 0.457109
O O6 0.611451 0.496927 0.705705
O O7 0.840860 0.490678 0.751863
O O8 0.440840 0.336212 0.808873
O O9 0.574995 0.123777 0.918622
O O10 0.750851 0.308749 0.024502
O O11 0.597830 0.292794 0.100440
O O12 0.717594 0.695898 0.886880
O O13 0.811348 0.905582 0.894060
O O14 0.614303 0.896118 0.901289
O O15 0.924527 0.832277 0.148137
O O16 0.449055 0.031921 0.639815
#
# Coordination Sequence:
#
# PCOD9135349 Si02
#       8
#     4   4   4   4   4   4   4   4
#     4  12  24  41  65  96 133 172 214 269 330 391
#     4  10  22  42  63  89 133 173 212 263 327 389
#     4  10  22  38  70  97 127 169 219 271 322 393
#     4  10  22  40  69  93 132 163 218 272 324 385
#     4  12  22  37  68  98 124 165 219 268 321 382
#     4  10  20  39  65  93 127 168 211 267 324 385
#     4  10  22  42  67  96 127 173 211 270 330 392
#     4  12  22  43  65  96 127 171 218 274 320 391
#
# _framework density 27.491637999999998
#
# number of rings (size 3 to 8) (size 9 to 14) (size 15 to 20)
#    0.000    1.500    6.250    1.500    1.750    2.000 
#    2.250    1.250    0.000    0.000    0.000    0.000 
#    0.000    0.000    0.000    0.000    0.000    0.000 
#
# Total GULP energy -89210.446938 kJ/mol
# GULP energy per Si atom -5575.652934 kJ/mol
# Density = 2.742907 g / cm^3
# Si number density = 27.491638 Si / 1000 Ang^3
#
#
#
# Elastic Constant Matrix: (Units=GPa)
#
#
# Indices 1 2 3 4 5 6 
#
# 1 72.8162 -6.4946 34.0904 0.0000 13.6578 0.0000
# 2 -6.4946 121.4109 36.5103 0.0000 3.9432 0.0000
# 3 34.0904 36.5103 133.2825 0.0000 28.7729 0.0000
# 4 0.0000 0.0000 0.0000 59.0279 0.0000 14.7931
# 5 13.6578 3.9432 28.7729 0.0000 50.5392 0.0000
# 6 0.0000 0.0000 0.0000 14.7931 0.0000 27.8104
#
#
#
# Elastic Compliance Matrix: (Units=1/GPa)
#
#
# Indices 1 2 3 4 5 6 
#
# 1 0.016366 0.002251 -0.004344 0.000000 -0.002125 0.000000
# 2 0.002251 0.009314 -0.003237 0.000000 0.000508 0.000000
# 3 -0.004344 -0.003237 0.010481 0.000000 -0.004540 0.000000
# 4 0.000000 0.000000 0.000000 0.019547 0.000000 -0.010397
# 5 -0.002125 0.000508 -0.004540 0.000000 0.022906 0.000000
# 6 0.000000 0.000000 0.000000 -0.010397 0.000000 0.041488
#
#
# Mechanical properties :
#
#
# Convention : Reuss Voigt Hill
#
# Bulk Modulus (GPa) = 39.21365 50.63575 44.92470
# Shear Modulus (GPa) = 35.90354 45.03574 40.46964
#
# Velocity S-wave (km/s) = 3.61776 4.05181 3.84092
# Velocity P-wave (km/s) = 5.63433 6.35202 6.00391
#
# Compressibility (1/GPa) = 0.02550133
#
# Stress axis : x y z
#
# Youngs Moduli (GPa) = 61.10136 107.36862 95.41347
#
# Poissons Ratio (x) = -0.24166 0.41446
# Poissons Ratio (y) = -0.13752 0.30882
# Poissons Ratio (z) = 0.26541 0.34751
#
# Static dielectric constant tensor:
#      x y z
#    x 2.348440 0.000000 -0.162770 
#    y 0.000000 2.231420 0.000000 
#    z -0.162770 0.000000 2.185060 
# 
# From -- ./inp_files/30722.got.cif
#   From: 2010.05.17/outbox.cif.g08.bks.cpg/sg9_16_cif.got.tgz:30722.got - 2010.06.03 20:04:27.
