data_PCOD9135632
_publ_section_title
;
Structure prediction by ZEFSAII (Michael W. Deem and Ramdas Pophale) SiO2 
 PCOD9135632
Probable space group: C C
;
_chemical_formula_sum "Si O2"
_cell_formula_units_Z 28
_cell_length_a 5.092079
_cell_length_b 17.115297
_cell_length_c 16.018703
_cell_angle_alpha 90.000000
_cell_angle_beta 82.138325
_cell_angle_gamma 90.000000
_cell_volume 1382.947718
_symmetry_space_group_name_H-M "C C"
_symmetry_group_IT_number 9
_symmetry_cell_setting 'monoclinic'
loop_
_space_group_symop_operation_xyz
x,y,z
x,-y,1/2+z
1/2+x,1/2+y,z
1/2+x,1/2-y,1/2+z
loop_
_atom_site_type_symbol
_atom_site_label
_atom_site_fract_x
_atom_site_fract_y
_atom_site_fract_z
Si Si1 0.324590 0.425669 0.090130
Si Si2 0.576824 0.438189 0.480616
Si Si3 0.426419 0.464440 0.820926
Si Si4 0.847937 0.817421 0.927673
Si Si5 0.846707 0.790628 0.423595
Si Si6 0.754083 0.570255 0.698027
Si Si7 0.527497 0.908111 0.347045
O O1 0.526849 0.390904 0.150474
O O2 0.030901 0.440889 0.137842
O O3 0.483748 0.504246 0.056629
O O4 0.285050 0.371903 0.010308
O O5 0.513426 0.489310 0.400697
O O6 0.417443 0.357300 0.488355
O O7 0.878813 0.415920 0.443001
O O8 0.415144 0.375236 0.848008
O O9 0.619255 0.490766 0.738871
O O10 0.145706 0.507302 0.817456
O O11 0.604923 0.763322 0.910480
O O12 0.096436 0.765478 0.944889
O O13 0.757026 0.844511 0.349138
O O14 0.836608 0.615433 0.779595
#
# Coordination Sequence:
#
# PCOD9135632 Si02
#       7
#     4   4   4   4   4   4   4
#     4  11  24  38  65  93 124 163 210 262 313 362
#     4   9  21  38  66  87 117 162 212 249 302 372
#     4   9  21  38  66  90 117 154 215 257 296 365
#     4  11  24  38  65  97 120 159 215 264 299 360
#     4  11  22  39  64  90 126 158 206 263 309 363
#     4  11  22  39  64  93 126 160 210 258 320 366
#     4  10  20  42  64  94 116 170 210 255 303 386
#
# _framework density 20.24661
#
# number of rings (size 3 to 8) (size 9 to 14) (size 15 to 20)
#    0.000    1.714    2.857    0.857   12.000    0.000 
#    0.000    0.000   12.571    0.000    0.000    0.000 
#    0.000    0.000    0.000    0.000    0.000    0.000 
#
# Total GULP energy -77956.479104 kJ/mol
# GULP energy per Si atom -5568.319936 kJ/mol
# Density = 2.020053 g / cm^3
# Si number density = 20.246610 Si / 1000 Ang^3
#
#
#
# Elastic Constant Matrix: (Units=GPa)
#
#
# Indices 1 2 3 4 5 6 
#
# 1 144.7882 39.6148 32.0970 0.0000 -18.9326 0.0000
# 2 39.6148 103.8380 19.1694 0.0000 -9.9319 0.0000
# 3 32.0970 19.1694 66.3006 0.0000 -13.2602 0.0000
# 4 0.0000 0.0000 0.0000 11.0839 0.0000 -1.4402
# 5 -18.9326 -9.9319 -13.2602 0.0000 36.6304 0.0000
# 6 0.0000 0.0000 0.0000 -1.4402 0.0000 23.7244
#
#
#
# Elastic Compliance Matrix: (Units=1/GPa)
#
#
# Indices 1 2 3 4 5 6 
#
# 1 0.008582 -0.002480 -0.002895 0.000000 0.002715 0.000000
# 2 -0.002480 0.011005 -0.001769 0.000000 0.001062 0.000000
# 3 -0.002895 -0.001769 0.017896 0.000000 0.004503 0.000000
# 4 0.000000 0.000000 0.000000 0.090938 0.000000 0.005520
# 5 0.002715 0.001062 0.004503 0.000000 0.030621 0.000000
# 6 0.000000 0.000000 0.000000 0.005520 0.000000 0.042486
#
#
# Mechanical properties :
#
#
# Convention : Reuss Voigt Hill
#
# Bulk Modulus (GPa) = 43.11096 55.18769 49.14932
# Shear Modulus (GPa) = 22.36675 29.22411 25.79543
#
# Velocity S-wave (km/s) = 3.32733 3.80334 3.57327
# Velocity P-wave (km/s) = 6.00838 6.82672 6.43058
#
# Compressibility (1/GPa) = 0.02319596
#
# Stress axis : x y z
#
# Youngs Moduli (GPa) = 116.52427 90.87116 55.87823
#
# Poissons Ratio (x) = 0.22536 0.16174
# Poissons Ratio (y) = 0.28898 0.09884
# Poissons Ratio (z) = 0.33728 0.16073
#
# Static dielectric constant tensor:
#      x y z
#    x 1.836060 0.000000 0.003160 
#    y 0.000000 1.732650 0.000000 
#    z 0.003160 0.000000 1.774480 
# 
# From -- ./inp_files/21861.got.cif
#   From: 2010.05.17/outbox.cif.g08.bks.cpg/sg9_11_cif.got.tgz:21861.got - 2010.06.03 20:04:27.
