data_PCOD9135804
_publ_section_title
;
Structure prediction by ZEFSAII (Michael W. Deem and Ramdas Pophale) SiO2 
 PCOD9135804
Probable space group: C C
;
_chemical_formula_sum "Si O2"
_cell_formula_units_Z 28
_cell_length_a 9.776196
_cell_length_b 11.001529
_cell_length_c 13.791693
_cell_angle_alpha 90.000000
_cell_angle_beta 69.880740
_cell_angle_gamma 90.000000
_cell_volume 1392.824058
_symmetry_space_group_name_H-M "C C"
_symmetry_group_IT_number 9
_symmetry_cell_setting 'monoclinic'
loop_
_space_group_symop_operation_xyz
x,y,z
x,-y,1/2+z
1/2+x,1/2+y,z
1/2+x,1/2-y,1/2+z
loop_
_atom_site_type_symbol
_atom_site_label
_atom_site_fract_x
_atom_site_fract_y
_atom_site_fract_z
Si Si1 0.783280 0.716935 0.939200
Si Si2 0.608283 0.677745 0.631389
Si Si3 0.597448 0.175207 0.958257
Si Si4 0.114970 0.098882 0.144639
Si Si5 0.351357 0.760247 0.204123
Si Si6 0.762077 0.819799 0.220193
Si Si7 0.115949 0.429083 0.073119
O O1 0.806635 0.694217 0.821023
O O2 0.592374 0.060246 0.032252
O O3 0.937935 0.703611 0.954837
O O4 0.673795 0.628338 0.022649
O O5 0.647986 0.711279 0.511374
O O6 0.640746 0.540907 0.656072
O O7 0.708728 0.758722 0.675429
O O8 0.435151 0.692328 0.680600
O O9 0.699469 0.152777 0.841232
O O10 0.963911 0.356932 0.128163
O O11 0.196870 0.191501 0.196785
O O12 0.213896 0.349190 0.975453
O O13 0.446902 0.638317 0.191667
O O14 0.702296 0.915457 0.154370
#
# Coordination Sequence:
#
# PCOD9135804 Si02
#       7
#     4   4   4   4   4   4   4
#     4  10  20  45  67  93 135 182 216 279 340 386
#     4  12  26  41  68 102 131 173 230 280 322 414
#     4  12  23  41  73 100 131 184 229 264 344 403
#     4  10  23  45  65  95 135 173 222 277 333 396
#     4  10  23  43  67  96 135 176 220 281 334 391
#     4  10  24  45  66  98 138 179 215 281 343 383
#     4  10  23  42  70  98 133 175 224 276 330 399
#
# _framework density 20.103041999999999
#
# number of rings (size 3 to 8) (size 9 to 14) (size 15 to 20)
#    0.000    1.714    5.714    0.857    4.000    3.429 
#    0.000    0.000    0.000    0.000    0.000    0.000 
#    0.000    0.000    0.000    0.000    0.000    0.000 
#
# Total GULP energy -78155.192901 kJ/mol
# GULP energy per Si atom -5582.513779 kJ/mol
# Density = 2.005729 g / cm^3
# Si number density = 20.103042 Si / 1000 Ang^3
#
#
#
# Elastic Constant Matrix: (Units=GPa)
#
#
# Indices 1 2 3 4 5 6 
#
# 1 111.9431 0.0500 38.1917 0.0000 16.9224 0.0000
# 2 0.0500 58.6323 13.6926 0.0000 5.4217 0.0000
# 3 38.1917 13.6926 123.9167 0.0000 2.0138 0.0000
# 4 0.0000 0.0000 0.0000 8.7972 0.0000 0.7724
# 5 16.9224 5.4217 2.0138 0.0000 29.7589 0.0000
# 6 0.0000 0.0000 0.0000 0.7724 0.0000 12.7712
#
#
#
# Elastic Compliance Matrix: (Units=1/GPa)
#
#
# Indices 1 2 3 4 5 6 
#
# 1 0.011067 0.001382 -0.003461 0.000000 -0.006311 0.000000
# 2 0.001382 0.017963 -0.002348 0.000000 -0.003900 0.000000
# 3 -0.003461 -0.002348 0.009367 0.000000 0.001762 0.000000
# 4 0.000000 0.000000 0.000000 0.114279 0.000000 -0.006912
# 5 -0.006311 -0.003900 0.001762 0.000000 0.037783 0.000000
# 6 0.000000 0.000000 0.000000 -0.006912 0.000000 0.078719
#
#
# Mechanical properties :
#
#
# Convention : Reuss Voigt Hill
#
# Bulk Modulus (GPa) = 33.84631 44.26230 39.05430
# Shear Modulus (GPa) = 17.36828 26.43600 21.90214
#
# Velocity S-wave (km/s) = 2.94251 3.63026 3.30433
# Velocity P-wave (km/s) = 5.33080 6.29581 5.83330
#
# Compressibility (1/GPa) = 0.02954532
#
# Stress axis : x y z
#
# Youngs Moduli (GPa) = 90.35536 55.66953 106.75238
#
# Poissons Ratio (x) = -0.07696 0.36949
# Poissons Ratio (y) = -0.12491 0.25061
# Poissons Ratio (z) = 0.31274 0.13069
#
# Static dielectric constant tensor:
#      x y z
#    x 1.708660 0.000000 -0.006290 
#    y 0.000000 1.737590 0.000000 
#    z -0.006290 0.000000 1.696520 
# 
# From -- ./inp_files/14423.got.cif
#   From: 2010.05.17/outbox.cif.g08.bks.cpg/sg9_8_cif.got.tgz:14423.got - 2010.06.03 20:04:27.
