data_PCOD9135614
_publ_section_title
;
Structure prediction by ZEFSAII (Michael W. Deem and Ramdas Pophale) SiO2 
 PCOD9135614
Probable space group: C C
;
_chemical_formula_sum "Si O2"
_cell_formula_units_Z 32
_cell_length_a 24.970791
_cell_length_b 9.887802
_cell_length_c 5.266880
_cell_angle_alpha 90.000000
_cell_angle_beta 119.759529
_cell_angle_gamma 90.000000
_cell_volume 1128.920561
_symmetry_space_group_name_H-M "C C"
_symmetry_group_IT_number 9
_symmetry_cell_setting 'monoclinic'
loop_
_space_group_symop_operation_xyz
x,y,z
x,-y,1/2+z
1/2+x,1/2+y,z
1/2+x,1/2-y,1/2+z
loop_
_atom_site_type_symbol
_atom_site_label
_atom_site_fract_x
_atom_site_fract_y
_atom_site_fract_z
Si Si1 0.311010 0.625766 0.597550
Si Si2 0.692869 0.066110 0.061891
Si Si3 0.958105 0.543895 0.786123
Si Si4 0.237327 0.810555 0.814201
Si Si5 0.110201 0.862973 0.300678
Si Si6 0.940946 0.919656 0.622099
Si Si7 0.362564 0.158426 0.843855
Si Si8 0.060611 0.831556 0.680762
O O1 0.264227 0.532634 0.323273
O O2 0.267603 0.729781 0.650662
O O3 0.368112 0.592719 0.913142
O O4 0.346690 0.708896 0.460695
O O5 0.664977 0.971020 0.773894
O O6 0.706698 0.208139 0.949377
O O7 0.992757 0.515943 0.609522
O O8 0.918320 0.675706 0.769543
O O9 0.897708 0.443546 0.614978
O O10 0.179578 0.887953 0.558804
O O11 0.295889 0.884915 0.077521
O O12 0.074898 0.778554 0.435672
O O13 0.079595 0.009946 0.185296
O O14 0.103265 0.788257 0.015792
O O15 0.991616 0.818082 0.621361
O O16 0.954057 0.959078 0.943444
#
# Coordination Sequence:
#
# PCOD9135614 Si02
#       8
#     4   4   4   4   4   4   4   4
#     4  11  24  36  56  91 127 163 209 254 316 377
#     4  11  22  40  54  76 119 164 202 239 308 374
#     4   8  16  32  49  61 103 148 186 236 268 345
#     4  11  24  36  57  87 126 163 201 259 315 376
#     4  10  21  38  59  84 127 154 206 250 297 370
#     4  12  23  40  64  89 123 170 210 256 308 376
#     4   9  20  34  49  80 115 159 210 231 304 366
#     4  10  20  42  60  90 120 165 210 245 300 368
#
# _framework density 28.345659000000001
#
# number of rings (size 3 to 8) (size 9 to 14) (size 15 to 20)
#    0.750    1.000    3.750    1.500    7.000    2.000 
#    0.000    0.000    0.000    0.000    0.000    0.000 
#   11.250    0.000    0.000    0.000    0.000    0.000 
#
# Total GULP energy -89282.155016 kJ/mol
# GULP energy per Si atom -5580.134689 kJ/mol
# Density = 2.828114 g / cm^3
# Si number density = 28.345659 Si / 1000 Ang^3
#
#
#
# Elastic Constant Matrix: (Units=GPa)
#
#
# Indices 1 2 3 4 5 6 
#
# 1 137.8308 -0.4805 22.9798 0.0000 -18.0873 0.0000
# 2 -0.4805 40.1594 -1.4635 0.0000 12.6995 0.0000
# 3 22.9798 -1.4635 105.6619 0.0000 -38.5209 0.0000
# 4 0.0000 0.0000 0.0000 22.6426 0.0000 9.4875
# 5 -18.0873 12.6995 -38.5209 0.0000 66.2172 0.0000
# 6 0.0000 0.0000 0.0000 9.4875 0.0000 26.6864
#
#
#
# Elastic Compliance Matrix: (Units=1/GPa)
#
#
# Indices 1 2 3 4 5 6 
#
# 1 0.007639 -0.000430 -0.001112 0.000000 0.001522 0.000000
# 2 -0.000430 0.026832 -0.001845 0.000000 -0.006337 0.000000
# 3 -0.001112 -0.001845 0.012309 0.000000 0.007211 0.000000
# 4 0.000000 0.000000 0.000000 0.051895 0.000000 -0.018450
# 5 0.001522 -0.006337 0.007211 0.000000 0.020928 0.000000
# 6 0.000000 0.000000 0.000000 -0.018450 0.000000 0.044031
#
#
# Mechanical properties :
#
#
# Convention : Reuss Voigt Hill
#
# Bulk Modulus (GPa) = 24.99692 36.19152 30.59422
# Shear Modulus (GPa) = 27.21154 40.61699 33.91426
#
# Velocity S-wave (km/s) = 3.10173 3.78950 3.46273
# Velocity P-wave (km/s) = 4.65461 5.65179 5.17726
#
# Compressibility (1/GPa) = 0.04000493
#
# Stress axis : x y z
#
# Youngs Moduli (GPa) = 130.90766 37.26850 81.23905
#
# Poissons Ratio (x) = 0.01604 0.09037
# Poissons Ratio (y) = 0.05635 0.14988
# Poissons Ratio (z) = 0.14563 0.06876
#
# Static dielectric constant tensor:
#      x y z
#    x 2.377760 0.000000 -0.177780 
#    y 0.000000 2.476140 0.000000 
#    z -0.177780 0.000000 2.302580 
# 
# From -- ./inp_files/3326.got.cif
#   From: 2010.05.17/outbox.cif.g08.bks.cpg/sg9_2_cif.got.tgz:3326.got - 2010.06.03 20:04:27.
