data_PCOD9135635
_publ_section_title
;
Structure prediction by ZEFSAII (Michael W. Deem and Ramdas Pophale) SiO2 
 PCOD9135635
Probable space group: C C
;
_chemical_formula_sum "Si O2"
_cell_formula_units_Z 28
_cell_length_a 7.355984
_cell_length_b 26.507069
_cell_length_c 6.136814
_cell_angle_alpha 90.000000
_cell_angle_beta 72.603629
_cell_angle_gamma 90.000000
_cell_volume 1141.857296
_symmetry_space_group_name_H-M "C C"
_symmetry_group_IT_number 9
_symmetry_cell_setting 'monoclinic'
loop_
_space_group_symop_operation_xyz
x,y,z
x,-y,1/2+z
1/2+x,1/2+y,z
1/2+x,1/2-y,1/2+z
loop_
_atom_site_type_symbol
_atom_site_label
_atom_site_fract_x
_atom_site_fract_y
_atom_site_fract_z
Si Si1 0.010210 0.304592 0.418180
Si Si2 0.669809 0.052793 0.562642
Si Si3 0.321456 0.895756 0.391554
Si Si4 0.737945 0.131445 0.160885
Si Si5 0.505222 0.406441 0.180901
Si Si6 0.324198 0.015680 0.152157
Si Si7 0.388079 0.308684 0.989292
O O1 0.071078 0.337427 0.605468
O O2 0.184864 0.308083 0.186293
O O3 0.827322 0.335613 0.396768
O O4 0.973330 0.246573 0.478288
O O5 0.536750 0.085871 0.769733
O O6 0.676364 0.087002 0.344762
O O7 0.881131 0.052806 0.588832
O O8 0.547892 0.002184 0.573045
O O9 0.271008 0.925519 0.629893
O O10 0.205878 0.916030 0.224271
O O11 0.850813 0.173538 0.257788
O O12 0.876116 0.106489 0.937198
O O13 0.509344 0.354135 0.047924
O O14 0.263378 0.003513 0.425484
#
# Coordination Sequence:
#
# PCOD9135635 Si02
#       7
#     4   4   4   4   4   4   4
#     4  11  23  39  62  92 137 175 230 280 347 409
#     4  10  21  46  69  94 134 179 229 286 345 419
#     4  11  22  44  68  99 137 180 226 290 347 421
#     4  10  20  42  65  91 136 178 226 287 350 405
#     4  10  23  43  65 100 138 174 233 285 347 412
#     4  10  23  43  74 102 137 181 238 284 356 422
#     4  10  24  39  59  98 129 181 230 280 342 414
#
# _framework density 24.521453000000001
#
# number of rings (size 3 to 8) (size 9 to 14) (size 15 to 20)
#    0.000    1.714    4.286    0.857    6.000    2.286 
#   12.857    5.714    0.000    0.000    0.000    0.000 
#    0.000    0.000    0.000    0.000    0.000    0.000 
#
# Total GULP energy -78141.131728 kJ/mol
# GULP energy per Si atom -5581.509409 kJ/mol
# Density = 2.446564 g / cm^3
# Si number density = 24.521453 Si / 1000 Ang^3
#
#
#
# Elastic Constant Matrix: (Units=GPa)
#
#
# Indices 1 2 3 4 5 6 
#
# 1 99.6631 34.2705 29.0236 0.0000 21.6399 0.0000
# 2 34.2705 100.1657 36.2108 0.0000 7.6915 0.0000
# 3 29.0236 36.2108 107.0812 0.0000 22.4000 0.0000
# 4 0.0000 0.0000 0.0000 25.5717 0.0000 -2.7387
# 5 21.6399 7.6915 22.4000 0.0000 29.2634 0.0000
# 6 0.0000 0.0000 0.0000 -2.7387 0.0000 35.0717
#
#
#
# Elastic Compliance Matrix: (Units=1/GPa)
#
#
# Indices 1 2 3 4 5 6 
#
# 1 0.013303 -0.003689 -0.000599 0.000000 -0.008409 0.000000
# 2 -0.003689 0.012397 -0.003669 0.000000 0.002278 0.000000
# 3 -0.000599 -0.003669 0.012439 0.000000 -0.008114 0.000000
# 4 0.000000 0.000000 0.000000 0.039436 0.000000 0.003079
# 5 -0.008409 0.002278 -0.008114 0.000000 0.046003 0.000000
# 6 0.000000 0.000000 0.000000 0.003079 0.000000 0.028753
#
#
# Mechanical properties :
#
#
# Convention : Reuss Voigt Hill
#
# Bulk Modulus (GPa) = 44.99448 56.21331 50.60389
# Shear Modulus (GPa) = 28.46518 31.80838 30.13678
#
# Velocity S-wave (km/s) = 3.41079 3.60553 3.50951
# Velocity P-wave (km/s) = 5.82238 6.34878 6.09127
#
# Compressibility (1/GPa) = 0.02222495
#
# Stress axis : x y z
#
# Youngs Moduli (GPa) = 75.17313 80.66456 80.39127
#
# Poissons Ratio (x) = 0.29758 0.04816
# Poissons Ratio (y) = 0.27732 0.29494
# Poissons Ratio (z) = 0.04503 0.29594
#
# Static dielectric constant tensor:
#      x y z
#    x 1.983830 0.000000 0.031660 
#    y 0.000000 1.994140 0.000000 
#    z 0.031660 0.000000 1.991430 
# 
# From -- ./inp_files/987.got.cif
#   From: 2010.05.17/outbox.cif.g08.bks.cpg/sg9_1_cif.got.tgz:987.got - 2010.06.03 20:04:27.
