data_PCOD9135854
_publ_section_title
;
Structure prediction by ZEFSAII (Michael W. Deem and Ramdas Pophale) SiO2 
 PCOD9135854
Probable space group: C C
;
_chemical_formula_sum "Si O2"
_cell_formula_units_Z 28
_cell_length_a 18.568401
_cell_length_b 11.829721
_cell_length_c 13.282653
_cell_angle_alpha 90.000000
_cell_angle_beta 20.003703
_cell_angle_gamma 90.000000
_cell_volume 998.073741
_symmetry_space_group_name_H-M "C C"
_symmetry_group_IT_number 9
_symmetry_cell_setting 'monoclinic'
loop_
_space_group_symop_operation_xyz
x,y,z
x,-y,1/2+z
1/2+x,1/2+y,z
1/2+x,1/2-y,1/2+z
loop_
_atom_site_type_symbol
_atom_site_label
_atom_site_fract_x
_atom_site_fract_y
_atom_site_fract_z
Si Si1 0.433140 0.073585 0.142800
Si Si2 0.423940 0.413904 0.782315
Si Si3 0.808113 0.077401 0.112822
Si Si4 0.192879 0.371143 0.558899
Si Si5 0.749601 0.543846 0.597611
Si Si6 0.768188 0.256795 0.750262
Si Si7 0.182644 0.815170 0.586051
O O1 0.272694 0.106871 0.263642
O O2 0.304700 0.083422 0.412733
O O3 0.586600 0.965313 0.947646
O O4 0.582477 0.185605 0.940699
O O5 0.656386 0.374734 0.510225
O O6 0.363717 0.468898 0.970202
O O7 0.325877 0.517125 0.849787
O O8 0.317520 0.296689 0.894948
O O9 0.776611 0.165364 0.060668
O O10 0.007417 0.088112 0.925988
O O11 0.224727 0.292878 0.420807
O O12 0.950579 0.410461 0.894380
O O13 0.757855 0.408721 0.567594
O O14 0.964776 0.228429 0.420721
#
# Coordination Sequence:
#
# PCOD9135854 Si02
#       7
#     4   4   4   4   4   4   4
#     4  11  22  35  57  89 115 145 193 229 291 329
#     4   9  18  31  52  81 109 146 176 232 276 328
#     4   9  19  39  50  82 115 144 183 232 280 331
#     4   9  20  34  51  82 115 146 186 222 289 330
#     4  10  21  35  53  82 115 152 178 240 277 335
#     4  11  19  33  57  86 110 144 184 242 275 334
#     4  11  17  33  56  82 113 141 186 231 282 319
#
# _framework density 28.054043
#
# number of rings (size 3 to 8) (size 9 to 14) (size 15 to 20)
#    0.857    1.143    4.286    0.857    2.000    1.143 
#    0.000    0.000    0.000    1.714    3.714    0.000 
#    0.000    0.000    0.000    0.000    0.000    0.000 
#
# Total GULP energy -77940.579593 kJ/mol
# GULP energy per Si atom -5567.184257 kJ/mol
# Density = 2.799019 g / cm^3
# Si number density = 28.054043 Si / 1000 Ang^3
#
#
#
# Elastic Constant Matrix: (Units=GPa)
#
#
# Indices 1 2 3 4 5 6 
#
# 1 62.4006 15.9737 30.2548 -0.0005 -15.9110 0.0005
# 2 15.9737 73.0416 22.1222 0.0000 -20.8761 -0.0005
# 3 30.2548 22.1222 145.5711 -0.0009 -28.8893 0.0003
# 4 -0.0005 0.0000 -0.0009 30.5948 0.0000 -16.9170
# 5 -15.9110 -20.8761 -28.8893 0.0000 39.7421 0.0000
# 6 0.0005 -0.0005 0.0003 -16.9170 0.0000 32.6758
#
#
#
# Elastic Compliance Matrix: (Units=1/GPa)
#
#
# Indices 1 2 3 4 5 6 
#
# 1 0.019038 -0.002029 -0.002743 0.000000 0.004562 0.000000
# 2 -0.002029 0.016427 -0.000612 0.000000 0.007372 0.000000
# 3 -0.002743 -0.000612 0.008473 0.000000 0.004740 0.000000
# 4 0.000000 0.000000 0.000000 0.045795 0.000000 0.023709
# 5 0.004562 0.007372 0.004740 0.000000 0.034307 0.000000
# 6 0.000000 0.000000 0.000000 0.023709 0.000000 0.042878
#
#
# Mechanical properties :
#
#
# Convention : Reuss Voigt Hill
#
# Bulk Modulus (GPa) = 30.14678 46.41274 38.27976
# Shear Modulus (GPa) = 26.49120 34.78005 30.63563
#
# Velocity S-wave (km/s) = 3.07627 3.52483 3.30816
# Velocity P-wave (km/s) = 4.83603 5.75725 5.31663
#
# Compressibility (1/GPa) = 0.03317104
#
# Stress axis : x y z
#
# Youngs Moduli (GPa) = 52.52622 60.87640 118.01922
#
# Poissons Ratio (x) = 0.12350 0.32373
# Poissons Ratio (y) = 0.10656 0.07219
# Poissons Ratio (z) = 0.14408 0.03724
#
# Static dielectric constant tensor:
#      x y z
#    x 2.462070 0.000000 -0.230510 
#    y 0.000000 2.248430 0.000000 
#    z -0.230510 0.000000 2.312710 
# 
# From -- ./inp_files/27496.got.cif
#   From: 2010.05.17/outbox.cif.g08.bks.cpg/sg9_14_cif.got.tgz:27496.got - 2010.06.03 20:04:27.
