data_PCOD9135350
_publ_section_title
;
Structure prediction by ZEFSAII (Michael W. Deem and Ramdas Pophale) SiO2 
 PCOD9135350
Probable space group: C C
;
_chemical_formula_sum "Si O2"
_cell_formula_units_Z 32
_cell_length_a 11.261601
_cell_length_b 18.952767
_cell_length_c 8.614649
_cell_angle_alpha 90.000000
_cell_angle_beta 45.473344
_cell_angle_gamma 90.000000
_cell_volume 1310.852284
_symmetry_space_group_name_H-M "C C"
_symmetry_group_IT_number 9
_symmetry_cell_setting 'monoclinic'
loop_
_space_group_symop_operation_xyz
x,y,z
x,-y,1/2+z
1/2+x,1/2+y,z
1/2+x,1/2-y,1/2+z
loop_
_atom_site_type_symbol
_atom_site_label
_atom_site_fract_x
_atom_site_fract_y
_atom_site_fract_z
Si Si1 0.273930 0.050241 0.075000
Si Si2 0.174008 0.540958 0.739243
Si Si3 0.745126 0.695191 0.119819
Si Si4 0.168034 0.405330 0.913275
Si Si5 0.261659 0.320696 0.352750
Si Si6 0.070754 0.216843 0.755354
Si Si7 0.018160 0.270360 0.121253
Si Si8 0.264256 0.910033 0.236639
O O1 0.240117 0.120050 0.208292
O O2 0.203571 0.976847 0.194313
O O3 0.473496 0.039993 0.900384
O O4 0.214662 0.070493 0.957817
O O5 0.234421 0.462352 0.729333
O O6 0.232237 0.563487 0.516542
O O7 0.209142 0.603576 0.831314
O O8 0.762027 0.761585 0.216572
O O9 0.583296 0.706765 0.165353
O O10 0.894073 0.692810 0.856360
O O11 0.176789 0.321418 0.935478
O O12 0.967048 0.407462 0.061500
O O13 0.145134 0.283790 0.591735
O O14 0.444811 0.322472 0.256412
O O15 0.194866 0.159851 0.718540
O O16 0.968396 0.244599 0.998094
#
# Coordination Sequence:
#
# PCOD9135350 Si02
#       8
#     4   4   4   4   4   4   4   4
#     4  10  20  39  65  93 129 169 229 268 331 396
#     4  10  21  40  62  96 127 175 221 276 326 394
#     4  12  22  43  68  95 129 175 225 271 334 400
#     4  10  20  39  65  93 129 169 229 268 331 396
#     4  12  26  44  68 103 140 176 226 282 339 399
#     4  12  26  44  68 103 140 176 226 282 339 399
#     4  12  22  43  68  95 129 175 225 271 334 400
#     4  10  21  40  62  96 127 175 221 276 326 394
#
# _framework density 24.4116
#
# number of rings (size 3 to 8) (size 9 to 14) (size 15 to 20)
#    0.000    1.000    5.000    3.000    3.500    0.000 
#    0.000    2.500    0.000    0.000    0.000    0.000 
#    0.000    0.000    0.000    0.000    0.000    0.000 
#
# Total GULP energy -89283.109560 kJ/mol
# GULP energy per Si atom -5580.194347 kJ/mol
# Density = 2.435604 g / cm^3
# Si number density = 24.411600 Si / 1000 Ang^3
#
#
#
# Elastic Constant Matrix: (Units=GPa)
#
#
# Indices 1 2 3 4 5 6 
#
# 1 87.6667 -3.7403 13.1559 0.0000 16.4943 0.0000
# 2 -3.7403 73.6350 3.7924 0.0000 -5.7214 0.0000
# 3 13.1559 3.7924 63.1580 0.0000 8.0693 0.0000
# 4 0.0000 0.0000 0.0000 25.8395 0.0000 12.6985
# 5 16.4943 -5.7214 8.0693 0.0000 20.9989 0.0000
# 6 0.0000 0.0000 0.0000 12.6985 0.0000 46.7585
#
#
#
# Elastic Compliance Matrix: (Units=1/GPa)
#
#
# Indices 1 2 3 4 5 6 
#
# 1 0.013525 -0.000014 -0.001534 0.000000 -0.010038 0.000000
# 2 -0.000014 0.013990 -0.001394 0.000000 0.004358 0.000000
# 3 -0.001534 -0.001394 0.016964 0.000000 -0.005694 0.000000
# 4 0.000000 0.000000 0.000000 0.044661 0.000000 -0.012129
# 5 -0.010038 0.004358 -0.005694 0.000000 0.058882 0.000000
# 6 0.000000 0.000000 0.000000 -0.012129 0.000000 0.024680
#
#
# Mechanical properties :
#
#
# Convention : Reuss Voigt Hill
#
# Bulk Modulus (GPa) = 25.90975 27.87507 26.89241
# Shear Modulus (GPa) = 26.11632 32.80284 29.45958
#
# Velocity S-wave (km/s) = 3.27438 3.66968 3.47765
# Velocity P-wave (km/s) = 4.99321 5.42208 5.21206
#
# Compressibility (1/GPa) = 0.03859552
#
# Stress axis : x y z
#
# Youngs Moduli (GPa) = 73.93677 71.47840 58.94833
#
# Poissons Ratio (x) = 0.00100 0.09042
# Poissons Ratio (y) = 0.00103 0.08218
# Poissons Ratio (z) = 0.11342 0.09964
#
# Static dielectric constant tensor:
#      x y z
#    x 1.941440 0.000000 -0.029820 
#    y 0.000000 2.048890 0.000000 
#    z -0.029820 0.000000 2.000780 
# 
# From -- ./inp_files/8379.got.cif
#   From: 2010.05.17/outbox.cif.g08.bks.cpg/sg9_5_cif.got.tgz:8379.got - 2010.06.03 20:04:27.
