data_PCOD9135037
_publ_section_title
;
Structure prediction by ZEFSAII (Michael W. Deem and Ramdas Pophale) SiO2 
 PCOD9135037
Probable space group: C C
;
_chemical_formula_sum "Si O2"
_cell_formula_units_Z 32
_cell_length_a 21.933403
_cell_length_b 7.252378
_cell_length_c 17.634764
_cell_angle_alpha 90.000000
_cell_angle_beta 27.715921
_cell_angle_gamma 90.000000
_cell_volume 1304.641798
_symmetry_space_group_name_H-M "C C"
_symmetry_group_IT_number 9
_symmetry_cell_setting 'monoclinic'
loop_
_space_group_symop_operation_xyz
x,y,z
x,-y,1/2+z
1/2+x,1/2+y,z
1/2+x,1/2-y,1/2+z
loop_
_atom_site_type_symbol
_atom_site_label
_atom_site_fract_x
_atom_site_fract_y
_atom_site_fract_z
Si Si1 0.918710 0.931600 0.842520
Si Si2 0.743711 0.360106 0.143416
Si Si3 0.296356 0.008137 0.839126
Si Si4 0.529181 0.183262 0.276878
Si Si5 0.610992 0.634724 0.941298
Si Si6 0.681995 0.665719 0.112999
Si Si7 0.573736 0.970511 0.558985
Si Si8 0.349668 0.440222 0.746637
O O1 0.903252 0.984439 0.771612
O O2 0.039620 0.797616 0.733812
O O3 0.966174 0.116492 0.829523
O O4 0.781450 0.834158 0.011598
O O5 0.661048 0.217244 0.180928
O O6 0.707424 0.305979 0.268311
O O7 0.677389 0.555922 0.195814
O O8 0.899444 0.397809 0.960853
O O9 0.174866 0.968024 0.919089
O O10 0.309223 0.224850 0.801595
O O11 0.433966 0.906562 0.678920
O O12 0.251722 0.023722 0.975542
O O13 0.564424 0.087929 0.157632
O O14 0.474909 0.561490 0.055415
O O15 0.568691 0.810913 0.039929
O O16 0.723256 0.937143 0.369188
#
# Coordination Sequence:
#
# PCOD9135037 Si02
#       8
#     4   4   4   4   4   4   4   4
#     4  10  21  36  64  90 128 174 230 282 332 411
#     4  11  25  39  64 100 148 174 230 297 355 418
#     4   9  17  32  59  91 118 163 231 277 319 397
#     4  11  24  41  61 102 139 177 226 293 358 414
#     4  10  21  38  64  98 132 181 235 286 345 421
#     4  10  20  38  62  96 124 177 232 282 332 413
#     4  10  20  36  63  90 129 175 230 284 332 417
#     4   9  18  32  59  91 118 163 226 269 329 391
#
# _framework density 24.527804
#
# number of rings (size 3 to 8) (size 9 to 14) (size 15 to 20)
#    0.000    2.000    2.500    0.750   10.500    1.000 
#    0.000    0.000    2.750    1.500    0.000    0.000 
#    0.000    0.000    0.000    0.000    0.000    0.000 
#
# Total GULP energy -89090.408390 kJ/mol
# GULP energy per Si atom -5568.150524 kJ/mol
# Density = 2.447198 g / cm^3
# Si number density = 24.527804 Si / 1000 Ang^3
#
#
#
# Elastic Constant Matrix: (Units=GPa)
#
#
# Indices 1 2 3 4 5 6 
#
# 1 67.9155 19.9254 26.8500 -0.0001 -9.0494 -0.0001
# 2 19.9254 72.8781 23.0636 0.0003 -1.3789 0.0004
# 3 26.8500 23.0636 122.9593 0.0018 -24.3388 0.0002
# 4 -0.0001 0.0003 0.0018 23.5479 0.0002 -5.2935
# 5 -9.0494 -1.3789 -24.3388 0.0002 52.3428 0.0000
# 6 -0.0001 0.0004 0.0002 -5.2935 0.0000 20.0054
#
#
#
# Elastic Compliance Matrix: (Units=1/GPa)
#
#
# Indices 1 2 3 4 5 6 
#
# 1 0.017122 -0.003793 -0.002711 0.000000 0.001600 0.000000
# 2 -0.003793 0.015473 -0.002338 0.000000 -0.001335 0.000000
# 3 -0.002711 -0.002338 0.009977 -0.000001 0.004109 0.000000
# 4 0.000000 0.000000 -0.000001 0.045152 0.000000 0.011947
# 5 0.001600 -0.001335 0.004109 0.000000 0.021257 0.000000
# 6 0.000000 0.000000 0.000000 0.011947 0.000000 0.053148
#
#
# Mechanical properties :
#
#
# Convention : Reuss Voigt Hill
#
# Bulk Modulus (GPa) = 40.18097 44.82566 42.50332
# Shear Modulus (GPa) = 26.58035 32.10682 29.34359
#
# Velocity S-wave (km/s) = 3.29550 3.62193 3.46257
# Velocity P-wave (km/s) = 5.55858 5.98384 5.77513
#
# Compressibility (1/GPa) = 0.02488740
#
# Stress axis : x y z
#
# Youngs Moduli (GPa) = 58.40495 64.62717 100.23455
#
# Poissons Ratio (x) = 0.24514 0.27170
# Poissons Ratio (y) = 0.22154 0.23439
# Poissons Ratio (z) = 0.15832 0.15113
#
# Static dielectric constant tensor:
#      x y z
#    x 2.062050 0.000000 -0.155010 
#    y 0.000000 2.042430 0.000000 
#    z -0.155010 0.000000 2.108240 
# 
# From -- ./inp_files/31225.got.cif
#   From: 2010.05.17/outbox.cif.g08.bks.cpg/sg9_16_cif.got.tgz:31225.got - 2010.06.03 20:04:27.
