data_PCOD9135794
_publ_section_title
;
Structure prediction by ZEFSAII (Michael W. Deem and Ramdas Pophale) SiO2 
 PCOD9135794
Probable space group: C C
;
_chemical_formula_sum "Si O2"
_cell_formula_units_Z 32
_cell_length_a 8.302192
_cell_length_b 11.424847
_cell_length_c 18.901048
_cell_angle_alpha 90.000000
_cell_angle_beta 137.814085
_cell_angle_gamma 90.000000
_cell_volume 1203.926404
_symmetry_space_group_name_H-M "C C"
_symmetry_group_IT_number 9
_symmetry_cell_setting 'monoclinic'
loop_
_space_group_symop_operation_xyz
x,y,z
x,-y,1/2+z
1/2+x,1/2+y,z
1/2+x,1/2-y,1/2+z
loop_
_atom_site_type_symbol
_atom_site_label
_atom_site_fract_x
_atom_site_fract_y
_atom_site_fract_z
Si Si1 0.807800 0.329085 0.813980
Si Si2 0.372781 0.752725 0.262913
Si Si3 0.088399 0.912242 0.603750
Si Si4 0.433019 0.371748 0.152831
Si Si5 0.673167 0.769731 0.493108
Si Si6 0.989756 0.912404 0.332926
Si Si7 0.975358 0.492396 0.980658
Si Si8 0.444021 0.070256 0.670830
O O1 0.550110 0.323454 0.770954
O O2 0.743283 0.342066 0.711346
O O3 0.960881 0.209757 0.865963
O O4 0.943598 0.437659 0.891977
O O5 0.465531 0.731813 0.372471
O O6 0.438336 0.880253 0.249953
O O7 0.082855 0.762074 0.170415
O O8 0.871023 0.833562 0.508335
O O9 0.269018 0.961858 0.606404
O O10 0.984308 0.022397 0.614397
O O11 0.538911 0.389077 0.265583
O O12 0.149047 0.394529 0.071073
O O13 0.812865 0.673925 0.584456
O O14 0.578649 0.876244 0.511342
O O15 0.718884 0.961865 0.246396
O O16 0.211926 0.992140 0.428043
#
# Coordination Sequence:
#
# PCOD9135794 Si02
#       8
#     4   4   4   4   4   4   4   4
#     4  11  23  44  71 103 151 193 249 315 376 456
#     4  10  21  43  70 100 149 195 240 311 371 441
#     4  10  20  44  72  98 148 192 244 307 373 448
#     4  10  22  43  69  99 145 192 247 303 372 448
#     4  11  21  43  72 101 144 192 248 310 371 448
#     4  11  22  45  67 105 148 187 248 317 373 447
#     4  11  24  42  73 105 140 196 247 307 381 448
#     4  10  23  42  72 105 147 195 251 302 375 456
#
# _framework density 26.579696999999999
#
# number of rings (size 3 to 8) (size 9 to 14) (size 15 to 20)
#    0.000    1.500    5.000    0.750    1.750    3.000 
#    6.750    0.000    2.750    0.000    0.000    0.000 
#    0.000    0.000    0.000    0.000    0.000    0.000 
#
# Total GULP energy -89349.921062 kJ/mol
# GULP energy per Si atom -5584.370066 kJ/mol
# Density = 2.651920 g / cm^3
# Si number density = 26.579697 Si / 1000 Ang^3
#
#
#
# Elastic Constant Matrix: (Units=GPa)
#
#
# Indices 1 2 3 4 5 6 
#
# 1 100.5737 49.5460 49.2613 0.0000 28.9225 0.0000
# 2 49.5460 97.3661 47.3548 0.0000 30.4144 0.0000
# 3 49.2613 47.3548 128.9409 0.0000 20.2221 0.0000
# 4 0.0000 0.0000 0.0000 29.8277 0.0000 8.4898
# 5 28.9225 30.4144 20.2221 0.0000 55.5310 0.0000
# 6 0.0000 0.0000 0.0000 8.4898 0.0000 46.6381
#
#
#
# Elastic Compliance Matrix: (Units=1/GPa)
#
#
# Indices 1 2 3 4 5 6 
#
# 1 0.015116 -0.004791 -0.003386 0.000000 -0.004016 0.000000
# 2 -0.004791 0.015828 -0.003197 0.000000 -0.005010 0.000000
# 3 -0.003386 -0.003197 0.010258 0.000000 -0.000221 0.000000
# 4 0.000000 0.000000 0.000000 0.035358 0.000000 -0.006436
# 5 -0.004016 -0.005010 -0.000221 0.000000 0.022924 0.000000
# 6 0.000000 0.000000 0.000000 -0.006436 0.000000 0.022613
#
#
# Mechanical properties :
#
#
# Convention : Reuss Voigt Hill
#
# Bulk Modulus (GPa) = 54.18599 68.80053 61.49326
# Shear Modulus (GPa) = 33.11325 38.44726 35.78026
#
# Velocity S-wave (km/s) = 3.53343 3.80740 3.67297
# Velocity P-wave (km/s) = 6.08912 6.72824 6.41664
#
# Compressibility (1/GPa) = 0.01845496
#
# Stress axis : x y z
#
# Youngs Moduli (GPa) = 66.15301 63.17831 97.48662
#
# Poissons Ratio (x) = 0.30268 0.33007
# Poissons Ratio (y) = 0.31694 0.31167
# Poissons Ratio (z) = 0.22398 0.20198
#
# Static dielectric constant tensor:
#      x y z
#    x 2.139610 0.000000 0.049740 
#    y 0.000000 2.098180 0.000000 
#    z 0.049740 0.000000 2.114310 
# 
# From -- ./inp_files/32745.got.cif
#   From: 2010.05.17/outbox.cif.g08.bks.cpg/sg9_17_cif.got.tgz:32745.got - 2010.06.03 20:04:27.
