data_PCOD9135945
_publ_section_title
;
Structure prediction by ZEFSAII (Michael W. Deem and Ramdas Pophale) SiO2 
 PCOD9135945
Probable space group: C C
;
_chemical_formula_sum "Si O2"
_cell_formula_units_Z 24
_cell_length_a 19.365712
_cell_length_b 5.327691
_cell_length_c 24.572864
_cell_angle_alpha 90.000000
_cell_angle_beta 159.832835
_cell_angle_gamma 90.000000
_cell_volume 874.068640
_symmetry_space_group_name_H-M "C C"
_symmetry_group_IT_number 9
_symmetry_cell_setting 'monoclinic'
loop_
_space_group_symop_operation_xyz
x,y,z
x,-y,1/2+z
1/2+x,1/2+y,z
1/2+x,1/2-y,1/2+z
loop_
_atom_site_type_symbol
_atom_site_label
_atom_site_fract_x
_atom_site_fract_y
_atom_site_fract_z
Si Si1 0.271010 0.258140 0.054350
Si Si2 0.889892 0.250315 0.315101
Si Si3 0.867326 0.440430 0.512949
Si Si4 0.877852 0.242256 0.839766
Si Si5 0.844501 0.261936 0.160926
Si Si6 0.289144 0.440749 0.386795
O O1 0.243294 0.177839 0.972070
O O2 0.368461 0.526851 0.138745
O O3 0.390809 0.025358 0.168308
O O4 0.068451 0.265927 0.940385
O O5 0.782756 0.487528 0.261787
O O6 0.108830 0.231634 0.504971
O O7 0.951408 0.253514 0.297581
O O8 0.767569 0.998130 0.233664
O O9 0.792518 0.706991 0.432202
O O10 0.078563 0.503793 0.699455
O O11 0.857011 0.207921 0.462492
O O12 0.917082 0.170068 0.930553
#
# Coordination Sequence:
#
# PCOD9135945 Si02
#       6
#     4   4   4   4   4   4
#     4  10  23  43  70 100 134 181 237 292 350 426
#     4  10  21  37  61  97 131 166 219 287 346 403
#     4  12  28  50  74 107 151 197 243 303 375 443
#     4  10  23  43  70 100 134 181 237 292 350 426
#     4  10  21  37  61  97 131 166 219 287 346 403
#     4  12  28  50  74 107 151 197 243 303 375 443
#
# _framework density 27.457795000000001
#
# number of rings (size 3 to 8) (size 9 to 14) (size 15 to 20)
#    0.000    1.333    0.000    4.000    0.000   16.000 
#    0.000    0.000    0.000    0.000    0.000    0.000 
#    0.000    0.000    0.000    0.000    0.000    0.000 
#
# Total GULP energy -67127.886962 kJ/mol
# GULP energy per Si atom -5593.990580 kJ/mol
# Density = 2.739530 g / cm^3
# Si number density = 27.457795 Si / 1000 Ang^3
#
#
#
# Elastic Constant Matrix: (Units=GPa)
#
#
# Indices 1 2 3 4 5 6 
#
# 1 113.0835 25.6007 50.4251 0.0142 -19.1596 0.0093
# 2 25.6007 288.0373 87.1922 0.0103 -8.4923 0.0190
# 3 50.4251 87.1922 156.4005 -0.0268 0.0144 -0.0127
# 4 0.0142 0.0103 -0.0268 62.2588 -0.0184 -21.2151
# 5 -19.1596 -8.4923 0.0144 -0.0184 36.5679 -0.0095
# 6 0.0093 0.0190 -0.0127 -21.2151 -0.0095 47.0658
#
#
#
# Elastic Compliance Matrix: (Units=1/GPa)
#
#
# Indices 1 2 3 4 5 6 
#
# 1 0.011550 0.000339 -0.003913 -0.000004 0.006132 -0.000004
# 2 0.000339 0.004221 -0.002463 -0.000003 0.001159 -0.000003
# 3 -0.003913 -0.002463 0.009029 0.000007 -0.002626 0.000007
# 4 -0.000004 -0.000003 0.000007 0.018977 0.000009 0.008554
# 5 0.006132 0.001159 -0.002626 0.000009 0.030829 0.000008
# 6 -0.000004 -0.000003 0.000007 0.008554 0.000008 0.025103
#
#
# Mechanical properties :
#
#
# Convention : Reuss Voigt Hill
#
# Bulk Modulus (GPa) = 78.58045 98.21746 88.39896
# Shear Modulus (GPa) = 43.09401 55.46539 49.27970
#
# Velocity S-wave (km/s) = 3.96594 4.49934 4.24104
# Velocity P-wave (km/s) = 7.04644 7.92718 7.49975
#
# Compressibility (1/GPa) = 0.01272581
#
# Stress axis : x y z
#
# Youngs Moduli (GPa) = 86.57814 236.89321 110.75753
#
# Poissons Ratio (x) = -0.08027 0.43344
# Poissons Ratio (y) = -0.02934 0.27276
# Poissons Ratio (z) = 0.33881 0.58340
#
# Static dielectric constant tensor:
#      x y z
#    x 2.335790 0.000000 0.113400 
#    y 0.000000 2.240770 0.000000 
#    z 0.113400 0.000000 2.074190 
# 
# From -- ./inp_files/12299.got.cif
#   From: 2010.05.17/outbox.cif.g08.bks.cpg/sg9_7_cif.got.tgz:12299.got - 2010.06.03 20:04:27.
