data_PCOD9135419
_publ_section_title
;
Structure prediction by ZEFSAII (Michael W. Deem and Ramdas Pophale) SiO2 
 PCOD9135419
Probable space group: C C
;
_chemical_formula_sum "Si O2"
_cell_formula_units_Z 32
_cell_length_a 8.679472
_cell_length_b 11.825304
_cell_length_c 18.707438
_cell_angle_alpha 90.000000
_cell_angle_beta 135.873097
_cell_angle_gamma 90.000000
_cell_volume 1336.857415
_symmetry_space_group_name_H-M "C C"
_symmetry_group_IT_number 9
_symmetry_cell_setting 'monoclinic'
loop_
_space_group_symop_operation_xyz
x,y,z
x,-y,1/2+z
1/2+x,1/2+y,z
1/2+x,1/2-y,1/2+z
loop_
_atom_site_type_symbol
_atom_site_label
_atom_site_fract_x
_atom_site_fract_y
_atom_site_fract_z
Si Si1 0.140880 0.290821 0.902040
Si Si2 0.481417 0.323218 0.554631
Si Si3 0.861444 0.180539 0.633890
Si Si4 0.207503 0.965136 0.400453
Si Si5 0.523960 0.558143 0.487815
Si Si6 0.753764 0.714766 0.680686
Si Si7 0.716297 0.691940 0.346732
Si Si8 0.708544 0.069558 0.089582
O O1 0.294699 0.370191 0.903605
O O2 0.893396 0.319851 0.842820
O O3 0.123752 0.162233 0.870105
O O4 0.269124 0.298020 0.021755
O O5 0.730005 0.272742 0.636635
O O6 0.472027 0.441976 0.510676
O O7 0.342904 0.232940 0.461060
O O8 0.368790 0.356667 0.591607
O O9 0.124582 0.179357 0.709161
O O10 0.790393 0.055619 0.632403
O O11 0.147478 0.016684 0.458224
O O12 0.121066 0.066125 0.322796
O O13 0.469494 0.952348 0.474639
O O14 0.677942 0.634663 0.590296
O O15 0.669708 0.843465 0.640562
O O16 0.017030 0.720692 0.771900
#
# Coordination Sequence:
#
# PCOD9135419 Si02
#       8
#     4   4   4   4   4   4   4   4
#     4  10  20  40  61  90 124 159 212 250 298 380
#     4  11  20  40  69  89 119 171 211 245 306 382
#     4  10  20  40  61  90 124 159 212 250 298 380
#     4  12  21  40  68  91 117 170 216 246 304 384
#     4  11  20  40  69  89 119 171 211 245 306 382
#     4  11  24  43  60  94 133 153 205 273 312 355
#     4  11  24  43  60  94 133 153 205 273 312 355
#     4  12  21  40  68  91 117 170 216 246 304 384
#
# _framework density 23.936734999999999
#
# number of rings (size 3 to 8) (size 9 to 14) (size 15 to 20)
#    0.000    1.000   10.000    0.750    0.000    0.000 
#    9.000    1.250    0.000    0.000    0.000    0.000 
#    0.000    0.000    0.000    0.000    0.000    0.000 
#
# Total GULP energy -89407.476913 kJ/mol
# GULP energy per Si atom -5587.967307 kJ/mol
# Density = 2.388225 g / cm^3
# Si number density = 23.936735 Si / 1000 Ang^3
#
#
#
# Elastic Constant Matrix: (Units=GPa)
#
#
# Indices 1 2 3 4 5 6 
#
# 1 92.0874 28.3608 16.8871 0.0000 16.0668 0.0000
# 2 28.3608 157.0272 -3.6214 0.0000 -4.1344 0.0000
# 3 16.8871 -3.6214 42.2506 0.0000 9.2250 0.0000
# 4 0.0000 0.0000 0.0000 31.0628 0.0000 7.1507
# 5 16.0668 -4.1344 9.2250 0.0000 32.8576 0.0000
# 6 0.0000 0.0000 0.0000 7.1507 0.0000 55.1337
#
#
#
# Elastic Compliance Matrix: (Units=1/GPa)
#
#
# Indices 1 2 3 4 5 6 
#
# 1 0.013484 -0.002686 -0.004374 0.000000 -0.005703 0.000000
# 2 -0.002686 0.006931 0.001268 0.000000 0.001830 0.000000
# 3 -0.004374 0.001268 0.026658 0.000000 -0.005186 0.000000
# 4 0.000000 0.000000 0.000000 0.033184 0.000000 -0.004304
# 5 -0.005703 0.001830 -0.005186 0.000000 0.034909 0.000000
# 6 0.000000 0.000000 0.000000 -0.004304 0.000000 0.018696
#
#
# Mechanical properties :
#
#
# Convention : Reuss Voigt Hill
#
# Bulk Modulus (GPa) = 28.17889 41.62426 34.90158
# Shear Modulus (GPa) = 31.79142 40.46008 36.12575
#
# Velocity S-wave (km/s) = 3.64832 4.11578 3.88908
# Velocity P-wave (km/s) = 5.43551 6.32560 5.89737
#
# Compressibility (1/GPa) = 0.03548755
#
# Stress axis : x y z
#
# Youngs Moduli (GPa) = 74.16293 144.28072 37.51271
#
# Poissons Ratio (x) = 0.38759 0.16409
# Poissons Ratio (y) = 0.19923 -0.04758
# Poissons Ratio (z) = 0.32441 -0.18299
#
# Static dielectric constant tensor:
#      x y z
#    x 1.949920 0.000000 -0.033400 
#    y 0.000000 1.864890 0.000000 
#    z -0.033400 0.000000 2.016150 
# 
# From -- ./inp_files/22753.got.cif
#   From: 2010.05.17/outbox.cif.g08.bks.cpg/sg9_12_cif.got.tgz:22753.got - 2010.06.03 20:04:27.
