data_PCOD9135076
_publ_section_title
;
Structure prediction by ZEFSAII (Michael W. Deem and Ramdas Pophale) SiO2 
 PCOD9135076
Probable space group: C C
;
_chemical_formula_sum "Si O2"
_cell_formula_units_Z 24
_cell_length_a 10.673849
_cell_length_b 14.185292
_cell_length_c 7.944996
_cell_angle_alpha 90.000000
_cell_angle_beta 52.763053
_cell_angle_gamma 90.000000
_cell_volume 957.728466
_symmetry_space_group_name_H-M "C C"
_symmetry_group_IT_number 9
_symmetry_cell_setting 'monoclinic'
loop_
_space_group_symop_operation_xyz
x,y,z
x,-y,1/2+z
1/2+x,1/2+y,z
1/2+x,1/2-y,1/2+z
loop_
_atom_site_type_symbol
_atom_site_label
_atom_site_fract_x
_atom_site_fract_y
_atom_site_fract_z
Si Si1 0.318610 0.956334 0.184460
Si Si2 0.948889 0.271768 0.177458
Si Si3 0.267357 0.625285 0.522169
Si Si4 0.472796 0.766963 0.763357
Si Si5 0.149821 0.436006 0.474943
Si Si6 0.694790 0.379220 0.938040
O O1 0.333273 0.863439 0.288362
O O2 0.181378 0.030490 0.333924
O O3 0.286695 0.920188 0.025126
O O4 0.484304 0.012089 0.060079
O O5 0.911370 0.186373 0.332928
O O6 0.119405 0.315057 0.071202
O O7 0.938827 0.245796 0.987041
O O8 0.258496 0.519127 0.456589
O O9 0.227650 0.609350 0.748803
O O10 0.600673 0.852196 0.642497
O O11 0.544700 0.675252 0.620669
O O12 0.323694 0.802652 0.776698
#
# Coordination Sequence:
#
# PCOD9135076 Si02
#       6
#     4   4   4   4   4   4
#     4   9  18  34  58  81 110 149 190 228 279 345
#     4  10  20  38  59  85 115 152 193 238 284 340
#     4  11  22  38  61  87 116 152 195 238 285 342
#     4  10  21  38  61  84 113 153 195 238 284 339
#     4  10  21  39  62  84 114 159 197 227 283 359
#     4  10  20  37  59  83 110 147 190 233 281 337
#
# _framework density 25.059291999999999
#
# number of rings (size 3 to 8) (size 9 to 14) (size 15 to 20)
#    0.000    2.000    0.000    7.000    0.000    4.000 
#    0.000    6.667    0.000    0.000    0.000    0.000 
#    0.000    0.000    0.000    0.000    0.000    0.000 
#
# Total GULP energy -67152.090366 kJ/mol
# GULP energy per Si atom -5596.007530 kJ/mol
# Density = 2.500226 g / cm^3
# Si number density = 25.059292 Si / 1000 Ang^3
#
#
#
# Elastic Constant Matrix: (Units=GPa)
#
#
# Indices 1 2 3 4 5 6 
#
# 1 26.7784 6.9741 -0.9373 0.0000 -0.2919 0.0000
# 2 6.9741 124.4732 51.2357 0.0000 2.2670 0.0000
# 3 -0.9373 51.2357 83.5209 0.0000 15.9088 0.0000
# 4 0.0000 0.0000 0.0000 63.9888 0.0000 -7.3650
# 5 -0.2919 2.2670 15.9088 0.0000 14.2956 0.0000
# 6 0.0000 0.0000 0.0000 -7.3650 0.0000 27.4853
#
#
#
# Elastic Compliance Matrix: (Units=1/GPa)
#
#
# Indices 1 2 3 4 5 6 
#
# 1 0.038267 -0.003248 0.002760 0.000000 -0.001775 0.000000
# 2 -0.003248 0.011632 -0.008639 0.000000 0.007703 0.000000
# 3 0.002760 -0.008639 0.021613 0.000000 -0.022626 0.000000
# 4 0.000000 0.000000 0.000000 0.016125 0.000000 0.004321
# 5 -0.001775 0.007703 -0.022626 0.000000 0.093873 0.000000
# 6 0.000000 0.000000 0.000000 0.004321 0.000000 0.037541
#
#
# Mechanical properties :
#
#
# Convention : Reuss Voigt Hill
#
# Bulk Modulus (GPa) = 18.77668 38.81306 28.79487
# Shear Modulus (GPa) = 19.60344 32.98727 26.29535
#
# Velocity S-wave (km/s) = 2.79997 3.63212 3.24284
# Velocity P-wave (km/s) = 4.23819 5.75429 5.05342
#
# Compressibility (1/GPa) = 0.05325754
#
# Stress axis : x y z
#
# Youngs Moduli (GPa) = 26.13249 85.97313 46.26762
#
# Poissons Ratio (x) = 0.27922 -0.12769
# Poissons Ratio (y) = 0.08487 0.39971
# Poissons Ratio (z) = -0.07212 0.74273
#
# Static dielectric constant tensor:
#      x y z
#    x 2.027250 0.000000 -0.041870 
#    y 0.000000 2.035430 0.000000 
#    z -0.041870 0.000000 1.966710 
# 
# From -- ./inp_files/7039.got.cif
#   From: 2010.05.17/outbox.cif.g08.bks.cpg/sg9_4_cif.got.tgz:7039.got - 2010.06.03 20:04:27.
