data_PCOD9135100
_publ_section_title
;
Structure prediction by ZEFSAII (Michael W. Deem and Ramdas Pophale) SiO2 
 PCOD9135100
Probable space group: C C
;
_chemical_formula_sum "Si O2"
_cell_formula_units_Z 32
_cell_length_a 13.903123
_cell_length_b 9.642475
_cell_length_c 16.048249
_cell_angle_alpha 90.000000
_cell_angle_beta 34.103024
_cell_angle_gamma 90.000000
_cell_volume 1206.273244
_symmetry_space_group_name_H-M "C C"
_symmetry_group_IT_number 9
_symmetry_cell_setting 'monoclinic'
loop_
_space_group_symop_operation_xyz
x,y,z
x,-y,1/2+z
1/2+x,1/2+y,z
1/2+x,1/2-y,1/2+z
loop_
_atom_site_type_symbol
_atom_site_label
_atom_site_fract_x
_atom_site_fract_y
_atom_site_fract_z
Si Si1 0.457930 0.432591 0.796310
Si Si2 0.663756 0.141502 0.805214
Si Si3 0.308137 0.907949 0.489687
Si Si4 0.261487 0.112972 0.829469
Si Si5 0.235996 0.229568 0.565187
Si Si6 0.426064 0.519933 0.003855
Si Si7 0.876570 0.779899 0.291048
Si Si8 0.606798 0.896460 0.977308
O O1 0.620826 0.346237 0.648431
O O2 0.490295 0.479666 0.866145
O O3 0.450764 0.562747 0.737048
O O4 0.258859 0.392784 0.937325
O O5 0.779403 0.072742 0.650738
O O6 0.624732 0.028241 0.905141
O O7 0.473072 0.171399 0.907981
O O8 0.787241 0.248906 0.767103
O O9 0.324001 0.909117 0.378858
O O10 0.292408 0.068301 0.534602
O O11 0.422021 0.103443 0.652653
O O12 0.173142 0.262772 0.879581
O O13 0.096382 0.016167 0.936727
O O14 0.349099 0.327122 0.542272
O O15 0.244161 0.263670 0.460631
O O16 0.042381 0.286211 0.716600
#
# Coordination Sequence:
#
# PCOD9135100 Si02
#       8
#     4   4   4   4   4   4   4   4
#     4   9  20  39  60  86 119 153 200 254 304 362
#     4  11  22  39  61  89 123 159 202 250 301 365
#     4  11  22  39  61  89 121 158 200 251 306 365
#     4  12  24  39  61  90 120 158 202 255 311 366
#     4  10  20  37  61  87 117 152 196 245 295 351
#     4  11  21  37  63  93 120 157 202 248 302 362
#     4   9  20  37  58  87 118 152 195 247 294 348
#     4  11  23  41  61  85 120 159 203 254 309 369
#
# _framework density 26.527985999999999
#
# number of rings (size 3 to 8) (size 9 to 14) (size 15 to 20)
#    0.000    1.500    0.000    6.750    0.000    6.000 
#    0.000    6.250    0.000    0.000    0.000    0.000 
#    0.000    0.000    0.000    0.000    0.000    0.000 
#
# Total GULP energy -89389.723162 kJ/mol
# GULP energy per Si atom -5586.857698 kJ/mol
# Density = 2.646761 g / cm^3
# Si number density = 26.527986 Si / 1000 Ang^3
#
#
#
# Elastic Constant Matrix: (Units=GPa)
#
#
# Indices 1 2 3 4 5 6 
#
# 1 145.7586 0.6264 32.7299 0.0000 -29.7820 0.0000
# 2 0.6264 73.0454 15.9086 0.0000 -6.3776 0.0000
# 3 32.7299 15.9086 162.1628 0.0000 -8.0545 0.0000
# 4 0.0000 0.0000 0.0000 31.8155 0.0000 4.3167
# 5 -29.7820 -6.3776 -8.0545 0.0000 52.9879 0.0000
# 6 0.0000 0.0000 0.0000 4.3167 0.0000 21.4037
#
#
#
# Elastic Compliance Matrix: (Units=1/GPa)
#
#
# Indices 1 2 3 4 5 6 
#
# 1 0.008088 0.000636 -0.001476 0.000000 0.004398 0.000000
# 2 0.000636 0.014156 -0.001426 0.000000 0.001845 0.000000
# 3 -0.001476 -0.001426 0.006605 0.000000 0.000003 0.000000
# 4 0.000000 0.000000 0.000000 0.032315 0.000000 -0.006517
# 5 0.004398 0.001845 0.000003 0.000000 0.021567 0.000000
# 6 0.000000 0.000000 0.000000 -0.006517 0.000000 0.048035
#
#
# Mechanical properties :
#
#
# Convention : Reuss Voigt Hill
#
# Bulk Modulus (GPa) = 41.12289 53.27741 47.20015
# Shear Modulus (GPa) = 34.86662 43.35489 39.11076
#
# Velocity S-wave (km/s) = 3.62931 4.04704 3.84385
# Velocity P-wave (km/s) = 5.75307 6.47805 6.12630
#
# Compressibility (1/GPa) = 0.02431735
#
# Stress axis : x y z
#
# Youngs Moduli (GPa) = 123.63864 70.64046 151.40948
#
# Poissons Ratio (x) = -0.04494 0.22354
# Poissons Ratio (y) = -0.07866 0.21584
# Poissons Ratio (z) = 0.18254 0.10070
#
# Static dielectric constant tensor:
#      x y z
#    x 2.132050 0.000000 -0.124060 
#    y 0.000000 2.356510 0.000000 
#    z -0.124060 0.000000 2.036500 
# 
# From -- ./inp_files/12188.got.cif
#   From: 2010.05.17/outbox.cif.g08.bks.cpg/sg9_7_cif.got.tgz:12188.got - 2010.06.03 20:04:27.
