data_PCOD9135310
_publ_section_title
;
Structure prediction by ZEFSAII (Michael W. Deem and Ramdas Pophale) SiO2 
 PCOD9135310
Probable space group: C C
;
_chemical_formula_sum "Si O2"
_cell_formula_units_Z 32
_cell_length_a 11.408190
_cell_length_b 8.850291
_cell_length_c 22.282157
_cell_angle_alpha 90.000000
_cell_angle_beta 40.291592
_cell_angle_gamma 90.000000
_cell_volume 1454.854340
_symmetry_space_group_name_H-M "C C"
_symmetry_group_IT_number 9
_symmetry_cell_setting 'monoclinic'
loop_
_space_group_symop_operation_xyz
x,y,z
x,-y,1/2+z
1/2+x,1/2+y,z
1/2+x,1/2-y,1/2+z
loop_
_atom_site_type_symbol
_atom_site_label
_atom_site_fract_x
_atom_site_fract_y
_atom_site_fract_z
Si Si1 0.703380 0.509985 0.279610
Si Si2 0.629603 0.320064 0.414322
Si Si3 0.738253 0.408111 0.943530
Si Si4 0.220789 0.688139 0.046143
Si Si5 0.308251 0.701751 0.809987
Si Si6 0.677084 0.408156 0.158643
Si Si7 0.784675 0.109952 0.458557
Si Si8 0.402465 0.897421 0.476094
O O1 0.749172 0.384319 0.312539
O O2 0.790213 0.671702 0.264450
O O3 0.743180 0.441262 0.199412
O O4 0.487096 0.548937 0.364937
O O5 0.606423 0.476255 0.461044
O O6 0.437889 0.281776 0.459841
O O7 0.698707 0.191540 0.433295
O O8 0.840896 0.299896 0.857289
O O9 0.877864 0.514172 0.923386
O O10 0.636999 0.310189 0.033302
O O11 0.185779 0.737017 0.128301
O O12 0.182956 0.527638 0.031156
O O13 0.459365 0.575269 0.740980
O O14 0.114157 0.629423 0.900968
O O15 0.795004 0.513177 0.069053
O O16 0.809816 0.237478 0.499253
#
# Coordination Sequence:
#
# PCOD9135310 Si02
#       8
#     4   4   4   4   4   4   4   4
#     4   9  20  37  59  90 121 156 203 248 302 365
#     4   9  18  37  62  85 117 155 194 249 299 350
#     4   9  19  37  61  88 115 154 204 242 298 368
#     4  10  21  35  57  89 119 151 198 249 298 360
#     4  10  20  39  62  84 124 164 197 258 306 348
#     4  11  23  38  60  95 125 156 208 254 306 374
#     4   9  18  39  65  87 117 162 207 246 299 363
#     4   9  21  40  64  90 118 162 207 246 304 366
#
# _framework density 21.995329000000002
#
# number of rings (size 3 to 8) (size 9 to 14) (size 15 to 20)
#    0.000    2.500    0.000    2.250    0.000    7.000 
#    0.000   12.500    0.000    4.500    0.000    0.000 
#    0.000    0.000    0.000    0.000    0.000    0.000 
#
# Total GULP energy -89172.767949 kJ/mol
# GULP energy per Si atom -5573.297997 kJ/mol
# Density = 2.194527 g / cm^3
# Si number density = 21.995329 Si / 1000 Ang^3
#
#
#
# Elastic Constant Matrix: (Units=GPa)
#
#
# Indices 1 2 3 4 5 6 
#
# 1 89.1920 52.4929 38.2054 0.0000 18.5286 0.0000
# 2 52.4929 117.3032 45.0647 0.0000 11.0256 0.0000
# 3 38.2054 45.0647 57.8078 0.0000 21.4758 0.0000
# 4 0.0000 0.0000 0.0000 1.6476 0.0000 0.8498
# 5 18.5286 11.0256 21.4758 0.0000 14.4644 0.0000
# 6 0.0000 0.0000 0.0000 0.8498 0.0000 39.2165
#
#
#
# Elastic Compliance Matrix: (Units=1/GPa)
#
#
# Indices 1 2 3 4 5 6 
#
# 1 0.019261 -0.006625 -0.000614 0.000000 -0.018712 0.000000
# 2 -0.006625 0.015243 -0.014140 0.000000 0.017861 0.000000
# 3 -0.000614 -0.014140 0.054483 0.000001 -0.069329 0.000000
# 4 0.000000 0.000000 0.000001 0.613814 -0.000001 -0.013300
# 5 -0.018712 0.017861 -0.069329 -0.000001 0.182427 0.000000
# 6 0.000000 0.000000 0.000000 -0.013300 0.000000 0.025788
#
#
# Mechanical properties :
#
#
# Convention : Reuss Voigt Hill
#
# Bulk Modulus (GPa) = 21.63080 59.53655 40.58368
# Shear Modulus (GPa) = 5.15899 19.63502 12.39700
#
# Velocity S-wave (km/s) = 1.53316 2.99103 2.37664
# Velocity P-wave (km/s) = 3.60413 6.24940 5.10121
#
# Compressibility (1/GPa) = 0.04623037
#
# Stress axis : x y z
#
# Youngs Moduli (GPa) = 51.91950 65.60480 18.35421
#
# Poissons Ratio (x) = 0.43460 0.01126
# Poissons Ratio (y) = 0.34394 0.25953
# Poissons Ratio (z) = 0.03186 0.92765
#
# Static dielectric constant tensor:
#      x y z
#    x 1.836730 0.000000 -0.006460 
#    y 0.000000 1.870860 0.000000 
#    z -0.006460 0.000000 1.875730 
# 
# From -- ./inp_files/24211.got.cif
#   From: 2010.05.17/outbox.cif.g08.bks.cpg/sg9_13_cif.got.tgz:24211.got - 2010.06.03 20:04:27.
