data_PCOD9135105
_publ_section_title
;
Structure prediction by ZEFSAII (Michael W. Deem and Ramdas Pophale) SiO2 
 PCOD9135105
Probable space group: C C
;
_chemical_formula_sum "Si O2"
_cell_formula_units_Z 32
_cell_length_a 11.776842
_cell_length_b 20.127589
_cell_length_c 9.097236
_cell_angle_alpha 90.000000
_cell_angle_beta 140.370543
_cell_angle_gamma 90.000000
_cell_volume 1375.397492
_symmetry_space_group_name_H-M "C C"
_symmetry_group_IT_number 9
_symmetry_cell_setting 'monoclinic'
loop_
_space_group_symop_operation_xyz
x,y,z
x,-y,1/2+z
1/2+x,1/2+y,z
1/2+x,1/2-y,1/2+z
loop_
_atom_site_type_symbol
_atom_site_label
_atom_site_fract_x
_atom_site_fract_y
_atom_site_fract_z
Si Si1 0.002180 0.698974 0.037030
Si Si2 0.895104 0.156264 0.375886
Si Si3 0.641972 0.065918 0.609758
Si Si4 0.193129 0.218597 0.250251
Si Si5 0.869219 0.143528 0.028423
Si Si6 0.494495 0.194641 0.353035
Si Si7 0.923101 0.511713 0.661058
Si Si8 0.251033 0.916491 0.248508
O O1 0.204372 0.673286 0.257722
O O2 0.920464 0.704282 0.118791
O O3 0.987898 0.771141 0.950666
O O4 0.878406 0.645799 0.834920
O O5 0.837150 0.125474 0.163079
O O6 0.052545 0.108705 0.589511
O O7 0.619029 0.131530 0.487665
O O8 0.513071 0.056831 0.623968
O O9 0.579801 0.010267 0.431886
O O10 0.827804 0.083619 0.875756
O O11 0.250587 0.289558 0.376524
O O12 0.361541 0.182102 0.354504
O O13 0.068955 0.171095 0.217740
O O14 0.087621 0.238147 0.996745
O O15 0.838275 0.452546 0.477472
O O16 0.772043 0.539228 0.621855
#
# Coordination Sequence:
#
# PCOD9135105 Si02
#       8
#     4   4   4   4   4   4   4   4
#     4  12  23  42  67 107 146 181 230 292 360 432
#     4  12  25  40  70 108 146 186 230 292 365 429
#     4  10  21  42  70  93 129 179 237 284 356 407
#     4   9  20  35  62  92 136 166 215 272 343 424
#     4  10  21  39  61 103 131 180 224 283 346 431
#     4  10  20  37  61  94 128 179 211 274 345 411
#     4  10  23  46  74  94 136 190 238 301 348 418
#     4  11  25  47  73 103 140 191 241 294 359 422
#
# _framework density 23.266002
#
# number of rings (size 3 to 8) (size 9 to 14) (size 15 to 20)
#    0.000    1.500    2.500    2.250    1.750    1.000 
#    0.000    5.000    0.000    0.000    0.000    0.000 
#    0.000    0.000    0.000    0.000    0.000    0.000 
#
# Total GULP energy -89158.307639 kJ/mol
# GULP energy per Si atom -5572.394227 kJ/mol
# Density = 2.321305 g / cm^3
# Si number density = 23.266002 Si / 1000 Ang^3
#
#
#
# Elastic Constant Matrix: (Units=GPa)
#
#
# Indices 1 2 3 4 5 6 
#
# 1 70.4641 18.2013 40.3317 0.0000 6.4967 0.0000
# 2 18.2013 50.9883 32.1866 0.0000 -8.9688 0.0000
# 3 40.3317 32.1866 89.1104 0.0000 -8.6185 0.0000
# 4 0.0000 0.0000 0.0000 26.7568 0.0000 -2.1497
# 5 6.4967 -8.9688 -8.6185 0.0000 41.1512 0.0000
# 6 0.0000 0.0000 0.0000 -2.1497 0.0000 16.4360
#
#
#
# Elastic Compliance Matrix: (Units=1/GPa)
#
#
# Indices 1 2 3 4 5 6 
#
# 1 0.020474 -0.002735 -0.008828 0.000000 -0.005677 0.000000
# 2 -0.002735 0.026331 -0.007835 0.000000 0.004530 0.000000
# 3 -0.008828 -0.007835 0.018390 0.000000 0.003538 0.000000
# 4 0.000000 0.000000 0.000000 0.037771 0.000000 0.004940
# 5 -0.005677 0.004530 0.003538 0.000000 0.026925 0.000000
# 6 0.000000 0.000000 0.000000 0.004940 0.000000 0.061488
#
#
# Mechanical properties :
#
#
# Convention : Reuss Voigt Hill
#
# Bulk Modulus (GPa) = 37.87891 43.55578 40.71734
# Shear Modulus (GPa) = 20.92272 24.85834 22.89053
#
# Velocity S-wave (km/s) = 3.00206 3.27225 3.14006
# Velocity P-wave (km/s) = 5.32284 5.74789 5.53944
#
# Compressibility (1/GPa) = 0.02639992
#
# Stress axis : x y z
#
# Youngs Moduli (GPa) = 48.84139 37.97781 54.37777
#
# Poissons Ratio (x) = 0.10385 0.48006
# Poissons Ratio (y) = 0.13356 0.42605
# Poissons Ratio (z) = 0.43118 0.29756
#
# Static dielectric constant tensor:
#      x y z
#    x 1.983830 0.000000 0.059840 
#    y 0.000000 1.916280 0.000000 
#    z 0.059840 0.000000 1.909120 
# 
# From -- ./inp_files/8535.got.cif
#   From: 2010.05.17/outbox.cif.g08.bks.cpg/sg9_5_cif.got.tgz:8535.got - 2010.06.03 20:04:27.
