data_PCOD9135395
_publ_section_title
;
Structure prediction by ZEFSAII (Michael W. Deem and Ramdas Pophale) SiO2 
 PCOD9135395
Probable space group: C C
;
_chemical_formula_sum "Si O2"
_cell_formula_units_Z 32
_cell_length_a 8.673905
_cell_length_b 12.224233
_cell_length_c 14.443042
_cell_angle_alpha 90.000000
_cell_angle_beta 106.541293
_cell_angle_gamma 90.000000
_cell_volume 1468.044035
_symmetry_space_group_name_H-M "C C"
_symmetry_group_IT_number 9
_symmetry_cell_setting 'monoclinic'
loop_
_space_group_symop_operation_xyz
x,y,z
x,-y,1/2+z
1/2+x,1/2+y,z
1/2+x,1/2-y,1/2+z
loop_
_atom_site_type_symbol
_atom_site_label
_atom_site_fract_x
_atom_site_fract_y
_atom_site_fract_z
Si Si1 0.036410 0.646117 0.441610
Si Si2 0.057398 0.309410 0.743027
Si Si3 0.094686 0.062620 0.768817
Si Si4 0.371798 0.419815 0.069341
Si Si5 0.900080 0.161817 0.015485
Si Si6 0.214028 0.117816 0.158196
Si Si7 0.062869 0.708629 0.040978
Si Si8 0.296597 0.961744 0.469066
O O1 0.084125 0.625849 0.342653
O O2 0.196467 0.630433 0.528698
O O3 0.967964 0.768995 0.441077
O O4 0.902564 0.566231 0.460400
O O5 0.135711 0.190517 0.765989
O O6 0.100953 0.349460 0.647378
O O7 0.862314 0.303173 0.704050
O O8 0.134880 0.035376 0.880945
O O9 0.927228 0.052223 0.683883
O O10 0.205569 0.977623 0.731948
O O11 0.377648 0.531246 0.011251
O O12 0.496373 0.329041 0.052840
O O13 0.727067 0.209066 0.013184
O O14 0.041835 0.175546 0.116684
O O15 0.250102 0.057559 0.067167
O O16 0.918628 0.639992 0.969725
#
# Coordination Sequence:
#
# PCOD9135395 Si02
#       8
#     4   4   4   4   4   4   4   4
#     4  12  23  42  70  98 136 180 223 270 344 394
#     4  10  21  41  65  96 135 178 217 275 330 394
#     4  10  20  39  70  92 127 176 219 264 339 380
#     4  10  23  44  67  95 136 174 224 278 328 395
#     4  11  23  40  67  99 126 177 225 270 327 399
#     4  10  22  41  65  97 135 174 224 275 329 397
#     4  10  22  44  69  96 137 180 222 277 336 387
#     4  11  22  41  73  97 134 181 218 275 341 398
#
# _framework density 21.797709999999999
#
# number of rings (size 3 to 8) (size 9 to 14) (size 15 to 20)
#    0.000    1.500    2.500    3.750    5.250    0.000 
#    0.000   12.500   11.000    0.000    0.000    0.000 
#    0.000    0.000    0.000    0.000    0.000    0.000 
#
# Total GULP energy -89209.996710 kJ/mol
# GULP energy per Si atom -5575.624794 kJ/mol
# Density = 2.174810 g / cm^3
# Si number density = 21.797710 Si / 1000 Ang^3
#
#
#
# Elastic Constant Matrix: (Units=GPa)
#
#
# Indices 1 2 3 4 5 6 
#
# 1 86.9442 24.8620 20.0399 0.0000 7.7054 0.0000
# 2 24.8620 90.4438 13.7879 0.0000 -0.6449 0.0000
# 3 20.0399 13.7879 107.7534 0.0000 3.4760 0.0000
# 4 0.0000 0.0000 0.0000 17.7972 0.0000 2.3379
# 5 7.7054 -0.6449 3.4760 0.0000 19.6481 0.0000
# 6 0.0000 0.0000 0.0000 2.3379 0.0000 38.3658
#
#
#
# Elastic Compliance Matrix: (Units=1/GPa)
#
#
# Indices 1 2 3 4 5 6 
#
# 1 0.013359 -0.003421 -0.001885 0.000000 -0.005018 0.000000
# 2 -0.003421 0.012160 -0.000982 0.000000 0.001914 0.000000
# 3 -0.001885 -0.000982 0.009790 0.000000 -0.001025 0.000000
# 4 0.000000 0.000000 0.000000 0.056642 0.000000 -0.003452
# 5 -0.005018 0.001914 -0.001025 0.000000 0.053107 0.000000
# 6 0.000000 0.000000 0.000000 -0.003452 0.000000 0.026275
#
#
# Mechanical properties :
#
#
# Convention : Reuss Voigt Hill
#
# Bulk Modulus (GPa) = 43.98600 44.72453 44.35526
# Shear Modulus (GPa) = 26.11157 30.25900 28.18529
#
# Velocity S-wave (km/s) = 3.46483 3.72986 3.59979
# Velocity P-wave (km/s) = 6.01911 6.25393 6.13765
#
# Compressibility (1/GPa) = 0.02273451
#
# Stress axis : x y z
#
# Youngs Moduli (GPa) = 74.85619 82.23563 102.14850
#
# Poissons Ratio (x) = 0.28130 0.19254
# Poissons Ratio (y) = 0.25606 0.10027
# Poissons Ratio (z) = 0.14110 0.08072
#
# Static dielectric constant tensor:
#      x y z
#    x 1.784040 0.000000 0.002140 
#    y 0.000000 1.827780 0.000000 
#    z 0.002140 0.000000 1.831490 
# 
# From -- ./inp_files/22789.got.cif
#   From: 2010.05.17/outbox.cif.g08.bks.cpg/sg9_12_cif.got.tgz:22789.got - 2010.06.03 20:04:27.
