data_PCOD9135956
_publ_section_title
;
Structure prediction by ZEFSAII (Michael W. Deem and Ramdas Pophale) SiO2 
 PCOD9135956
Probable space group: C C
;
_chemical_formula_sum "Si O2"
_cell_formula_units_Z 24
_cell_length_a 6.356036
_cell_length_b 14.886249
_cell_length_c 10.511633
_cell_angle_alpha 90.000000
_cell_angle_beta 101.088465
_cell_angle_gamma 90.000000
_cell_volume 976.017296
_symmetry_space_group_name_H-M "C C"
_symmetry_group_IT_number 9
_symmetry_cell_setting 'monoclinic'
loop_
_space_group_symop_operation_xyz
x,y,z
x,-y,1/2+z
1/2+x,1/2+y,z
1/2+x,1/2-y,1/2+z
loop_
_atom_site_type_symbol
_atom_site_label
_atom_site_fract_x
_atom_site_fract_y
_atom_site_fract_z
Si Si1 0.029560 0.358612 0.997490
Si Si2 0.102859 0.259120 0.759825
Si Si3 0.657053 0.444662 0.814509
Si Si4 0.799280 0.085990 0.769544
Si Si5 0.223548 0.172816 0.083896
Si Si6 0.892670 0.612174 0.852149
O O1 0.114604 0.340971 0.862019
O O2 0.793328 0.399902 0.945921
O O3 0.165432 0.412747 0.119644
O O4 0.063534 0.255286 0.043197
O O5 0.325397 0.206331 0.780507
O O6 0.945857 0.175309 0.779829
O O7 0.970683 0.292584 0.624721
O O8 0.433262 0.495477 0.805802
O O9 0.647918 0.371804 0.703464
O O10 0.803045 0.524567 0.772208
O O11 0.643505 0.100931 0.870847
O O12 0.263791 0.108179 0.969759
#
# Coordination Sequence:
#
# PCOD9135956 Si02
#       6
#     4   4   4   4   4   4
#     4   9  19  41  68  93 133 176 222 278 331 408
#     4   8  18  40  64  94 132 176 225 276 330 407
#     4  10  22  42  64  96 138 175 222 281 338 412
#     4  10  21  39  65 101 137 173 225 278 346 397
#     4   9  19  41  70  94 137 179 228 281 336 402
#     4  10  21  37  63 100 135 171 220 282 339 404
#
# _framework density 24.589728000000001
#
# number of rings (size 3 to 8) (size 9 to 14) (size 15 to 20)
#    0.000    2.667    0.000    0.000    2.333    1.333 
#    9.000   16.667    0.000    0.000    0.000    0.000 
#    0.000    0.000    0.000    0.000    0.000    0.000 
#
# Total GULP energy -66828.980750 kJ/mol
# GULP energy per Si atom -5569.081729 kJ/mol
# Density = 2.453376 g / cm^3
# Si number density = 24.589728 Si / 1000 Ang^3
#
#
#
# Elastic Constant Matrix: (Units=GPa)
#
#
# Indices 1 2 3 4 5 6 
#
# 1 105.0790 52.8087 42.5701 0.0000 7.2821 0.0000
# 2 52.8087 101.2411 46.5649 0.0000 17.0385 0.0000
# 3 42.5701 46.5649 106.5257 0.0000 35.9584 0.0000
# 4 0.0000 0.0000 0.0000 31.6994 0.0000 12.3145
# 5 7.2821 17.0385 35.9584 0.0000 27.0595 0.0000
# 6 0.0000 0.0000 0.0000 12.3145 0.0000 42.3708
#
#
#
# Elastic Compliance Matrix: (Units=1/GPa)
#
#
# Indices 1 2 3 4 5 6 
#
# 1 0.014351 -0.006188 -0.005516 0.000000 0.007364 0.000000
# 2 -0.006188 0.015049 -0.002664 0.000000 -0.004271 0.000000
# 3 -0.005516 -0.002664 0.021197 0.000000 -0.025007 0.000000
# 4 0.000000 0.000000 0.000000 0.035561 0.000000 -0.010335
# 5 0.007364 -0.004271 -0.025007 0.000000 0.070893 0.000000
# 6 0.000000 0.000000 0.000000 -0.010335 0.000000 0.026605
#
#
# Mechanical properties :
#
#
# Convention : Reuss Voigt Hill
#
# Bulk Modulus (GPa) = 45.74181 66.30370 56.02275
# Shear Modulus (GPa) = 22.76046 31.61940 27.18993
#
# Velocity S-wave (km/s) = 3.04568 3.58981 3.32888
# Velocity P-wave (km/s) = 5.56872 6.64867 6.13251
#
# Compressibility (1/GPa) = 0.02186184
#
# Stress axis : x y z
#
# Youngs Moduli (GPa) = 69.68293 66.44918 47.17606
#
# Poissons Ratio (x) = 0.41118 0.26021
# Poissons Ratio (y) = 0.43119 0.12567
# Poissons Ratio (z) = 0.38436 0.17701
#
# Static dielectric constant tensor:
#      x y z
#    x 1.985280 0.000000 0.058660 
#    y 0.000000 1.919480 0.000000 
#    z 0.058660 0.000000 2.044870 
# 
# From -- ./inp_files/12958.got.cif
#   From: 2010.05.17/outbox.cif.g08.bks.cpg/sg9_7_cif.got.tgz:12958.got - 2010.06.03 20:04:27.
