data_PCOD9135422
_publ_section_title
;
Structure prediction by ZEFSAII (Michael W. Deem and Ramdas Pophale) SiO2 
 PCOD9135422
Probable space group: C C
;
_chemical_formula_sum "Si O2"
_cell_formula_units_Z 32
_cell_length_a 7.099838
_cell_length_b 12.950191
_cell_length_c 19.401386
_cell_angle_alpha 90.000000
_cell_angle_beta 136.592821
_cell_angle_gamma 90.000000
_cell_volume 1225.820725
_symmetry_space_group_name_H-M "C C"
_symmetry_group_IT_number 9
_symmetry_cell_setting 'monoclinic'
loop_
_space_group_symop_operation_xyz
x,y,z
x,-y,1/2+z
1/2+x,1/2+y,z
1/2+x,1/2-y,1/2+z
loop_
_atom_site_type_symbol
_atom_site_label
_atom_site_fract_x
_atom_site_fract_y
_atom_site_fract_z
Si Si1 0.095990 0.428114 0.628570
Si Si2 0.033022 0.421221 0.943243
Si Si3 0.369098 0.842946 0.752869
Si Si4 0.014450 0.206671 0.601968
Si Si5 0.046511 0.437522 0.237238
Si Si6 0.834995 0.888221 0.541299
Si Si7 0.921122 0.225890 0.414581
Si Si8 0.583779 0.491356 0.423227
O O1 0.110435 0.313162 0.662710
O O2 0.161875 0.524143 0.693895
O O3 0.251252 0.425486 0.597447
O O4 0.774490 0.445101 0.532109
O O5 0.221403 0.346516 0.041780
O O6 0.273819 0.503411 0.985633
O O7 0.794158 0.488375 0.915650
O O8 0.883948 0.363700 0.839797
O O9 0.443592 0.956261 0.743826
O O10 0.100390 0.823036 0.636178
O O11 0.609724 0.759480 0.808589
O O12 0.949406 0.234867 0.504723
O O13 0.288525 0.136994 0.672393
O O14 0.333866 0.412703 0.348664
O O15 0.637092 0.809752 0.448621
O O16 0.993798 0.108754 0.414648
#
# Coordination Sequence:
#
# PCOD9135422 Si02
#       8
#     4   4   4   4   4   4   4   4
#     4  10  22  40  63  92 126 164 221 260 325 391
#     4  10  21  40  59  90 129 162 216 266 317 394
#     4  10  21  38  63  88 127 172 207 267 333 379
#     4  10  20  41  62  88 125 168 211 270 317 387
#     4  11  21  40  65  91 126 171 212 266 331 385
#     4  10  20  40  62  90 129 165 209 274 322 385
#     4   9  20  39  60  89 124 163 217 263 323 393
#     4  10  21  40  62  92 124 165 209 270 326 386
#
# _framework density 26.104958
#
# number of rings (size 3 to 8) (size 9 to 14) (size 15 to 20)
#    0.000    2.000    2.500    0.750    0.000    1.000 
#   24.750    0.000    0.000    0.000    0.000    0.000 
#    0.000    0.000    0.000    0.000    0.000    0.000 
#
# Total GULP energy -89188.449443 kJ/mol
# GULP energy per Si atom -5574.278090 kJ/mol
# Density = 2.604554 g / cm^3
# Si number density = 26.104958 Si / 1000 Ang^3
#
#
#
# Elastic Constant Matrix: (Units=GPa)
#
#
# Indices 1 2 3 4 5 6 
#
# 1 54.9521 0.8520 4.3209 0.0000 -1.5461 0.0000
# 2 0.8520 80.0215 12.4334 0.0000 5.9179 0.0000
# 3 4.3209 12.4334 86.5709 0.0000 11.6509 0.0000
# 4 0.0000 0.0000 0.0000 8.5773 0.0000 8.6681
# 5 -1.5461 5.9179 11.6509 0.0000 30.4901 0.0000
# 6 0.0000 0.0000 0.0000 8.6681 0.0000 30.1772
#
#
#
# Elastic Compliance Matrix: (Units=1/GPa)
#
#
# Indices 1 2 3 4 5 6 
#
# 1 0.018323 -0.000128 -0.001080 0.000000 0.001367 0.000000
# 2 -0.000128 0.012885 -0.001588 0.000000 -0.001900 0.000000
# 3 -0.001080 -0.001588 0.012439 0.000000 -0.004500 0.000000
# 4 0.000000 0.000000 0.000000 0.164271 0.000000 -0.047185
# 5 0.001367 -0.001900 -0.004500 0.000000 0.034955 0.000000
# 6 0.000000 0.000000 0.000000 -0.047185 0.000000 0.046691
#
#
# Mechanical properties :
#
#
# Convention : Reuss Voigt Hill
#
# Bulk Modulus (GPa) = 26.27874 28.52856 27.40365
# Shear Modulus (GPa) = 16.24206 27.44481 21.84343
#
# Velocity S-wave (km/s) = 2.49707 3.24593 2.89581
# Velocity P-wave (km/s) = 4.28978 5.00002 4.65846
#
# Compressibility (1/GPa) = 0.03805358
#
# Stress axis : x y z
#
# Youngs Moduli (GPa) = 54.57610 77.60748 80.39343
#
# Poissons Ratio (x) = 0.00996 0.08683
# Poissons Ratio (y) = 0.00700 0.12770
# Poissons Ratio (z) = 0.05894 0.12327
#
# Static dielectric constant tensor:
#      x y z
#    x 2.247970 0.000000 0.031160 
#    y 0.000000 2.133250 0.000000 
#    z 0.031160 0.000000 2.168610 
# 
# From -- ./inp_files/23190.got.cif
#   From: 2010.05.17/outbox.cif.g08.bks.cpg/sg9_12_cif.got.tgz:23190.got - 2010.06.03 20:04:27.
