data_PCOD9135685
_publ_section_title
;
Structure prediction by ZEFSAII (Michael W. Deem and Ramdas Pophale) SiO2 
 PCOD9135685
Probable space group: C C
;
_chemical_formula_sum "Si O2"
_cell_formula_units_Z 32
_cell_length_a 26.036505
_cell_length_b 7.966545
_cell_length_c 19.572087
_cell_angle_alpha 90.000000
_cell_angle_beta 20.662864
_cell_angle_gamma 90.000000
_cell_volume 1432.526573
_symmetry_space_group_name_H-M "C C"
_symmetry_group_IT_number 9
_symmetry_cell_setting 'monoclinic'
loop_
_space_group_symop_operation_xyz
x,y,z
x,-y,1/2+z
1/2+x,1/2+y,z
1/2+x,1/2-y,1/2+z
loop_
_atom_site_type_symbol
_atom_site_label
_atom_site_fract_x
_atom_site_fract_y
_atom_site_fract_z
Si Si1 0.885370 0.565797 0.458810
Si Si2 0.368949 0.883981 0.345624
Si Si3 0.374002 0.421570 0.641861
Si Si4 0.349992 0.042829 0.716242
Si Si5 0.155712 0.948235 0.845148
Si Si6 0.446390 0.431155 0.399647
Si Si7 0.166339 0.571928 0.797809
Si Si8 0.584907 0.776758 0.180046
O O1 0.818699 0.503841 0.470109
O O2 0.762654 0.574229 0.670126
O O3 0.962287 0.744058 0.352300
O O4 0.000643 0.415512 0.330258
O O5 0.364090 0.975494 0.279619
O O6 0.525649 0.821647 0.178005
O O7 0.256103 0.730319 0.478696
O O8 0.336553 0.239371 0.715930
O O9 0.486148 0.507680 0.553870
O O10 0.468934 0.415805 0.453409
O O11 0.232027 0.516885 0.790364
O O12 0.218805 0.948013 0.842814
O O13 0.501726 0.982352 0.495767
O O14 0.178349 0.771174 0.779815
O O15 0.275339 0.483464 0.609626
O O16 0.530850 0.588642 0.264076
#
# Coordination Sequence:
#
# PCOD9135685 Si02
#       8
#     4   4   4   4   4   4   4   4
#     4  10  21  42  66  96 130 172 219 270 321 398
#     4  10  26  45  65  91 139 176 224 262 338 401
#     4  10  22  37  65  98 125 168 217 272 324 398
#     4  12  24  42  66  97 131 181 219 273 338 399
#     4  12  21  41  68  99 136 164 222 283 329 388
#     4  10  20  42  70 101 127 170 223 278 327 387
#     4  10  23  39  64 101 133 169 217 278 340 386
#     4  10  23  44  66  95 133 178 213 278 323 397
#
# _framework density 22.338153999999999
#
# number of rings (size 3 to 8) (size 9 to 14) (size 15 to 20)
#    1.500    0.000    2.500    3.000    3.500    2.000 
#    6.750    1.250    0.000    0.000    0.000    0.000 
#    0.000    0.000    0.000    0.000    0.000    0.000 
#
# Total GULP energy -89251.919371 kJ/mol
# GULP energy per Si atom -5578.244961 kJ/mol
# Density = 2.228731 g / cm^3
# Si number density = 22.338154 Si / 1000 Ang^3
#
#
#
# Elastic Constant Matrix: (Units=GPa)
#
#
# Indices 1 2 3 4 5 6 
#
# 1 102.1986 -1.3050 12.6979 -0.0009 -7.9784 0.0000
# 2 -1.3050 101.6157 -0.4471 -0.0025 -8.1252 -0.0001
# 3 12.6979 -0.4471 27.0166 -0.0026 -10.4477 -0.0001
# 4 -0.0009 -0.0025 -0.0026 10.0590 0.0002 -3.9781
# 5 -7.9784 -8.1252 -10.4477 0.0002 41.3640 0.0001
# 6 0.0000 -0.0001 -0.0001 -3.9781 0.0001 28.5793
#
#
#
# Elastic Compliance Matrix: (Units=1/GPa)
#
#
# Indices 1 2 3 4 5 6 
#
# 1 0.010422 0.000186 -0.004548 0.000000 0.000898 0.000000
# 2 0.000186 0.010027 0.000947 0.000003 0.002245 0.000000
# 3 -0.004548 0.000947 0.043111 0.000011 0.010198 0.000002
# 4 0.000000 0.000003 0.000011 0.105205 0.000003 0.014644
# 5 0.000898 0.002245 0.010198 0.000003 0.027365 0.000000
# 6 0.000000 0.000000 0.000002 0.014644 0.000000 0.037029
#
#
# Mechanical properties :
#
#
# Convention : Reuss Voigt Hill
#
# Bulk Modulus (GPa) = 17.62771 28.08029 22.85400
# Shear Modulus (GPa) = 19.31240 30.65946 24.98593
#
# Velocity S-wave (km/s) = 2.94351 3.70877 3.34807
# Velocity P-wave (km/s) = 4.41144 5.56217 5.01989
#
# Compressibility (1/GPa) = 0.05672887
#
# Stress axis : x y z
#
# Youngs Moduli (GPa) = 95.94674 99.73050 23.19580
#
# Poissons Ratio (x) = -0.01851 0.10550
# Poissons Ratio (y) = -0.01781 -0.02196
# Poissons Ratio (z) = 0.43639 -0.09441
#
# Static dielectric constant tensor:
#      x y z
#    x 1.878370 0.000000 0.002880 
#    y 0.000000 1.806170 0.000000 
#    z 0.002880 0.000000 1.859920 
# 
# From -- ./inp_files/34694.got.cif
#   From: 2010.05.17/outbox.cif.g08.bks.cpg/sg9_18_cif.got.tgz:34694.got - 2010.06.03 20:04:27.
