data_PCOD9135917
_publ_section_title
;
Structure prediction by ZEFSAII (Michael W. Deem and Ramdas Pophale) SiO2 
 PCOD9135917
Probable space group: C C
;
_chemical_formula_sum "Si O2"
_cell_formula_units_Z 32
_cell_length_a 5.159095
_cell_length_b 9.100452
_cell_length_c 26.240690
_cell_angle_alpha 90.000000
_cell_angle_beta 98.843908
_cell_angle_gamma 90.000000
_cell_volume 1217.355461
_symmetry_space_group_name_H-M "C C"
_symmetry_group_IT_number 9
_symmetry_cell_setting 'monoclinic'
loop_
_space_group_symop_operation_xyz
x,y,z
x,-y,1/2+z
1/2+x,1/2+y,z
1/2+x,1/2-y,1/2+z
loop_
_atom_site_type_symbol
_atom_site_label
_atom_site_fract_x
_atom_site_fract_y
_atom_site_fract_z
Si Si1 0.199670 0.109125 0.586800
Si Si2 0.482284 0.859442 0.273952
Si Si3 0.373715 0.609125 0.391582
Si Si4 0.591100 0.140558 0.204431
Si Si5 0.565349 0.449379 0.681097
Si Si6 0.165977 0.225576 0.048474
Si Si7 0.508036 0.449380 0.297285
Si Si8 0.407409 0.274424 0.429909
O O1 0.464493 0.193033 0.580491
O O2 0.948906 0.198615 0.559580
O O3 0.157958 0.074742 0.645508
O O4 0.194703 0.945967 0.562605
O O5 0.415427 0.574742 0.332875
O O6 0.308982 0.905394 0.317436
O O7 0.785565 0.822194 0.294648
O O8 0.536692 0.000000 0.239191
O O9 0.378683 0.445967 0.415777
O O10 0.108892 0.693034 0.397891
O O11 0.624480 0.698615 0.418802
O O12 0.287819 0.177806 0.183734
O O13 0.786692 0.250000 0.239191
O O14 0.764403 0.094606 0.160947
O O15 0.536692 0.500000 0.739191
O O16 0.036692 0.241428 0.989191
#
# Coordination Sequence:
#
# PCOD9135917 Si02
#       8
#     4   4   4   4   4   4   4   4
#     4  12  27  46  76 110 143 191 242 294 371 441
#     4  10  21  37  59  86 127 182 228 272 330 393
#     4  12  27  46  76 110 143 191 242 294 371 441
#     4  10  21  37  59  86 127 182 228 272 330 393
#     4  10  23  42  65 100 144 187 233 289 347 429
#     4  12  26  49  74 104 141 184 241 309 368 431
#     4  10  23  42  65 100 144 187 233 289 347 429
#     4  12  26  49  74 104 141 184 241 309 368 431
#
# _framework density 26.286487000000001
#
# number of rings (size 3 to 8) (size 9 to 14) (size 15 to 20)
#    0.000    1.000    0.000    6.000    0.000   12.000 
#    0.000    0.000    0.000    0.000    0.000    0.000 
#    0.000    0.000    0.000    0.000    0.000    0.000 
#
# Total GULP energy -89613.405048 kJ/mol
# GULP energy per Si atom -5600.837816 kJ/mol
# Density = 2.622666 g / cm^3
# Si number density = 26.286487 Si / 1000 Ang^3
#
#
#
# Elastic Constant Matrix: (Units=GPa)
#
#
# Indices 1 2 3 4 5 6 
#
# 1 236.7897 72.1490 -2.9262 0.0000 -11.7236 0.0000
# 2 72.1490 168.1701 17.1439 0.0000 4.4315 0.0000
# 3 -2.9262 17.1439 108.9827 0.0000 11.2023 0.0000
# 4 0.0000 0.0000 0.0000 38.5114 0.0000 8.1652
# 5 -11.7236 4.4315 11.2023 0.0000 47.4511 0.0000
# 6 0.0000 0.0000 0.0000 8.1652 0.0000 50.3652
#
#
#
# Elastic Compliance Matrix: (Units=1/GPa)
#
#
# Indices 1 2 3 4 5 6 
#
# 1 0.004965 -0.002200 0.000340 0.000000 0.001352 0.000000
# 2 -0.002200 0.007024 -0.001067 0.000000 -0.000948 0.000000
# 3 0.000340 -0.001067 0.009566 0.000000 -0.002075 0.000000
# 4 0.000000 0.000000 0.000000 0.026891 0.000000 -0.004359
# 5 0.001352 -0.000948 -0.002075 0.000000 0.021987 0.000000
# 6 0.000000 0.000000 0.000000 -0.004359 0.000000 0.020562
#
#
# Mechanical properties :
#
#
# Convention : Reuss Voigt Hill
#
# Bulk Modulus (GPa) = 63.68666 76.29731 69.99199
# Shear Modulus (GPa) = 48.98095 55.77058 52.37577
#
# Velocity S-wave (km/s) = 4.32134 4.61113 4.46858
# Velocity P-wave (km/s) = 7.01278 7.57881 7.30128
#
# Compressibility (1/GPa) = 0.01570187
#
# Stress axis : x y z
#
# Youngs Moduli (GPa) = 201.42138 142.36792 104.53750
#
# Poissons Ratio (x) = 0.31325 -0.03559
# Poissons Ratio (y) = 0.44319 0.11150
# Poissons Ratio (z) = -0.06858 0.15185
#
# Static dielectric constant tensor:
#      x y z
#    x 2.289930 0.000000 0.075140 
#    y 0.000000 2.487450 0.000000 
#    z 0.075140 0.000000 2.136380 
# 
# From -- ./inp_files/37099.got.cif
#   From: 2010.05.17/outbox.cif.g08.bks.cpg/sg9_19_cif.got.tgz:37099.got - 2010.06.03 20:04:27.
