data_PCOD9135267
_publ_section_title
;
Structure prediction by ZEFSAII (Michael W. Deem and Ramdas Pophale) SiO2 
 PCOD9135267
Probable space group: C C
;
_chemical_formula_sum "Si O2"
_cell_formula_units_Z 32
_cell_length_a 11.889837
_cell_length_b 14.365161
_cell_length_c 17.013010
_cell_angle_alpha 90.000000
_cell_angle_beta 149.674115
_cell_angle_gamma 90.000000
_cell_volume 1467.195870
_symmetry_space_group_name_H-M "C C"
_symmetry_group_IT_number 9
_symmetry_cell_setting 'monoclinic'
loop_
_space_group_symop_operation_xyz
x,y,z
x,-y,1/2+z
1/2+x,1/2+y,z
1/2+x,1/2-y,1/2+z
loop_
_atom_site_type_symbol
_atom_site_label
_atom_site_fract_x
_atom_site_fract_y
_atom_site_fract_z
Si Si1 0.257890 0.737885 0.480620
Si Si2 0.744117 0.096045 0.719887
Si Si3 0.256333 0.075776 0.413241
Si Si4 0.836597 0.294215 0.821377
Si Si5 0.376467 0.446978 0.123940
Si Si6 0.425862 0.022306 0.275898
Si Si7 0.551131 0.440305 0.961004
Si Si8 0.102101 0.359304 0.744159
O O1 0.385796 0.639734 0.570002
O O2 0.119235 0.724491 0.317979
O O3 0.416088 0.825433 0.572273
O O4 0.085781 0.741878 0.449501
O O5 0.509620 0.041785 0.578242
O O6 0.700830 0.201089 0.721587
O O7 0.827799 0.092607 0.681139
O O8 0.931779 0.041796 0.882033
O O9 0.286311 0.167653 0.377449
O O10 0.149463 0.085313 0.434964
O O11 0.094944 0.008705 0.265479
O O12 0.822721 0.386308 0.757316
O O13 0.150099 0.501344 0.960084
O O14 0.514961 0.056174 0.244612
O O15 0.238990 0.947632 0.141398
O O16 0.344445 0.374779 0.856157
#
# Coordination Sequence:
#
# PCOD9135267 Si02
#       8
#     4   4   4   4   4   4   4   4
#     4  10  20  38  67  89 120 156 223 265 317 375
#     4  11  21  39  64  95 130 168 212 273 323 396
#     4  11  23  42  61  98 132 170 216 270 340 395
#     4  10  22  37  70  96 126 161 220 275 326 377
#     4   9  20  38  67  95 121 162 216 270 333 380
#     4  10  21  38  68  96 124 164 221 274 324 385
#     4  11  25  40  63  95 137 174 218 263 339 397
#     4  10  22  40  62  92 120 169 216 266 314 385
#
# _framework density 21.810313000000001
#
# number of rings (size 3 to 8) (size 9 to 14) (size 15 to 20)
#    0.000    2.000    2.500    3.000    5.250    3.000 
#    2.250    1.250    0.000    0.000    0.000    0.000 
#    0.000    0.000    0.000    0.000    0.000    0.000 
#
# Total GULP energy -89265.010521 kJ/mol
# GULP energy per Si atom -5579.063158 kJ/mol
# Density = 2.176067 g / cm^3
# Si number density = 21.810313 Si / 1000 Ang^3
#
#
#
# Elastic Constant Matrix: (Units=GPa)
#
#
# Indices 1 2 3 4 5 6 
#
# 1 84.4728 30.4669 8.0013 0.0057 14.3809 -0.0011
# 2 30.4669 50.2046 33.2118 -0.0026 8.2863 -0.0011
# 3 8.0013 33.2118 88.9720 0.0027 6.7606 -0.0042
# 4 0.0057 -0.0026 0.0027 46.8353 0.0038 7.5952
# 5 14.3809 8.2863 6.7606 0.0038 29.2957 -0.0031
# 6 -0.0011 -0.0011 -0.0042 7.5952 -0.0031 20.9086
#
#
#
# Elastic Compliance Matrix: (Units=1/GPa)
#
#
# Indices 1 2 3 4 5 6 
#
# 1 0.016532 -0.011151 0.003107 -0.000003 -0.005679 0.000001
# 2 -0.011151 0.034804 -0.011865 0.000005 -0.001632 -0.000003
# 3 0.003107 -0.011865 0.015522 -0.000002 -0.001751 0.000003
# 4 -0.000003 0.000005 -0.000002 0.022688 -0.000003 -0.008242
# 5 -0.005679 -0.001632 -0.001751 -0.000003 0.037788 0.000006
# 6 0.000001 -0.000003 0.000003 -0.008242 0.000006 0.050821
#
#
# Mechanical properties :
#
#
# Convention : Reuss Voigt Hill
#
# Bulk Modulus (GPa) = 36.98081 40.77880 38.87980
# Shear Modulus (GPa) = 22.02772 29.53920 25.78346
#
# Velocity S-wave (km/s) = 3.18145 3.68417 3.44200
# Velocity P-wave (km/s) = 5.52159 6.06919 5.80185
#
# Compressibility (1/GPa) = 0.02704105
#
# Stress axis : x y z
#
# Youngs Moduli (GPa) = 60.48729 28.73237 64.42426
#
# Poissons Ratio (x) = 0.32040 -0.20018
# Poissons Ratio (y) = 0.67450 0.76439
# Poissons Ratio (z) = -0.18795 0.34091
#
# Static dielectric constant tensor:
#      x y z
#    x 1.797160 0.000000 -0.008910 
#    y 0.000000 1.857220 0.000000 
#    z -0.008910 0.000000 1.866340 
# 
# From -- ./inp_files/7382.got.cif
#   From: 2010.05.17/outbox.cif.g08.bks.cpg/sg9_4_cif.got.tgz:7382.got - 2010.06.03 20:04:27.
