data_PCOD9135855
_publ_section_title
;
Structure prediction by ZEFSAII (Michael W. Deem and Ramdas Pophale) SiO2 
 PCOD9135855
Probable space group: C C
;
_chemical_formula_sum "Si O2"
_cell_formula_units_Z 32
_cell_length_a 12.147660
_cell_length_b 13.723996
_cell_length_c 16.960932
_cell_angle_alpha 90.000000
_cell_angle_beta 33.803319
_cell_angle_gamma 90.000000
_cell_volume 1573.135524
_symmetry_space_group_name_H-M "C C"
_symmetry_group_IT_number 9
_symmetry_cell_setting 'monoclinic'
loop_
_space_group_symop_operation_xyz
x,y,z
x,-y,1/2+z
1/2+x,1/2+y,z
1/2+x,1/2-y,1/2+z
loop_
_atom_site_type_symbol
_atom_site_label
_atom_site_fract_x
_atom_site_fract_y
_atom_site_fract_z
Si Si1 0.372910 0.152174 0.692360
Si Si2 0.441111 0.442239 0.685573
Si Si3 0.486333 0.553769 0.898928
Si Si4 0.837936 0.653825 0.896747
Si Si5 0.330934 0.631798 0.420590
Si Si6 0.609090 0.385279 0.158657
Si Si7 0.705003 0.805857 0.662269
Si Si8 0.008087 0.459676 0.869496
O O1 0.373788 0.179127 0.783990
O O2 0.597642 0.126691 0.539531
O O3 0.287150 0.237159 0.685518
O O4 0.218226 0.062954 0.780150
O O5 0.610684 0.381168 0.541102
O O6 0.439298 0.400023 0.775468
O O7 0.512016 0.554154 0.646879
O O8 0.221492 0.446165 0.782357
O O9 0.394824 0.446694 0.947867
O O10 0.479314 0.596853 0.814238
O O11 0.368650 0.622721 0.028619
O O12 0.871471 0.756692 0.919787
O O13 0.966440 0.563888 0.854001
O O14 0.642235 0.271316 0.133466
O O15 0.827119 0.434744 0.035327
O O16 0.521784 0.872234 0.797974
#
# Coordination Sequence:
#
# PCOD9135855 Si02
#       8
#     4   4   4   4   4   4   4   4
#     4  11  21  36  59  85 113 149 191 237 286 335
#     4  10  21  37  57  80 113 152 189 231 287 343
#     4  10  21  35  56  86 112 142 190 238 282 337
#     4  11  23  37  57  86 116 151 192 234 285 343
#     4  11  21  37  58  83 114 149 190 236 283 342
#     4   9  20  35  55  82 112 145 187 234 285 338
#     4  11  20  35  59  84 111 147 192 242 284 333
#     4  11  21  36  57  84 115 149 189 238 284 337
#
# _framework density 20.341539999999998
#
# number of rings (size 3 to 8) (size 9 to 14) (size 15 to 20)
#    0.000    1.500    0.000    7.500    0.000    0.000 
#    0.000    2.500    0.000   12.000    0.000    0.000 
#    0.000    0.000    0.000    0.000    0.000    0.000 
#
# Total GULP energy -89247.178679 kJ/mol
# GULP energy per Si atom -5577.948667 kJ/mol
# Density = 2.029524 g / cm^3
# Si number density = 20.341540 Si / 1000 Ang^3
#
#
#
# Elastic Constant Matrix: (Units=GPa)
#
#
# Indices 1 2 3 4 5 6 
#
# 1 28.2186 46.2314 11.5120 -0.0004 -2.8270 0.0001
# 2 46.2314 173.5654 30.9722 -0.0013 -8.2900 0.0004
# 3 11.5120 30.9722 95.2525 -0.0039 9.9574 0.0016
# 4 -0.0004 -0.0013 -0.0039 26.3248 0.0015 0.6974
# 5 -2.8270 -8.2900 9.9574 0.0015 29.8786 -0.0004
# 6 0.0001 0.0004 0.0016 0.6974 -0.0004 33.4007
#
#
#
# Elastic Compliance Matrix: (Units=1/GPa)
#
#
# Indices 1 2 3 4 5 6 
#
# 1 0.063502 -0.016337 -0.002608 0.000000 0.002344 0.000000
# 2 -0.016337 0.010497 -0.001639 0.000000 0.001913 0.000000
# 3 -0.002608 -0.001639 0.011832 0.000002 -0.004644 -0.000001
# 4 0.000000 0.000000 0.000002 0.038008 -0.000003 -0.000794
# 5 0.002344 0.001913 -0.004644 -0.000003 0.035769 0.000001
# 6 0.000000 0.000000 -0.000001 -0.000794 0.000001 0.029956
#
#
# Mechanical properties :
#
#
# Convention : Reuss Voigt Hill
#
# Bulk Modulus (GPa) = 22.38938 52.71863 37.55401
# Shear Modulus (GPa) = 20.35667 31.80890 26.08278
#
# Velocity S-wave (km/s) = 3.16689 3.95871 3.58473
# Velocity P-wave (km/s) = 4.93992 6.84603 5.96955
#
# Compressibility (1/GPa) = 0.04466404
#
# Stress axis : x y z
#
# Youngs Moduli (GPa) = 15.74742 95.26553 84.51736
#
# Poissons Ratio (x) = 1.55639 0.22039
# Poissons Ratio (y) = 0.25727 0.13849
# Poissons Ratio (z) = 0.04106 0.15610
#
# Static dielectric constant tensor:
#      x y z
#    x 1.768150 0.000000 0.028220 
#    y 0.000000 1.774240 0.000000 
#    z 0.028220 0.000000 1.744390 
# 
# From -- ./inp_files/33770.got.cif
#   From: 2010.05.17/outbox.cif.g08.bks.cpg/sg9_17_cif.got.tgz:33770.got - 2010.06.03 20:04:27.
