data_PCOD9135158
_publ_section_title
;
Structure prediction by ZEFSAII (Michael W. Deem and Ramdas Pophale) SiO2 
 PCOD9135158
Probable space group: C C
;
_chemical_formula_sum "Si O2"
_cell_formula_units_Z 32
_cell_length_a 15.643755
_cell_length_b 16.031004
_cell_length_c 5.314469
_cell_angle_alpha 90.000000
_cell_angle_beta 91.836599
_cell_angle_gamma 90.000000
_cell_volume 1332.104970
_symmetry_space_group_name_H-M "C C"
_symmetry_group_IT_number 9
_symmetry_cell_setting 'monoclinic'
loop_
_space_group_symop_operation_xyz
x,y,z
x,-y,1/2+z
1/2+x,1/2+y,z
1/2+x,1/2-y,1/2+z
loop_
_atom_site_type_symbol
_atom_site_label
_atom_site_fract_x
_atom_site_fract_y
_atom_site_fract_z
Si Si1 0.826190 0.288972 0.970550
Si Si2 0.008503 0.197231 0.884346
Si Si3 0.161301 0.307450 0.685340
Si Si4 0.870405 0.450690 0.293305
Si Si5 0.458344 0.616682 0.372010
Si Si6 0.574772 0.051053 0.857747
Si Si7 0.322064 0.472828 0.333288
Si Si8 0.298709 0.308933 0.049887
O O1 0.836054 0.369277 0.146074
O O2 0.924408 0.255360 0.924091
O O3 0.740723 0.245072 0.080224
O O4 0.876859 0.180467 0.364632
O O5 0.086701 0.255390 0.812516
O O6 0.001013 0.136483 0.641020
O O7 0.014022 0.141087 0.137069
O O8 0.120804 0.366084 0.468168
O O9 0.294944 0.218903 0.173611
O O10 0.847925 0.521586 0.077930
O O11 0.972452 0.436405 0.332900
O O12 0.326374 0.623506 0.767511
O O13 0.592931 0.016107 0.581319
O O14 0.778840 0.016598 0.094352
O O15 0.409994 0.472690 0.863575
O O16 0.213470 0.345222 0.924821
#
# Coordination Sequence:
#
# PCOD9135158 Si02
#       8
#     4   4   4   4   4   4   4   4
#     4  11  26  47  75 107 148 194 248 306 372 440
#     4  11  26  43  71 100 145 193 250 292 357 434
#     4  12  28  44  74 113 154 194 243 309 371 448
#     4  10  25  47  80 106 137 196 255 312 373 429
#     4  10  21  44  64 100 142 198 239 283 350 433
#     4  10  26  47  71 111 156 194 240 306 382 451
#     4  10  20  37  66  98 144 189 233 281 346 439
#     4  10  24  41  69 113 144 192 242 291 379 434
#
# _framework density 24.022131000000002
#
# number of rings (size 3 to 8) (size 9 to 14) (size 15 to 20)
#    0.000    1.500    1.250    2.250   14.000    2.000 
#    0.000    0.000    0.000   12.000    0.000    0.000 
#    0.000    0.000    0.000    0.000    0.000    0.000 
#
# Total GULP energy -89129.281029 kJ/mol
# GULP energy per Si atom -5570.580064 kJ/mol
# Density = 2.396746 g / cm^3
# Si number density = 24.022131 Si / 1000 Ang^3
#
#
#
# Elastic Constant Matrix: (Units=GPa)
#
#
# Indices 1 2 3 4 5 6 
#
# 1 82.3574 53.8713 42.6637 0.0000 -13.6903 0.0000
# 2 53.8713 103.2523 54.2213 0.0000 11.9589 0.0000
# 3 42.6637 54.2213 185.2977 0.0000 6.9312 0.0000
# 4 0.0000 0.0000 0.0000 45.4270 0.0000 3.0910
# 5 -13.6903 11.9589 6.9312 0.0000 22.9467 0.0000
# 6 0.0000 0.0000 0.0000 3.0910 0.0000 36.0079
#
#
#
# Elastic Compliance Matrix: (Units=1/GPa)
#
#
# Indices 1 2 3 4 5 6 
#
# 1 0.029071 -0.016832 -0.002776 0.000000 0.026955 0.000000
# 2 -0.016832 0.021788 -0.001719 0.000000 -0.020877 0.000000
# 3 -0.002776 -0.001719 0.006643 0.000000 -0.002767 0.000000
# 4 0.000000 0.000000 0.000000 0.022143 0.000000 -0.001901
# 5 0.026955 -0.020877 -0.002767 0.000000 0.071377 0.000000
# 6 0.000000 0.000000 0.000000 -0.001901 0.000000 0.027935
#
#
# Mechanical properties :
#
#
# Convention : Reuss Voigt Hill
#
# Bulk Modulus (GPa) = 67.35449 74.71335 71.03392
# Shear Modulus (GPa) = 22.06931 35.55307 28.81119
#
# Velocity S-wave (km/s) = 3.03431 3.85127 3.46694
# Velocity P-wave (km/s) = 6.35416 7.13763 6.75726
#
# Compressibility (1/GPa) = 0.01484682
#
# Stress axis : x y z
#
# Youngs Moduli (GPa) = 34.39857 45.89763 150.54489
#
# Poissons Ratio (x) = 0.77253 0.41799
# Poissons Ratio (y) = 0.57898 0.25881
# Poissons Ratio (z) = 0.09551 0.07890
#
# Static dielectric constant tensor:
#      x y z
#    x 1.918400 0.000000 0.003600 
#    y 0.000000 2.037330 0.000000 
#    z 0.003600 0.000000 2.136480 
# 
# From -- ./inp_files/3007.got.cif
#   From: 2010.05.17/outbox.cif.g08.bks.cpg/sg9_2_cif.got.tgz:3007.got - 2010.06.03 20:04:27.
