data_PCOD9135504
_publ_section_title
;
Structure prediction by ZEFSAII (Michael W. Deem and Ramdas Pophale) SiO2 
 PCOD9135504
Probable space group: C C
;
_chemical_formula_sum "Si O2"
_cell_formula_units_Z 28
_cell_length_a 7.524293
_cell_length_b 12.409108
_cell_length_c 11.710316
_cell_angle_alpha 90.000000
_cell_angle_beta 82.338783
_cell_angle_gamma 90.000000
_cell_volume 1083.629488
_symmetry_space_group_name_H-M "C C"
_symmetry_group_IT_number 9
_symmetry_cell_setting 'monoclinic'
loop_
_space_group_symop_operation_xyz
x,y,z
x,-y,1/2+z
1/2+x,1/2+y,z
1/2+x,1/2-y,1/2+z
loop_
_atom_site_type_symbol
_atom_site_label
_atom_site_fract_x
_atom_site_fract_y
_atom_site_fract_z
Si Si1 0.118980 0.165516 0.678240
Si Si2 0.006908 0.517819 0.984921
Si Si3 0.007863 0.862447 0.487498
Si Si4 0.877938 0.701915 0.837150
Si Si5 0.886643 0.094857 0.482919
Si Si6 0.679316 0.423607 0.685282
Si Si7 0.877371 0.310560 0.857065
O O1 0.325243 0.180799 0.708502
O O2 0.004197 0.159490 0.568979
O O3 0.018540 0.258399 0.756942
O O4 0.097307 0.040443 0.715490
O O5 0.014353 0.616871 0.889373
O O6 0.930187 0.417338 0.919869
O O7 0.189026 0.461941 0.021124
O O8 0.863592 0.552916 0.095310
O O9 0.194127 0.827357 0.418663
O O10 0.039467 0.862071 0.618128
O O11 0.856265 0.783529 0.452769
O O12 0.991631 0.985598 0.456141
O O13 0.881477 0.826026 0.876495
O O14 0.724254 0.348726 0.786621
#
# Coordination Sequence:
#
# PCOD9135504 Si02
#       7
#     4   4   4   4   4   4   4
#     4  10  20  40  69  90 132 181 216 265 345 390
#     4  11  22  41  71  97 135 173 230 280 332 402
#     4   9  21  41  68  93 131 172 224 270 338 393
#     4  10  20  43  64  91 132 178 210 277 336 397
#     4  11  22  43  66  98 134 169 226 283 324 398
#     4  10  22  42  70  98 133 186 219 272 344 408
#     4  11  21  42  68  95 135 177 217 281 331 396
#
# _framework density 25.839089999999999
#
# number of rings (size 3 to 8) (size 9 to 14) (size 15 to 20)
#    0.000    1.714    4.286    1.714    0.000    0.000 
#   15.429    0.000    6.286    3.429    0.000    0.000 
#    0.000    0.000    0.000    0.000    0.000    0.000 
#
# Total GULP energy -77972.802501 kJ/mol
# GULP energy per Si atom -5569.485893 kJ/mol
# Density = 2.578028 g / cm^3
# Si number density = 25.839090 Si / 1000 Ang^3
#
#
#
# Elastic Constant Matrix: (Units=GPa)
#
#
# Indices 1 2 3 4 5 6 
#
# 1 93.4644 55.7038 41.8912 0.0000 9.1742 0.0000
# 2 55.7038 126.4810 45.3055 0.0000 37.6274 0.0000
# 3 41.8912 45.3055 148.3650 0.0000 47.8110 0.0000
# 4 0.0000 0.0000 0.0000 65.3594 0.0000 23.6363
# 5 9.1742 37.6274 47.8110 0.0000 38.3299 0.0000
# 6 0.0000 0.0000 0.0000 23.6363 0.0000 9.0329
#
#
#
# Elastic Compliance Matrix: (Units=1/GPa)
#
#
# Indices 1 2 3 4 5 6 
#
# 1 0.017898 -0.009449 -0.006315 0.000000 0.012869 0.000000
# 2 -0.009449 0.016160 0.003539 0.000000 -0.018017 0.000000
# 3 -0.006315 0.003539 0.013503 0.000000 -0.018805 0.000000
# 4 0.000000 0.000000 0.000000 0.284859 0.000000 -0.745388
# 5 0.012869 -0.018017 -0.018805 0.000000 0.064153 0.000000
# 6 0.000000 0.000000 0.000000 -0.745388 0.000000 2.061153
#
#
# Mechanical properties :
#
#
# Convention : Reuss Voigt Hill
#
# Bulk Modulus (GPa) = 43.27059 72.67904 57.97481
# Shear Modulus (GPa) = 2.00813 37.57177 19.78995
#
# Velocity S-wave (km/s) = 0.88253 3.81736 2.77048
# Velocity P-wave (km/s) = 4.22149 6.90060 5.72011
#
# Compressibility (1/GPa) = 0.02311039
#
# Stress axis : x y z
#
# Youngs Moduli (GPa) = 55.87186 61.88148 74.05974
#
# Poissons Ratio (x) = 0.58472 0.46772
# Poissons Ratio (y) = 0.52793 -0.26211
# Poissons Ratio (z) = 0.35285 -0.21901
#
# Static dielectric constant tensor:
#      x y z
#    x 2.186070 0.000000 0.027170 
#    y 0.000000 1.999020 0.000000 
#    z 0.027170 0.000000 2.222390 
# 
# From -- ./inp_files/22557.got.cif
#   From: 2010.05.17/outbox.cif.g08.bks.cpg/sg9_12_cif.got.tgz:22557.got - 2010.06.03 20:04:27.
