data_PCOD9135674
_publ_section_title
;
Structure prediction by ZEFSAII (Michael W. Deem and Ramdas Pophale) SiO2 
 PCOD9135674
Probable space group: C C
;
_chemical_formula_sum "Si O2"
_cell_formula_units_Z 28
_cell_length_a 7.120184
_cell_length_b 19.006681
_cell_length_c 13.587889
_cell_angle_alpha 90.000000
_cell_angle_beta 135.367970
_cell_angle_gamma 90.000000
_cell_volume 1291.895368
_symmetry_space_group_name_H-M "C C"
_symmetry_group_IT_number 9
_symmetry_cell_setting 'monoclinic'
loop_
_space_group_symop_operation_xyz
x,y,z
x,-y,1/2+z
1/2+x,1/2+y,z
1/2+x,1/2-y,1/2+z
loop_
_atom_site_type_symbol
_atom_site_label
_atom_site_fract_x
_atom_site_fract_y
_atom_site_fract_z
Si Si1 0.086500 0.581032 0.968580
Si Si2 0.561744 0.676278 0.094913
Si Si3 0.649312 0.335070 0.402378
Si Si4 0.943842 0.552468 0.703219
Si Si5 0.139348 0.324771 0.893404
Si Si6 0.864167 0.029686 0.465226
Si Si7 0.088844 0.663977 0.600661
O O1 0.190136 0.501038 0.992533
O O2 0.876258 0.606974 0.969889
O O3 0.946530 0.593536 0.809151
O O4 0.355413 0.626778 0.073921
O O5 0.512040 0.757277 0.105515
O O6 0.876107 0.665188 0.229689
O O7 0.522579 0.663637 0.963856
O O8 0.749821 0.254473 0.425841
O O9 0.406850 0.344323 0.236234
O O10 0.670716 0.508762 0.592960
O O11 0.209801 0.505130 0.815568
O O12 0.958502 0.604096 0.617238
O O13 0.345153 0.386903 0.950494
O O14 0.035332 0.336066 0.965512
#
# Coordination Sequence:
#
# PCOD9135674 Si02
#       7
#     4   4   4   4   4   4   4
#     4  10  22  40  70  90 136 171 223 273 346 394
#     4  10  21  42  65  99 133 168 228 288 329 408
#     4  10  20  42  68  96 125 184 222 288 340 401
#     4  10  22  42  68  93 140 179 226 280 340 404
#     4  10  22  40  63  95 141 163 235 279 337 405
#     4  10  22  41  60  97 135 176 219 283 331 418
#     4  10  21  41  66  96 134 177 223 285 341 394
#
# _framework density 21.673580999999999
#
# number of rings (size 3 to 8) (size 9 to 14) (size 15 to 20)
#    0.857    1.143    1.429    1.714    2.000    0.000 
#   10.286    0.000    0.000    0.000    0.000    0.000 
#    0.000    0.000    0.000    0.000    0.000    0.000 
#
# Total GULP energy -78078.033597 kJ/mol
# GULP energy per Si atom -5577.002400 kJ/mol
# Density = 2.162425 g / cm^3
# Si number density = 21.673581 Si / 1000 Ang^3
#
#
#
# Elastic Constant Matrix: (Units=GPa)
#
#
# Indices 1 2 3 4 5 6 
#
# 1 43.5155 19.9210 0.2814 0.0000 9.7913 0.0000
# 2 19.9210 70.3101 2.3768 0.0000 15.8565 0.0000
# 3 0.2814 2.3768 61.3842 0.0000 10.7479 -0.0001
# 4 0.0000 0.0000 0.0000 23.6691 0.0000 7.3519
# 5 9.7913 15.8565 10.7479 0.0000 27.0538 0.0000
# 6 0.0000 0.0000 -0.0001 7.3519 0.0000 35.6518
#
#
#
# Elastic Compliance Matrix: (Units=1/GPa)
#
#
# Indices 1 2 3 4 5 6 
#
# 1 0.027362 -0.006276 0.001298 0.000000 -0.006740 0.000000
# 2 -0.006276 0.017901 0.000833 0.000000 -0.008552 0.000000
# 3 0.001298 0.000833 0.017648 0.000000 -0.007969 0.000000
# 4 0.000000 0.000000 0.000000 0.045141 0.000000 -0.009309
# 5 -0.006740 -0.008552 -0.007969 0.000000 0.047581 0.000000
# 6 0.000000 0.000000 0.000000 -0.009309 0.000000 0.029969
#
#
# Mechanical properties :
#
#
# Convention : Reuss Voigt Hill
#
# Bulk Modulus (GPa) = 18.30847 24.48536 21.39691
# Shear Modulus (GPa) = 23.57390 27.45030 25.51210
#
# Velocity S-wave (km/s) = 3.30158 3.56270 3.43462
# Velocity P-wave (km/s) = 4.79579 5.31466 5.06188
#
# Compressibility (1/GPa) = 0.05461954
#
# Stress axis : x y z
#
# Youngs Moduli (GPa) = 36.54753 55.86160 56.66381
#
# Poissons Ratio (x) = 0.35060 -0.07353
# Poissons Ratio (y) = 0.22938 -0.04720
# Poissons Ratio (z) = -0.04743 -0.04653
#
# Static dielectric constant tensor:
#      x y z
#    x 1.764870 0.000000 0.005130 
#    y 0.000000 1.829910 0.000000 
#    z 0.005130 0.000000 1.776440 
# 
# From -- ./inp_files/22255.got.cif
#   From: 2010.05.17/outbox.cif.g08.bks.cpg/sg9_12_cif.got.tgz:22255.got - 2010.06.03 20:04:27.
