data_PCOD9135601
_publ_section_title
;
Structure prediction by ZEFSAII (Michael W. Deem and Ramdas Pophale) SiO2 
 PCOD9135601
Probable space group: C C
;
_chemical_formula_sum "Si O2"
_cell_formula_units_Z 28
_cell_length_a 10.098282
_cell_length_b 14.205913
_cell_length_c 14.989242
_cell_angle_alpha 90.000000
_cell_angle_beta 36.854456
_cell_angle_gamma 90.000000
_cell_volume 1289.708203
_symmetry_space_group_name_H-M "C C"
_symmetry_group_IT_number 9
_symmetry_cell_setting 'monoclinic'
loop_
_space_group_symop_operation_xyz
x,y,z
x,-y,1/2+z
1/2+x,1/2+y,z
1/2+x,1/2-y,1/2+z
loop_
_atom_site_type_symbol
_atom_site_label
_atom_site_fract_x
_atom_site_fract_y
_atom_site_fract_z
Si Si1 0.543700 0.947442 0.413130
Si Si2 0.974994 0.252025 0.550898
Si Si3 0.144491 0.876018 0.529616
Si Si4 0.876922 0.364859 0.776119
Si Si5 0.777208 0.033465 0.126944
Si Si6 0.989710 0.727885 0.730751
Si Si7 0.033448 0.457773 0.100852
O O1 0.556957 0.845019 0.452270
O O2 0.304746 0.948098 0.493715
O O3 0.716547 0.964677 0.241153
O O4 0.564759 0.023294 0.480337
O O5 0.151719 0.170041 0.440714
O O6 0.953520 0.286496 0.663832
O O7 0.732181 0.228348 0.644698
O O8 0.977888 0.827595 0.688451
O O9 0.307756 0.795971 0.402582
O O10 0.008036 0.920768 0.523867
O O11 0.860517 0.462351 0.728711
O O12 0.079159 0.388849 0.732932
O O13 0.746372 0.985283 0.047280
O O14 0.970819 0.645032 0.667949
#
# Coordination Sequence:
#
# PCOD9135601 Si02
#       7
#     4   4   4   4   4   4   4
#     4  10  21  45  64  96 127 179 224 263 331 390
#     4  10  20  41  71  95 126 177 226 267 319 406
#     4  11  24  43  66  97 136 173 221 271 335 394
#     4   9  21  39  65  96 129 165 226 267 328 381
#     4  10  23  44  63  94 141 163 219 279 330 390
#     4  11  23  41  68  96 132 175 225 266 332 390
#     4   9  22  43  63  96 129 166 227 263 329 391
#
# _framework density 21.710336999999999
#
# number of rings (size 3 to 8) (size 9 to 14) (size 15 to 20)
#    0.857    1.143    1.429    1.714    2.000    3.429 
#    2.571    0.000    0.000    0.000    0.000    0.000 
#    0.000    0.000    0.000    0.000    0.000    0.000 
#
# Total GULP energy -78147.412835 kJ/mol
# GULP energy per Si atom -5581.958060 kJ/mol
# Density = 2.166092 g / cm^3
# Si number density = 21.710337 Si / 1000 Ang^3
#
#
#
# Elastic Constant Matrix: (Units=GPa)
#
#
# Indices 1 2 3 4 5 6 
#
# 1 73.5044 0.1444 38.2065 -0.0016 8.7898 0.0002
# 2 0.1444 44.5536 29.9609 -0.0041 0.1802 0.0010
# 3 38.2065 29.9609 80.7901 -0.0081 5.2751 0.0024
# 4 -0.0016 -0.0041 -0.0081 39.3195 0.0029 11.6057
# 5 8.7898 0.1802 5.2751 0.0029 25.4960 -0.0003
# 6 0.0002 0.0010 0.0024 11.6057 -0.0003 30.1765
#
#
#
# Elastic Compliance Matrix: (Units=1/GPa)
#
#
# Indices 1 2 3 4 5 6 
#
# 1 0.020693 0.008434 -0.012615 -0.000001 -0.004584 0.000001
# 2 0.008434 0.033452 -0.016411 0.000000 0.000251 0.000000
# 3 -0.012615 -0.016411 0.024468 0.000004 -0.000598 -0.000003
# 4 -0.000001 0.000000 0.000004 0.028689 -0.000004 -0.011034
# 5 -0.004584 0.000251 -0.000598 -0.000004 0.040924 0.000002
# 6 0.000001 0.000000 -0.000003 -0.011034 0.000002 0.037382
#
#
# Mechanical properties :
#
#
# Convention : Reuss Voigt Hill
#
# Bulk Modulus (GPa) = 26.71541 37.27461 31.99501
# Shear Modulus (GPa) = 20.89709 27.70084 24.29896
#
# Velocity S-wave (km/s) = 3.10585 3.57589 3.34913
# Velocity P-wave (km/s) = 5.01935 5.85283 5.45204
#
# Compressibility (1/GPa) = 0.03743157
#
# Stress axis : x y z
#
# Youngs Moduli (GPa) = 48.32551 29.89331 40.86933
#
# Poissons Ratio (x) = -0.25213 0.51555
# Poissons Ratio (y) = -0.40759 0.67070
# Poissons Ratio (z) = 0.60960 0.49057
#
# Static dielectric constant tensor:
#      x y z
#    x 1.774990 0.000000 0.016490 
#    y 0.000000 1.835480 0.000000 
#    z 0.016490 0.000000 1.808120 
# 
# From -- ./inp_files/23313.got.cif
#   From: 2010.05.17/outbox.cif.g08.bks.cpg/sg9_12_cif.got.tgz:23313.got - 2010.06.03 20:04:27.
