data_PCOD9135356
_publ_section_title
;
Structure prediction by ZEFSAII (Michael W. Deem and Ramdas Pophale) SiO2 
 PCOD9135356
Probable space group: C C
;
_chemical_formula_sum "Si O2"
_cell_formula_units_Z 28
_cell_length_a 11.825536
_cell_length_b 17.841956
_cell_length_c 9.916541
_cell_angle_alpha 90.000000
_cell_angle_beta 34.511611
_cell_angle_gamma 90.000000
_cell_volume 1185.439965
_symmetry_space_group_name_H-M "C C"
_symmetry_group_IT_number 9
_symmetry_cell_setting 'monoclinic'
loop_
_space_group_symop_operation_xyz
x,y,z
x,-y,1/2+z
1/2+x,1/2+y,z
1/2+x,1/2-y,1/2+z
loop_
_atom_site_type_symbol
_atom_site_label
_atom_site_fract_x
_atom_site_fract_y
_atom_site_fract_z
Si Si1 0.930600 0.426549 0.138730
Si Si2 0.821232 0.854662 0.069919
Si Si3 0.929663 0.417155 0.568573
Si Si4 0.141362 0.826917 0.299272
Si Si5 0.607161 0.525571 0.172667
Si Si6 0.586719 0.639496 0.572647
Si Si7 0.782825 0.814574 0.830613
O O1 0.822373 0.386600 0.118161
O O2 0.745210 0.438645 0.421037
O O3 0.031939 0.507889 0.026436
O O4 0.093979 0.368486 0.027517
O O5 0.592767 0.868832 0.332485
O O6 0.849436 0.796654 0.918510
O O7 0.912936 0.929056 0.909129
O O8 0.941991 0.841651 0.090030
O O9 0.756325 0.457971 0.651502
O O10 0.808533 0.367762 0.793626
O O11 0.220876 0.758504 0.309569
O O12 0.948581 0.853389 0.573129
O O13 0.079649 0.806698 0.208447
O O14 0.548834 0.443081 0.177170
#
# Coordination Sequence:
#
# PCOD9135356 Si02
#       7
#     4   4   4   4   4   4   4
#     4  11  22  39  66 100 137 175 228 271 342 415
#     4  11  24  41  70 108 136 178 232 286 352 409
#     4  10  22  39  68 105 143 179 212 283 359 416
#     4  12  25  47  67  95 136 186 239 282 333 414
#     4  10  20  39  66 104 141 174 212 287 352 416
#     4  10  25  42  66 103 147 174 224 295 350 403
#     4  12  26  43  73  95 130 190 239 280 334 417
#
# _framework density 23.619923
#
# number of rings (size 3 to 8) (size 9 to 14) (size 15 to 20)
#    0.000    1.143    5.714    0.000    4.000    1.143 
#    0.000    1.429    0.000    0.000    0.000    0.000 
#    0.000    0.000    0.000    0.000    0.000    0.000 
#
# Total GULP energy -78154.143635 kJ/mol
# GULP energy per Si atom -5582.438831 kJ/mol
# Density = 2.356616 g / cm^3
# Si number density = 23.619923 Si / 1000 Ang^3
#
#
#
# Elastic Constant Matrix: (Units=GPa)
#
#
# Indices 1 2 3 4 5 6 
#
# 1 141.8752 30.8092 47.8919 0.0172 37.3158 0.0024
# 2 30.8092 40.8802 20.2165 0.0558 5.5375 -0.0110
# 3 47.8919 20.2165 104.4823 0.0342 23.8232 -0.0104
# 4 0.0172 0.0558 0.0342 15.1607 -0.0279 5.3628
# 5 37.3158 5.5375 23.8232 -0.0279 41.0233 0.0032
# 6 0.0024 -0.0110 -0.0104 5.3628 0.0032 24.2154
#
#
#
# Elastic Compliance Matrix: (Units=1/GPa)
#
#
# Indices 1 2 3 4 5 6 
#
# 1 0.011290 -0.006373 -0.002071 0.000002 -0.008207 -0.000004
# 2 -0.006373 0.030665 -0.003908 -0.000102 0.003927 0.000035
# 3 -0.002071 -0.003908 0.012364 -0.000023 -0.004769 0.000010
# 4 0.000002 -0.000102 -0.000023 0.071567 0.000076 -0.015849
# 5 -0.008207 0.003927 -0.004769 0.000076 0.034081 -0.000021
# 6 -0.000004 0.000035 0.000010 -0.015849 -0.000021 0.044806
#
#
# Mechanical properties :
#
#
# Convention : Reuss Voigt Hill
#
# Bulk Modulus (GPa) = 33.76502 53.89698 43.83100
# Shear Modulus (GPa) = 20.89013 28.63457 24.76235
#
# Velocity S-wave (km/s) = 2.97716 3.48560 3.24136
# Velocity P-wave (km/s) = 5.11314 6.25037 5.71014
#
# Compressibility (1/GPa) = 0.02961645
#
# Stress axis : x y z
#
# Youngs Moduli (GPa) = 88.57484 32.61012 80.88275
#
# Poissons Ratio (x) = 0.20782 0.16748
# Poissons Ratio (y) = 0.56448 0.31606
# Poissons Ratio (z) = 0.18340 0.12743
#
# Static dielectric constant tensor:
#      x y z
#    x 2.058720 0.000000 0.023120 
#    y 0.000000 1.981910 0.000010 
#    z 0.023120 0.000010 1.851130 
# 
# From -- ./inp_files/8364.got.cif
#   From: 2010.05.17/outbox.cif.g08.bks.cpg/sg9_5_cif.got.tgz:8364.got - 2010.06.03 20:04:27.
