data_PCOD9135196
_publ_section_title
;
Structure prediction by ZEFSAII (Michael W. Deem and Ramdas Pophale) SiO2 
 PCOD9135196
Probable space group: C C
;
_chemical_formula_sum "Si O2"
_cell_formula_units_Z 24
_cell_length_a 5.187385
_cell_length_b 17.915039
_cell_length_c 12.796087
_cell_angle_alpha 90.000000
_cell_angle_beta 74.788850
_cell_angle_gamma 90.000000
_cell_volume 1147.506593
_symmetry_space_group_name_H-M "C C"
_symmetry_group_IT_number 9
_symmetry_cell_setting 'monoclinic'
loop_
_space_group_symop_operation_xyz
x,y,z
x,-y,1/2+z
1/2+x,1/2+y,z
1/2+x,1/2-y,1/2+z
loop_
_atom_site_type_symbol
_atom_site_label
_atom_site_fract_x
_atom_site_fract_y
_atom_site_fract_z
Si Si1 0.521540 0.873734 0.755570
Si Si2 0.632253 0.085078 0.857664
Si Si3 0.405571 0.030943 0.079524
Si Si4 0.998763 0.052093 0.296538
Si Si5 0.934527 0.202694 0.711799
Si Si6 0.496983 0.879083 0.145910
O O1 0.576246 0.919679 0.642971
O O2 0.774498 0.885210 0.801935
O O3 0.458637 0.789665 0.730404
O O4 0.253043 0.913311 0.828505
O O5 0.787132 0.162958 0.826348
O O6 0.500938 0.076553 0.757131
O O7 0.851866 0.021015 0.852961
O O8 0.417007 0.074100 0.969994
O O9 0.122815 0.029510 0.169667
O O10 0.508790 0.945995 0.062263
O O11 0.745746 0.176876 0.635155
O O12 0.224508 0.166460 0.666274
#
# Coordination Sequence:
#
# PCOD9135196 Si02
#       6
#     4   4   4   4   4   4
#     4  10  20  38  61  81 122 156 189 248 302 343
#     4  10  21  39  63  88 119 161 203 244 298 353
#     4  10  21  39  63  88 119 161 203 244 298 353
#     4  10  20  39  57  89 115 155 199 248 284 352
#     4  10  20  38  61  81 122 156 189 248 302 343
#     4  10  20  39  57  89 115 155 199 248 284 352
#
# _framework density 20.914912000000001
#
# number of rings (size 3 to 8) (size 9 to 14) (size 15 to 20)
#    2.000    0.000    3.333    1.000    0.000    1.333 
#    0.000    3.333    0.000    0.000    0.000    0.000 
#    0.000    0.000    0.000    0.000    0.000    0.000 
#
# Total GULP energy -66808.952101 kJ/mol
# GULP energy per Si atom -5567.412675 kJ/mol
# Density = 2.086731 g / cm^3
# Si number density = 20.914912 Si / 1000 Ang^3
#
#
#
# Elastic Constant Matrix: (Units=GPa)
#
#
# Indices 1 2 3 4 5 6 
#
# 1 106.5023 24.3693 0.4091 0.0000 9.2384 0.0000
# 2 24.3693 122.1211 -13.3401 0.0000 -2.9291 0.0000
# 3 0.4091 -13.3401 25.9020 0.0000 -6.0178 0.0000
# 4 0.0000 0.0000 0.0000 7.5010 0.0000 2.2064
# 5 9.2384 -2.9291 -6.0178 0.0000 17.1143 0.0000
# 6 0.0000 0.0000 0.0000 2.2064 0.0000 28.3082
#
#
#
# Elastic Compliance Matrix: (Units=1/GPa)
#
#
# Indices 1 2 3 4 5 6 
#
# 1 0.010646 -0.002655 -0.003241 0.000000 -0.007341 0.000000
# 2 -0.002655 0.009516 0.006157 0.000000 0.005227 0.000000
# 3 -0.003241 0.006157 0.046260 0.000000 0.019069 0.000000
# 4 0.000000 0.000000 0.000000 0.136444 0.000000 -0.010635
# 5 -0.007341 0.005227 0.019069 0.000000 0.069993 0.000000
# 6 0.000000 0.000000 0.000000 -0.010635 0.000000 0.036154
#
#
# Mechanical properties :
#
#
# Convention : Reuss Voigt Hill
#
# Bulk Modulus (GPa) = 14.93735 30.82244 22.87990
# Shear Modulus (GPa) = 15.11465 26.79049 20.95257
#
# Velocity S-wave (km/s) = 2.69117 3.58289 3.16856
# Velocity P-wave (km/s) = 4.10049 5.64670 4.93453
#
# Compressibility (1/GPa) = 0.06694627
#
# Stress axis : x y z
#
# Youngs Moduli (GPa) = 93.93139 105.08313 21.61709
#
# Poissons Ratio (x) = 0.27894 0.07005
# Poissons Ratio (y) = 0.24934 -0.13310
# Poissons Ratio (z) = 0.30441 -0.64703
#
# Static dielectric constant tensor:
#      x y z
#    x 1.781110 0.000000 0.018490 
#    y 0.000000 1.746240 0.000000 
#    z 0.018490 0.000000 1.784740 
# 
# From -- ./inp_files/13078.got.cif
#   From: 2010.05.17/outbox.cif.g08.bks.cpg/sg9_7_cif.got.tgz:13078.got - 2010.06.03 20:04:27.
