data_PCOD9135183
_publ_section_title
;
Structure prediction by ZEFSAII (Michael W. Deem and Ramdas Pophale) SiO2 
 PCOD9135183
Probable space group: C C
;
_chemical_formula_sum "Si O2"
_cell_formula_units_Z 32
_cell_length_a 8.116471
_cell_length_b 11.950792
_cell_length_c 11.644420
_cell_angle_alpha 90.000000
_cell_angle_beta 81.250651
_cell_angle_gamma 90.000000
_cell_volume 1116.344853
_symmetry_space_group_name_H-M "C C"
_symmetry_group_IT_number 9
_symmetry_cell_setting 'monoclinic'
loop_
_space_group_symop_operation_xyz
x,y,z
x,-y,1/2+z
1/2+x,1/2+y,z
1/2+x,1/2-y,1/2+z
loop_
_atom_site_type_symbol
_atom_site_label
_atom_site_fract_x
_atom_site_fract_y
_atom_site_fract_z
Si Si1 0.059320 0.601462 0.952400
Si Si2 0.773593 0.106783 0.231359
Si Si3 0.143491 0.171557 0.537799
Si Si4 0.407161 0.820493 0.805328
Si Si5 0.540278 0.308845 0.546310
Si Si6 0.929529 0.996794 0.417642
Si Si7 0.679409 0.856038 0.200312
Si Si8 0.785364 0.484487 0.635898
O O1 0.236900 0.541016 0.940061
O O2 0.047011 0.645219 0.821877
O O3 0.056802 0.708736 0.036253
O O4 0.922813 0.521152 0.020226
O O5 0.606380 0.164706 0.297341
O O6 0.859717 0.179399 0.124298
O O7 0.917880 0.073851 0.306204
O O8 0.724020 0.985838 0.185727
O O9 0.301074 0.183544 0.433623
O O10 0.204338 0.106165 0.644019
O O11 0.012482 0.081784 0.498306
O O12 0.332014 0.717757 0.736908
O O13 0.353483 0.935237 0.746351
O O14 0.523760 0.377157 0.427459
O O15 0.615928 0.192953 0.585892
O O16 0.656417 0.393635 0.604221
#
# Coordination Sequence:
#
# PCOD9135183 Si02
#       8
#     4   4   4   4   4   4   4   4
#     4  10  20  38  59  83 117 155 196 245 297 349
#     4  11  21  39  62  85 122 162 197 247 306 351
#     4  10  21  40  60  83 120 159 193 244 305 350
#     4  10  21  38  61  88 118 155 201 247 292 356
#     4  10  22  40  61  90 124 156 202 252 294 357
#     4  10  21  37  60  88 118 154 199 247 291 354
#     4   9  21  40  59  83 117 158 201 247 298 351
#     4  10  21  38  60  88 120 153 201 249 289 356
#
# _framework density 28.664977
#
# number of rings (size 3 to 8) (size 9 to 14) (size 15 to 20)
#    0.000    2.000    0.000    4.500    0.000    5.000 
#    0.000   27.500    0.000    0.000    0.000    0.000 
#    0.000    0.000    0.000    0.000    0.000    0.000 
#
# Total GULP energy -89578.372705 kJ/mol
# GULP energy per Si atom -5598.648294 kJ/mol
# Density = 2.859973 g / cm^3
# Si number density = 28.664977 Si / 1000 Ang^3
#
#
#
# Elastic Constant Matrix: (Units=GPa)
#
#
# Indices 1 2 3 4 5 6 
#
# 1 107.2269 37.6035 31.8839 0.0000 -6.4579 0.0000
# 2 37.6035 186.4909 16.7301 0.0000 10.0057 0.0000
# 3 31.8839 16.7301 126.7452 0.0000 7.4275 0.0000
# 4 0.0000 0.0000 0.0000 46.5626 0.0000 9.3431
# 5 -6.4579 10.0057 7.4275 0.0000 44.4731 0.0000
# 6 0.0000 0.0000 0.0000 9.3431 0.0000 46.3264
#
#
#
# Elastic Compliance Matrix: (Units=1/GPa)
#
#
# Indices 1 2 3 4 5 6 
#
# 1 0.011004 -0.002117 -0.002636 0.000000 0.002514 0.000000
# 2 -0.002117 0.005889 -0.000151 0.000000 -0.001607 0.000000
# 3 -0.002636 -0.000151 0.008678 0.000000 -0.001798 0.000000
# 4 0.000000 0.000000 0.000000 0.022382 0.000000 -0.004514
# 5 0.002514 -0.001607 -0.001798 0.000000 0.023513 0.000000
# 6 0.000000 0.000000 0.000000 -0.004514 0.000000 0.022496
#
#
# Mechanical properties :
#
#
# Convention : Reuss Voigt Hill
#
# Bulk Modulus (GPa) = 63.43821 65.87756 64.65789
# Shear Modulus (GPa) = 45.86158 49.75546 47.80852
#
# Velocity S-wave (km/s) = 4.00424 4.17076 4.08835
# Velocity P-wave (km/s) = 6.59981 6.79893 6.70011
#
# Compressibility (1/GPa) = 0.01576337
#
# Stress axis : x y z
#
# Youngs Moduli (GPa) = 90.87823 169.81301 115.23122
#
# Poissons Ratio (x) = 0.35953 0.30375
# Poissons Ratio (y) = 0.19241 0.01735
# Poissons Ratio (z) = 0.23955 0.02556
#
# Static dielectric constant tensor:
#      x y z
#    x 2.239030 0.000000 0.014030 
#    y 0.000000 2.168190 0.000000 
#    z 0.014030 0.000000 2.370910 
# 
# From -- ./inp_files/22750.got.cif
#   From: 2010.05.17/outbox.cif.g08.bks.cpg/sg9_12_cif.got.tgz:22750.got - 2010.06.03 20:04:27.
