data_PCOD9135418
_publ_section_title
;
Structure prediction by ZEFSAII (Michael W. Deem and Ramdas Pophale) SiO2 
 PCOD9135418
Probable space group: C C
;
_chemical_formula_sum "Si O2"
_cell_formula_units_Z 28
_cell_length_a 15.912448
_cell_length_b 17.265521
_cell_length_c 9.754036
_cell_angle_alpha 90.000000
_cell_angle_beta 29.514370
_cell_angle_gamma 90.000000
_cell_volume 1320.177501
_symmetry_space_group_name_H-M "C C"
_symmetry_group_IT_number 9
_symmetry_cell_setting 'monoclinic'
loop_
_space_group_symop_operation_xyz
x,y,z
x,-y,1/2+z
1/2+x,1/2+y,z
1/2+x,1/2-y,1/2+z
loop_
_atom_site_type_symbol
_atom_site_label
_atom_site_fract_x
_atom_site_fract_y
_atom_site_fract_z
Si Si1 0.547770 0.574165 0.037570
Si Si2 0.567312 0.870527 0.472796
Si Si3 0.333216 0.727150 0.295903
Si Si4 0.913916 0.349899 0.966003
Si Si5 0.981100 0.327047 0.288248
Si Si6 0.570382 0.956805 0.953620
Si Si7 0.406630 0.460213 0.022613
O O1 0.406902 0.641652 0.212677
O O2 0.499880 0.495635 0.022841
O O3 0.536976 0.556052 0.214720
O O4 0.726037 0.612156 0.739800
O O5 0.517092 0.836473 0.397086
O O6 0.492889 0.957911 0.572134
O O7 0.769120 0.888330 0.219502
O O8 0.477822 0.828740 0.725461
O O9 0.429676 0.777982 0.046613
O O10 0.144078 0.721389 0.506006
O O11 0.328354 0.776701 0.444100
O O12 0.031872 0.416104 0.865348
O O13 0.996450 0.407126 0.184074
O O14 0.772564 0.971306 0.675131
#
# Coordination Sequence:
#
# PCOD9135418 Si02
#       7
#     4   4   4   4   4   4   4
#     4  12  23  41  58  96 115 154 196 256 291 345
#     4  10  20  40  61  90 111 161 200 244 281 366
#     4  11  21  42  59  84 120 165 188 244 290 369
#     4  11  24  36  62  89 124 153 198 242 302 341
#     4  11  20  39  65  83 120 156 207 229 305 346
#     4   9  19  38  65  85 113 164 191 242 291 362
#     4  10  21  38  68  81 123 151 202 241 296 351
#
# _framework density 21.209267000000001
#
# number of rings (size 3 to 8) (size 9 to 14) (size 15 to 20)
#    0.857    0.571    4.286    1.714    2.000    0.000 
#    2.571    1.429    0.000    0.000    0.000    0.000 
#    0.000    0.000    0.000    0.000    0.000    0.000 
#
# Total GULP energy -78011.180099 kJ/mol
# GULP energy per Si atom -5572.227150 kJ/mol
# Density = 2.116099 g / cm^3
# Si number density = 21.209267 Si / 1000 Ang^3
#
#
#
# Elastic Constant Matrix: (Units=GPa)
#
#
# Indices 1 2 3 4 5 6 
#
# 1 66.7593 18.3315 31.1879 -0.0018 24.4584 0.0015
# 2 18.3315 57.2888 3.4557 -0.0002 17.3896 0.0010
# 3 31.1879 3.4557 72.9535 0.0002 24.9300 0.0014
# 4 -0.0018 -0.0002 0.0002 -1.0759 0.0007 -0.1670
# 5 24.4584 17.3896 24.9300 0.0007 39.0098 -0.0012
# 6 0.0015 0.0010 0.0014 -0.1670 -0.0012 34.1456
#
#
#
# Elastic Compliance Matrix: (Units=1/GPa)
#
#
# Indices 1 2 3 4 5 6 
#
# 1 0.022069 -0.004330 -0.006603 -0.000042 -0.007687 -0.000001
# 2 -0.004330 0.021464 0.004064 -0.000003 -0.009451 -0.000001
# 3 -0.006603 0.004064 0.019884 0.000007 -0.010379 -0.000001
# 4 -0.000042 -0.000003 0.000007 -0.928779 0.000039 -0.004544
# 5 -0.007687 -0.009451 -0.010379 0.000039 0.041300 0.000003
# 6 -0.000001 -0.000001 -0.000001 -0.004544 0.000003 0.029264
#
#
# Mechanical properties :
#
#
# Convention : Reuss Voigt Hill
#
# Bulk Modulus (GPa) = 20.12876 33.66131 26.89503
# Shear Modulus (GPa) = -6.54023 24.01768 8.73872
#
# Velocity S-wave (km/s) = -1.75794 3.36879 2.03204
# Velocity P-wave (km/s) = 2.32178 5.57110 4.26777
#
# Compressibility (1/GPa) = 0.04968017
#
# Stress axis : x y z
#
# Youngs Moduli (GPa) = 45.31244 46.58861 50.29072
#
# Poissons Ratio (x) = 0.20173 0.33205
# Poissons Ratio (y) = 0.19621 -0.20437
# Poissons Ratio (z) = 0.29918 -0.18933
#
# Static dielectric constant tensor:
#      x y z
#    x 1.788410 0.000000 -0.001820 
#    y 0.000000 1.770950 0.000000 
#    z -0.001820 0.000000 1.793450 
# 
# From -- ./inp_files/9923.got.cif
#   From: 2010.05.17/outbox.cif.g08.bks.cpg/sg9_5_cif.got.tgz:9923.got - 2010.06.03 20:04:27.
