data_PCOD9135513
_publ_section_title
;
Structure prediction by ZEFSAII (Michael W. Deem and Ramdas Pophale) SiO2 
 PCOD9135513
Probable space group: C C
;
_chemical_formula_sum "Si O2"
_cell_formula_units_Z 32
_cell_length_a 19.046374
_cell_length_b 6.747984
_cell_length_c 18.915194
_cell_angle_alpha 90.000000
_cell_angle_beta 151.099567
_cell_angle_gamma 90.000000
_cell_volume 1174.908544
_symmetry_space_group_name_H-M "C C"
_symmetry_group_IT_number 9
_symmetry_cell_setting 'monoclinic'
loop_
_space_group_symop_operation_xyz
x,y,z
x,-y,1/2+z
1/2+x,1/2+y,z
1/2+x,1/2-y,1/2+z
loop_
_atom_site_type_symbol
_atom_site_label
_atom_site_fract_x
_atom_site_fract_y
_atom_site_fract_z
Si Si1 0.141890 0.096575 0.689520
Si Si2 0.815284 0.862227 0.581197
Si Si3 0.749893 0.354753 0.656401
Si Si4 0.240105 0.286092 0.353839
Si Si5 0.498008 0.175089 0.857364
Si Si6 0.013182 0.616698 0.174498
Si Si7 0.232921 0.220455 0.987692
Si Si8 0.337709 0.469881 0.816419
O O1 0.009687 0.209767 0.611945
O O2 0.235321 0.291422 0.753199
O O3 0.151117 0.965839 0.626744
O O4 0.207974 0.937825 0.802541
O O5 0.787889 0.812140 0.476031
O O6 0.669503 0.838358 0.499676
O O7 0.851145 0.420741 0.557451
O O8 0.837135 0.096352 0.600432
O O9 0.904434 0.474788 0.789870
O O10 0.681295 0.359177 0.517573
O O11 0.772725 0.131540 0.704408
O O12 0.092782 0.418912 0.216937
O O13 0.353609 0.388357 0.399502
O O14 0.452236 0.335728 0.874841
O O15 0.443032 0.251633 0.732993
O O16 0.115529 0.697650 0.329096
#
# Coordination Sequence:
#
# PCOD9135513 Si02
#       8
#     4   4   4   4   4   4   4   4
#     4   9  20  39  70  98 143 189 234 290 366 430
#     4  11  25  44  72 106 144 184 249 301 361 435
#     4  10  20  40  70 100 139 188 241 291 363 430
#     4   9  20  41  67 102 141 183 243 294 358 438
#     4  11  24  44  72 104 142 187 241 305 360 435
#     4  10  23  43  70 101 143 184 236 299 360 428
#     4  11  23  44  74 103 142 183 242 301 357 430
#     4   9  19  43  69  98 146 188 236 295 365 438
#
# _framework density 27.236162
#
# number of rings (size 3 to 8) (size 9 to 14) (size 15 to 20)
#    0.000    2.000    1.250    1.500    3.500    0.000 
#    2.250   15.000   22.000    0.000    0.000    0.000 
#    0.000    0.000    0.000    0.000    0.000    0.000 
#
# Total GULP energy -89622.622372 kJ/mol
# GULP energy per Si atom -5601.413898 kJ/mol
# Density = 2.717417 g / cm^3
# Si number density = 27.236162 Si / 1000 Ang^3
#
#
#
# Elastic Constant Matrix: (Units=GPa)
#
#
# Indices 1 2 3 4 5 6 
#
# 1 136.3096 36.4520 36.8430 0.0000 -33.5309 0.0000
# 2 36.4520 173.8607 36.0074 0.0000 -8.3446 0.0000
# 3 36.8430 36.0074 82.5386 0.0000 -5.9677 0.0000
# 4 0.0000 0.0000 0.0000 44.0186 0.0000 -17.2013
# 5 -33.5309 -8.3446 -5.9677 0.0000 27.3168 0.0000
# 6 0.0000 0.0000 0.0000 -17.2013 0.0000 35.9256
#
#
#
# Elastic Compliance Matrix: (Units=1/GPa)
#
#
# Indices 1 2 3 4 5 6 
#
# 1 0.012017 -0.001056 -0.003922 0.000000 0.013572 0.000000
# 2 -0.001056 0.006465 -0.002337 0.000000 0.000168 0.000000
# 3 -0.003922 -0.002337 0.014719 0.000000 -0.002313 0.000000
# 4 0.000000 0.000000 0.000000 0.027947 0.000000 0.013381
# 5 0.013572 0.000168 -0.002313 0.000000 0.052812 0.000000
# 6 0.000000 0.000000 0.000000 0.013381 0.000000 0.034242
#
#
# Mechanical properties :
#
#
# Convention : Reuss Voigt Hill
#
# Bulk Modulus (GPa) = 53.84795 67.92373 60.88584
# Shear Modulus (GPa) = 29.58184 40.34596 34.96390
#
# Velocity S-wave (km/s) = 3.29921 3.85299 3.58681
# Velocity P-wave (km/s) = 5.85890 6.69231 6.28943
#
# Compressibility (1/GPa) = 0.01857081
#
# Stress axis : x y z
#
# Youngs Moduli (GPa) = 83.21396 154.67481 67.94118
#
# Poissons Ratio (x) = 0.16331 0.26649
# Poissons Ratio (y) = 0.08786 0.15878
# Poissons Ratio (z) = 0.32639 0.36147
#
# Static dielectric constant tensor:
#      x y z
#    x 2.136110 0.000000 -0.014130 
#    y 0.000000 2.173260 0.000000 
#    z -0.014130 0.000000 2.196750 
# 
# From -- ./inp_files/31093.got.cif
#   From: 2010.05.17/outbox.cif.g08.bks.cpg/sg9_16_cif.got.tgz:31093.got - 2010.06.03 20:04:27.
