data_PCOD9135218
_publ_section_title
;
Structure prediction by ZEFSAII (Michael W. Deem and Ramdas Pophale) SiO2 
 PCOD9135218
Probable space group: C C
;
_chemical_formula_sum "Si O2"
_cell_formula_units_Z 28
_cell_length_a 9.247417
_cell_length_b 11.139878
_cell_length_c 11.028069
_cell_angle_alpha 90.000000
_cell_angle_beta 81.228907
_cell_angle_gamma 90.000000
_cell_volume 1122.771907
_symmetry_space_group_name_H-M "C C"
_symmetry_group_IT_number 9
_symmetry_cell_setting 'monoclinic'
loop_
_space_group_symop_operation_xyz
x,y,z
x,-y,1/2+z
1/2+x,1/2+y,z
1/2+x,1/2-y,1/2+z
loop_
_atom_site_type_symbol
_atom_site_label
_atom_site_fract_x
_atom_site_fract_y
_atom_site_fract_z
Si Si1 0.656320 0.657836 0.573700
Si Si2 0.069709 0.617891 0.403657
Si Si3 0.896539 0.807149 0.302406
Si Si4 0.461677 0.526856 0.020457
Si Si5 0.493399 0.840381 0.435722
Si Si6 0.753099 0.198578 0.588678
Si Si7 0.354152 0.714469 0.222663
O O1 0.527612 0.664247 0.691228
O O2 0.621084 0.535150 0.507579
O O3 0.621797 0.767111 0.487356
O O4 0.797779 0.686746 0.633391
O O5 0.038838 0.478054 0.421990
O O6 0.109748 0.682984 0.526059
O O7 0.210223 0.651253 0.301456
O O8 0.931144 0.678638 0.356258
O O9 0.922243 0.900427 0.405991
O O10 0.755495 0.809889 0.233620
O O11 0.347097 0.417422 0.035290
O O12 0.436931 0.609690 0.140533
O O13 0.348924 0.814054 0.537997
O O14 0.943597 0.278577 0.317001
#
# Coordination Sequence:
#
# PCOD9135218 Si02
#       7
#     4   4   4   4   4   4   4
#     4   9  21  38  63  91 125 157 208 262 307 366
#     4  10  20  40  65  90 125 162 206 261 311 373
#     4   9  20  39  57  90 123 159 206 254 310 372
#     4  10  20  38  63  88 124 161 207 253 309 378
#     4   9  19  38  63  94 117 162 210 256 306 374
#     4   9  21  37  66  86 125 160 205 261 309 362
#     4  10  21  40  63  93 125 165 202 259 320 361
#
# _framework density 24.938278
#
# number of rings (size 3 to 8) (size 9 to 14) (size 15 to 20)
#    0.000    2.857    0.000    0.857   12.000    0.000 
#   12.857    2.857    0.000    0.000    0.000    0.000 
#    0.000    0.000    0.000    0.000    0.000    0.000 
#
# Total GULP energy -78359.089406 kJ/mol
# GULP energy per Si atom -5597.077815 kJ/mol
# Density = 2.488152 g / cm^3
# Si number density = 24.938278 Si / 1000 Ang^3
#
#
#
# Elastic Constant Matrix: (Units=GPa)
#
#
# Indices 1 2 3 4 5 6 
#
# 1 116.2046 68.4040 49.0100 0.0000 23.7867 0.0000
# 2 68.4040 130.8327 63.0611 0.0000 7.5325 0.0000
# 3 49.0100 63.0611 137.2539 0.0000 38.3445 0.0000
# 4 0.0000 0.0000 0.0000 20.5066 0.0000 1.0660
# 5 23.7867 7.5325 38.3445 0.0000 47.7850 0.0000
# 6 0.0000 0.0000 0.0000 1.0660 0.0000 41.7007
#
#
#
# Elastic Compliance Matrix: (Units=1/GPa)
#
#
# Indices 1 2 3 4 5 6 
#
# 1 0.013871 -0.006806 -0.000254 0.000000 -0.005628 0.000000
# 2 -0.006806 0.013429 -0.005278 0.000000 0.005506 0.000000
# 3 -0.000254 -0.005278 0.012288 0.000000 -0.008902 0.000000
# 4 0.000000 0.000000 0.000000 0.048830 0.000000 -0.001248
# 5 -0.005628 0.005506 -0.008902 0.000000 0.030004 0.000000
# 6 0.000000 0.000000 0.000000 -0.001248 0.000000 0.024012
#
#
# Mechanical properties :
#
#
# Convention : Reuss Voigt Hill
#
# Bulk Modulus (GPa) = 67.05491 82.80461 74.92976
# Shear Modulus (GPa) = 29.05628 35.58619 32.32123
#
# Velocity S-wave (km/s) = 3.41710 3.78162 3.60397
# Velocity P-wave (km/s) = 6.52039 7.23488 6.88691
#
# Compressibility (1/GPa) = 0.01491315
#
# Stress axis : x y z
#
# Youngs Moduli (GPa) = 72.09340 74.46797 81.37874
#
# Poissons Ratio (x) = 0.50682 0.02064
# Poissons Ratio (y) = 0.49066 0.42950
# Poissons Ratio (z) = 0.01828 0.39302
#
# Static dielectric constant tensor:
#      x y z
#    x 2.080740 0.000000 -0.074550 
#    y 0.000000 1.935660 0.000000 
#    z -0.074550 0.000000 2.037410 
# 
# From -- ./inp_files/24157.got.cif
#   From: 2010.05.17/outbox.cif.g08.bks.cpg/sg9_13_cif.got.tgz:24157.got - 2010.06.03 20:04:27.
