data_PCOD9135770
_publ_section_title
;
Structure prediction by ZEFSAII (Michael W. Deem and Ramdas Pophale) SiO2 
 PCOD9135770
Probable space group: C C
;
_chemical_formula_sum "Si O2"
_cell_formula_units_Z 32
_cell_length_a 8.005869
_cell_length_b 17.623559
_cell_length_c 10.851995
_cell_angle_alpha 90.000000
_cell_angle_beta 59.619997
_cell_angle_gamma 90.000000
_cell_volume 1320.889721
_symmetry_space_group_name_H-M "C C"
_symmetry_group_IT_number 9
_symmetry_cell_setting 'monoclinic'
loop_
_space_group_symop_operation_xyz
x,y,z
x,-y,1/2+z
1/2+x,1/2+y,z
1/2+x,1/2-y,1/2+z
loop_
_atom_site_type_symbol
_atom_site_label
_atom_site_fract_x
_atom_site_fract_y
_atom_site_fract_z
Si Si1 0.466160 0.911751 0.888560
Si Si2 0.287263 0.351504 0.642024
Si Si3 0.087429 0.156562 0.442558
Si Si4 0.980531 0.049888 0.288341
Si Si5 0.789806 0.727583 0.127928
Si Si6 0.432530 0.191792 0.621387
Si Si7 0.093069 0.907190 0.355619
Si Si8 0.333115 0.065531 0.003798
O O1 0.577795 0.890649 0.720443
O O2 0.241248 0.892211 0.958948
O O3 0.490044 0.998954 0.923452
O O4 0.525269 0.848300 0.967032
O O5 0.382802 0.403400 0.715127
O O6 0.286946 0.263138 0.668827
O O7 0.431827 0.352571 0.473179
O O8 0.947796 0.098154 0.423400
O O9 0.203242 0.199992 0.290100
O O10 0.967955 0.215029 0.568383
O O11 0.959098 0.961914 0.322861
O O12 0.210131 0.047918 0.171715
O O13 0.611487 0.772454 0.130298
O O14 0.860079 0.656238 0.014969
O O15 0.285972 0.128514 0.727218
O O16 0.189259 0.945463 0.441012
#
# Coordination Sequence:
#
# PCOD9135770 Si02
#       8
#     4   4   4   4   4   4   4   4
#     4  12  26  43  67 105 141 176 226 297 355 397
#     4  11  25  44  67 103 139 181 232 285 344 422
#     4  11  24  45  67  98 142 174 229 289 346 405
#     4  10  20  44  68  93 137 182 220 282 339 415
#     4  11  24  47  73  99 132 191 232 279 351 427
#     4  12  23  42  77 100 131 185 235 281 351 419
#     4  11  21  42  72  98 136 180 228 285 337 410
#     4  10  21  43  67  96 136 175 226 282 343 405
#
# _framework density 24.226098
#
# number of rings (size 3 to 8) (size 9 to 14) (size 15 to 20)
#    0.000    1.000    6.250    2.250    1.750    0.000 
#   11.250    0.000    0.000    0.000    0.000    0.000 
#    0.000    0.000    0.000    0.000    0.000    0.000 
#
# Total GULP energy -89180.782368 kJ/mol
# GULP energy per Si atom -5573.798898 kJ/mol
# Density = 2.417096 g / cm^3
# Si number density = 24.226098 Si / 1000 Ang^3
#
#
#
# Elastic Constant Matrix: (Units=GPa)
#
#
# Indices 1 2 3 4 5 6 
#
# 1 55.8766 26.2390 -3.8494 0.0000 -3.6278 0.0000
# 2 26.2390 115.1943 22.2320 0.0000 -12.0536 0.0000
# 3 -3.8494 22.2320 59.3228 0.0000 -13.4316 0.0000
# 4 0.0000 0.0000 0.0000 11.5005 0.0000 -5.3732
# 5 -3.6278 -12.0536 -13.4316 0.0000 30.0737 0.0000
# 6 0.0000 0.0000 0.0000 -5.3732 0.0000 34.1024
#
#
#
# Elastic Compliance Matrix: (Units=1/GPa)
#
#
# Indices 1 2 3 4 5 6 
#
# 1 0.020753 -0.005238 0.003784 0.000000 0.002094 0.000000
# 2 -0.005238 0.010842 -0.003963 0.000000 0.001944 0.000000
# 3 0.003784 -0.003963 0.020394 0.000000 0.007976 0.000000
# 4 0.000000 0.000000 0.000000 0.093862 0.000000 0.014789
# 5 0.002094 0.001944 0.007976 0.000000 0.037846 0.000000
# 6 0.000000 0.000000 0.000000 0.014789 0.000000 0.031654
#
#
# Mechanical properties :
#
#
# Convention : Reuss Voigt Hill
#
# Bulk Modulus (GPa) = 24.29902 35.51520 29.90711
# Shear Modulus (GPa) = 20.84170 27.52013 24.18092
#
# Velocity S-wave (km/s) = 2.93627 3.37407 3.16275
# Velocity P-wave (km/s) = 4.64192 5.46543 5.07042
#
# Compressibility (1/GPa) = 0.04115393
#
# Stress axis : x y z
#
# Youngs Moduli (GPa) = 48.18569 92.23025 49.03486
#
# Poissons Ratio (x) = 0.48313 -0.18554
# Poissons Ratio (y) = 0.25241 0.19433
# Poissons Ratio (z) = -0.18233 0.36552
#
# Static dielectric constant tensor:
#      x y z
#    x 2.029170 0.000000 0.002180 
#    y 0.000000 1.995020 0.000000 
#    z 0.002180 0.000000 1.965020 
# 
# From -- ./inp_files/14816.got.cif
#   From: 2010.05.17/outbox.cif.g08.bks.cpg/sg9_8_cif.got.tgz:14816.got - 2010.06.03 20:04:27.
