data_PCOD9135249
_publ_section_title
;
Structure prediction by ZEFSAII (Michael W. Deem and Ramdas Pophale) SiO2 
 PCOD9135249
Probable space group: C C
;
_chemical_formula_sum "Si O2"
_cell_formula_units_Z 32
_cell_length_a 24.669356
_cell_length_b 9.591222
_cell_length_c 9.901160
_cell_angle_alpha 90.000000
_cell_angle_beta 142.420115
_cell_angle_gamma 90.000000
_cell_volume 1428.739167
_symmetry_space_group_name_H-M "C C"
_symmetry_group_IT_number 9
_symmetry_cell_setting 'monoclinic'
loop_
_space_group_symop_operation_xyz
x,y,z
x,-y,1/2+z
1/2+x,1/2+y,z
1/2+x,1/2-y,1/2+z
loop_
_atom_site_type_symbol
_atom_site_label
_atom_site_fract_x
_atom_site_fract_y
_atom_site_fract_z
Si Si1 0.694140 0.321638 0.722860
Si Si2 0.869277 0.923851 0.054630
Si Si3 0.905793 0.316967 0.832152
Si Si4 0.739204 0.498748 0.057907
Si Si5 0.161224 0.495460 0.664919
Si Si6 0.900647 0.235333 0.126341
Si Si7 0.553991 0.997589 0.703102
Si Si8 0.404773 0.193288 0.925698
O O1 0.687805 0.415829 0.573881
O O2 0.652240 0.166351 0.639721
O O3 0.680723 0.417986 0.829901
O O4 0.797652 0.279078 0.935719
O O5 0.764493 0.955316 0.855409
O O6 0.892397 0.844767 0.962371
O O7 0.899821 0.819402 0.231571
O O8 0.915482 0.071466 0.158025
O O9 0.810982 0.395694 0.630298
O O10 0.923048 0.286824 0.023435
O O11 0.990476 0.413761 0.977856
O O12 0.810832 0.386640 0.259633
O O13 0.127060 0.441136 0.742145
O O14 0.109148 0.433115 0.433693
O O15 0.937082 0.298287 0.334973
O O16 0.484875 0.895942 0.643346
#
# Coordination Sequence:
#
# PCOD9135249 Si02
#       8
#     4   4   4   4   4   4   4   4
#     4   9  19  35  57  90 127 158 210 265 310 376
#     4  11  22  35  65  98 126 163 227 272 314 380
#     4  10  20  38  65  90 123 174 221 257 313 403
#     4   9  18  34  60  90 117 160 218 263 302 368
#     4  11  26  39  65  97 136 169 216 279 335 380
#     4   9  19  33  61  93 121 152 221 268 307 362
#     4  11  24  44  66  92 135 174 214 269 342 388
#     4  10  20  38  65  90 123 174 221 257 313 403
#
# _framework density 22.397369999999999
#
# number of rings (size 3 to 8) (size 9 to 14) (size 15 to 20)
#    0.000    2.000    0.000    3.000   10.500    4.000 
#    0.000    0.000   11.000    0.000    0.000    0.000 
#    0.000    0.000    0.000    0.000    0.000    0.000 
#
# Total GULP energy -89213.527576 kJ/mol
# GULP energy per Si atom -5575.845473 kJ/mol
# Density = 2.234639 g / cm^3
# Si number density = 22.397370 Si / 1000 Ang^3
#
#
#
# Elastic Constant Matrix: (Units=GPa)
#
#
# Indices 1 2 3 4 5 6 
#
# 1 42.6020 13.1978 17.6485 0.0000 -10.4737 0.0000
# 2 13.1978 112.4228 19.1041 0.0000 -9.4313 0.0000
# 3 17.6485 19.1041 55.5064 0.0000 -12.3578 0.0000
# 4 0.0000 0.0000 0.0000 25.8057 0.0000 -14.5674
# 5 -10.4737 -9.4313 -12.3578 0.0000 27.6190 0.0000
# 6 0.0000 0.0000 0.0000 -14.5674 0.0000 29.4737
#
#
#
# Elastic Compliance Matrix: (Units=1/GPa)
#
#
# Indices 1 2 3 4 5 6 
#
# 1 0.028611 -0.001573 -0.006952 0.000000 0.007202 0.000000
# 2 -0.001573 0.009631 -0.002460 0.000000 0.001591 0.000000
# 3 -0.006952 -0.002460 0.022545 0.000000 0.006611 0.000000
# 4 0.000000 0.000000 0.000000 0.053747 0.000000 0.026565
# 5 0.007202 0.001591 0.006611 0.000000 0.042440 0.000000
# 6 0.000000 0.000000 0.000000 0.026565 0.000000 0.047058
#
#
# Mechanical properties :
#
#
# Convention : Reuss Voigt Hill
#
# Bulk Modulus (GPa) = 25.76255 34.49244 30.12750
# Shear Modulus (GPa) = 20.92557 27.28507 24.10532
#
# Velocity S-wave (km/s) = 3.05993 3.49410 3.28419
# Velocity P-wave (km/s) = 4.90017 5.63134 5.27843
#
# Compressibility (1/GPa) = 0.03881603
#
# Stress axis : x y z
#
# Youngs Moduli (GPa) = 34.95152 103.82844 44.35567
#
# Poissons Ratio (x) = 0.16334 0.30837
# Poissons Ratio (y) = 0.05499 0.10913
# Poissons Ratio (z) = 0.24299 0.25545
#
# Static dielectric constant tensor:
#      x y z
#    x 1.897020 0.000000 -0.064170 
#    y 0.000000 1.855440 0.000000 
#    z -0.064170 0.000000 1.831950 
# 
# From -- ./inp_files/12436.got.cif
#   From: 2010.05.17/outbox.cif.g08.bks.cpg/sg9_7_cif.got.tgz:12436.got - 2010.06.03 20:04:27.
