data_PCOD9135971
_publ_section_title
;
Structure prediction by ZEFSAII (Michael W. Deem and Ramdas Pophale) SiO2 
 PCOD9135971
Probable space group: C C
;
_chemical_formula_sum "Si O2"
_cell_formula_units_Z 32
_cell_length_a 7.886174
_cell_length_b 31.449049
_cell_length_c 5.242449
_cell_angle_alpha 90.000000
_cell_angle_beta 83.578412
_cell_angle_gamma 90.000000
_cell_volume 1292.036175
_symmetry_space_group_name_H-M "C C"
_symmetry_group_IT_number 9
_symmetry_cell_setting 'monoclinic'
loop_
_space_group_symop_operation_xyz
x,y,z
x,-y,1/2+z
1/2+x,1/2+y,z
1/2+x,1/2-y,1/2+z
loop_
_atom_site_type_symbol
_atom_site_label
_atom_site_fract_x
_atom_site_fract_y
_atom_site_fract_z
Si Si1 0.736220 0.856801 0.005040
Si Si2 0.000803 0.478837 0.451231
Si Si3 0.087902 0.973968 0.512189
Si Si4 0.058566 0.886637 0.245018
Si Si5 0.796066 0.646463 0.362894
Si Si6 0.508029 0.787375 0.143956
Si Si7 0.661290 0.299608 0.501951
Si Si8 0.584364 0.889101 0.520174
O O1 0.610678 0.881579 0.218648
O O2 0.909800 0.878454 0.067845
O O3 0.698105 0.809014 0.125459
O O4 0.702907 0.864849 0.709259
O O5 0.044617 0.515167 0.648269
O O6 0.093593 0.438652 0.557815
O O7 0.795249 0.472979 0.490824
O O8 0.032438 0.926217 0.436953
O O9 0.033844 0.993664 0.793244
O O10 0.093222 0.839996 0.357670
O O11 0.226996 0.891691 0.043875
O O12 0.928363 0.677969 0.470251
O O13 0.660251 0.680529 0.284640
O O14 0.893539 0.626227 0.110808
O O15 0.541361 0.741278 0.022954
O O16 0.357456 0.787128 0.384765
#
# Coordination Sequence:
#
# PCOD9135971 Si02
#       8
#     4   4   4   4   4   4   4   4
#     4  11  26  45  68  99 143 189 231 286 355 424
#     4  10  21  37  67 104 129 173 230 292 348 419
#     4  10  24  42  70 105 141 179 238 303 352 426
#     4  11  27  44  69 105 135 196 237 293 366 423
#     4  10  24  42  68  96 135 184 240 292 341 424
#     4  10  25  42  64 103 137 189 235 295 350 413
#     4  11  24  43  70  97 143 185 241 294 348 430
#     4  11  23  45  68  95 141 179 230 287 350 419
#
# _framework density 24.767108
#
# number of rings (size 3 to 8) (size 9 to 14) (size 15 to 20)
#    0.000    1.500    1.250    1.500   15.750    2.000 
#    0.000    3.750    0.000    0.000    0.000    0.000 
#    0.000    0.000    0.000    0.000    0.000    0.000 
#
# Total GULP energy -89188.317984 kJ/mol
# GULP energy per Si atom -5574.269874 kJ/mol
# Density = 2.471074 g / cm^3
# Si number density = 24.767108 Si / 1000 Ang^3
#
#
#
# Elastic Constant Matrix: (Units=GPa)
#
#
# Indices 1 2 3 4 5 6 
#
# 1 41.8854 34.1823 29.6943 0.0000 9.3275 0.0000
# 2 34.1823 115.3837 27.9461 0.0000 -5.0481 0.0000
# 3 29.6943 27.9461 91.5459 0.0000 7.1248 0.0000
# 4 0.0000 0.0000 0.0000 25.1730 0.0000 -0.1382
# 5 9.3275 -5.0481 7.1248 0.0000 29.1295 0.0000
# 6 0.0000 0.0000 0.0000 -0.1382 0.0000 16.5127
#
#
#
# Elastic Compliance Matrix: (Units=1/GPa)
#
#
# Indices 1 2 3 4 5 6 
#
# 1 0.042291 -0.010828 -0.009391 0.000000 -0.013122 0.000000
# 2 -0.010828 0.012294 -0.000689 0.000000 0.005766 0.000000
# 3 -0.009391 -0.000689 0.014226 0.000000 -0.000592 0.000000
# 4 0.000000 0.000000 0.000000 0.039727 0.000000 0.000333
# 5 -0.013122 0.005766 -0.000592 0.000000 0.039675 0.000000
# 6 0.000000 0.000000 0.000000 0.000333 0.000000 0.060562
#
#
# Mechanical properties :
#
#
# Convention : Reuss Voigt Hill
#
# Bulk Modulus (GPa) = 37.04555 48.05117 42.54836
# Shear Modulus (GPa) = 19.26105 24.62919 21.94512
#
# Velocity S-wave (km/s) = 2.79173 3.15688 2.97990
# Velocity P-wave (km/s) = 5.03803 5.72112 5.39040
#
# Compressibility (1/GPa) = 0.02699380
#
# Stress axis : x y z
#
# Youngs Moduli (GPa) = 23.64548 81.34136 70.29316
#
# Poissons Ratio (x) = 0.88079 0.66013
# Poissons Ratio (y) = 0.25604 0.04846
# Poissons Ratio (z) = 0.22206 0.05608
#
# Static dielectric constant tensor:
#      x y z
#    x 2.296300 0.000000 0.014900 
#    y 0.000000 1.993700 0.000000 
#    z 0.014900 0.000000 2.014050 
# 
# From -- ./inp_files/1408.got.cif
#   From: 2010.05.17/outbox.cif.g08.bks.cpg/sg9_1_cif.got.tgz:1408.got - 2010.06.03 20:04:27.
