data_PCOD9135525
_publ_section_title
;
Structure prediction by ZEFSAII (Michael W. Deem and Ramdas Pophale) SiO2 
 PCOD9135525
Probable space group: C C
;
_chemical_formula_sum "Si O2"
_cell_formula_units_Z 28
_cell_length_a 12.018840
_cell_length_b 9.302358
_cell_length_c 14.769121
_cell_angle_alpha 90.000000
_cell_angle_beta 113.761757
_cell_angle_gamma 90.000000
_cell_volume 1511.262609
_symmetry_space_group_name_H-M "C C"
_symmetry_group_IT_number 9
_symmetry_cell_setting 'monoclinic'
loop_
_space_group_symop_operation_xyz
x,y,z
x,-y,1/2+z
1/2+x,1/2+y,z
1/2+x,1/2-y,1/2+z
loop_
_atom_site_type_symbol
_atom_site_label
_atom_site_fract_x
_atom_site_fract_y
_atom_site_fract_z
Si Si1 0.734580 0.359504 0.751970
Si Si2 0.743046 0.920707 0.147415
Si Si3 0.810097 0.190145 0.950533
Si Si4 0.084259 0.545378 0.941141
Si Si5 0.446060 0.650412 0.172020
Si Si6 0.344561 0.159612 0.803796
Si Si7 0.211670 0.571114 0.324952
O O1 0.800508 0.299869 0.864717
O O2 0.590285 0.363994 0.722795
O O3 0.778725 0.518521 0.746217
O O4 0.760270 0.243744 0.681627
O O5 0.866797 0.003929 0.159316
O O6 0.694591 0.999309 0.222035
O O7 0.643042 0.948947 0.037997
O O8 0.678812 0.177642 0.957389
O O9 0.814684 0.029565 0.907217
O O10 0.907935 0.210482 0.060669
O O11 0.096809 0.454873 0.851876
O O12 0.951075 0.606797 0.905418
O O13 0.403178 0.753462 0.239383
O O14 0.254613 0.267962 0.825412
#
# Coordination Sequence:
#
# PCOD9135525 Si02
#       7
#     4   4   4   4   4   4   4
#     4  11  22  37  57  92 112 149 199 240 284 348
#     4   9  19  38  61  79 117 163 185 229 308 336
#     4   8  18  40  58  75 123 155 177 240 295 323
#     4   9  18  38  59  81 116 156 189 232 287 346
#     4  10  20  41  57  83 123 151 188 245 281 346
#     4  11  21  36  61  87 113 148 198 240 286 339
#     4   8  18  38  57  85 114 150 194 232 285 350
#
# _framework density 18.527555
#
# number of rings (size 3 to 8) (size 9 to 14) (size 15 to 20)
#    0.857    1.714    1.429    0.000    2.000    1.143 
#   10.286    0.000    0.000    0.000    0.000    0.000 
#    0.000    0.000    0.000    0.000    0.000    0.000 
#
# Total GULP energy -77946.812744 kJ/mol
# GULP energy per Si atom -5567.629482 kJ/mol
# Density = 1.848539 g / cm^3
# Si number density = 18.527555 Si / 1000 Ang^3
#
#
#
# Elastic Constant Matrix: (Units=GPa)
#
#
# Indices 1 2 3 4 5 6 
#
# 1 31.9279 23.9647 -1.3290 0.0000 3.3451 0.0000
# 2 23.9647 91.7321 -6.5136 0.0000 15.2347 0.0000
# 3 -1.3290 -6.5136 52.8743 0.0000 -1.2196 0.0000
# 4 0.0000 0.0000 0.0000 12.8842 0.0000 -0.1412
# 5 3.3451 15.2347 -1.2196 0.0000 16.8450 0.0000
# 6 0.0000 0.0000 0.0000 -0.1412 0.0000 16.9064
#
#
#
# Elastic Compliance Matrix: (Units=1/GPa)
#
#
# Indices 1 2 3 4 5 6 
#
# 1 0.039007 -0.010497 -0.000273 0.000000 0.001727 0.000000
# 2 -0.010497 0.015745 0.001398 0.000000 -0.012054 0.000000
# 3 -0.000273 0.001398 0.019082 0.000000 0.000172 0.000000
# 4 0.000000 0.000000 0.000000 0.077622 0.000000 0.000648
# 5 0.001727 -0.012054 0.000172 0.000000 0.069936 0.000000
# 6 0.000000 0.000000 0.000000 0.000648 0.000000 0.059155
#
#
# Mechanical properties :
#
#
# Convention : Reuss Voigt Hill
#
# Bulk Modulus (GPa) = 18.15210 23.19762 20.67486
# Shear Modulus (GPa) = 15.74048 20.02128 17.88088
#
# Velocity S-wave (km/s) = 2.91790 3.29085 3.10997
# Velocity P-wave (km/s) = 4.60118 5.19494 4.90705
#
# Compressibility (1/GPa) = 0.05509005
#
# Stress axis : x y z
#
# Youngs Moduli (GPa) = 25.63653 63.51356 52.40524
#
# Poissons Ratio (x) = 0.66668 0.01430
# Poissons Ratio (y) = 0.26910 -0.07325
# Poissons Ratio (z) = 0.00699 -0.08877
#
# Static dielectric constant tensor:
#      x y z
#    x 1.639150 0.000000 -0.010120 
#    y 0.000000 1.647350 0.000000 
#    z -0.010120 0.000000 1.647760 
# 
# From -- ./inp_files/24061.got.cif
#   From: 2010.05.17/outbox.cif.g08.bks.cpg/sg9_13_cif.got.tgz:24061.got - 2010.06.03 20:04:27.
