data_PCOD9135276
_publ_section_title
;
Structure prediction by ZEFSAII (Michael W. Deem and Ramdas Pophale) SiO2 
 PCOD9135276
Probable space group: C C
;
_chemical_formula_sum "Si O2"
_cell_formula_units_Z 32
_cell_length_a 23.419808
_cell_length_b 11.029602
_cell_length_c 12.591867
_cell_angle_alpha 90.000000
_cell_angle_beta 157.096080
_cell_angle_gamma 90.000000
_cell_volume 1265.877252
_symmetry_space_group_name_H-M "C C"
_symmetry_group_IT_number 9
_symmetry_cell_setting 'monoclinic'
loop_
_space_group_symop_operation_xyz
x,y,z
x,-y,1/2+z
1/2+x,1/2+y,z
1/2+x,1/2-y,1/2+z
loop_
_atom_site_type_symbol
_atom_site_label
_atom_site_fract_x
_atom_site_fract_y
_atom_site_fract_z
Si Si1 0.114260 0.213759 0.745260
Si Si2 0.387021 0.083862 0.837851
Si Si3 0.559450 0.876184 0.021232
Si Si4 0.401203 0.303757 0.116542
Si Si5 0.191693 0.901549 0.604107
Si Si6 0.130555 0.251192 0.345301
Si Si7 0.848077 0.928695 0.798903
Si Si8 0.351418 0.341071 0.436805
O O1 0.014798 0.330582 0.598699
O O2 0.995127 0.119001 0.491399
O O3 0.251723 0.266667 0.917874
O O4 0.170240 0.143130 0.945054
O O5 0.269658 0.164408 0.572647
O O6 0.293936 0.018172 0.770593
O O7 0.463084 0.988354 0.890883
O O8 0.545012 0.776762 0.090246
O O9 0.732842 0.905168 0.309764
O O10 0.499885 0.816016 0.811370
O O11 0.524903 0.405077 0.361514
O O12 0.356982 0.351783 0.924862
O O13 0.282058 0.792675 0.810656
O O14 0.197507 0.381224 0.491475
O O15 0.022044 0.188668 0.243817
O O16 0.849244 0.069086 0.831257
#
# Coordination Sequence:
#
# PCOD9135276 Si02
#       8
#     4   4   4   4   4   4   4   4
#     4  10  20  38  68  89 130 173 220 265 330 387
#     4  11  22  40  65  96 134 171 218 271 321 394
#     4  11  24  42  66 101 132 175 225 273 333 399
#     4  10  20  41  65  94 132 171 221 274 326 396
#     4  10  21  39  65  92 132 177 217 267 338 388
#     4  11  24  44  68  98 136 176 223 275 330 396
#     4  10  24  41  66 101 131 177 224 273 330 400
#     4  11  23  41  67  95 139 172 220 278 334 394
#
# _framework density 25.278914
#
# number of rings (size 3 to 8) (size 9 to 14) (size 15 to 20)
#    0.000    1.500    2.500    2.250    1.750    3.000 
#    2.250   10.000    8.250    0.000    0.000    0.000 
#    0.000    0.000    0.000    0.000    0.000    0.000 
#
# Total GULP energy -89292.196448 kJ/mol
# GULP energy per Si atom -5580.762278 kJ/mol
# Density = 2.522138 g / cm^3
# Si number density = 25.278914 Si / 1000 Ang^3
#
#
#
# Elastic Constant Matrix: (Units=GPa)
#
#
# Indices 1 2 3 4 5 6 
#
# 1 46.9792 14.5426 37.0054 0.0000 17.0284 0.0000
# 2 14.5426 88.9140 22.9313 0.0000 8.7959 0.0000
# 3 37.0054 22.9313 117.4396 0.0000 39.3198 0.0000
# 4 0.0000 0.0000 0.0000 35.8111 0.0000 12.4728
# 5 17.0284 8.7959 39.3198 0.0000 51.8300 0.0000
# 6 0.0000 0.0000 0.0000 12.4728 0.0000 28.2561
#
#
#
# Elastic Compliance Matrix: (Units=1/GPa)
#
#
# Indices 1 2 3 4 5 6 
#
# 1 0.029282 -0.002492 -0.007588 0.000000 -0.003441 0.000000
# 2 -0.002492 0.012060 -0.001553 0.000000 -0.000050 0.000000
# 3 -0.007588 -0.001553 0.013789 0.000000 -0.007704 0.000000
# 4 0.000000 0.000000 0.000000 0.032997 0.000000 -0.014566
# 5 -0.003441 -0.000050 -0.007704 0.000000 0.026277 0.000000
# 6 0.000000 0.000000 0.000000 -0.014566 0.000000 0.041820
#
#
# Mechanical properties :
#
#
# Convention : Reuss Voigt Hill
#
# Bulk Modulus (GPa) = 31.38308 44.69907 38.04108
# Shear Modulus (GPa) = 26.30027 35.10301 30.70164
#
# Velocity S-wave (km/s) = 3.22903 3.73047 3.48877
# Velocity P-wave (km/s) = 5.13262 6.02295 5.59553
#
# Compressibility (1/GPa) = 0.03186430
#
# Stress axis : x y z
#
# Youngs Moduli (GPa) = 34.15100 82.91997 72.52370
#
# Poissons Ratio (x) = 0.20662 0.55032
# Poissons Ratio (y) = 0.08510 0.11262
# Poissons Ratio (z) = 0.25914 0.12877
#
# Static dielectric constant tensor:
#      x y z
#    x 2.078270 0.000000 0.038060 
#    y 0.000000 2.010610 0.000000 
#    z 0.038060 0.000000 2.011170 
# 
# From -- ./inp_files/22808.got.cif
#   From: 2010.05.17/outbox.cif.g08.bks.cpg/sg9_12_cif.got.tgz:22808.got - 2010.06.03 20:04:27.
