data_PCOD9135870
_publ_section_title
;
Structure prediction by ZEFSAII (Michael W. Deem and Ramdas Pophale) SiO2 
 PCOD9135870
Probable space group: C C
;
_chemical_formula_sum "Si O2"
_cell_formula_units_Z 24
_cell_length_a 5.092081
_cell_length_b 17.924228
_cell_length_c 9.969497
_cell_angle_alpha 90.000000
_cell_angle_beta 92.162295
_cell_angle_gamma 90.000000
_cell_volume 909.284244
_symmetry_space_group_name_H-M "C C"
_symmetry_group_IT_number 9
_symmetry_cell_setting 'monoclinic'
loop_
_space_group_symop_operation_xyz
x,y,z
x,-y,1/2+z
1/2+x,1/2+y,z
1/2+x,1/2-y,1/2+z
loop_
_atom_site_type_symbol
_atom_site_label
_atom_site_fract_x
_atom_site_fract_y
_atom_site_fract_z
Si Si1 0.280010 0.573134 0.171710
Si Si2 0.737595 0.201944 0.674687
Si Si3 0.402815 0.017810 0.966323
Si Si4 0.729902 0.777143 0.772102
Si Si5 0.403800 0.438828 0.020266
Si Si6 0.049362 0.852368 0.420798
O O1 0.295944 0.635978 0.285807
O O2 0.411749 0.492560 0.155077
O O3 0.985896 0.553594 0.112975
O O4 0.422104 0.620900 0.055336
O O5 0.448215 0.233241 0.690155
O O6 0.804645 0.140678 0.565435
O O7 0.954075 0.268003 0.687997
O O8 0.813409 0.157008 0.812264
O O9 0.683087 0.984101 0.929346
O O10 0.261890 0.084648 0.887049
O O11 0.195107 0.950388 0.970083
O O12 0.687113 0.728513 0.906549
#
# Coordination Sequence:
#
# PCOD9135870 Si02
#       6
#     4   4   4   4   4   4
#     4   9  20  36  60  80 114 154 192 233 284 344
#     4  10  21  36  55  87 113 147 190 244 282 338
#     4   9  18  33  57  81 104 150 189 226 276 348
#     4  10  22  33  59  84 114 150 193 238 286 339
#     4   9  19  33  60  77 111 145 195 225 290 342
#     4   9  20  33  59  83 114 150 195 226 286 343
#
# _framework density 26.394386000000001
#
# number of rings (size 3 to 8) (size 9 to 14) (size 15 to 20)
#    2.000    0.667    0.000    2.000    4.667    0.000 
#    0.000    0.000    7.333    6.000    0.000    0.000 
#    0.000    0.000    0.000    0.000    0.000    0.000 
#
# Total GULP energy -66895.199611 kJ/mol
# GULP energy per Si atom -5574.599968 kJ/mol
# Density = 2.633431 g / cm^3
# Si number density = 26.394386 Si / 1000 Ang^3
#
#
#
# Elastic Constant Matrix: (Units=GPa)
#
#
# Indices 1 2 3 4 5 6 
#
# 1 121.5832 -4.0406 4.8589 0.0000 -19.7360 0.0000
# 2 -4.0406 126.3038 15.4627 0.0000 -12.9048 0.0000
# 3 4.8589 15.4627 44.6175 0.0000 -5.6720 0.0000
# 4 0.0000 0.0000 0.0000 37.3255 0.0000 0.3196
# 5 -19.7360 -12.9048 -5.6720 0.0000 25.5693 0.0000
# 6 0.0000 0.0000 0.0000 0.3196 0.0000 26.7220
#
#
#
# Elastic Compliance Matrix: (Units=1/GPa)
#
#
# Indices 1 2 3 4 5 6 
#
# 1 0.009558 0.001164 -0.000444 0.000000 0.007866 0.000000
# 2 0.001164 0.008753 -0.002556 0.000000 0.004749 0.000000
# 3 -0.000444 -0.002556 0.023811 0.000000 0.003649 0.000000
# 4 0.000000 0.000000 0.000000 0.026794 0.000000 -0.000320
# 5 0.007866 0.004749 0.003649 0.000000 0.048387 0.000000
# 6 0.000000 0.000000 0.000000 -0.000320 0.000000 0.037426
#
#
# Mechanical properties :
#
#
# Convention : Reuss Voigt Hill
#
# Bulk Modulus (GPa) = 26.00894 36.11851 31.06373
# Shear Modulus (GPa) = 29.20233 36.33826 32.77029
#
# Velocity S-wave (km/s) = 3.32984 3.71447 3.52740
# Velocity P-wave (km/s) = 4.96580 5.66659 5.32773
#
# Compressibility (1/GPa) = 0.03844832
#
# Stress axis : x y z
#
# Youngs Moduli (GPa) = 104.62247 114.24882 41.99754
#
# Poissons Ratio (x) = -0.13297 0.01866
# Poissons Ratio (y) = -0.12177 0.10736
# Poissons Ratio (z) = 0.04648 0.29207
#
# Static dielectric constant tensor:
#      x y z
#    x 1.978510 0.000000 0.039710 
#    y 0.000000 2.060420 0.000000 
#    z 0.039710 0.000000 2.343880 
# 
# From -- ./inp_files/13168.got.cif
#   From: 2010.05.17/outbox.cif.g08.bks.cpg/sg9_7_cif.got.tgz:13168.got - 2010.06.03 20:04:27.
