data_PCOD9135488
_publ_section_title
;
Structure prediction by ZEFSAII (Michael W. Deem and Ramdas Pophale) SiO2 
 PCOD9135488
Probable space group: C C
;
_chemical_formula_sum "Si O2"
_cell_formula_units_Z 28
_cell_length_a 7.281749
_cell_length_b 12.485693
_cell_length_c 14.598923
_cell_angle_alpha 90.000000
_cell_angle_beta 110.785553
_cell_angle_gamma 90.000000
_cell_volume 1240.913157
_symmetry_space_group_name_H-M "C C"
_symmetry_group_IT_number 9
_symmetry_cell_setting 'monoclinic'
loop_
_space_group_symop_operation_xyz
x,y,z
x,-y,1/2+z
1/2+x,1/2+y,z
1/2+x,1/2-y,1/2+z
loop_
_atom_site_type_symbol
_atom_site_label
_atom_site_fract_x
_atom_site_fract_y
_atom_site_fract_z
Si Si1 0.761020 0.727810 0.596980
Si Si2 0.758788 0.360612 0.765680
Si Si3 0.822139 0.896559 0.758872
Si Si4 0.142387 0.227307 0.063241
Si Si5 0.871668 0.243996 0.430368
Si Si6 0.840023 0.407981 0.280476
Si Si7 0.876709 0.134822 0.735488
O O1 0.724933 0.830985 0.657416
O O2 0.862513 0.641667 0.683107
O O3 0.915104 0.753933 0.544283
O O4 0.556218 0.695494 0.516792
O O5 0.554738 0.373497 0.783475
O O6 0.705313 0.363491 0.647370
O O7 0.880490 0.467637 0.802606
O O8 0.842717 0.241015 0.791068
O O9 0.772469 0.841254 0.845496
O O10 0.791274 0.022754 0.754617
O O11 0.262379 0.330349 0.123061
O O12 0.219345 0.208252 0.976221
O O13 0.945937 0.337005 0.375431
O O14 0.606016 0.386046 0.256943
#
# Coordination Sequence:
#
# PCOD9135488 Si02
#       7
#     4   4   4   4   4   4   4
#     4  10  20  42  64  90 135 163 210 269 324 393
#     4   8  18  40  68  88 125 177 210 258 335 389
#     4   9  20  39  65  93 129 171 209 273 330 375
#     4   9  20  41  68  89 125 169 215 259 329 376
#     4  11  22  40  64 101 123 163 218 268 318 388
#     4  10  20  40  68  90 134 170 207 274 332 377
#     4   9  18  42  67  85 129 173 213 259 328 388
#
# _framework density 22.564026999999999
#
# number of rings (size 3 to 8) (size 9 to 14) (size 15 to 20)
#    0.857    1.714    1.429    0.000    0.000    1.143 
#   12.857    2.857    0.000    0.000    0.000    0.000 
#    0.000    0.000    0.000    0.000    0.000    0.000 
#
# Total GULP energy -78101.466116 kJ/mol
# GULP energy per Si atom -5578.676151 kJ/mol
# Density = 2.251267 g / cm^3
# Si number density = 22.564027 Si / 1000 Ang^3
#
#
#
# Elastic Constant Matrix: (Units=GPa)
#
#
# Indices 1 2 3 4 5 6 
#
# 1 57.6495 4.1682 25.7521 0.0000 -4.5929 0.0000
# 2 4.1682 147.5623 12.9562 0.0000 -6.3528 0.0000
# 3 25.7521 12.9562 94.7312 0.0000 -14.7221 0.0000
# 4 0.0000 0.0000 0.0000 8.3077 0.0000 -3.1920
# 5 -4.5929 -6.3528 -14.7221 0.0000 19.3822 0.0000
# 6 0.0000 0.0000 0.0000 -3.1920 0.0000 28.6116
#
#
#
# Elastic Compliance Matrix: (Units=1/GPa)
#
#
# Indices 1 2 3 4 5 6 
#
# 1 0.019752 -0.000068 -0.005257 0.000000 0.000665 0.000000
# 2 -0.000068 0.006912 -0.000655 0.000000 0.001752 0.000000
# 3 -0.005257 -0.000655 0.013434 0.000000 0.008744 0.000000
# 4 0.000000 0.000000 0.000000 0.125762 0.000000 0.014030
# 5 0.000665 0.001752 0.008744 0.000000 0.058967 0.000000
# 6 0.000000 0.000000 0.000000 0.014030 0.000000 0.036516
#
#
# Mechanical properties :
#
#
# Convention : Reuss Voigt Hill
#
# Bulk Modulus (GPa) = 35.53760 42.85509 39.19635
# Shear Modulus (GPa) = 17.68782 28.39806 23.04294
#
# Velocity S-wave (km/s) = 2.80285 3.55146 3.19913
# Velocity P-wave (km/s) = 5.12430 5.98757 5.57268
#
# Compressibility (1/GPa) = 0.02813921
#
# Stress axis : x y z
#
# Youngs Moduli (GPa) = 50.62683 144.68398 74.44032
#
# Poissons Ratio (x) = 0.00980 0.39132
# Poissons Ratio (y) = 0.00343 0.04873
# Poissons Ratio (z) = 0.26614 0.09471
#
# Static dielectric constant tensor:
#      x y z
#    x 1.936630 0.000000 -0.030410 
#    y 0.000000 1.833320 0.000000 
#    z -0.030410 0.000000 1.839000 
# 
# From -- ./inp_files/24441.got.cif
#   From: 2010.05.17/outbox.cif.g08.bks.cpg/sg9_13_cif.got.tgz:24441.got - 2010.06.03 20:04:27.
