data_PCOD9135540
_publ_section_title
;
Structure prediction by ZEFSAII (Michael W. Deem and Ramdas Pophale) SiO2 
 PCOD9135540
Probable space group: C C
;
_chemical_formula_sum "Si O2"
_cell_formula_units_Z 28
_cell_length_a 11.454794
_cell_length_b 23.288832
_cell_length_c 9.817452
_cell_angle_alpha 90.000000
_cell_angle_beta 27.084909
_cell_angle_gamma 90.000000
_cell_volume 1192.453267
_symmetry_space_group_name_H-M "C C"
_symmetry_group_IT_number 9
_symmetry_cell_setting 'monoclinic'
loop_
_space_group_symop_operation_xyz
x,y,z
x,-y,1/2+z
1/2+x,1/2+y,z
1/2+x,1/2-y,1/2+z
loop_
_atom_site_type_symbol
_atom_site_label
_atom_site_fract_x
_atom_site_fract_y
_atom_site_fract_z
Si Si1 0.608500 0.936926 0.129300
Si Si2 0.388449 0.618639 0.114461
Si Si3 0.638763 0.285095 0.787759
Si Si4 0.721607 0.285671 0.379925
Si Si5 0.870874 0.601297 0.152669
Si Si6 0.724912 0.479986 0.305975
Si Si7 0.634012 0.937609 0.654515
O O1 0.552129 0.910019 0.334343
O O2 0.354756 0.958398 0.311207
O O3 0.754951 0.998835 0.996151
O O4 0.708565 0.883026 0.934234
O O5 0.273738 0.615862 0.084334
O O6 0.626966 0.659762 0.892606
O O7 0.468797 0.552491 0.041826
O O8 0.681814 0.297844 0.581819
O O9 0.847412 0.235767 0.606196
O O10 0.720577 0.340088 0.789250
O O11 0.508656 0.237268 0.561555
O O12 0.021439 0.589643 0.134780
O O13 0.681753 0.547060 0.344955
O O14 0.918366 0.458044 0.987349
#
# Coordination Sequence:
#
# PCOD9135540 Si02
#       7
#     4   4   4   4   4   4   4
#     4   9  20  37  61  93 125 161 212 264 321 382
#     4  11  22  38  66  91 126 166 215 264 323 386
#     4  10  23  43  64  94 129 169 222 271 316 378
#     4  10  24  41  67  96 125 166 224 275 316 373
#     4  10  20  41  63  92 131 167 208 265 329 382
#     4   9  20  39  61  91 125 164 212 262 322 386
#     4   9  21  39  56  93 133 163 201 263 329 395
#
# _framework density 23.481003999999999
#
# number of rings (size 3 to 8) (size 9 to 14) (size 15 to 20)
#    0.000    2.286    0.000    1.714   10.000    4.571 
#   10.286    1.429    0.000    0.000    0.000    0.000 
#    0.000    0.000    0.000    0.000    0.000    0.000 
#
# Total GULP energy -78143.956257 kJ/mol
# GULP energy per Si atom -5581.711161 kJ/mol
# Density = 2.342756 g / cm^3
# Si number density = 23.481004 Si / 1000 Ang^3
#
#
#
# Elastic Constant Matrix: (Units=GPa)
#
#
# Indices 1 2 3 4 5 6 
#
# 1 145.1168 49.6791 17.5350 0.0004 -5.1297 0.0000
# 2 49.6791 97.9542 1.5953 0.0003 -9.6748 0.0001
# 3 17.5350 1.5953 27.7436 -0.0006 -5.3459 0.0001
# 4 0.0004 0.0003 -0.0006 27.5024 0.0003 -15.7120
# 5 -5.1297 -9.6748 -5.3459 0.0003 6.8123 -0.0001
# 6 0.0000 0.0001 0.0001 -15.7120 -0.0001 37.9368
#
#
#
# Elastic Compliance Matrix: (Units=1/GPa)
#
#
# Indices 1 2 3 4 5 6 
#
# 1 0.009251 -0.005128 -0.006613 0.000000 -0.005506 0.000000
# 2 -0.005128 0.014936 0.006746 0.000000 0.022645 0.000000
# 3 -0.006613 0.006746 0.047977 0.000001 0.042250 0.000000
# 4 0.000000 0.000000 0.000001 0.047630 -0.000001 0.019727
# 5 -0.005506 0.022645 0.042250 -0.000001 0.207963 0.000000
# 6 0.000000 0.000000 0.000000 0.019727 0.000000 0.034530
#
#
# Mechanical properties :
#
#
# Convention : Reuss Voigt Hill
#
# Bulk Modulus (GPa) = 16.08394 45.38148 30.73271
# Shear Modulus (GPa) = 12.72254 27.91731 20.31992
#
# Velocity S-wave (km/s) = 2.33023 3.45183 2.94492
# Velocity P-wave (km/s) = 3.75561 5.93765 4.96791
#
# Compressibility (1/GPa) = 0.06217382
#
# Stress axis : x y z
#
# Youngs Moduli (GPa) = 108.09744 66.95119 20.84313
#
# Poissons Ratio (x) = 0.34332 0.13784
# Poissons Ratio (y) = 0.55431 -0.14060
# Poissons Ratio (z) = 0.71485 -0.45162
#
# Static dielectric constant tensor:
#      x y z
#    x 2.213550 0.000000 0.248920 
#    y 0.000000 1.913670 0.000000 
#    z 0.248920 0.000000 2.143410 
# 
# From -- ./inp_files/2010.got.cif
#   From: 2010.05.17/outbox.cif.g08.bks.cpg/sg9_2_cif.got.tgz:2010.got - 2010.06.03 20:04:27.
