data_PCOD9135682
_publ_section_title
;
Structure prediction by ZEFSAII (Michael W. Deem and Ramdas Pophale) SiO2 
 PCOD9135682
Probable space group: C C
;
_chemical_formula_sum "Si O2"
_cell_formula_units_Z 32
_cell_length_a 15.622391
_cell_length_b 11.354639
_cell_length_c 20.123080
_cell_angle_alpha 90.000000
_cell_angle_beta 158.162181
_cell_angle_gamma 90.000000
_cell_volume 1327.808970
_symmetry_space_group_name_H-M "C C"
_symmetry_group_IT_number 9
_symmetry_cell_setting 'monoclinic'
loop_
_space_group_symop_operation_xyz
x,y,z
x,-y,1/2+z
1/2+x,1/2+y,z
1/2+x,1/2-y,1/2+z
loop_
_atom_site_type_symbol
_atom_site_label
_atom_site_fract_x
_atom_site_fract_y
_atom_site_fract_z
Si Si1 0.186290 0.461953 0.560820
Si Si2 0.569129 0.713167 0.347757
Si Si3 0.964484 0.411339 0.595863
Si Si4 0.978581 0.662088 0.547077
Si Si5 0.199755 0.889789 0.086989
Si Si6 0.081015 0.903413 0.427832
Si Si7 0.375969 0.229036 0.915466
Si Si8 0.393098 0.836214 0.835181
O O1 0.385125 0.373666 0.678380
O O2 0.349662 0.549388 0.723894
O O3 0.010806 0.372439 0.471159
O O4 0.019786 0.547037 0.399177
O O5 0.797418 0.709352 0.469932
O O6 0.592312 0.662851 0.439540
O O7 0.456805 0.841342 0.269451
O O8 0.056015 0.537403 0.635789
O O9 0.806194 0.429137 0.545787
O O10 0.800453 0.345961 0.424591
O O11 0.166542 0.315162 0.746303
O O12 0.877517 0.632368 0.402388
O O13 0.154144 0.766437 0.655843
O O14 0.081275 0.826527 0.064018
O O15 0.125468 0.023529 0.027018
O O16 0.061385 0.767947 0.431803
#
# Coordination Sequence:
#
# PCOD9135682 Si02
#       8
#     4   4   4   4   4   4   4   4
#     4  10  21  44  68  93 137 178 222 263 350 399
#     4  10  21  41  70  96 131 183 224 285 328 406
#     4  12  25  45  72 101 139 173 234 285 343 390
#     4  12  24  43  71 101 138 176 232 283 337 400
#     4  10  20  42  69  96 135 177 231 265 351 399
#     4  11  24  45  69  97 140 187 218 280 348 407
#     4  11  23  43  72 102 130 184 224 286 330 414
#     4  12  24  43  69  98 140 184 219 279 349 407
#
# _framework density 24.099851000000001
#
# number of rings (size 3 to 8) (size 9 to 14) (size 15 to 20)
#    0.000    1.000    5.000    3.750    1.750    0.000 
#    9.000    0.000    0.000    0.000    0.000    0.000 
#    0.000    0.000    0.000    0.000    0.000    0.000 
#
# Total GULP energy -89170.082996 kJ/mol
# GULP energy per Si atom -5573.130187 kJ/mol
# Density = 2.404500 g / cm^3
# Si number density = 24.099851 Si / 1000 Ang^3
#
#
#
# Elastic Constant Matrix: (Units=GPa)
#
#
# Indices 1 2 3 4 5 6 
#
# 1 54.9299 21.0428 11.8957 0.0033 19.1410 -0.0067
# 2 21.0428 161.9755 34.3734 -0.0209 15.5948 -0.0077
# 3 11.8957 34.3734 87.3322 -0.0225 12.4545 -0.0144
# 4 0.0033 -0.0209 -0.0225 39.1239 -0.0059 -1.8193
# 5 19.1410 15.5948 12.4545 -0.0059 26.8896 -0.0046
# 6 -0.0067 -0.0077 -0.0144 -1.8193 -0.0046 33.8538
#
#
#
# Elastic Compliance Matrix: (Units=1/GPa)
#
#
# Indices 1 2 3 4 5 6 
#
# 1 0.024608 -0.001528 -0.000406 -0.000006 -0.016443 0.000002
# 2 -0.001528 0.007044 -0.002288 0.000002 -0.001938 0.000000
# 3 -0.000406 -0.002288 0.013037 0.000006 -0.004423 0.000005
# 4 -0.000006 0.000002 0.000006 0.025624 0.000006 0.001377
# 5 -0.016443 -0.001938 -0.004423 0.000006 0.052066 0.000002
# 6 0.000002 0.000000 0.000005 0.001377 0.000002 0.029613
#
#
# Mechanical properties :
#
#
# Convention : Reuss Voigt Hill
#
# Bulk Modulus (GPa) = 27.58903 48.76237 38.17570
# Shear Modulus (GPa) = 28.98260 35.76849 32.37555
#
# Velocity S-wave (km/s) = 3.47162 3.85668 3.66921
# Velocity P-wave (km/s) = 5.24807 6.33320 5.81600
#
# Compressibility (1/GPa) = 0.03624629
#
# Stress axis : x y z
#
# Youngs Moduli (GPa) = 40.63753 141.95620 76.70417
#
# Poissons Ratio (x) = 0.21687 0.03112
# Poissons Ratio (y) = 0.06208 0.17551
# Poissons Ratio (z) = 0.01649 0.32482
#
# Static dielectric constant tensor:
#      x y z
#    x 1.918440 0.000000 -0.079310 
#    y 0.000000 1.959000 0.000000 
#    z -0.079310 0.000000 2.038620 
# 
# From -- ./inp_files/35863.got.cif
#   From: 2010.05.17/outbox.cif.g08.bks.cpg/sg9_18_cif.got.tgz:35863.got - 2010.06.03 20:04:27.
