data_PCOD9135665
_publ_section_title
;
Structure prediction by ZEFSAII (Michael W. Deem and Ramdas Pophale) SiO2 
 PCOD9135665
Probable space group: C C
;
_chemical_formula_sum "Si O2"
_cell_formula_units_Z 28
_cell_length_a 15.462039
_cell_length_b 14.821412
_cell_length_c 5.490675
_cell_angle_alpha 90.000000
_cell_angle_beta 125.398723
_cell_angle_gamma 90.000000
_cell_volume 1025.686557
_symmetry_space_group_name_H-M "C C"
_symmetry_group_IT_number 9
_symmetry_cell_setting 'monoclinic'
loop_
_space_group_symop_operation_xyz
x,y,z
x,-y,1/2+z
1/2+x,1/2+y,z
1/2+x,1/2-y,1/2+z
loop_
_atom_site_type_symbol
_atom_site_label
_atom_site_fract_x
_atom_site_fract_y
_atom_site_fract_z
Si Si1 0.060980 0.135539 0.320090
Si Si2 0.505622 0.785224 0.574105
Si Si3 0.193987 0.775307 0.685121
Si Si4 0.530075 0.961350 0.293419
Si Si5 0.871645 0.799325 0.212308
Si Si6 0.718366 0.474679 0.574323
Si Si7 0.771396 0.025841 0.568153
O O1 0.009579 0.185781 0.461347
O O2 0.159041 0.199970 0.398190
O O3 0.112373 0.037628 0.425029
O O4 0.978601 0.149338 0.965130
O O5 0.513875 0.862484 0.384234
O O6 0.403233 0.779449 0.579146
O O7 0.607599 0.790388 0.921110
O O8 0.312044 0.740957 0.847931
O O9 0.192533 0.869898 0.536607
O O10 0.489886 0.975211 0.951744
O O11 0.654649 0.988527 0.447506
O O12 0.789329 0.874376 0.987167
O O13 0.774464 0.505516 0.420913
O O14 0.820155 0.969377 0.422771
#
# Coordination Sequence:
#
# PCOD9135665 Si02
#       7
#     4   4   4   4   4   4   4
#     4  10  24  41  70 100 147 190 244 310 375 449
#     4  11  24  44  71 102 147 192 245 307 382 443
#     4  10  22  43  70  98 146 195 245 299 381 456
#     4  10  23  43  72  97 136 190 242 291 364 442
#     4  11  26  42  69 113 144 190 254 317 376 447
#     4  10  20  42  67  99 135 194 238 292 365 441
#     4  10  23  41  65 103 143 185 240 304 367 438
#
# _framework density 27.298791000000001
#
# number of rings (size 3 to 8) (size 9 to 14) (size 15 to 20)
#    0.000    1.714    1.429    1.714   10.000    4.571 
#    0.000    2.857    0.000    0.000    0.000    0.000 
#    0.000    0.000    0.000    0.000    0.000    0.000 
#
# Total GULP energy -78223.469918 kJ/mol
# GULP energy per Si atom -5587.390708 kJ/mol
# Density = 2.723666 g / cm^3
# Si number density = 27.298791 Si / 1000 Ang^3
#
#
#
# Elastic Constant Matrix: (Units=GPa)
#
#
# Indices 1 2 3 4 5 6 
#
# 1 133.7054 38.9424 45.2767 0.0000 -19.2616 0.0000
# 2 38.9424 124.0477 21.9073 0.0000 11.8644 0.0000
# 3 45.2767 21.9073 102.9327 0.0000 -19.8390 0.0000
# 4 0.0000 0.0000 0.0000 38.4700 0.0000 -16.5935
# 5 -19.2616 11.8644 -19.8390 0.0000 55.7926 0.0000
# 6 0.0000 0.0000 0.0000 -16.5935 0.0000 48.4576
#
#
#
# Elastic Compliance Matrix: (Units=1/GPa)
#
#
# Indices 1 2 3 4 5 6 
#
# 1 0.009767 -0.002780 -0.003157 0.000000 0.002841 0.000000
# 2 -0.002780 0.009532 -0.001483 0.000000 -0.003514 0.000000
# 3 -0.003157 -0.001483 0.012099 0.000000 0.003528 0.000000
# 4 0.000000 0.000000 0.000000 0.030499 0.000000 0.010444
# 5 0.002841 -0.003514 0.003528 0.000000 0.020906 0.000000
# 6 0.000000 0.000000 0.000000 0.010444 0.000000 0.024213
#
#
# Mechanical properties :
#
#
# Convention : Reuss Voigt Hill
#
# Bulk Modulus (GPa) = 60.39436 63.65984 62.02710
# Shear Modulus (GPa) = 39.25349 45.51469 42.38409
#
# Velocity S-wave (km/s) = 3.79611 4.08766 3.94458
# Velocity P-wave (km/s) = 6.43315 6.75640 6.59675
#
# Compressibility (1/GPa) = 0.01655784
#
# Stress axis : x y z
#
# Youngs Moduli (GPa) = 102.38333 104.90636 82.64910
#
# Poissons Ratio (x) = 0.29168 0.26093
# Poissons Ratio (y) = 0.28466 0.12258
# Poissons Ratio (z) = 0.32323 0.15559
#
# Static dielectric constant tensor:
#      x y z
#    x 2.094120 0.000000 0.031670 
#    y 0.000000 2.128210 0.000000 
#    z 0.031670 0.000000 2.280280 
# 
# From -- ./inp_files/2370.got.cif
#   From: 2010.05.17/outbox.cif.g08.bks.cpg/sg9_2_cif.got.tgz:2370.got - 2010.06.03 20:04:27.
