data_PCOD9135995
_publ_section_title
;
Structure prediction by ZEFSAII (Michael W. Deem and Ramdas Pophale) SiO2 
 PCOD9135995
Probable space group: C C
;
_chemical_formula_sum "Si O2"
_cell_formula_units_Z 24
_cell_length_a 5.009005
_cell_length_b 17.989718
_cell_length_c 11.908451
_cell_angle_alpha 90.000000
_cell_angle_beta 64.304367
_cell_angle_gamma 90.000000
_cell_volume 966.960956
_symmetry_space_group_name_H-M "C C"
_symmetry_group_IT_number 9
_symmetry_cell_setting 'monoclinic'
loop_
_space_group_symop_operation_xyz
x,y,z
x,-y,1/2+z
1/2+x,1/2+y,z
1/2+x,1/2-y,1/2+z
loop_
_atom_site_type_symbol
_atom_site_label
_atom_site_fract_x
_atom_site_fract_y
_atom_site_fract_z
Si Si1 0.381120 0.830033 0.146030
Si Si2 0.179812 0.537606 0.041068
Si Si3 0.940691 0.902414 0.919432
Si Si4 0.058817 0.746910 0.835851
Si Si5 0.897628 0.204251 0.989411
Si Si6 0.592780 0.459933 0.116847
O O1 0.642600 0.867893 0.026750
O O2 0.545130 0.799270 0.224938
O O3 0.142796 0.896377 0.199941
O O4 0.246332 0.760443 0.104248
O O5 0.343145 0.487403 0.913919
O O6 0.285133 0.498247 0.138765
O O7 0.833297 0.524166 0.090392
O O8 0.289675 0.620821 0.022143
O O9 0.156096 0.915753 0.986627
O O10 0.049671 0.836640 0.819711
O O11 0.746516 0.717408 0.946132
O O12 0.310528 0.730823 0.880730
#
# Coordination Sequence:
#
# PCOD9135995 Si02
#       6
#     4   4   4   4   4   4
#     4  10  21  38  60  84 119 154 200 241 288 351
#     4   9  18  34  61  77 114 152 184 237 299 334
#     4   8  19  38  56  82 115 155 188 233 296 340
#     4  11  23  35  61  87 114 158 196 241 294 344
#     4  11  22  38  58  90 116 148 201 248 283 346
#     4   9  17  35  58  76 110 157 179 228 300 337
#
# _framework density 24.820031
#
# number of rings (size 3 to 8) (size 9 to 14) (size 15 to 20)
#    1.000    1.333    1.667    1.000    2.333    0.000 
#    0.000    5.000    0.000    0.000    0.000    0.000 
#    0.000    0.000    0.000    0.000    0.000    0.000 
#
# Total GULP energy -66917.868727 kJ/mol
# GULP energy per Si atom -5576.489061 kJ/mol
# Density = 2.476354 g / cm^3
# Si number density = 24.820031 Si / 1000 Ang^3
#
#
#
# Elastic Constant Matrix: (Units=GPa)
#
#
# Indices 1 2 3 4 5 6 
#
# 1 78.3313 6.0021 5.8751 0.0000 21.0082 0.0000
# 2 6.0021 168.4878 12.3515 0.0000 -0.7895 0.0000
# 3 5.8751 12.3515 43.9833 0.0000 14.7701 0.0000
# 4 0.0000 0.0000 0.0000 20.7893 0.0000 6.4180
# 5 21.0082 -0.7895 14.7701 0.0000 24.7642 0.0000
# 6 0.0000 0.0000 0.0000 6.4180 0.0000 32.0837
#
#
#
# Elastic Compliance Matrix: (Units=1/GPa)
#
#
# Indices 1 2 3 4 5 6 
#
# 1 0.017023 -0.000946 0.003565 0.000000 -0.016597 0.000000
# 2 -0.000946 0.006158 -0.002424 0.000000 0.002444 0.000000
# 3 0.003565 -0.002424 0.029988 0.000000 -0.020988 0.000000
# 4 0.000000 0.000000 0.000000 0.051268 0.000000 -0.010256
# 5 -0.016597 0.002444 -0.020988 0.000000 0.067057 0.000000
# 6 0.000000 0.000000 0.000000 -0.010256 0.000000 0.033220
#
#
# Mechanical properties :
#
#
# Convention : Reuss Voigt Hill
#
# Bulk Modulus (GPa) = 18.67027 37.69552 28.18289
# Shear Modulus (GPa) = 22.50481 33.29902 27.90192
#
# Velocity S-wave (km/s) = 3.01445 3.66679 3.35650
# Velocity P-wave (km/s) = 4.43333 5.75739 5.13819
#
# Compressibility (1/GPa) = 0.05356109
#
# Stress axis : x y z
#
# Youngs Moduli (GPa) = 58.74507 162.39141 33.34637
#
# Poissons Ratio (x) = 0.15355 -0.11889
# Poissons Ratio (y) = 0.05555 0.08082
# Poissons Ratio (z) = -0.20945 0.39359
#
# Static dielectric constant tensor:
#      x y z
#    x 1.956960 0.000000 -0.077850 
#    y 0.000000 2.018150 0.000000 
#    z -0.077850 0.000000 2.076140 
# 
# From -- ./inp_files/13074.got.cif
#   From: 2010.05.17/outbox.cif.g08.bks.cpg/sg9_7_cif.got.tgz:13074.got - 2010.06.03 20:04:27.
