data_PCOD9135448
_publ_section_title
;
Structure prediction by ZEFSAII (Michael W. Deem and Ramdas Pophale) SiO2 
 PCOD9135448
Probable space group: C C
;
_chemical_formula_sum "Si O2"
_cell_formula_units_Z 24
_cell_length_a 9.836687
_cell_length_b 9.588134
_cell_length_c 23.598309
_cell_angle_alpha 90.000000
_cell_angle_beta 152.521624
_cell_angle_gamma 90.000000
_cell_volume 1026.962116
_symmetry_space_group_name_H-M "C C"
_symmetry_group_IT_number 9
_symmetry_cell_setting 'monoclinic'
loop_
_space_group_symop_operation_xyz
x,y,z
x,-y,1/2+z
1/2+x,1/2+y,z
1/2+x,1/2-y,1/2+z
loop_
_atom_site_type_symbol
_atom_site_label
_atom_site_fract_x
_atom_site_fract_y
_atom_site_fract_z
Si Si1 0.149820 0.770251 0.112190
Si Si2 0.358444 0.713965 0.668510
Si Si3 0.537030 0.996410 0.270945
Si Si4 0.853493 0.320848 0.067586
Si Si5 0.125898 0.136184 0.973986
Si Si6 0.417151 0.160961 0.823834
O O1 0.208042 0.937284 0.138190
O O2 0.299418 0.742054 0.107285
O O3 0.320334 0.737524 0.234724
O O4 0.828363 0.706284 0.000589
O O5 0.161768 0.762851 0.541951
O O6 0.613769 0.612219 0.741066
O O7 0.166325 0.677640 0.651601
O O8 0.551612 0.848696 0.756562
O O9 0.572097 0.969415 0.350476
O O10 0.787401 0.899906 0.335336
O O11 0.759483 0.483216 0.036994
O O12 0.638445 0.240360 0.945377
#
# Coordination Sequence:
#
# PCOD9135448 Si02
#       6
#     4   4   4   4   4   4
#     4   9  23  39  61  95 123 157 210 250 303 365
#     4  11  21  39  66  87 127 161 202 257 303 366
#     4  10  20  40  65  86 124 164 196 255 307 355
#     4  12  22  39  67  92 118 168 207 246 313 364
#     4  11  21  42  64  86 129 162 199 259 306 359
#     4   9  21  39  61  92 119 162 206 245 310 359
#
# _framework density 23.369899
#
# number of rings (size 3 to 8) (size 9 to 14) (size 15 to 20)
#    1.000    0.667    5.000    0.000    0.000    2.667 
#    0.000    1.667    3.667    0.000    0.000    0.000 
#    0.000    0.000    0.000    0.000    0.000    0.000 
#
# Total GULP energy -66816.370094 kJ/mol
# GULP energy per Si atom -5568.030841 kJ/mol
# Density = 2.331671 g / cm^3
# Si number density = 23.369899 Si / 1000 Ang^3
#
#
#
# Elastic Constant Matrix: (Units=GPa)
#
#
# Indices 1 2 3 4 5 6 
#
# 1 191.8569 9.0431 49.2759 -0.0003 16.9476 -0.0001
# 2 9.0431 18.6537 8.9221 0.0001 3.1984 -0.0001
# 3 49.2759 8.9221 73.3292 0.0020 19.1057 0.0002
# 4 -0.0003 0.0001 0.0020 30.3618 0.0000 7.5229
# 5 16.9476 3.1984 19.1057 0.0000 38.6204 -0.0002
# 6 -0.0001 -0.0001 0.0002 7.5229 -0.0002 23.8737
#
#
#
# Elastic Compliance Matrix: (Units=1/GPa)
#
#
# Indices 1 2 3 4 5 6 
#
# 1 0.006339 -0.001063 -0.003936 0.000000 -0.000747 0.000000
# 2 -0.001063 0.057173 -0.005889 0.000000 -0.001355 0.000000
# 3 -0.003936 -0.005889 0.018851 -0.000001 -0.007111 0.000000
# 4 0.000000 0.000000 -0.000001 0.035725 0.000000 -0.011258
# 5 -0.000747 -0.001355 -0.007111 0.000000 0.029851 0.000000
# 6 0.000000 0.000000 0.000000 -0.011258 0.000000 0.045434
#
#
# Mechanical properties :
#
#
# Convention : Reuss Voigt Hill
#
# Bulk Modulus (GPa) = 16.50495 46.48021 31.49258
# Shear Modulus (GPa) = 21.24537 33.01110 27.12823
#
# Velocity S-wave (km/s) = 3.01838 3.76247 3.41078
# Velocity P-wave (km/s) = 4.38467 6.22952 5.38666
#
# Compressibility (1/GPa) = 0.06058789
#
# Stress axis : x y z
#
# Youngs Moduli (GPa) = 157.74958 17.49081 53.04669
#
# Poissons Ratio (x) = 0.01858 0.20879
# Poissons Ratio (y) = 0.16762 0.31240
# Poissons Ratio (z) = 0.62090 0.10301
#
# Static dielectric constant tensor:
#      x y z
#    x 1.993470 0.000000 -0.006330 
#    y 0.000000 1.869680 0.000000 
#    z -0.006330 0.000000 1.936140 
# 
# From -- ./inp_files/14104.got.cif
#   From: 2010.05.17/outbox.cif.g08.bks.cpg/sg9_8_cif.got.tgz:14104.got - 2010.06.03 20:04:27.
