data_PCOD9135087
_publ_section_title
;
Structure prediction by ZEFSAII (Michael W. Deem and Ramdas Pophale) SiO2 
 PCOD9135087
Probable space group: C C
;
_chemical_formula_sum "Si O2"
_cell_formula_units_Z 32
_cell_length_a 11.128964
_cell_length_b 24.691354
_cell_length_c 5.230064
_cell_angle_alpha 90.000000
_cell_angle_beta 80.699439
_cell_angle_gamma 90.000000
_cell_volume 1418.272270
_symmetry_space_group_name_H-M "C C"
_symmetry_group_IT_number 9
_symmetry_cell_setting 'monoclinic'
loop_
_space_group_symop_operation_xyz
x,y,z
x,-y,1/2+z
1/2+x,1/2+y,z
1/2+x,1/2-y,1/2+z
loop_
_atom_site_type_symbol
_atom_site_label
_atom_site_fract_x
_atom_site_fract_y
_atom_site_fract_z
Si Si1 0.855780 0.383369 0.795570
Si Si2 0.924207 0.984125 0.269266
Si Si3 0.082514 0.535991 0.237738
Si Si4 0.934823 0.674968 0.754083
Si Si5 0.187002 0.030026 0.176088
Si Si6 0.695926 0.864574 0.969036
Si Si7 0.933885 0.864340 0.180503
Si Si8 0.911730 0.197453 0.198342
O O1 0.952809 0.432212 0.793839
O O2 0.902323 0.345363 0.548605
O O3 0.732978 0.412026 0.746149
O O4 0.849274 0.351725 0.065047
O O5 0.976733 0.923949 0.240191
O O6 0.852144 0.999473 0.544237
O O7 0.040880 0.024113 0.225912
O O8 0.088570 0.489454 0.452676
O O9 0.173331 0.584058 0.295602
O O10 0.929274 0.739472 0.734534
O O11 0.069336 0.655077 0.627771
O O12 0.229612 0.987786 0.380934
O O13 0.790883 0.875845 0.165274
O O14 0.769349 0.818808 0.786004
O O15 0.950210 0.823878 0.408944
O O16 0.976484 0.836963 0.902369
#
# Coordination Sequence:
#
# PCOD9135087 Si02
#       8
#     4   4   4   4   4   4   4   4
#     4  11  22  38  63  94 128 165 212 259 310 386
#     4  10  21  38  62  90 128 172 203 248 315 371
#     4  11  22  35  59  93 124 163 205 249 316 372
#     4  11  23  42  68  90 125 168 212 271 325 366
#     4  10  20  37  60  86 130 172 198 249 309 372
#     4   9  25  40  65  92 128 158 217 264 313 383
#     4  10  22  41  65  88 127 165 211 260 314 377
#     4  10  23  43  64  91 124 163 212 276 316 367
#
# _framework density 22.562664000000002
#
# number of rings (size 3 to 8) (size 9 to 14) (size 15 to 20)
#    0.750    1.000    0.000    4.500    5.250    1.000 
#    0.000    7.500    0.000    0.000    0.000    0.000 
#    0.000    0.000    0.000    0.000    0.000    0.000 
#
# Total GULP energy -89392.177331 kJ/mol
# GULP energy per Si atom -5587.011083 kJ/mol
# Density = 2.251131 g / cm^3
# Si number density = 22.562664 Si / 1000 Ang^3
#
#
#
# Elastic Constant Matrix: (Units=GPa)
#
#
# Indices 1 2 3 4 5 6 
#
# 1 50.1656 31.9871 6.6272 0.0000 7.3689 0.0000
# 2 31.9871 115.8133 24.8019 0.0000 9.3655 0.0000
# 3 6.6272 24.8019 128.8501 0.0000 29.2224 0.0000
# 4 0.0000 0.0000 0.0000 42.2377 0.0000 2.8184
# 5 7.3689 9.3655 29.2224 0.0000 17.2027 0.0000
# 6 0.0000 0.0000 0.0000 2.8184 0.0000 29.9503
#
#
#
# Elastic Compliance Matrix: (Units=1/GPa)
#
#
# Indices 1 2 3 4 5 6 
#
# 1 0.025578 -0.006676 0.002652 0.000000 -0.011826 0.000000
# 2 -0.006676 0.010857 -0.001715 0.000000 -0.000137 0.000000
# 3 0.002652 -0.001715 0.013015 0.000000 -0.022310 0.000000
# 4 0.000000 0.000000 0.000000 0.023825 0.000000 -0.002242
# 5 -0.011826 -0.000137 -0.022310 0.000000 0.101169 0.000000
# 6 0.000000 0.000000 0.000000 -0.002242 0.000000 0.033600
#
#
# Mechanical properties :
#
#
# Convention : Reuss Voigt Hill
#
# Bulk Modulus (GPa) = 26.33684 46.85127 36.59405
# Shear Modulus (GPa) = 21.53512 33.30566 27.42039
#
# Velocity S-wave (km/s) = 3.09278 3.84623 3.48990
# Velocity P-wave (km/s) = 4.94488 6.36668 5.70028
#
# Compressibility (1/GPa) = 0.03796963
#
# Stress axis : x y z
#
# Youngs Moduli (GPa) = 39.09672 92.10747 76.83735
#
# Poissons Ratio (x) = 0.61490 -0.20374
# Poissons Ratio (y) = 0.26101 0.13180
# Poissons Ratio (z) = -0.10367 0.15799
#
# Static dielectric constant tensor:
#      x y z
#    x 1.883930 0.000000 0.012470 
#    y 0.000000 1.791440 0.000000 
#    z 0.012470 0.000000 1.939770 
# 
# From -- ./inp_files/1982.got.cif
#   From: 2010.05.17/outbox.cif.g08.bks.cpg/sg9_1_cif.got.tgz:1982.got - 2010.06.03 20:04:27.
