data_PCOD9135651
_publ_section_title
;
Structure prediction by ZEFSAII (Michael W. Deem and Ramdas Pophale) SiO2 
 PCOD9135651
Probable space group: C C
;
_chemical_formula_sum "Si O2"
_cell_formula_units_Z 32
_cell_length_a 7.573639
_cell_length_b 12.074730
_cell_length_c 13.895141
_cell_angle_alpha 90.000000
_cell_angle_beta 85.325602
_cell_angle_gamma 90.000000
_cell_volume 1266.479233
_symmetry_space_group_name_H-M "C C"
_symmetry_group_IT_number 9
_symmetry_cell_setting 'monoclinic'
loop_
_space_group_symop_operation_xyz
x,y,z
x,-y,1/2+z
1/2+x,1/2+y,z
1/2+x,1/2-y,1/2+z
loop_
_atom_site_type_symbol
_atom_site_label
_atom_site_fract_x
_atom_site_fract_y
_atom_site_fract_z
Si Si1 0.830180 0.778106 0.798510
Si Si2 0.221054 0.504815 0.796544
Si Si3 0.341051 0.057572 0.868424
Si Si4 0.198306 0.809269 0.874440
Si Si5 0.962056 0.618445 0.079648
Si Si6 0.097379 0.164323 0.117541
Si Si7 0.344702 0.684763 0.675967
Si Si8 0.314403 0.607792 0.990889
O O1 0.743026 0.659744 0.821328
O O2 0.985710 0.799467 0.870760
O O3 0.942673 0.805601 0.698048
O O4 0.689509 0.874994 0.803530
O O5 0.347037 0.559071 0.709847
O O6 0.025346 0.555193 0.799664
O O7 0.305417 0.537004 0.894889
O O8 0.254988 0.937051 0.876272
O O9 0.400305 0.097229 0.972278
O O10 0.280452 0.747203 0.776782
O O11 0.264885 0.732679 0.958683
O O12 0.771879 0.591014 0.139188
O O13 0.997972 0.741838 0.122626
O O14 0.156386 0.566752 0.068506
O O15 0.194564 0.283793 0.102761
O O16 0.003675 0.111083 0.031183
#
# Coordination Sequence:
#
# PCOD9135651 Si02
#       8
#     4   4   4   4   4   4   4   4
#     4  11  22  45  64  93 133 171 215 269 325 393
#     4  10  21  42  68  90 129 176 214 268 326 387
#     4  11  21  42  64  93 129 167 218 268 320 392
#     4  10  21  41  66  87 130 170 209 269 320 385
#     4   9  19  39  63  90 136 161 211 279 314 378
#     4   9  20  40  63  94 133 165 218 267 322 386
#     4   8  18  43  62  87 133 166 210 272 316 380
#     4  10  20  42  66  96 129 170 223 266 325 391
#
# _framework density 25.266895000000002
#
# number of rings (size 3 to 8) (size 9 to 14) (size 15 to 20)
#    0.750    1.500    5.000    0.000    1.750    2.000 
#   11.250    1.250    0.000    0.000    0.000    0.000 
#    0.000    0.000    0.000    0.000    0.000    0.000 
#
# Total GULP energy -89077.264914 kJ/mol
# GULP energy per Si atom -5567.329057 kJ/mol
# Density = 2.520939 g / cm^3
# Si number density = 25.266895 Si / 1000 Ang^3
#
#
#
# Elastic Constant Matrix: (Units=GPa)
#
#
# Indices 1 2 3 4 5 6 
#
# 1 76.6988 3.0994 22.7161 0.0000 4.4526 0.0000
# 2 3.0994 151.2073 23.7664 0.0000 -1.6780 0.0000
# 3 22.7161 23.7664 44.6034 0.0000 1.0961 0.0000
# 4 0.0000 0.0000 0.0000 20.4273 0.0000 7.7769
# 5 4.4526 -1.6780 1.0961 0.0000 26.4407 0.0000
# 6 0.0000 0.0000 0.0000 7.7769 0.0000 25.2364
#
#
#
# Elastic Compliance Matrix: (Units=1/GPa)
#
#
# Indices 1 2 3 4 5 6 
#
# 1 0.015622 0.000979 -0.008423 0.000000 -0.002219 0.000000
# 2 0.000979 0.007289 -0.004395 0.000000 0.000480 0.000000
# 3 -0.008423 -0.004395 0.029053 0.000000 -0.000065 0.000000
# 4 0.000000 0.000000 0.000000 0.055461 0.000000 -0.017091
# 5 -0.002219 0.000480 -0.000065 0.000000 0.038227 0.000000
# 6 0.000000 0.000000 0.000000 -0.017091 0.000000 0.044892
#
#
# Mechanical properties :
#
#
# Convention : Reuss Voigt Hill
#
# Bulk Modulus (GPa) = 35.35210 41.29705 38.32458
# Shear Modulus (GPa) = 22.35623 29.28271 25.81947
#
# Velocity S-wave (km/s) = 2.97779 3.40801 3.20014
# Velocity P-wave (km/s) = 5.08378 5.64498 5.37172
#
# Compressibility (1/GPa) = 0.02828686
#
# Stress axis : x y z
#
# Youngs Moduli (GPa) = 64.01202 137.18523 34.41998
#
# Poissons Ratio (x) = -0.13432 0.28993
# Poissons Ratio (y) = -0.06268 0.15126
# Poissons Ratio (z) = 0.53920 0.60286
#
# Static dielectric constant tensor:
#      x y z
#    x 2.002610 0.000000 -0.029450 
#    y 0.000000 2.048640 0.000000 
#    z -0.029450 0.000000 2.071550 
# 
# From -- ./inp_files/22736.got.cif
#   From: 2010.05.17/outbox.cif.g08.bks.cpg/sg9_12_cif.got.tgz:22736.got - 2010.06.03 20:04:27.
