data_PCOD9135446
_publ_section_title
;
Structure prediction by ZEFSAII (Michael W. Deem and Ramdas Pophale) SiO2 
 PCOD9135446
Probable space group: C C
;
_chemical_formula_sum "Si O2"
_cell_formula_units_Z 32
_cell_length_a 16.422004
_cell_length_b 11.798158
_cell_length_c 13.295211
_cell_angle_alpha 90.000000
_cell_angle_beta 33.318053
_cell_angle_gamma 90.000000
_cell_volume 1414.927661
_symmetry_space_group_name_H-M "C C"
_symmetry_group_IT_number 9
_symmetry_cell_setting 'monoclinic'
loop_
_space_group_symop_operation_xyz
x,y,z
x,-y,1/2+z
1/2+x,1/2+y,z
1/2+x,1/2-y,1/2+z
loop_
_atom_site_type_symbol
_atom_site_label
_atom_site_fract_x
_atom_site_fract_y
_atom_site_fract_z
Si Si1 0.924330 0.873203 0.104220
Si Si2 0.074407 0.106728 0.171290
Si Si3 0.217979 0.078365 0.395524
Si Si4 0.839906 0.237678 0.896482
Si Si5 0.352288 0.233199 0.979054
Si Si6 0.560819 0.563859 0.862155
Si Si7 0.587427 0.185593 0.283429
Si Si8 0.403088 0.018482 0.040284
O O1 0.853365 0.837954 0.282873
O O2 0.859870 0.806126 0.075232
O O3 0.101104 0.854971 0.944784
O O4 0.938704 0.005073 0.060171
O O5 0.933572 0.189828 0.311697
O O6 0.029674 0.000690 0.288886
O O7 0.195202 0.186483 0.102864
O O8 0.152315 0.043047 0.997727
O O9 0.241692 0.153780 0.468658
O O10 0.377339 0.070721 0.177115
O O11 0.989353 0.292104 0.784463
O O12 0.755226 0.174388 0.073407
O O13 0.433664 0.116460 0.927967
O O14 0.562868 0.697715 0.867327
O O15 0.735110 0.529476 0.698671
O O16 0.521480 0.079156 0.408522
#
# Coordination Sequence:
#
# PCOD9135446 Si02
#       8
#     4   4   4   4   4   4   4   4
#     4  10  21  38  68  93 119 166 221 264 303 394
#     4  10  20  40  64  92 126 169 208 267 319 385
#     4  11  21  42  66  92 128 172 210 259 334 384
#     4  12  21  37  64  93 119 159 223 257 306 380
#     4  10  21  40  65  94 126 168 216 258 327 388
#     4   9  19  39  63  85 124 170 204 250 334 376
#     4  12  22  40  61  92 128 168 210 260 322 391
#     4  10  21  40  63  87 126 172 206 257 325 386
#
# _framework density 22.615998000000001
#
# number of rings (size 3 to 8) (size 9 to 14) (size 15 to 20)
#    0.000    1.500    5.000    1.500    0.000    0.000 
#   11.250    0.000    0.000    0.000    0.000    0.000 
#    0.000    0.000    0.000    0.000    0.000    0.000 
#
# Total GULP energy -89180.966602 kJ/mol
# GULP energy per Si atom -5573.810413 kJ/mol
# Density = 2.256452 g / cm^3
# Si number density = 22.615998 Si / 1000 Ang^3
#
#
#
# Elastic Constant Matrix: (Units=GPa)
#
#
# Indices 1 2 3 4 5 6 
#
# 1 41.9255 -10.7998 -4.7391 0.0000 -3.9217 0.0000
# 2 -10.7998 90.1360 45.5957 0.0000 8.1130 0.0000
# 3 -4.7391 45.5957 87.2130 0.0000 14.4811 0.0000
# 4 0.0000 0.0000 0.0000 54.0919 0.0000 5.8335
# 5 -3.9217 8.1130 14.4811 0.0000 24.4020 0.0000
# 6 0.0000 0.0000 0.0000 5.8335 0.0000 31.7734
#
#
#
# Elastic Compliance Matrix: (Units=1/GPa)
#
#
# Indices 1 2 3 4 5 6 
#
# 1 0.024878 0.003094 -0.000842 0.000000 0.003469 0.000000
# 2 0.003094 0.015471 -0.007930 0.000000 0.000060 0.000000
# 3 -0.000842 -0.007930 0.016807 0.000000 -0.007473 0.000000
# 4 0.000000 0.000000 0.000000 0.018860 0.000000 -0.003463
# 5 0.003469 0.000060 -0.007473 0.000000 0.045953 0.000000
# 6 0.000000 0.000000 0.000000 -0.003463 0.000000 0.032109
#
#
# Mechanical properties :
#
#
# Convention : Reuss Voigt Hill
#
# Bulk Modulus (GPa) = 21.83344 31.04313 26.43828
# Shear Modulus (GPa) = 27.66998 34.66796 31.16897
#
# Velocity S-wave (km/s) = 3.50161 3.91947 3.71642
# Velocity P-wave (km/s) = 5.10130 5.85141 5.48918
#
# Compressibility (1/GPa) = 0.04580130
#
# Stress axis : x y z
#
# Youngs Moduli (GPa) = 40.19571 64.63572 59.49804
#
# Poissons Ratio (x) = -0.20001 0.05010
# Poissons Ratio (y) = -0.12439 0.47184
# Poissons Ratio (z) = 0.03384 0.51258
#
# Static dielectric constant tensor:
#      x y z
#    x 1.931100 0.000000 0.027100 
#    y 0.000000 1.855350 0.000000 
#    z 0.027100 0.000000 1.881270 
# 
# From -- ./inp_files/10632.got.cif
#   From: 2010.05.17/outbox.cif.g08.bks.cpg/sg9_6_cif.got.tgz:10632.got - 2010.06.03 20:04:27.
