data_PCOD9135738
_publ_section_title
;
Structure prediction by ZEFSAII (Michael W. Deem and Ramdas Pophale) SiO2 
 PCOD9135738
Probable space group: C C
;
_chemical_formula_sum "Si O2"
_cell_formula_units_Z 28
_cell_length_a 5.992260
_cell_length_b 18.215607
_cell_length_c 12.413716
_cell_angle_alpha 90.000000
_cell_angle_beta 115.242081
_cell_angle_gamma 90.000000
_cell_volume 1225.607586
_symmetry_space_group_name_H-M "C C"
_symmetry_group_IT_number 9
_symmetry_cell_setting 'monoclinic'
loop_
_space_group_symop_operation_xyz
x,y,z
x,-y,1/2+z
1/2+x,1/2+y,z
1/2+x,1/2-y,1/2+z
loop_
_atom_site_type_symbol
_atom_site_label
_atom_site_fract_x
_atom_site_fract_y
_atom_site_fract_z
Si Si1 0.944600 0.297647 0.486450
Si Si2 0.096482 0.082906 0.861683
Si Si3 0.448750 0.679373 0.209612
Si Si4 0.128077 0.675035 0.781428
Si Si5 0.700426 0.586496 0.639844
Si Si6 0.769897 0.857837 0.912864
Si Si7 0.774564 0.448278 0.775340
O O1 0.788972 0.371596 0.473003
O O2 0.782452 0.223951 0.468139
O O3 0.196414 0.294404 0.604000
O O4 0.023517 0.306824 0.378175
O O5 0.104215 0.111270 0.738471
O O6 0.831344 0.112545 0.841776
O O7 0.176083 0.998910 0.855441
O O8 0.660423 0.742294 0.244675
O O9 0.373008 0.657658 0.315091
O O10 0.562068 0.604852 0.188547
O O11 0.924715 0.639974 0.660373
O O12 0.471267 0.592423 0.515030
O O13 0.817080 0.507460 0.689844
O O14 0.510886 0.900208 0.855582
#
# Coordination Sequence:
#
# PCOD9135738 Si02
#       7
#     4   4   4   4   4   4   4
#     4  10  22  42  67  97 131 178 228 273 331 408
#     4   9  22  40  67  93 129 175 217 279 333 397
#     4  11  24  41  65 103 130 177 228 275 334 408
#     4  10  20  43  67  92 131 174 225 271 339 399
#     4   9  22  41  66  93 130 174 213 275 340 400
#     4  11  23  45  67  97 141 172 225 279 334 405
#     4  10  25  40  63 103 134 168 226 274 341 405
#
# _framework density 22.845813
#
# number of rings (size 3 to 8) (size 9 to 14) (size 15 to 20)
#    0.857    1.143    1.429    0.857    4.000    2.286 
#    5.143    0.000    0.000    0.000    0.000    0.000 
#    0.000    0.000    0.000    0.000    0.000    0.000 
#
# Total GULP energy -77985.518432 kJ/mol
# GULP energy per Si atom -5570.394174 kJ/mol
# Density = 2.279381 g / cm^3
# Si number density = 22.845813 Si / 1000 Ang^3
#
#
#
# Elastic Constant Matrix: (Units=GPa)
#
#
# Indices 1 2 3 4 5 6 
#
# 1 47.1578 51.6629 13.2634 0.0000 22.8230 0.0000
# 2 51.6629 169.2146 33.1705 0.0000 23.5053 0.0000
# 3 13.2634 33.1705 85.0354 0.0000 23.8989 0.0000
# 4 0.0000 0.0000 0.0000 23.8449 0.0000 17.3518
# 5 22.8230 23.5053 23.8989 0.0000 31.3668 0.0000
# 6 0.0000 0.0000 0.0000 17.3518 0.0000 50.6406
#
#
#
# Elastic Compliance Matrix: (Units=1/GPa)
#
#
# Indices 1 2 3 4 5 6 
#
# 1 0.045899 -0.011002 0.005346 0.000000 -0.029226 0.000000
# 2 -0.011002 0.009389 -0.002823 0.000000 0.003121 0.000000
# 3 0.005346 -0.002823 0.015939 0.000000 -0.013918 0.000000
# 4 0.000000 0.000000 0.000000 0.055868 0.000000 -0.019143
# 5 -0.029226 0.003121 -0.013918 0.000000 0.061412 0.000000
# 6 0.000000 0.000000 0.000000 -0.019143 0.000000 0.026306
#
#
# Mechanical properties :
#
#
# Convention : Reuss Voigt Hill
#
# Bulk Modulus (GPa) = 18.42674 55.28904 36.85789
# Shear Modulus (GPa) = 20.01120 34.72453 27.36787
#
# Velocity S-wave (km/s) = 2.96281 3.90289 3.46488
# Velocity P-wave (km/s) = 4.44832 6.67559 5.67235
#
# Compressibility (1/GPa) = 0.05426896
#
# Stress axis : x y z
#
# Youngs Moduli (GPa) = 21.78701 106.51290 62.73923
#
# Poissons Ratio (x) = 1.17182 -0.33542
# Poissons Ratio (y) = 0.23969 0.17713
# Poissons Ratio (z) = -0.11648 0.30072
#
# Static dielectric constant tensor:
#      x y z
#    x 1.891650 0.000000 -0.010890 
#    y 0.000000 1.903930 0.000000 
#    z -0.010890 0.000000 1.845650 
# 
# From -- ./inp_files/22025.got.cif
#   From: 2010.05.17/outbox.cif.g08.bks.cpg/sg9_12_cif.got.tgz:22025.got - 2010.06.03 20:04:27.
