data_PCOD9135672
_publ_section_title
;
Structure prediction by ZEFSAII (Michael W. Deem and Ramdas Pophale) SiO2 
 PCOD9135672
Probable space group: C C
;
_chemical_formula_sum "Si O2"
_cell_formula_units_Z 32
_cell_length_a 12.228465
_cell_length_b 8.319306
_cell_length_c 17.304560
_cell_angle_alpha 90.000000
_cell_angle_beta 125.722103
_cell_angle_gamma 90.000000
_cell_volume 1429.222578
_symmetry_space_group_name_H-M "C C"
_symmetry_group_IT_number 9
_symmetry_cell_setting 'monoclinic'
loop_
_space_group_symop_operation_xyz
x,y,z
x,-y,1/2+z
1/2+x,1/2+y,z
1/2+x,1/2-y,1/2+z
loop_
_atom_site_type_symbol
_atom_site_label
_atom_site_fract_x
_atom_site_fract_y
_atom_site_fract_z
Si Si1 0.003710 0.635287 0.608570
Si Si2 0.830060 0.815842 0.418554
Si Si3 0.742435 0.323493 0.741200
Si Si4 0.805544 0.678591 0.800808
Si Si5 0.825215 0.818530 0.966410
Si Si6 0.126888 0.330325 0.596939
Si Si7 0.256512 0.083950 0.067360
Si Si8 0.608640 0.297988 0.935191
O O1 0.085757 0.772905 0.686725
O O2 0.112894 0.504939 0.627029
O O3 0.946130 0.714487 0.507292
O O4 0.886285 0.534042 0.603403
O O5 0.825435 0.809819 0.323949
O O6 0.696422 0.726185 0.395477
O O7 0.830356 0.993053 0.454178
O O8 0.794420 0.487819 0.800753
O O9 0.758559 0.357392 0.656412
O O10 0.753292 0.748071 0.860365
O O11 0.720807 0.729889 0.691757
O O12 0.956219 0.747866 0.856237
O O13 0.760375 0.741024 0.015144
O O14 0.977612 0.748223 0.032823
O O15 0.169152 0.323044 0.525426
O O16 0.133853 0.970865 0.986550
#
# Coordination Sequence:
#
# PCOD9135672 Si02
#       8
#     4   4   4   4   4   4   4   4
#     4  10  24  44  67  96 141 179 235 295 358 425
#     4  11  24  42  67 101 133 185 233 291 361 424
#     4  12  24  42  72 102 139 184 235 292 354 430
#     4  11  22  41  70  97 135 183 232 287 354 429
#     4  10  23  45  67  94 138 177 231 292 354 425
#     4  10  20  42  68  95 130 180 224 292 347 415
#     4  10  23  46  67 100 140 188 233 294 359 424
#     4  10  22  40  68  97 142 176 229 289 353 418
#
# _framework density 22.389793999999998
#
# number of rings (size 3 to 8) (size 9 to 14) (size 15 to 20)
#    0.000    1.500    1.250    4.500    5.250    0.000 
#    0.000    1.250    8.250    0.000    0.000    0.000 
#    0.000    0.000    0.000    0.000    0.000    0.000 
#
# Total GULP energy -89334.045377 kJ/mol
# GULP energy per Si atom -5583.377836 kJ/mol
# Density = 2.233883 g / cm^3
# Si number density = 22.389794 Si / 1000 Ang^3
#
#
#
# Elastic Constant Matrix: (Units=GPa)
#
#
# Indices 1 2 3 4 5 6 
#
# 1 37.7097 26.3188 23.3027 0.0000 -13.7069 0.0000
# 2 26.3188 102.9211 17.9847 0.0000 -6.0887 0.0000
# 3 23.3027 17.9847 113.0171 0.0000 -7.1596 0.0000
# 4 0.0000 0.0000 0.0000 34.9987 0.0000 -3.8354
# 5 -13.7069 -6.0887 -7.1596 0.0000 30.0102 0.0000
# 6 0.0000 0.0000 0.0000 -3.8354 0.0000 22.4613
#
#
#
# Elastic Compliance Matrix: (Units=1/GPa)
#
#
# Indices 1 2 3 4 5 6 
#
# 1 0.042404 -0.008787 -0.006326 0.000000 0.016075 0.000000
# 2 -0.008787 0.011898 -0.000186 0.000000 -0.001644 0.000000
# 3 -0.006326 -0.000186 0.010150 0.000000 -0.000506 0.000000
# 4 0.000000 0.000000 0.000000 0.029117 0.000000 0.004972
# 5 0.016075 -0.001644 -0.000506 0.000000 0.040210 0.000000
# 6 0.000000 0.000000 0.000000 0.004972 0.000000 0.045370
#
#
# Mechanical properties :
#
#
# Convention : Reuss Voigt Hill
#
# Bulk Modulus (GPa) = 29.53868 43.20669 36.37268
# Shear Modulus (GPa) = 22.62112 29.89683 26.25897
#
# Velocity S-wave (km/s) = 3.18202 3.65812 3.42835
# Velocity P-wave (km/s) = 5.16932 6.09769 5.65260
#
# Compressibility (1/GPa) = 0.03385392
#
# Stress axis : x y z
#
# Youngs Moduli (GPa) = 23.58293 84.04502 98.52041
#
# Poissons Ratio (x) = 0.73849 0.62328
# Poissons Ratio (y) = 0.20722 0.01830
# Poissons Ratio (z) = 0.14920 0.01562
#
# Static dielectric constant tensor:
#      x y z
#    x 1.896540 0.000000 -0.010320 
#    y 0.000000 1.846730 0.000000 
#    z -0.010320 0.000000 1.802760 
# 
# From -- ./inp_files/30594.got.cif
#   From: 2010.05.17/outbox.cif.g08.bks.cpg/sg9_16_cif.got.tgz:30594.got - 2010.06.03 20:04:27.
