data_PCOD9135482
_publ_section_title
;
Structure prediction by ZEFSAII (Michael W. Deem and Ramdas Pophale) SiO2 
 PCOD9135482
Probable space group: C C
;
_chemical_formula_sum "Si O2"
_cell_formula_units_Z 20
_cell_length_a 9.740537
_cell_length_b 15.231627
_cell_length_c 12.638953
_cell_angle_alpha 90.000000
_cell_angle_beta 155.369917
_cell_angle_gamma 90.000000
_cell_volume 781.491705
_symmetry_space_group_name_H-M "C C"
_symmetry_group_IT_number 9
_symmetry_cell_setting 'monoclinic'
loop_
_space_group_symop_operation_xyz
x,y,z
x,-y,1/2+z
1/2+x,1/2+y,z
1/2+x,1/2-y,1/2+z
loop_
_atom_site_type_symbol
_atom_site_label
_atom_site_fract_x
_atom_site_fract_y
_atom_site_fract_z
Si Si1 0.358060 0.451104 0.855600
Si Si2 0.248615 0.962019 0.945055
Si Si3 0.877893 0.869167 0.098739
Si Si4 0.265177 0.195719 0.309610
Si Si5 0.747854 0.771029 0.720040
O O1 0.176531 0.373752 0.663572
O O2 0.134348 0.535400 0.690125
O O3 0.702452 0.455512 0.038884
O O4 0.341177 0.417751 0.961368
O O5 0.122542 0.884177 0.781452
O O6 0.069686 0.055198 0.797673
O O7 0.072015 0.780792 0.194995
O O8 0.541263 0.841557 0.920369
O O9 0.979880 0.242812 0.040465
O O10 0.625306 0.732926 0.523850
#
# Coordination Sequence:
#
# PCOD9135482 Si02
#       5
#     4   4   4   4   4
#     4  11  26  44  75 111 155 206 263 329 398 475
#     4  12  27  48  75 116 158 209 268 336 401 471
#     4  11  25  45  79 109 156 208 266 318 403 483
#     4  12  30  53  81 117 165 214 267 335 409 480
#     4  10  20  40  68 101 136 189 246 300 369 461
#
# _framework density 25.592082999999999
#
# number of rings (size 3 to 8) (size 9 to 14) (size 15 to 20)
#    0.000    0.800    4.000    2.400    8.400    3.200 
#    0.000    0.000    0.000    0.000    0.000    0.000 
#    0.000    0.000    0.000    0.000    0.000    0.000 
#
# Total GULP energy -55801.225664 kJ/mol
# GULP energy per Si atom -5580.122566 kJ/mol
# Density = 2.553383 g / cm^3
# Si number density = 25.592083 Si / 1000 Ang^3
#
#
#
# Elastic Constant Matrix: (Units=GPa)
#
#
# Indices 1 2 3 4 5 6 
#
# 1 163.8182 20.5592 33.3102 -0.0057 4.6675 -0.0014
# 2 20.5592 65.0353 15.2853 -0.0112 9.0250 -0.0029
# 3 33.3102 15.2853 86.1770 -0.0231 -12.7202 -0.0034
# 4 -0.0057 -0.0112 -0.0231 42.3299 -0.0046 -16.3534
# 5 4.6675 9.0250 -12.7202 -0.0046 30.4801 -0.0001
# 6 -0.0014 -0.0029 -0.0034 -16.3534 -0.0001 36.5644
#
#
#
# Elastic Compliance Matrix: (Units=1/GPa)
#
#
# Indices 1 2 3 4 5 6 
#
# 1 0.006864 -0.001289 -0.002689 -0.000001 -0.001791 -0.000001
# 2 -0.001289 0.017521 -0.003566 0.000003 -0.006478 0.000002
# 3 -0.002689 -0.003566 0.014378 0.000009 0.007468 0.000005
# 4 -0.000001 0.000003 0.000009 0.028559 0.000008 0.012773
# 5 -0.001791 -0.006478 0.007468 0.000008 0.038117 0.000004
# 6 -0.000001 0.000002 0.000005 0.012773 0.000004 0.033062
#
#
# Mechanical properties :
#
#
# Convention : Reuss Voigt Hill
#
# Bulk Modulus (GPa) = 42.23796 50.37110 46.30453
# Shear Modulus (GPa) = 30.96365 38.26662 34.61513
#
# Velocity S-wave (km/s) = 3.48212 3.87104 3.68172
# Velocity P-wave (km/s) = 5.71901 6.30119 6.01714
#
# Compressibility (1/GPa) = 0.02367539
#
# Stress axis : x y z
#
# Youngs Moduli (GPa) = 145.68936 57.07472 69.55024
#
# Poissons Ratio (x) = 0.07358 0.18701
# Poissons Ratio (y) = 0.18783 0.24799
# Poissons Ratio (z) = 0.39174 0.20351
#
# Static dielectric constant tensor:
#      x y z
#    x 2.049050 0.000000 0.054250 
#    y 0.000000 2.117540 -0.000010 
#    z 0.054250 -0.000010 2.099670 
# 
# From -- ./inp_files/439.got.cif
#   From: 2010.05.17/outbox.cif.g08.bks.cpg/sg9_1_cif.got.tgz:439.got - 2010.06.03 20:04:27.
