data_PCOD9135534
_publ_section_title
;
Structure prediction by ZEFSAII (Michael W. Deem and Ramdas Pophale) SiO2 
 PCOD9135534
Probable space group: C C
;
_chemical_formula_sum "Si O2"
_cell_formula_units_Z 24
_cell_length_a 11.666941
_cell_length_b 7.463199
_cell_length_c 24.215579
_cell_angle_alpha 90.000000
_cell_angle_beta 29.266135
_cell_angle_gamma 90.000000
_cell_volume 1030.783686
_symmetry_space_group_name_H-M "C C"
_symmetry_group_IT_number 9
_symmetry_cell_setting 'monoclinic'
loop_
_space_group_symop_operation_xyz
x,y,z
x,-y,1/2+z
1/2+x,1/2+y,z
1/2+x,1/2-y,1/2+z
loop_
_atom_site_type_symbol
_atom_site_label
_atom_site_fract_x
_atom_site_fract_y
_atom_site_fract_z
Si Si1 0.288150 0.123597 0.871530
Si Si2 0.722366 0.218376 0.990589
Si Si3 0.647350 0.129566 0.249302
Si Si4 0.131126 0.302057 0.046005
Si Si5 0.089771 0.551572 0.391944
Si Si6 0.937244 0.197169 0.515829
O O1 0.277781 0.178850 0.941149
O O2 0.248809 0.306040 0.856692
O O3 0.525150 0.012870 0.760627
O O4 0.075370 0.988230 0.945218
O O5 0.484545 0.287960 0.061526
O O6 0.932409 0.242680 0.857763
O O7 0.835148 0.345728 0.990527
O O8 0.682849 0.010765 0.016584
O O9 0.700314 0.029935 0.284850
O O10 0.869051 0.244963 0.140444
O O11 0.197276 0.281891 0.082653
O O12 0.067394 0.369201 0.434243
#
# Coordination Sequence:
#
# PCOD9135534 Si02
#       6
#     4   4   4   4   4   4
#     4  11  22  40  66  91 132 166 204 273 317 368
#     4   9  21  40  62  93 127 167 211 265 313 375
#     4   9  23  41  60  99 125 164 223 248 324 387
#     4  12  21  41  67  94 129 170 213 267 317 385
#     4  10  20  41  62  88 127 169 206 258 321 369
#     4  11  19  39  67  85 128 170 203 263 318 368
#
# _framework density 23.283256000000002
#
# number of rings (size 3 to 8) (size 9 to 14) (size 15 to 20)
#    1.000    0.667    5.000    0.000    0.000    1.333 
#    6.000    5.000    0.000    0.000    0.000    0.000 
#    0.000    0.000    0.000    0.000    0.000    0.000 
#
# Total GULP energy -66830.421496 kJ/mol
# GULP energy per Si atom -5569.201791 kJ/mol
# Density = 2.323026 g / cm^3
# Si number density = 23.283256 Si / 1000 Ang^3
#
#
#
# Elastic Constant Matrix: (Units=GPa)
#
#
# Indices 1 2 3 4 5 6 
#
# 1 104.3523 6.6731 13.2390 0.0000 -11.3353 0.0000
# 2 6.6731 90.4103 13.8659 0.0000 12.3446 0.0001
# 3 13.2390 13.8659 51.1529 -0.0001 -16.9968 -0.0002
# 4 0.0000 0.0000 -0.0001 21.1081 -0.0001 -10.9852
# 5 -11.3353 12.3446 -16.9968 -0.0001 19.1578 0.0000
# 6 0.0000 0.0001 -0.0002 -10.9852 0.0000 43.7248
#
#
#
# Elastic Compliance Matrix: (Units=1/GPa)
#
#
# Indices 1 2 3 4 5 6 
#
# 1 0.010500 -0.001893 0.000376 0.000000 0.007766 0.000000
# 2 -0.001893 0.015636 -0.010591 0.000000 -0.020591 0.000000
# 3 0.000376 -0.010591 0.034974 0.000001 0.038076 0.000000
# 4 0.000000 0.000000 0.000001 0.054501 0.000001 0.013693
# 5 0.007766 -0.020591 0.038076 0.000001 0.103843 0.000001
# 6 0.000000 0.000000 0.000000 0.013693 0.000001 0.026310
#
#
# Mechanical properties :
#
#
# Convention : Reuss Voigt Hill
#
# Bulk Modulus (GPa) = 27.10364 34.83017 30.96690
# Shear Modulus (GPa) = 17.71305 30.94063 24.32684
#
# Velocity S-wave (km/s) = 2.76119 3.64933 3.23588
# Velocity P-wave (km/s) = 4.67243 5.72264 5.22400
#
# Compressibility (1/GPa) = 0.03689542
#
# Stress axis : x y z
#
# Youngs Moduli (GPa) = 95.23950 63.95419 28.59242
#
# Poissons Ratio (x) = 0.12107 -0.01075
# Poissons Ratio (y) = 0.18029 0.30281
# Poissons Ratio (z) = -0.03582 0.67731
#
# Static dielectric constant tensor:
#      x y z
#    x 1.969290 0.000000 -0.006740 
#    y 0.000000 1.867110 0.000000 
#    z -0.006740 0.000000 1.901280 
# 
# From -- ./inp_files/15933.got.cif
#   From: 2010.05.17/outbox.cif.g08.bks.cpg/sg9_8_cif.got.tgz:15933.got - 2010.06.03 20:04:27.
