data_PCOD9135298
_publ_section_title
;
Structure prediction by ZEFSAII (Michael W. Deem and Ramdas Pophale) SiO2 
 PCOD9135298
Probable space group: C C
;
_chemical_formula_sum "Si O2"
_cell_formula_units_Z 32
_cell_length_a 7.254683
_cell_length_b 16.714972
_cell_length_c 10.828855
_cell_angle_alpha 90.000000
_cell_angle_beta 83.505102
_cell_angle_gamma 90.000000
_cell_volume 1304.698964
_symmetry_space_group_name_H-M "C C"
_symmetry_group_IT_number 9
_symmetry_cell_setting 'monoclinic'
loop_
_space_group_symop_operation_xyz
x,y,z
x,-y,1/2+z
1/2+x,1/2+y,z
1/2+x,1/2-y,1/2+z
loop_
_atom_site_type_symbol
_atom_site_label
_atom_site_fract_x
_atom_site_fract_y
_atom_site_fract_z
Si Si1 0.387720 0.884053 0.309620
Si Si2 0.150028 0.502336 0.230076
Si Si3 0.426577 0.863592 0.887658
Si Si4 0.925217 0.747784 0.161840
Si Si5 0.175404 0.370930 0.515256
Si Si6 0.288957 0.271904 0.924015
Si Si7 0.985103 0.046997 0.881567
Si Si8 0.546901 0.609756 0.523881
O O1 0.517821 0.886291 0.423902
O O2 0.326801 0.791798 0.314527
O O3 0.537970 0.921479 0.205679
O O4 0.194766 0.932793 0.326289
O O5 0.004496 0.554547 0.322630
O O6 0.340417 0.488870 0.291350
O O7 0.174529 0.555561 0.108639
O O8 0.363389 0.800483 0.785697
O O9 0.604595 0.820387 0.925659
O O10 0.265428 0.880436 0.995883
O O11 0.114477 0.706180 0.096918
O O12 0.963645 0.843363 0.149600
O O13 0.784902 0.731073 0.059529
O O14 0.377688 0.374088 0.438994
O O15 0.455922 0.334993 0.923583
O O16 0.000900 0.980344 0.989553
#
# Coordination Sequence:
#
# PCOD9135298 Si02
#       8
#     4   4   4   4   4   4   4   4
#     4  10  21  38  59  82 117 150 191 238 289 337
#     4  10  20  39  59  85 113 152 195 234 285 347
#     4  11  19  39  65  79 118 159 183 241 290 333
#     4   8  20  41  56  88 113 147 201 226 281 357
#     4   9  21  39  59  81 118 151 190 238 285 345
#     4   9  21  40  54  87 116 144 196 238 279 344
#     4  11  21  38  60  85 114 152 192 239 287 335
#     4  10  21  40  58  87 115 147 196 236 280 346
#
# _framework density 24.526730000000001
#
# number of rings (size 3 to 8) (size 9 to 14) (size 15 to 20)
#    0.750    1.500    2.500    0.000    1.750    1.000 
#   11.250    0.000    0.000    0.000    0.000    0.000 
#    0.000    0.000    0.000    0.000    0.000    0.000 
#
# Total GULP energy -89298.026772 kJ/mol
# GULP energy per Si atom -5581.126673 kJ/mol
# Density = 2.447091 g / cm^3
# Si number density = 24.526730 Si / 1000 Ang^3
#
#
#
# Elastic Constant Matrix: (Units=GPa)
#
#
# Indices 1 2 3 4 5 6 
#
# 1 138.4523 31.0941 9.4207 0.0000 4.5238 0.0000
# 2 31.0941 87.7906 7.2219 0.0000 -1.5953 0.0000
# 3 9.4207 7.2219 30.9927 0.0000 4.1613 0.0000
# 4 0.0000 0.0000 0.0000 603.1090 0.0000 -136.0904
# 5 4.5238 -1.5953 4.1613 0.0000 25.1949 0.0000
# 6 0.0000 0.0000 0.0000 -136.0904 0.0000 70.8399
#
#
#
# Elastic Compliance Matrix: (Units=1/GPa)
#
#
# Indices 1 2 3 4 5 6 
#
# 1 0.007987 -0.002721 -0.001614 0.000000 -0.001340 0.000000
# 2 -0.002721 0.012576 -0.002328 0.000000 0.001669 0.000000
# 3 -0.001614 -0.002328 0.034034 0.000000 -0.005479 0.000000
# 4 0.000000 0.000000 0.000000 0.002927 0.000000 0.005623
# 5 -0.001340 0.001669 -0.005479 0.000000 0.040942 0.000000
# 6 0.000000 0.000000 0.000000 0.005623 0.000000 0.024918
#
#
# Mechanical properties :
#
#
# Convention : Reuss Voigt Hill
#
# Bulk Modulus (GPa) = 24.22879 39.18991 31.70935
# Shear Modulus (GPa) = 33.22998 153.79537 93.51268
#
# Velocity S-wave (km/s) = 3.68482 7.92725 6.18139
# Velocity P-wave (km/s) = 5.29186 9.99007 7.99392
#
# Compressibility (1/GPa) = 0.04127321
#
# Stress axis : x y z
#
# Youngs Moduli (GPa) = 125.19884 79.51575 29.38219
#
# Poissons Ratio (x) = 0.21633 0.04742
# Poissons Ratio (y) = 0.34061 0.06839
# Poissons Ratio (z) = 0.20207 0.18508
#
# Static dielectric constant tensor:
#      x y z
#    x 1.899070 0.000000 0.004590 
#    y 0.000000 1.793600 0.000000 
#    z 0.004590 0.000000 2.039420 
# 
# From -- ./inp_files/21961.got.cif
#   From: 2010.05.17/outbox.cif.g08.bks.cpg/sg9_11_cif.got.tgz:21961.got - 2010.06.03 20:04:27.
