data_PCOD9135585
_publ_section_title
;
Structure prediction by ZEFSAII (Michael W. Deem and Ramdas Pophale) SiO2 
 PCOD9135585
Probable space group: C C
;
_chemical_formula_sum "Si O2"
_cell_formula_units_Z 28
_cell_length_a 18.314865
_cell_length_b 6.811428
_cell_length_c 13.039258
_cell_angle_alpha 90.000000
_cell_angle_beta 43.850992
_cell_angle_gamma 90.000000
_cell_volume 1126.920823
_symmetry_space_group_name_H-M "C C"
_symmetry_group_IT_number 9
_symmetry_cell_setting 'monoclinic'
loop_
_space_group_symop_operation_xyz
x,y,z
x,-y,1/2+z
1/2+x,1/2+y,z
1/2+x,1/2-y,1/2+z
loop_
_atom_site_type_symbol
_atom_site_label
_atom_site_fract_x
_atom_site_fract_y
_atom_site_fract_z
Si Si1 0.823600 0.163250 0.385220
Si Si2 0.457809 0.756477 0.985068
Si Si3 0.687009 0.857582 0.419765
Si Si4 0.162153 0.093192 0.737983
Si Si5 0.761068 0.010092 0.147644
Si Si6 0.022272 0.895709 0.208147
Si Si7 0.833696 0.473835 0.728852
O O1 0.806003 0.149168 0.524853
O O2 0.829480 0.372073 0.325924
O O3 0.720344 0.052818 0.445786
O O4 0.933470 0.043779 0.259305
O O5 0.565194 0.654513 0.909188
O O6 0.468859 0.748558 0.849272
O O7 0.359328 0.612178 0.107018
O O8 0.437450 0.961980 0.061117
O O9 0.679367 0.919612 0.309174
O O10 0.589048 0.733180 0.560854
O O11 0.796016 0.730189 0.312556
O O12 0.208872 0.299532 0.647695
O O13 0.108355 0.992300 0.694470
O O14 0.247436 0.005567 0.726148
#
# Coordination Sequence:
#
# PCOD9135585 Si02
#       7
#     4   4   4   4   4   4   4
#     4  11  22  46  63  98 141 179 219 287 343 400
#     4   8  18  40  64  89 128 180 202 281 333 399
#     4  12  24  40  69 102 127 182 227 281 339 413
#     4   9  18  39  68  89 127 176 215 271 336 393
#     4  10  20  41  68  92 140 175 225 285 341 397
#     4   9  22  38  73  92 133 177 224 274 345 399
#     4  11  24  38  69  96 136 175 224 275 341 407
#
# _framework density 24.846464999999998
#
# number of rings (size 3 to 8) (size 9 to 14) (size 15 to 20)
#    0.857    1.143    4.286    0.000    2.000    2.286 
#    0.000    0.000    9.429    0.000    0.000    0.000 
#    0.000    0.000    0.000    0.000    0.000    0.000 
#
# Total GULP energy -78084.716500 kJ/mol
# GULP energy per Si atom -5577.479750 kJ/mol
# Density = 2.478991 g / cm^3
# Si number density = 24.846465 Si / 1000 Ang^3
#
#
#
# Elastic Constant Matrix: (Units=GPa)
#
#
# Indices 1 2 3 4 5 6 
#
# 1 79.7078 17.2639 5.7791 -0.0019 -3.1534 0.0006
# 2 17.2639 61.7736 10.6866 -0.0060 2.4827 0.0044
# 3 5.7791 10.6866 117.6168 -0.0033 -0.8617 0.0028
# 4 -0.0019 -0.0060 -0.0033 23.8160 0.0019 2.8135
# 5 -3.1534 2.4827 -0.8617 0.0019 30.8911 -0.0009
# 6 0.0006 0.0044 0.0028 2.8135 -0.0009 20.0715
#
#
#
# Elastic Compliance Matrix: (Units=1/GPa)
#
#
# Indices 1 2 3 4 5 6 
#
# 1 0.013451 -0.003773 -0.000306 0.000000 0.001668 0.000001
# 2 -0.003773 0.017563 -0.001424 0.000005 -0.001836 -0.000004
# 3 -0.000306 -0.001424 0.008649 0.000001 0.000324 -0.000001
# 4 0.000000 0.000005 0.000001 0.042696 -0.000003 -0.005985
# 5 0.001668 -0.001836 0.000324 -0.000003 0.032699 0.000002
# 6 0.000001 -0.000004 -0.000001 -0.005985 0.000002 0.050661
#
#
# Mechanical properties :
#
#
# Convention : Reuss Voigt Hill
#
# Bulk Modulus (GPa) = 34.89547 36.28414 35.58981
# Shear Modulus (GPa) = 26.84183 29.98029 28.41106
#
# Velocity S-wave (km/s) = 3.29037 3.47742 3.38518
# Velocity P-wave (km/s) = 5.33950 5.54601 5.44374
#
# Compressibility (1/GPa) = 0.02865701
#
# Stress axis : x y z
#
# Youngs Moduli (GPa) = 74.34252 56.93849 115.62087
#
# Poissons Ratio (x) = 0.21485 0.03536
# Poissons Ratio (y) = 0.28052 0.16462
# Poissons Ratio (z) = 0.02274 0.08107
#
# Static dielectric constant tensor:
#      x y z
#    x 1.988670 0.000000 0.017470 
#    y 0.000000 1.997330 0.000000 
#    z 0.017470 0.000000 2.049120 
# 
# From -- ./inp_files/27210.got.cif
#   From: 2010.05.17/outbox.cif.g08.bks.cpg/sg9_14_cif.got.tgz:27210.got - 2010.06.03 20:04:27.
