data_PCOD9135802
_publ_section_title
;
Structure prediction by ZEFSAII (Michael W. Deem and Ramdas Pophale) SiO2 
 PCOD9135802
Probable space group: C C
;
_chemical_formula_sum "Si O2"
_cell_formula_units_Z 24
_cell_length_a 12.419541
_cell_length_b 7.204574
_cell_length_c 13.231456
_cell_angle_alpha 90.000000
_cell_angle_beta 66.019532
_cell_angle_gamma 90.000000
_cell_volume 1081.726670
_symmetry_space_group_name_H-M "C C"
_symmetry_group_IT_number 9
_symmetry_cell_setting 'monoclinic'
loop_
_space_group_symop_operation_xyz
x,y,z
x,-y,1/2+z
1/2+x,1/2+y,z
1/2+x,1/2-y,1/2+z
loop_
_atom_site_type_symbol
_atom_site_label
_atom_site_fract_x
_atom_site_fract_y
_atom_site_fract_z
Si Si1 0.519580 0.921916 0.187710
Si Si2 0.872908 0.832127 0.470890
Si Si3 0.029405 0.170988 0.362415
Si Si4 0.250794 0.442128 0.712104
Si Si5 0.790864 0.676574 0.295188
Si Si6 0.081720 0.572367 0.434666
O O1 0.625247 0.026045 0.205217
O O2 0.398862 0.037497 0.237545
O O3 0.505243 0.732824 0.256428
O O4 0.569704 0.895781 0.057345
O O5 0.822148 0.824004 0.603994
O O6 0.792141 0.760352 0.409429
O O7 0.984869 0.701145 0.421585
O O8 0.925380 0.037618 0.436201
O O9 0.162259 0.090163 0.321068
O O10 0.043661 0.361083 0.421582
O O11 0.304755 0.645436 0.715256
O O12 0.208124 0.376343 0.838571
#
# Coordination Sequence:
#
# PCOD9135802 Si02
#       6
#     4   4   4   4   4   4
#     4  10  20  45  66  93 136 167 214 273 320 383
#     4  12  23  42  69  98 128 176 217 263 331 384
#     4  10  24  43  65 103 129 166 221 264 325 388
#     4  10  22  39  67  95 129 172 214 268 317 381
#     4  10  21  44  69  95 134 168 211 275 321 383
#     4  10  22  43  64  94 134 167 215 269 318 381
#
# _framework density 22.186751000000001
#
# number of rings (size 3 to 8) (size 9 to 14) (size 15 to 20)
#    0.000    2.000    3.333    3.000    2.333    1.333 
#    6.000    1.667    0.000    0.000    0.000    0.000 
#    0.000    0.000    0.000    0.000    0.000    0.000 
#
# Total GULP energy -66973.212516 kJ/mol
# GULP energy per Si atom -5581.101043 kJ/mol
# Density = 2.213625 g / cm^3
# Si number density = 22.186751 Si / 1000 Ang^3
#
#
#
# Elastic Constant Matrix: (Units=GPa)
#
#
# Indices 1 2 3 4 5 6 
#
# 1 78.5179 28.8837 37.8544 0.0000 5.2667 0.0000
# 2 28.8837 49.8491 32.0011 0.0000 -7.8277 0.0000
# 3 37.8544 32.0011 165.1802 0.0000 10.5029 0.0000
# 4 0.0000 0.0000 0.0000 15.8714 0.0000 -10.5969
# 5 5.2667 -7.8277 10.5029 0.0000 29.5912 0.0000
# 6 0.0000 0.0000 0.0000 -10.5969 0.0000 26.4269
#
#
#
# Elastic Compliance Matrix: (Units=1/GPa)
#
#
# Indices 1 2 3 4 5 6 
#
# 1 0.017554 -0.009815 -0.001798 0.000000 -0.005082 0.000000
# 2 -0.009815 0.030310 -0.004342 0.000000 0.011306 0.000000
# 3 -0.001798 -0.004342 0.007530 0.000000 -0.003501 0.000000
# 4 0.000000 0.000000 0.000000 0.086042 0.000000 0.034502
# 5 -0.005082 0.011306 -0.003501 0.000000 0.038932 0.000000
# 6 0.000000 0.000000 0.000000 0.034502 0.000000 0.051675
#
#
# Mechanical properties :
#
#
# Convention : Reuss Voigt Hill
#
# Bulk Modulus (GPa) = 42.58157 54.55841 48.56999
# Shear Modulus (GPa) = 18.39710 27.36508 22.88109
#
# Velocity S-wave (km/s) = 2.88270 3.51579 3.21486
# Velocity P-wave (km/s) = 5.50581 6.41287 5.97657
#
# Compressibility (1/GPa) = 0.02348434
#
# Stress axis : x y z
#
# Youngs Moduli (GPa) = 56.96565 32.99225 132.80481
#
# Poissons Ratio (x) = 0.32382 0.23882
# Poissons Ratio (y) = 0.55912 0.57659
# Poissons Ratio (z) = 0.10244 0.14324
#
# Static dielectric constant tensor:
#      x y z
#    x 1.850890 0.000000 0.043950 
#    y 0.000000 1.821860 0.000000 
#    z 0.043950 0.000000 1.880400 
# 
# From -- ./inp_files/24011.got.cif
#   From: 2010.05.17/outbox.cif.g08.bks.cpg/sg9_13_cif.got.tgz:24011.got - 2010.06.03 20:04:27.
