data_PCOD9135432
_publ_section_title
;
Structure prediction by ZEFSAII (Michael W. Deem and Ramdas Pophale) SiO2 
 PCOD9135432
Probable space group: C C
;
_chemical_formula_sum "Si O2"
_cell_formula_units_Z 32
_cell_length_a 18.574554
_cell_length_b 11.975047
_cell_length_c 9.338767
_cell_angle_alpha 90.000000
_cell_angle_beta 134.165264
_cell_angle_gamma 90.000000
_cell_volume 1490.067886
_symmetry_space_group_name_H-M "C C"
_symmetry_group_IT_number 9
_symmetry_cell_setting 'monoclinic'
loop_
_space_group_symop_operation_xyz
x,y,z
x,-y,1/2+z
1/2+x,1/2+y,z
1/2+x,1/2-y,1/2+z
loop_
_atom_site_type_symbol
_atom_site_label
_atom_site_fract_x
_atom_site_fract_y
_atom_site_fract_z
Si Si1 0.037710 0.595444 0.505390
Si Si2 0.671704 0.222479 0.207161
Si Si3 0.811166 0.896622 0.296355
Si Si4 0.368686 0.585131 0.575682
Si Si5 0.994743 0.718697 0.181507
Si Si6 0.816726 0.364151 0.807713
Si Si7 0.631874 0.054541 0.930047
Si Si8 0.289958 0.076901 0.945750
O O1 0.048710 0.697532 0.409372
O O2 0.115275 0.565345 0.738685
O O3 0.037947 0.492642 0.392392
O O4 0.936105 0.620594 0.449035
O O5 0.766062 0.155344 0.405461
O O6 0.574667 0.197509 0.168966
O O7 0.703003 0.350448 0.252313
O O8 0.657649 0.173888 0.030398
O O9 0.792336 0.766140 0.297122
O O10 0.851484 0.963050 0.489043
O O11 0.888414 0.907089 0.271405
O O12 0.717518 0.967669 0.101068
O O13 0.453159 0.656440 0.613319
O O14 0.896485 0.637108 0.048087
O O15 0.787046 0.450233 0.889832
O O16 0.776570 0.403960 0.596819
#
# Coordination Sequence:
#
# PCOD9135432 Si02
#       8
#     4   4   4   4   4   4   4   4
#     4  11  20  35  64  93 124 159 213 271 316 372
#     4  10  20  40  63  91 130 165 209 270 322 374
#     4  11  21  42  63  93 132 166 211 272 325 380
#     4  10  21  41  64  95 124 168 210 262 333 381
#     4  10  20  40  66  90 129 166 209 274 318 379
#     4  11  22  42  62  93 130 169 213 266 326 381
#     4  11  22  35  65 100 121 161 226 271 313 382
#     4  10  22  41  65  91 128 170 215 264 325 385
#
# _framework density 21.475532000000001
#
# number of rings (size 3 to 8) (size 9 to 14) (size 15 to 20)
#    0.000    1.500    3.750    5.250    0.000    0.000 
#   11.250    2.500    0.000    0.000    0.000    0.000 
#    0.000    0.000    0.000    0.000    0.000    0.000 
#
# Total GULP energy -89288.397332 kJ/mol
# GULP energy per Si atom -5580.524833 kJ/mol
# Density = 2.142665 g / cm^3
# Si number density = 21.475532 Si / 1000 Ang^3
#
#
#
# Elastic Constant Matrix: (Units=GPa)
#
#
# Indices 1 2 3 4 5 6 
#
# 1 49.5036 21.7734 16.2293 0.0000 -7.3270 0.0000
# 2 21.7734 161.6166 54.5811 0.0000 -19.7795 0.0000
# 3 16.2293 54.5811 72.2691 0.0000 -17.8763 0.0000
# 4 0.0000 0.0000 0.0000 30.7960 0.0000 -4.0808
# 5 -7.3270 -19.7795 -17.8763 0.0000 25.5698 0.0000
# 6 0.0000 0.0000 0.0000 -4.0808 0.0000 19.4766
#
#
#
# Elastic Compliance Matrix: (Units=1/GPa)
#
#
# Indices 1 2 3 4 5 6 
#
# 1 0.022358 -0.001610 -0.003057 0.000000 0.003024 0.000000
# 2 -0.001610 0.008553 -0.005532 0.000000 0.002287 0.000000
# 3 -0.003057 -0.005532 0.021070 0.000000 0.009575 0.000000
# 4 0.000000 0.000000 0.000000 0.033399 0.000000 0.006998
# 5 0.003024 0.002287 0.009575 0.000000 0.048439 0.000000
# 6 0.000000 0.000000 0.000000 0.006998 0.000000 0.052810
#
#
# Mechanical properties :
#
#
# Convention : Reuss Voigt Hill
#
# Bulk Modulus (GPa) = 31.66216 52.06186 41.86201
# Shear Modulus (GPa) = 22.98272 27.88884 25.43578
#
# Velocity S-wave (km/s) = 3.27491 3.60756 3.44526
# Velocity P-wave (km/s) = 5.39216 6.45351 5.94656
#
# Compressibility (1/GPa) = 0.03158345
#
# Stress axis : x y z
#
# Youngs Moduli (GPa) = 44.72588 116.92461 47.45998
#
# Poissons Ratio (x) = 0.18819 0.14510
# Poissons Ratio (y) = 0.07199 0.26255
# Poissons Ratio (z) = 0.13674 0.64684
#
# Static dielectric constant tensor:
#      x y z
#    x 1.862670 0.000000 0.041030 
#    y 0.000000 1.790760 0.000000 
#    z 0.041030 0.000000 1.818280 
# 
# From -- ./inp_files/11603.got.cif
#   From: 2010.05.17/outbox.cif.g08.bks.cpg/sg9_6_cif.got.tgz:11603.got - 2010.06.03 20:04:27.
