data_PCOD9135072
_publ_section_title
;
Structure prediction by ZEFSAII (Michael W. Deem and Ramdas Pophale) SiO2 
 PCOD9135072
Probable space group: C C
;
_chemical_formula_sum "Si O2"
_cell_formula_units_Z 32
_cell_length_a 11.565485
_cell_length_b 16.580188
_cell_length_c 16.032256
_cell_angle_alpha 90.000000
_cell_angle_beta 153.069253
_cell_angle_gamma 90.000000
_cell_volume 1392.396529
_symmetry_space_group_name_H-M "C C"
_symmetry_group_IT_number 9
_symmetry_cell_setting 'monoclinic'
loop_
_space_group_symop_operation_xyz
x,y,z
x,-y,1/2+z
1/2+x,1/2+y,z
1/2+x,1/2-y,1/2+z
loop_
_atom_site_type_symbol
_atom_site_label
_atom_site_fract_x
_atom_site_fract_y
_atom_site_fract_z
Si Si1 0.020680 0.820638 0.307950
Si Si2 0.430814 0.436988 0.950730
Si Si3 0.794881 0.087558 0.097519
Si Si4 0.776992 0.121963 0.904579
Si Si5 0.260687 0.414541 0.011759
Si Si6 0.268370 0.152463 0.143594
Si Si7 0.455183 0.923665 0.535912
Si Si8 0.768099 0.587769 0.505953
O O1 0.111147 0.852484 0.456189
O O2 0.253689 0.852112 0.402920
O O3 0.963126 0.727076 0.269637
O O4 0.780119 0.860464 0.106997
O O5 0.363644 0.530411 0.931415
O O6 0.430659 0.392661 0.039948
O O7 0.186047 0.401156 0.745697
O O8 0.651511 0.431820 0.023113
O O9 0.576302 0.067618 0.023273
O O10 0.038100 0.123990 0.302618
O O11 0.709205 0.130547 0.958138
O O12 0.868953 0.999659 0.110870
O O13 0.526951 0.137718 0.688115
O O14 0.041064 0.168556 0.061524
O O15 0.964550 0.419145 0.792156
O O16 0.346150 0.005463 0.507439
#
# Coordination Sequence:
#
# PCOD9135072 Si02
#       8
#     4   4   4   4   4   4   4   4
#     4  12  24  42  64  91 126 177 230 272 317 387
#     4   9  20  37  61  97 135 162 204 273 339 399
#     4  10  23  36  63 103 132 170 201 274 348 402
#     4  10  24  36  62  93 137 169 211 266 338 401
#     4  11  23  38  66  96 136 168 217 272 337 396
#     4  12  26  43  62  96 126 179 233 274 315 394
#     4  10  20  37  63  96 137 164 217 263 335 399
#     4  10  20  37  59 100 133 167 197 266 343 392
#
# _framework density 22.981959
#
# number of rings (size 3 to 8) (size 9 to 14) (size 15 to 20)
#    0.000    1.500    3.750    0.750   10.500    0.000 
#    0.000    0.000    0.000    3.000    0.000    0.000 
#    0.000    0.000    0.000    0.000    0.000    0.000 
#
# Total GULP energy -89202.155810 kJ/mol
# GULP energy per Si atom -5575.134738 kJ/mol
# Density = 2.292965 g / cm^3
# Si number density = 22.981959 Si / 1000 Ang^3
#
#
#
# Elastic Constant Matrix: (Units=GPa)
#
#
# Indices 1 2 3 4 5 6 
#
# 1 126.8303 -8.2732 53.3344 0.0111 -10.3860 0.0062
# 2 -8.2732 9.4180 17.4974 0.0030 -0.8085 -0.0003
# 3 53.3344 17.4974 142.3559 0.0013 -10.4288 -0.0084
# 4 0.0111 0.0030 0.0013 16.9031 0.0000 -0.1883
# 5 -10.3860 -0.8085 -10.4288 0.0000 40.1152 -0.0037
# 6 0.0062 -0.0003 -0.0084 -0.1883 -0.0037 5.1146
#
#
#
# Elastic Compliance Matrix: (Units=1/GPa)
#
#
# Indices 1 2 3 4 5 6 
#
# 1 0.013189 0.026792 -0.008099 -0.000013 0.001849 -0.000027
# 2 0.026792 0.192134 -0.033500 -0.000050 0.002100 -0.000076
# 3 -0.008099 -0.033500 0.014245 0.000011 0.000931 0.000032
# 4 -0.000013 -0.000050 0.000011 0.059185 -0.000001 0.002179
# 5 0.001849 0.002100 0.000931 -0.000001 0.025691 0.000018
# 6 -0.000027 -0.000076 0.000032 0.002179 0.000018 0.195598
#
#
# Mechanical properties :
#
#
# Convention : Reuss Voigt Hill
#
# Bulk Modulus (GPa) = 5.26440 44.85792 25.06116
# Shear Modulus (GPa) = 8.43207 26.82964 17.63086
#
# Velocity S-wave (km/s) = 1.91754 3.42046 2.77277
# Velocity P-wave (km/s) = 2.68296 5.92963 4.60211
#
# Compressibility (1/GPa) = 0.18995518
#
# Stress axis : x y z
#
# Youngs Moduli (GPa) = 75.81789 5.20470 70.20103
#
# Poissons Ratio (x) = -0.13945 0.56857
# Poissons Ratio (y) = -2.03133 2.35172
# Poissons Ratio (z) = 0.61406 0.17436
#
# Static dielectric constant tensor:
#      x y z
#    x 1.916000 0.000000 0.004450 
#    y 0.000000 1.929850 0.000000 
#    z 0.004450 0.000000 1.918880 
# 
# From -- ./inp_files/25052.got.cif
#   From: 2010.05.17/outbox.cif.g08.bks.cpg/sg9_13_cif.got.tgz:25052.got - 2010.06.03 20:04:27.
