data_PCOD9135377
_publ_section_title
;
Structure prediction by ZEFSAII (Michael W. Deem and Ramdas Pophale) SiO2 
 PCOD9135377
Probable space group: C C
;
_chemical_formula_sum "Si O2"
_cell_formula_units_Z 28
_cell_length_a 11.892852
_cell_length_b 12.641847
_cell_length_c 8.950789
_cell_angle_alpha 90.000000
_cell_angle_beta 123.855055
_cell_angle_gamma 90.000000
_cell_volume 1117.560687
_symmetry_space_group_name_H-M "C C"
_symmetry_group_IT_number 9
_symmetry_cell_setting 'monoclinic'
loop_
_space_group_symop_operation_xyz
x,y,z
x,-y,1/2+z
1/2+x,1/2+y,z
1/2+x,1/2-y,1/2+z
loop_
_atom_site_type_symbol
_atom_site_label
_atom_site_fract_x
_atom_site_fract_y
_atom_site_fract_z
Si Si1 0.063640 0.710404 0.223870
Si Si2 0.610632 0.421095 0.075031
Si Si3 0.205109 0.649642 0.066536
Si Si4 0.383878 0.404962 0.449871
Si Si5 0.948825 0.292789 0.179440
Si Si6 0.275759 0.750346 0.640551
Si Si7 0.759447 0.572942 0.377483
O O1 0.157278 0.734422 0.434770
O O2 0.909296 0.700713 0.160255
O O3 0.066650 0.812776 0.117876
O O4 0.138161 0.622796 0.175202
O O5 0.652051 0.421786 0.932804
O O6 0.899877 0.400145 0.063351
O O7 0.734021 0.467659 0.265527
O O8 0.285960 0.570459 0.017933
O O9 0.081296 0.687804 0.871346
O O10 0.319353 0.742714 0.173644
O O11 0.460700 0.298655 0.564343
O O12 0.309194 0.360168 0.248625
O O13 0.486387 0.497948 0.496157
O O14 0.242787 0.833290 0.746493
#
# Coordination Sequence:
#
# PCOD9135377 Si02
#       7
#     4   4   4   4   4   4   4
#     4  12  25  41  75 104 146 178 261 287 368 423
#     4  12  23  44  70 116 132 195 232 322 348 446
#     4  10  20  39  68 103 140 189 239 287 354 445
#     4   9  22  37  70  97 149 179 246 285 375 410
#     4   9  19  38  68 102 134 194 229 287 349 455
#     4  11  24  42  64 108 140 200 236 303 338 465
#     4  11  23  39  71  94 151 175 249 283 374 408
#
# _framework density 25.054566000000001
#
# number of rings (size 3 to 8) (size 9 to 14) (size 15 to 20)
#    0.857    0.571    1.429    4.286    4.000    0.000 
#    0.000    1.429    6.286    0.000    0.000    0.000 
#    0.000    0.000    0.000    0.000    0.000    0.000 
#
# Total GULP energy -78312.961458 kJ/mol
# GULP energy per Si atom -5593.782961 kJ/mol
# Density = 2.499754 g / cm^3
# Si number density = 25.054566 Si / 1000 Ang^3
#
#
#
# Elastic Constant Matrix: (Units=GPa)
#
#
# Indices 1 2 3 4 5 6 
#
# 1 170.0098 32.5239 58.3581 0.0000 -18.0432 0.0000
# 2 32.5239 60.3428 28.0986 0.0000 -11.7109 0.0000
# 3 58.3581 28.0986 127.1523 0.0000 -12.1992 0.0000
# 4 0.0000 0.0000 0.0000 36.1416 0.0000 -2.3755
# 5 -18.0432 -11.7109 -12.1992 0.0000 49.4642 0.0000
# 6 0.0000 0.0000 0.0000 -2.3755 0.0000 39.7530
#
#
#
# Elastic Compliance Matrix: (Units=1/GPa)
#
#
# Indices 1 2 3 4 5 6 
#
# 1 0.007445 -0.002456 -0.002734 0.000000 0.001460 0.000000
# 2 -0.002456 0.019876 -0.002970 0.000000 0.003077 0.000000
# 3 -0.002734 -0.002970 0.009846 0.000000 0.000728 0.000000
# 4 0.000000 0.000000 0.000000 0.027778 0.000000 0.001660
# 5 0.001460 0.003077 0.000728 0.000000 0.021657 0.000000
# 6 0.000000 0.000000 0.000000 0.001660 0.000000 0.025255
#
#
# Mechanical properties :
#
#
# Convention : Reuss Voigt Hill
#
# Bulk Modulus (GPa) = 47.97003 66.16291 57.06647
# Shear Modulus (GPa) = 37.00242 40.97339 38.98790
#
# Velocity S-wave (km/s) = 3.84718 4.04835 3.94905
# Velocity P-wave (km/s) = 6.23876 6.95105 6.60452
#
# Compressibility (1/GPa) = 0.02084635
#
# Stress axis : x y z
#
# Youngs Moduli (GPa) = 134.30983 50.31193 101.56846
#
# Poissons Ratio (x) = 0.12359 0.27772
# Poissons Ratio (y) = 0.32992 0.30162
# Poissons Ratio (z) = 0.36724 0.14941
#
# Static dielectric constant tensor:
#      x y z
#    x 2.034800 0.000000 0.008790 
#    y 0.000000 2.046780 0.000000 
#    z 0.008790 0.000000 1.963680 
# 
# From -- ./inp_files/7527.got.cif
#   From: 2010.05.17/outbox.cif.g08.bks.cpg/sg9_4_cif.got.tgz:7527.got - 2010.06.03 20:04:27.
