data_PCOD9135800
_publ_section_title
;
Structure prediction by ZEFSAII (Michael W. Deem and Ramdas Pophale) SiO2 
 PCOD9135800
Probable space group: C C
;
_chemical_formula_sum "Si O2"
_cell_formula_units_Z 28
_cell_length_a 19.249216
_cell_length_b 5.009932
_cell_length_c 29.383283
_cell_angle_alpha 90.000000
_cell_angle_beta 157.764700
_cell_angle_gamma 90.000000
_cell_volume 1072.282242
_symmetry_space_group_name_H-M "C C"
_symmetry_group_IT_number 9
_symmetry_cell_setting 'monoclinic'
loop_
_space_group_symop_operation_xyz
x,y,z
x,-y,1/2+z
1/2+x,1/2+y,z
1/2+x,1/2-y,1/2+z
loop_
_atom_site_type_symbol
_atom_site_label
_atom_site_fract_x
_atom_site_fract_y
_atom_site_fract_z
Si Si1 0.054510 0.241356 0.878820
Si Si2 0.872441 0.840713 0.175908
Si Si3 0.941227 0.642454 0.081002
Si Si4 0.019706 0.336071 0.216114
Si Si5 0.737895 0.523242 0.236796
Si Si6 0.916040 0.934007 0.980056
Si Si7 0.001565 0.123518 0.941647
O O1 0.963244 0.113994 0.779507
O O2 0.916077 0.475716 0.811767
O O3 0.264062 0.303920 0.993416
O O4 0.046808 0.043263 0.917399
O O5 0.966163 0.039341 0.197444
O O6 0.653808 0.847258 0.045367
O O7 0.907570 0.538865 0.180786
O O8 0.957315 0.402712 0.126544
O O9 0.898079 0.669623 0.000526
O O10 0.145224 0.772322 0.205079
O O11 0.224798 0.418862 0.356005
O O12 0.565901 0.602950 0.100347
O O13 0.810022 0.721476 0.318923
O O14 0.997306 0.910900 0.978904
#
# Coordination Sequence:
#
# PCOD9135800 Si02
#       7
#     4   4   4   4   4   4   4
#     4  10  20  44  78 113 163 213 272 329 411 487
#     4  12  24  50  72 119 154 212 273 330 401 483
#     4  10  21  47  73 118 156 217 272 333 407 488
#     4  12  27  46  82 110 157 210 270 331 405 479
#     4   8  20  40  78 109 167 198 283 314 413 477
#     4  10  22  45  77 111 164 208 268 333 403 477
#     4  10  20  44  78 114 165 216 262 342 400 481
#
# _framework density 26.11253
#
# number of rings (size 3 to 8) (size 9 to 14) (size 15 to 20)
#    1.714    0.000    4.286    0.000    2.000    0.000 
#   10.286    2.857    0.000    0.000    0.000    0.000 
#    0.000    0.000    0.000    0.000    0.000    0.000 
#
# Total GULP energy -78045.631443 kJ/mol
# GULP energy per Si atom -5574.687960 kJ/mol
# Density = 2.605310 g / cm^3
# Si number density = 26.112530 Si / 1000 Ang^3
#
#
#
# Elastic Constant Matrix: (Units=GPa)
#
#
# Indices 1 2 3 4 5 6 
#
# 1 133.6598 20.8854 55.7641 -0.0103 -24.1167 -0.0191
# 2 20.8854 35.6978 35.8806 0.0244 2.8928 -0.0246
# 3 55.7641 35.8806 185.0155 -0.1161 -17.4970 0.1087
# 4 -0.0103 0.0244 -0.1161 20.1220 -0.0286 -6.5844
# 5 -24.1167 2.8928 -17.4970 -0.0286 75.9024 0.0077
# 6 -0.0191 -0.0246 0.1087 -6.5844 0.0077 27.1160
#
#
#
# Elastic Compliance Matrix: (Units=1/GPa)
#
#
# Indices 1 2 3 4 5 6 
#
# 1 0.009324 -0.003856 -0.001808 0.000006 0.002693 0.000011
# 2 -0.003856 0.037047 -0.006412 -0.000077 -0.004115 0.000039
# 3 -0.001808 -0.006412 0.007322 0.000042 0.001358 -0.000027
# 4 0.000006 -0.000077 0.000042 0.053987 0.000034 0.013109
# 5 0.002693 -0.004115 0.001358 0.000034 0.014500 -0.000003
# 6 0.000011 0.000039 -0.000027 0.013109 -0.000003 0.040062
#
#
# Mechanical properties :
#
#
# Convention : Reuss Voigt Hill
#
# Bulk Modulus (GPa) = 33.85069 64.38150 49.11609
# Shear Modulus (GPa) = 25.47884 40.75095 33.11489
#
# Velocity S-wave (km/s) = 3.12706 3.95472 3.56499
# Velocity P-wave (km/s) = 5.10192 6.74996 5.98296
#
# Compressibility (1/GPa) = 0.02954149
#
# Stress axis : x y z
#
# Youngs Moduli (GPa) = 107.24524 26.99261 136.58028
#
# Poissons Ratio (x) = 0.10410 0.24691
# Poissons Ratio (y) = 0.41359 0.87569
# Poissons Ratio (z) = 0.19388 0.17307
#
# Static dielectric constant tensor:
#      x y z
#    x 2.118910 -0.000010 0.052840 
#    y -0.000010 2.050490 -0.000020 
#    z 0.052840 -0.000020 2.060500 
# 
# From -- ./inp_files/35756.got.cif
#   From: 2010.05.17/outbox.cif.g08.bks.cpg/sg9_18_cif.got.tgz:35756.got - 2010.06.03 20:04:27.
