data_PCOD9135813
_publ_section_title
;
Structure prediction by ZEFSAII (Michael W. Deem and Ramdas Pophale) SiO2 
 PCOD9135813
Probable space group: C C
;
_chemical_formula_sum "Si O2"
_cell_formula_units_Z 28
_cell_length_a 22.320699
_cell_length_b 11.595929
_cell_length_c 5.264550
_cell_angle_alpha 90.000000
_cell_angle_beta 125.474364
_cell_angle_gamma 90.000000
_cell_volume 1109.683596
_symmetry_space_group_name_H-M "C C"
_symmetry_group_IT_number 9
_symmetry_cell_setting 'monoclinic'
loop_
_space_group_symop_operation_xyz
x,y,z
x,-y,1/2+z
1/2+x,1/2+y,z
1/2+x,1/2-y,1/2+z
loop_
_atom_site_type_symbol
_atom_site_label
_atom_site_fract_x
_atom_site_fract_y
_atom_site_fract_z
Si Si1 0.588760 0.931600 0.047500
Si Si2 0.165082 0.242842 0.576203
Si Si3 0.772577 0.571938 0.611593
Si Si4 0.416046 0.067822 0.137443
Si Si5 0.526087 0.358849 0.986743
Si Si6 0.459694 0.617163 0.828852
Si Si7 0.285268 0.428259 0.917519
O O1 0.624508 0.823153 0.271619
O O2 0.606371 0.032943 0.300080
O O3 0.501721 0.912134 0.827178
O O4 0.200572 0.141721 0.500442
O O5 0.108277 0.186375 0.638392
O O6 0.233295 0.319020 0.847557
O O7 0.771669 0.470619 0.821896
O O8 0.847099 0.643421 0.869743
O O9 0.404693 0.964302 0.902878
O O10 0.507791 0.497239 0.945878
O O11 0.481701 0.314889 0.633513
O O12 0.486385 0.319976 0.143332
O O13 0.373445 0.591541 0.633063
O O14 0.269271 0.477712 0.597029
#
# Coordination Sequence:
#
# PCOD9135813 Si02
#       7
#     4   4   4   4   4   4   4
#     4  10  22  43  66  92 133 177 220 283 343 414
#     4  12  28  40  70 110 141 180 238 296 365 418
#     4  10  24  43  64  92 135 177 218 283 344 414
#     4   8  16  37  63  82 114 166 214 253 325 392
#     4  10  22  39  67 101 129 183 235 286 343 423
#     4  10  20  45  71  92 138 191 231 284 351 423
#     4  12  24  47  73 103 146 192 240 301 359 432
#
# _framework density 25.232417000000002
#
# number of rings (size 3 to 8) (size 9 to 14) (size 15 to 20)
#    0.000    1.714    2.857    0.857    4.000    5.714 
#    0.000    7.143    0.000    0.000    0.000    0.000 
#    0.000    0.000    0.000    0.000    0.000    0.000 
#
# Total GULP energy -78190.127990 kJ/mol
# GULP energy per Si atom -5585.009142 kJ/mol
# Density = 2.517499 g / cm^3
# Si number density = 25.232417 Si / 1000 Ang^3
#
#
#
# Elastic Constant Matrix: (Units=GPa)
#
#
# Indices 1 2 3 4 5 6 
#
# 1 181.4624 42.1759 36.4946 0.0000 3.7048 0.0000
# 2 42.1759 68.6894 17.5152 0.0000 10.4158 0.0000
# 3 36.4946 17.5152 72.3976 0.0000 -25.1022 0.0000
# 4 0.0000 0.0000 0.0000 1.5646 0.0000 -8.7297
# 5 3.7048 10.4158 -25.1022 0.0000 55.1911 0.0000
# 6 0.0000 0.0000 0.0000 -8.7297 0.0000 18.8571
#
#
#
# Elastic Compliance Matrix: (Units=1/GPa)
#
#
# Indices 1 2 3 4 5 6 
#
# 1 0.006927 -0.003256 -0.003149 0.000000 -0.001283 0.000000
# 2 -0.003256 0.018594 -0.004747 0.000000 -0.005450 0.000000
# 3 -0.003149 -0.004747 0.020102 0.000000 0.010250 0.000000
# 4 0.000000 0.000000 0.000000 -0.403755 0.000000 -0.186915
# 5 -0.001283 -0.005450 0.010250 0.000000 0.023895 0.000000
# 6 0.000000 0.000000 0.000000 -0.186915 0.000000 -0.033500
#
#
# Mechanical properties :
#
#
# Convention : Reuss Voigt Hill
#
# Bulk Modulus (GPa) = 42.88066 57.21342 50.04704
# Shear Modulus (GPa) = -14.80781 30.21346 7.70283
#
# Velocity S-wave (km/s) = -2.42514 3.46411 1.74911
# Velocity P-wave (km/s) = 3.03141 6.22285 4.89455
#
# Compressibility (1/GPa) = 0.02332054
#
# Stress axis : x y z
#
# Youngs Moduli (GPa) = 144.36320 53.78046 49.74544
#
# Poissons Ratio (x) = 0.17510 0.15664
# Poissons Ratio (y) = 0.47002 0.23613
# Poissons Ratio (z) = 0.45458 0.25528
#
# Static dielectric constant tensor:
#      x y z
#    x 2.044830 0.000000 0.036090 
#    y 0.000000 2.194750 0.000000 
#    z 0.036090 0.000000 2.003190 
# 
# From -- ./inp_files/2870.got.cif
#   From: 2010.05.17/outbox.cif.g08.bks.cpg/sg9_2_cif.got.tgz:2870.got - 2010.06.03 20:04:27.
