data_PCOD9135994
_publ_section_title
;
Structure prediction by ZEFSAII (Michael W. Deem and Ramdas Pophale) SiO2 
 PCOD9135994
Probable space group: C C
;
_chemical_formula_sum "Si O2"
_cell_formula_units_Z 32
_cell_length_a 9.205992
_cell_length_b 5.255318
_cell_length_c 27.761799
_cell_angle_alpha 90.000000
_cell_angle_beta 71.284599
_cell_angle_gamma 90.000000
_cell_volume 1272.108252
_symmetry_space_group_name_H-M "C C"
_symmetry_group_IT_number 9
_symmetry_cell_setting 'monoclinic'
loop_
_space_group_symop_operation_xyz
x,y,z
x,-y,1/2+z
1/2+x,1/2+y,z
1/2+x,1/2-y,1/2+z
loop_
_atom_site_type_symbol
_atom_site_label
_atom_site_fract_x
_atom_site_fract_y
_atom_site_fract_z
Si Si1 0.668140 0.866976 0.555350
Si Si2 0.443923 0.346968 0.905162
Si Si3 0.076824 0.648626 0.442304
Si Si4 0.036827 0.790952 0.784971
Si Si5 0.967033 0.261684 0.134582
Si Si6 0.902558 0.705016 0.247849
Si Si7 0.153736 0.878442 0.155153
Si Si8 0.980855 0.014394 0.034940
O O1 0.718373 0.685391 0.594946
O O2 0.613388 0.694871 0.517416
O O3 0.814109 0.045746 0.531310
O O4 0.532888 0.017928 0.594758
O O5 0.260216 0.374361 0.920548
O O6 0.518480 0.606125 0.917957
O O7 0.508459 0.296099 0.845051
O O8 0.493433 0.103747 0.932046
O O9 0.031113 0.733739 0.501401
O O10 0.951512 0.548020 0.771045
O O11 0.221061 0.778557 0.758128
O O12 0.963243 0.047606 0.770653
O O13 0.958702 0.036367 0.095086
O O14 0.799157 0.313317 0.172415
O O15 0.093016 0.165471 0.158861
O O16 0.006632 0.722489 0.188492
#
# Coordination Sequence:
#
# PCOD9135994 Si02
#       8
#     4   4   4   4   4   4   4   4
#     4  10  21  38  60  83 132 164 216 265 323 383
#     4  12  26  47  71 102 136 177 221 285 350 403
#     4  12  26  44  74 100 138 175 231 279 332 416
#     4  12  26  47  71 102 136 177 221 285 350 403
#     4  10  21  38  60  83 132 164 216 265 323 383
#     4  12  26  44  74 100 138 175 231 279 332 416
#     4  10  23  37  58  94 118 175 216 266 324 383
#     4  10  23  37  58  94 118 175 216 266 324 383
#
# _framework density 25.155092
#
# number of rings (size 3 to 8) (size 9 to 14) (size 15 to 20)
#    0.000    1.000    0.000    6.000    7.000    0.000 
#    0.000    0.000    0.000    0.000    0.000    0.000 
#    0.000    0.000    0.000    0.000    0.000    0.000 
#
# Total GULP energy -89556.684726 kJ/mol
# GULP energy per Si atom -5597.292795 kJ/mol
# Density = 2.509784 g / cm^3
# Si number density = 25.155092 Si / 1000 Ang^3
#
#
#
# Elastic Constant Matrix: (Units=GPa)
#
#
# Indices 1 2 3 4 5 6 
#
# 1 183.8290 58.6983 15.4314 0.0000 -19.4258 0.0000
# 2 58.6983 153.3173 10.7040 0.0000 19.3847 0.0000
# 3 15.4314 10.7040 107.4626 0.0000 3.7304 0.0000
# 4 0.0000 0.0000 0.0000 38.4780 0.0000 12.2312
# 5 -19.4258 19.3847 3.7304 0.0000 41.3762 0.0000
# 6 0.0000 0.0000 0.0000 12.2312 0.0000 51.4987
#
#
#
# Elastic Compliance Matrix: (Units=1/GPa)
#
#
# Indices 1 2 3 4 5 6 
#
# 1 0.007079 -0.003274 -0.000862 0.000000 0.004935 0.000000
# 2 -0.003274 0.008484 -0.000184 0.000000 -0.005495 0.000000
# 3 -0.000862 -0.000184 0.009488 0.000000 -0.001174 0.000000
# 4 0.000000 0.000000 0.000000 0.028111 0.000000 -0.006677
# 5 0.004935 -0.005495 -0.001174 0.000000 0.029166 0.000000
# 6 0.000000 0.000000 0.000000 -0.006677 0.000000 0.021004
#
#
# Mechanical properties :
#
#
# Convention : Reuss Voigt Hill
#
# Bulk Modulus (GPa) = 60.93409 68.25291 64.59350
# Shear Modulus (GPa) = 42.57417 50.25560 46.41489
#
# Velocity S-wave (km/s) = 4.11842 4.47456 4.30018
# Velocity P-wave (km/s) = 6.84771 7.34080 7.09854
#
# Compressibility (1/GPa) = 0.01641118
#
# Stress axis : x y z
#
# Youngs Moduli (GPa) = 141.25986 117.87502 105.39192
#
# Poissons Ratio (x) = 0.38594 0.09082
# Poissons Ratio (y) = 0.46250 0.01940
# Poissons Ratio (z) = 0.12173 0.02170
#
# Static dielectric constant tensor:
#      x y z
#    x 2.043240 0.000000 0.056580 
#    y 0.000000 2.044530 0.000000 
#    z 0.056580 0.000000 2.032390 
# 
# From -- ./inp_files/37118.got.cif
#   From: 2010.05.17/outbox.cif.g08.bks.cpg/sg9_19_cif.got.tgz:37118.got - 2010.06.03 20:04:27.
