data_PCOD9135687
_publ_section_title
;
Structure prediction by ZEFSAII (Michael W. Deem and Ramdas Pophale) SiO2 
 PCOD9135687
Probable space group: C C
;
_chemical_formula_sum "Si O2"
_cell_formula_units_Z 32
_cell_length_a 5.333375
_cell_length_b 20.932101
_cell_length_c 11.228858
_cell_angle_alpha 90.000000
_cell_angle_beta 97.256322
_cell_angle_gamma 90.000000
_cell_volume 1243.535742
_symmetry_space_group_name_H-M "C C"
_symmetry_group_IT_number 9
_symmetry_cell_setting 'monoclinic'
loop_
_space_group_symop_operation_xyz
x,y,z
x,-y,1/2+z
1/2+x,1/2+y,z
1/2+x,1/2-y,1/2+z
loop_
_atom_site_type_symbol
_atom_site_label
_atom_site_fract_x
_atom_site_fract_y
_atom_site_fract_z
Si Si1 0.761500 0.122872 0.052440
Si Si2 0.500322 0.077763 0.642556
Si Si3 0.998181 0.760765 0.330812
Si Si4 0.318142 0.874509 0.376272
Si Si5 0.225407 0.641062 0.447808
Si Si6 0.473775 0.704863 0.250234
Si Si7 0.004997 0.447548 0.745302
Si Si8 0.636925 0.521531 0.043279
O O1 0.972638 0.166331 0.126814
O O2 0.598056 0.105766 0.159070
O O3 0.864310 0.053993 0.013149
O O4 0.565109 0.155861 0.952500
O O5 0.377850 0.115323 0.743256
O O6 0.710991 0.115806 0.581337
O O7 0.622948 0.015284 0.713787
O O8 0.259874 0.048766 0.552473
O O9 0.060204 0.705910 0.431838
O O10 0.072537 0.831042 0.377385
O O11 0.212538 0.744268 0.244571
O O12 0.720257 0.747636 0.270024
O O13 0.280829 0.940530 0.446084
O O14 0.086871 0.581959 0.372895
O O15 0.453582 0.660698 0.370675
O O16 0.717742 0.458183 0.684377
#
# Coordination Sequence:
#
# PCOD9135687 Si02
#       8
#     4   4   4   4   4   4   4   4
#     4  10  20  42  70 105 143 210 258 319 397 479
#     4  10  21  43  66 108 158 196 255 328 384 470
#     4  10  23  45  71 107 145 196 261 326 388 464
#     4  11  24  43  68 111 154 205 264 331 394 466
#     4   9  19  41  68 100 149 202 255 309 396 453
#     4   9  22  44  76 104 139 200 260 314 385 471
#     4   8  18  36  64 101 137 195 253 308 379 465
#     4   9  21  38  67 100 149 198 254 315 395 458
#
# _framework density 25.733077000000002
#
# number of rings (size 3 to 8) (size 9 to 14) (size 15 to 20)
#    1.500    1.000    0.000    1.500    3.500    0.000 
#    6.750    0.000    0.000    0.000    0.000    0.000 
#    0.000    0.000    0.000    0.000    0.000    0.000 
#
# Total GULP energy -89140.802720 kJ/mol
# GULP energy per Si atom -5571.300170 kJ/mol
# Density = 2.567451 g / cm^3
# Si number density = 25.733077 Si / 1000 Ang^3
#
#
#
# Elastic Constant Matrix: (Units=GPa)
#
#
# Indices 1 2 3 4 5 6 
#
# 1 136.7689 27.2029 37.6394 0.0000 -4.5613 0.0000
# 2 27.2029 99.6487 46.0425 0.0000 5.6308 0.0000
# 3 37.6394 46.0425 110.3972 0.0000 -13.4839 0.0000
# 4 0.0000 0.0000 0.0000 20.2490 0.0000 -7.2388
# 5 -4.5613 5.6308 -13.4839 0.0000 15.4660 0.0000
# 6 0.0000 0.0000 0.0000 -7.2388 0.0000 39.0919
#
#
#
# Elastic Compliance Matrix: (Units=1/GPa)
#
#
# Indices 1 2 3 4 5 6 
#
# 1 0.008191 -0.001319 -0.002114 0.000000 0.001053 0.000000
# 2 -0.001319 0.014241 -0.006906 0.000000 -0.011595 0.000000
# 3 -0.002114 -0.006906 0.014426 0.000000 0.014468 0.000000
# 4 0.000000 0.000000 0.000000 0.052886 0.000000 0.009793
# 5 0.001053 -0.011595 0.014468 0.000000 0.081804 0.000000
# 6 0.000000 0.000000 0.000000 0.009793 0.000000 0.027394
#
#
# Mechanical properties :
#
#
# Convention : Reuss Voigt Hill
#
# Bulk Modulus (GPa) = 61.80149 63.17604 62.48877
# Shear Modulus (GPa) = 22.22083 30.69006 26.45545
#
# Velocity S-wave (km/s) = 2.94175 3.45720 3.20983
# Velocity P-wave (km/s) = 5.96716 6.36711 6.17038
#
# Compressibility (1/GPa) = 0.01618084
#
# Stress axis : x y z
#
# Youngs Moduli (GPa) = 122.08838 70.21776 69.31712
#
# Poissons Ratio (x) = 0.09259 0.14654
# Poissons Ratio (y) = 0.16099 0.47872
# Poissons Ratio (z) = 0.25811 0.48494
#
# Static dielectric constant tensor:
#      x y z
#    x 2.103230 0.000000 -0.001880 
#    y 0.000000 2.129160 0.000000 
#    z -0.001880 0.000000 2.033440 
# 
# From -- ./inp_files/15297.got.cif
#   From: 2010.05.17/outbox.cif.g08.bks.cpg/sg9_8_cif.got.tgz:15297.got - 2010.06.03 20:04:27.
