data_PCOD9135844
_publ_section_title
;
Structure prediction by ZEFSAII (Michael W. Deem and Ramdas Pophale) SiO2 
 PCOD9135844
Probable space group: C C
;
_chemical_formula_sum "Si O2"
_cell_formula_units_Z 28
_cell_length_a 11.755804
_cell_length_b 27.408385
_cell_length_c 9.754606
_cell_angle_alpha 90.000000
_cell_angle_beta 24.810361
_cell_angle_gamma 90.000000
_cell_volume 1318.857262
_symmetry_space_group_name_H-M "C C"
_symmetry_group_IT_number 9
_symmetry_cell_setting 'monoclinic'
loop_
_space_group_symop_operation_xyz
x,y,z
x,-y,1/2+z
1/2+x,1/2+y,z
1/2+x,1/2-y,1/2+z
loop_
_atom_site_type_symbol
_atom_site_label
_atom_site_fract_x
_atom_site_fract_y
_atom_site_fract_z
Si Si1 0.762680 0.575789 0.251880
Si Si2 0.341961 0.555807 0.918625
Si Si3 0.693435 0.283870 0.174703
Si Si4 0.275551 0.483296 0.214799
Si Si5 0.170816 0.782551 0.503968
Si Si6 0.971448 0.214809 0.507794
Si Si7 0.052449 0.353850 0.600839
O O1 0.641003 0.568808 0.538585
O O2 0.503375 0.559615 0.446506
O O3 0.917771 0.626451 0.105825
O O4 0.991880 0.536475 0.971763
O O5 0.258606 0.514236 0.898234
O O6 0.341638 0.533115 0.067625
O O7 0.159519 0.602303 0.080658
O O8 0.669077 0.305701 0.355243
O O9 0.401662 0.262173 0.454445
O O10 0.835697 0.321257 0.917591
O O11 0.477290 0.765351 0.198182
O O12 0.038736 0.806466 0.782546
O O13 0.247575 0.241711 0.247794
O O14 0.823983 0.175222 0.761944
#
# Coordination Sequence:
#
# PCOD9135844 Si02
#       7
#     4   4   4   4   4   4   4
#     4   9  22  36  60  85 115 152 186 250 292 359
#     4   9  22  38  64  86 117 156 191 251 296 363
#     4  10  21  34  57  83 119 162 198 238 288 347
#     4   9  20  37  63  83 110 151 198 227 314 357
#     4   8  16  34  52  73 106 157 201 234 281 340
#     4  10  21  34  57  83 118 164 199 236 287 349
#     4  11  22  35  59  91 125 148 203 252 296 337
#
# _framework density 21.230501
#
# number of rings (size 3 to 8) (size 9 to 14) (size 15 to 20)
#    0.857    1.714    0.000    0.857    8.000    0.000 
#    0.000    0.000   15.714    0.000    0.000    0.000 
#    0.000    0.000    0.000    0.286    0.000    0.000 
#
# Total GULP energy -77936.937898 kJ/mol
# GULP energy per Si atom -5566.924136 kJ/mol
# Density = 2.118218 g / cm^3
# Si number density = 21.230501 Si / 1000 Ang^3
#
#
#
# Elastic Constant Matrix: (Units=GPa)
#
#
# Indices 1 2 3 4 5 6 
#
# 1 35.9602 7.6299 19.0870 0.0000 -3.5106 0.0000
# 2 7.6299 39.0327 16.2162 0.0000 2.6621 0.0000
# 3 19.0870 16.2162 104.0398 0.0000 -10.7322 0.0000
# 4 0.0000 0.0000 0.0000 19.5961 0.0000 1.4296
# 5 -3.5106 2.6621 -10.7322 0.0000 34.7203 0.0000
# 6 0.0000 0.0000 0.0000 1.4296 0.0000 23.3731
#
#
#
# Elastic Compliance Matrix: (Units=1/GPa)
#
#
# Indices 1 2 3 4 5 6 
#
# 1 0.031514 -0.004255 -0.004912 0.000000 0.001994 0.000000
# 2 -0.004255 0.028394 -0.004043 0.000000 -0.003857 0.000000
# 3 -0.004912 -0.004043 0.011490 0.000000 0.003365 0.000000
# 4 0.000000 0.000000 0.000000 0.051259 0.000000 -0.003135
# 5 0.001994 -0.003857 0.003365 0.000000 0.030339 0.000000
# 6 0.000000 0.000000 0.000000 -0.003135 0.000000 0.042976
#
#
# Mechanical properties :
#
#
# Convention : Reuss Voigt Hill
#
# Bulk Modulus (GPa) = 22.23378 29.43321 25.83349
# Shear Modulus (GPa) = 21.06280 24.61121 22.83701
#
# Velocity S-wave (km/s) = 3.15318 3.40845 3.28330
# Velocity P-wave (km/s) = 4.87361 5.42068 5.15441
#
# Compressibility (1/GPa) = 0.04497661
#
# Stress axis : x y z
#
# Youngs Moduli (GPa) = 31.73239 35.21869 87.03069
#
# Poissons Ratio (x) = 0.14986 0.42754
# Poissons Ratio (y) = 0.13503 0.35185
# Poissons Ratio (z) = 0.15588 0.14238
#
# Static dielectric constant tensor:
#      x y z
#    x 1.858490 0.000000 -0.003150 
#    y 0.000000 1.792850 0.000000 
#    z -0.003150 0.000000 1.768620 
# 
# From -- ./inp_files/18679.got.cif
#   From: 2010.05.17/outbox.cif.g08.bks.cpg/sg9_10_cif.got.tgz:18679.got - 2010.06.03 20:04:27.
