data_PCOD9135406
_publ_section_title
;
Structure prediction by ZEFSAII (Michael W. Deem and Ramdas Pophale) SiO2 
 PCOD9135406
Probable space group: C C
;
_chemical_formula_sum "Si O2"
_cell_formula_units_Z 24
_cell_length_a 13.951514
_cell_length_b 9.207573
_cell_length_c 13.000163
_cell_angle_alpha 90.000000
_cell_angle_beta 30.724183
_cell_angle_gamma 90.000000
_cell_volume 853.210388
_symmetry_space_group_name_H-M "C C"
_symmetry_group_IT_number 9
_symmetry_cell_setting 'monoclinic'
loop_
_space_group_symop_operation_xyz
x,y,z
x,-y,1/2+z
1/2+x,1/2+y,z
1/2+x,1/2-y,1/2+z
loop_
_atom_site_type_symbol
_atom_site_label
_atom_site_fract_x
_atom_site_fract_y
_atom_site_fract_z
Si Si1 0.683180 0.463446 0.621630
Si Si2 0.370956 0.254288 0.866115
Si Si3 0.274763 0.375324 0.744737
Si Si4 0.014049 0.595511 0.079615
Si Si5 0.609714 0.403644 0.923842
Si Si6 0.816340 0.922781 0.476604
O O1 0.886379 0.408593 0.399271
O O2 0.310218 0.260235 0.801587
O O3 0.534411 0.591181 0.736496
O O4 0.677181 0.451731 0.749240
O O5 0.595126 0.313055 0.653068
O O6 0.532768 0.241274 0.995387
O O7 0.442402 0.490764 0.607662
O O8 0.286200 0.343423 0.612995
O O9 0.084341 0.458561 0.948963
O O10 0.799758 0.586964 0.313822
O O11 0.165182 0.612384 0.030814
O O12 0.317346 0.400143 0.983587
#
# Coordination Sequence:
#
# PCOD9135406 Si02
#       6
#     4   4   4   4   4   4
#     4   9  18  36  57  88 111 158 197 256 287 363
#     4   9  18  35  59  81 116 151 204 242 296 352
#     4  10  20  40  55  87 120 155 194 254 297 370
#     4  11  20  36  60  88 117 155 199 253 294 367
#     4  11  20  35  65  85 119 155 202 246 310 347
#     4   8  20  36  56  83 123 148 194 249 304 351
#
# _framework density 28.129054
#
# number of rings (size 3 to 8) (size 9 to 14) (size 15 to 20)
#    1.000    1.333    1.667    2.000    0.000    0.000 
#    9.000    1.667    0.000    0.000    0.000    0.000 
#    0.000    0.000    0.000    0.000    0.000    0.000 
#
# Total GULP energy -67035.849613 kJ/mol
# GULP energy per Si atom -5586.320801 kJ/mol
# Density = 2.806503 g / cm^3
# Si number density = 28.129054 Si / 1000 Ang^3
#
#
#
# Elastic Constant Matrix: (Units=GPa)
#
#
# Indices 1 2 3 4 5 6 
#
# 1 119.5689 -3.3833 14.8021 -0.0003 3.8625 0.0001
# 2 -3.3833 58.8729 31.8343 -0.0004 4.5028 0.0002
# 3 14.8021 31.8343 136.8951 -0.0010 4.2384 0.0006
# 4 -0.0003 -0.0004 -0.0010 87.3541 0.0002 -25.6844
# 5 3.8625 4.5028 4.2384 0.0002 44.3032 -0.0001
# 6 0.0001 0.0002 0.0006 -25.6844 -0.0001 47.8159
#
#
#
# Elastic Compliance Matrix: (Units=1/GPa)
#
#
# Indices 1 2 3 4 5 6 
#
# 1 0.008567 0.001188 -0.001179 0.000000 -0.000755 0.000000
# 2 0.001188 0.019700 -0.004658 0.000000 -0.001660 0.000000
# 3 -0.001179 -0.004658 0.008523 0.000000 -0.000239 0.000000
# 4 0.000000 0.000000 0.000000 0.013595 0.000000 0.007302
# 5 -0.000755 -0.001660 -0.000239 0.000000 0.022829 0.000000
# 6 0.000000 0.000000 0.000000 0.007302 0.000000 0.024836
#
#
# Mechanical properties :
#
#
# Convention : Reuss Voigt Hill
#
# Bulk Modulus (GPa) = 36.37566 44.64922 40.51244
# Shear Modulus (GPa) = 42.91371 54.03357 48.47364
#
# Velocity S-wave (km/s) = 3.91013 4.38758 4.15572
# Velocity P-wave (km/s) = 5.77454 6.44789 6.12048
#
# Compressibility (1/GPa) = 0.02749091
#
# Stress axis : x y z
#
# Youngs Moduli (GPa) = 116.72217 50.76210 117.32978
#
# Poissons Ratio (x) = -0.06029 0.13835
# Poissons Ratio (y) = -0.13863 0.54653
# Poissons Ratio (z) = 0.13764 0.23645
#
# Static dielectric constant tensor:
#      x y z
#    x 2.169930 0.000000 -0.065560 
#    y 0.000000 -1.052690 0.000000 
#    z -0.065560 0.000000 2.649030 
# 
# From -- ./inp_files/24883.got.cif
#   From: 2010.05.17/outbox.cif.g08.bks.cpg/sg9_13_cif.got.tgz:24883.got - 2010.06.03 20:04:27.
