data_PCOD9135498
_publ_section_title
;
Structure prediction by ZEFSAII (Michael W. Deem and Ramdas Pophale) SiO2 
 PCOD9135498
Probable space group: C C
;
_chemical_formula_sum "Si O2"
_cell_formula_units_Z 32
_cell_length_a 9.592153
_cell_length_b 22.023524
_cell_length_c 10.129261
_cell_angle_alpha 90.000000
_cell_angle_beta 136.086963
_cell_angle_gamma 90.000000
_cell_volume 1484.117609
_symmetry_space_group_name_H-M "C C"
_symmetry_group_IT_number 9
_symmetry_cell_setting 'monoclinic'
loop_
_space_group_symop_operation_xyz
x,y,z
x,-y,1/2+z
1/2+x,1/2+y,z
1/2+x,1/2-y,1/2+z
loop_
_atom_site_type_symbol
_atom_site_label
_atom_site_fract_x
_atom_site_fract_y
_atom_site_fract_z
Si Si1 0.637140 0.024389 0.202750
Si Si2 0.136241 0.283681 0.544631
Si Si3 0.401015 0.513357 0.127162
Si Si4 0.605776 0.618285 0.769184
Si Si5 0.318481 0.075040 0.402957
Si Si6 0.851394 0.654691 0.684616
Si Si7 0.927911 0.363069 0.704413
Si Si8 0.799269 0.795214 0.917706
O O1 0.752404 0.990807 0.401107
O O2 0.554196 0.086128 0.209625
O O3 0.786673 0.032297 0.182088
O O4 0.452969 0.984475 0.022147
O O5 0.073947 0.324928 0.381158
O O6 0.922924 0.266544 0.472038
O O7 0.233335 0.218445 0.581000
O O8 0.274563 0.315694 0.747305
O O9 0.498784 0.446350 0.214303
O O10 0.587951 0.556690 0.227297
O O11 0.754765 0.618748 0.743167
O O12 0.437143 0.665430 0.606176
O O13 0.722266 0.639341 0.980056
O O14 0.341806 0.115642 0.548387
O O15 0.391260 0.110035 0.323433
O O16 0.072697 0.303980 0.815530
#
# Coordination Sequence:
#
# PCOD9135498 Si02
#       8
#     4   4   4   4   4   4   4   4
#     4  12  25  42  63  95 138 186 225 272 331 409
#     4   9  20  41  71 100 122 171 238 281 323 407
#     4  12  25  40  65  96 136 183 229 271 332 411
#     4  11  21  39  69  95 129 177 223 276 328 399
#     4  12  27  43  64 100 143 179 222 281 343 397
#     4  10  22  41  71  95 129 176 222 282 334 391
#     4  12  24  42  65  97 138 180 223 278 337 405
#     4  10  20  40  68  98 127 166 226 283 332 383
#
# _framework density 21.561634999999999
#
# number of rings (size 3 to 8) (size 9 to 14) (size 15 to 20)
#    0.000    1.000    5.000    1.500    5.250    0.000 
#    2.250    1.250    0.000    0.000    0.000    0.000 
#    0.000    0.000    0.000    0.000    0.000    0.000 
#
# Total GULP energy -89360.981046 kJ/mol
# GULP energy per Si atom -5585.061315 kJ/mol
# Density = 2.151256 g / cm^3
# Si number density = 21.561635 Si / 1000 Ang^3
#
#
#
# Elastic Constant Matrix: (Units=GPa)
#
#
# Indices 1 2 3 4 5 6 
#
# 1 63.2265 3.6477 12.2122 0.0000 -2.3304 0.0000
# 2 3.6477 42.3146 4.7413 0.0000 1.7316 0.0000
# 3 12.2122 4.7413 135.8603 0.0000 12.0396 0.0000
# 4 0.0000 0.0000 0.0000 42.8815 0.0000 -3.6637
# 5 -2.3304 1.7316 12.0396 0.0000 23.8611 0.0000
# 6 0.0000 0.0000 0.0000 -3.6637 0.0000 12.4568
#
#
#
# Elastic Compliance Matrix: (Units=1/GPa)
#
#
# Indices 1 2 3 4 5 6 
#
# 1 0.016303 -0.001324 -0.001642 0.000000 0.002517 0.000000
# 2 -0.001324 0.023875 -0.000575 0.000000 -0.001572 0.000000
# 3 -0.001642 -0.000575 0.007892 0.000000 -0.004101 0.000000
# 4 0.000000 0.000000 0.000000 0.023921 0.000000 0.007036
# 5 0.002517 -0.001572 -0.004101 0.000000 0.044338 0.000000
# 6 0.000000 0.000000 0.000000 0.007036 0.000000 0.082346
#
#
# Mechanical properties :
#
#
# Convention : Reuss Voigt Hill
#
# Bulk Modulus (GPa) = 24.39822 31.40044 27.89933
# Shear Modulus (GPa) = 22.78731 30.55990 26.67360
#
# Velocity S-wave (km/s) = 3.25444 3.76883 3.52104
# Velocity P-wave (km/s) = 5.04599 5.79081 5.43118
#
# Compressibility (1/GPa) = 0.04098660
#
# Stress axis : x y z
#
# Youngs Moduli (GPa) = 61.34022 41.88408 126.71776
#
# Poissons Ratio (x) = 0.05547 0.20810
# Poissons Ratio (y) = 0.08124 0.07285
# Poissons Ratio (z) = 0.10073 0.02408
#
# Static dielectric constant tensor:
#      x y z
#    x 1.776500 0.000000 0.055060 
#    y 0.000000 1.843970 0.000000 
#    z 0.055060 0.000000 1.811970 
# 
# From -- ./inp_files/6389.got.cif
#   From: 2010.05.17/outbox.cif.g08.bks.cpg/sg9_4_cif.got.tgz:6389.got - 2010.06.03 20:04:27.
