data_PCOD9135056
_publ_section_title
;
Structure prediction by ZEFSAII (Michael W. Deem and Ramdas Pophale) SiO2 
 PCOD9135056
Probable space group: C C
;
_chemical_formula_sum "Si O2"
_cell_formula_units_Z 32
_cell_length_a 12.810268
_cell_length_b 7.551672
_cell_length_c 19.671787
_cell_angle_alpha 90.000000
_cell_angle_beta 41.998571
_cell_angle_gamma 90.000000
_cell_volume 1273.338917
_symmetry_space_group_name_H-M "C C"
_symmetry_group_IT_number 9
_symmetry_cell_setting 'monoclinic'
loop_
_space_group_symop_operation_xyz
x,y,z
x,-y,1/2+z
1/2+x,1/2+y,z
1/2+x,1/2-y,1/2+z
loop_
_atom_site_type_symbol
_atom_site_label
_atom_site_fract_x
_atom_site_fract_y
_atom_site_fract_z
Si Si1 0.511070 0.686978 0.794920
Si Si2 0.536084 0.428467 0.503803
Si Si3 0.065477 0.583652 0.401557
Si Si4 0.507185 0.190477 0.631689
Si Si5 0.364954 0.597450 0.456833
Si Si6 0.831423 0.525384 0.312119
Si Si7 0.318488 0.957653 0.620132
Si Si8 0.672952 0.765646 0.286366
O O1 0.552951 0.821566 0.835302
O O2 0.383689 0.558332 0.891533
O O3 0.451250 0.816523 0.765636
O O4 0.661561 0.575499 0.698584
O O5 0.591224 0.244038 0.441166
O O6 0.466079 0.368074 0.609604
O O7 0.426320 0.519065 0.500110
O O8 0.702983 0.522307 0.433794
O O9 0.910152 0.487502 0.506067
O O10 0.192307 0.431788 0.326287
O O11 0.691682 0.169280 0.548326
O O12 0.443040 0.033815 0.614100
O O13 0.420725 0.149727 0.744224
O O14 0.487800 0.741706 0.368429
O O15 0.720441 0.589167 0.304392
O O16 0.266605 0.763688 0.671668
#
# Coordination Sequence:
#
# PCOD9135056 Si02
#       8
#     4   4   4   4   4   4   4   4
#     4  10  22  38  64  89 128 161 216 260 324 394
#     4   9  21  40  59  89 130 165 213 266 321 389
#     4  10  20  39  66  84 126 168 204 262 331 369
#     4  10  20  36  69  86 122 164 215 257 326 383
#     4   9  20  39  62  88 126 174 203 267 330 377
#     4  10  22  39  63  91 122 166 211 260 327 387
#     4   9  21  42  62  90 128 167 212 265 325 389
#     4   9  20  41  59  91 124 159 214 265 310 394
#
# _framework density 25.130780000000001
#
# number of rings (size 3 to 8) (size 9 to 14) (size 15 to 20)
#    0.000    2.500    0.000    2.250   10.500    0.000 
#    2.250    1.250    2.750    0.000    0.000    0.000 
#    0.000    0.000    0.000    0.000    0.000    0.000 
#
# Total GULP energy -89272.263937 kJ/mol
# GULP energy per Si atom -5579.516496 kJ/mol
# Density = 2.507358 g / cm^3
# Si number density = 25.130780 Si / 1000 Ang^3
#
#
#
# Elastic Constant Matrix: (Units=GPa)
#
#
# Indices 1 2 3 4 5 6 
#
# 1 68.5978 1.9356 25.6668 0.0000 -6.2691 0.0000
# 2 1.9356 43.6785 33.0395 0.0000 12.7090 0.0000
# 3 25.6668 33.0395 126.9542 0.0000 -0.2321 0.0000
# 4 0.0000 0.0000 0.0000 52.5408 0.0000 11.6158
# 5 -6.2691 12.7090 -0.2321 0.0000 23.0892 0.0000
# 6 0.0000 0.0000 0.0000 11.6158 0.0000 25.7993
#
#
#
# Elastic Compliance Matrix: (Units=1/GPa)
#
#
# Indices 1 2 3 4 5 6 
#
# 1 0.016215 0.000754 -0.003467 0.000000 0.003953 0.000000
# 2 0.000754 0.035727 -0.009486 0.000000 -0.019556 0.000000
# 3 -0.003467 -0.009486 0.011055 0.000000 0.004391 0.000000
# 4 0.000000 0.000000 0.000000 0.021137 0.000000 -0.009517
# 5 0.003953 -0.019556 0.004391 0.000000 0.055192 0.000000
# 6 0.000000 0.000000 0.000000 -0.009517 0.000000 0.043046
#
#
# Mechanical properties :
#
#
# Convention : Reuss Voigt Hill
#
# Bulk Modulus (GPa) = 25.90816 40.05713 32.98264
# Shear Modulus (GPa) = 22.76508 32.19176 27.47842
#
# Velocity S-wave (km/s) = 3.01302 3.58295 3.31027
# Velocity P-wave (km/s) = 4.73668 5.75246 5.26910
#
# Compressibility (1/GPa) = 0.03859788
#
# Stress axis : x y z
#
# Youngs Moduli (GPa) = 61.67127 27.99029 90.46029
#
# Poissons Ratio (x) = -0.02111 0.31365
# Poissons Ratio (y) = -0.04650 0.85810
# Poissons Ratio (z) = 0.21383 0.26552
#
# Static dielectric constant tensor:
#      x y z
#    x 2.003300 0.000000 0.052780 
#    y 0.000000 2.048340 0.000000 
#    z 0.052780 0.000000 2.058250 
# 
# From -- ./inp_files/30583.got.cif
#   From: 2010.05.17/outbox.cif.g08.bks.cpg/sg9_16_cif.got.tgz:30583.got - 2010.06.03 20:04:27.
