data_PCOD9135577
_publ_section_title
;
Structure prediction by ZEFSAII (Michael W. Deem and Ramdas Pophale) SiO2 
 PCOD9135577
Probable space group: C C
;
_chemical_formula_sum "Si O2"
_cell_formula_units_Z 32
_cell_length_a 18.231474
_cell_length_b 9.593106
_cell_length_c 13.703842
_cell_angle_alpha 90.000000
_cell_angle_beta 141.131683
_cell_angle_gamma 90.000000
_cell_volume 1504.040984
_symmetry_space_group_name_H-M "C C"
_symmetry_group_IT_number 9
_symmetry_cell_setting 'monoclinic'
loop_
_space_group_symop_operation_xyz
x,y,z
x,-y,1/2+z
1/2+x,1/2+y,z
1/2+x,1/2-y,1/2+z
loop_
_atom_site_type_symbol
_atom_site_label
_atom_site_fract_x
_atom_site_fract_y
_atom_site_fract_z
Si Si1 0.253160 0.278131 0.123530
Si Si2 0.255101 0.992350 0.508200
Si Si3 0.407232 0.168916 0.817859
Si Si4 0.510074 0.402064 0.682218
Si Si5 0.073974 0.614202 0.831173
Si Si6 0.446619 0.015962 0.047865
Si Si7 0.009803 0.754212 0.489128
Si Si8 0.315081 0.571895 0.115537
O O1 0.383257 0.263653 0.305780
O O2 0.250549 0.439927 0.093597
O O3 0.256711 0.169765 0.038311
O O4 0.133301 0.244526 0.059075
O O5 0.312019 0.074262 0.660017
O O6 0.124744 0.035832 0.348800
O O7 0.330709 0.019568 0.489397
O O8 0.528783 0.118228 0.894533
O O9 0.378215 0.328292 0.758937
O O10 0.416345 0.138966 0.941728
O O11 0.500278 0.242624 0.710375
O O12 0.514094 0.381802 0.571084
O O13 0.400895 0.476080 0.619035
O O14 0.039664 0.477569 0.733663
O O15 0.207642 0.655092 0.956965
O O16 0.497523 0.893414 0.032340
#
# Coordination Sequence:
#
# PCOD9135577 Si02
#       8
#     4   4   4   4   4   4   4   4
#     4  12  26  43  68 102 145 176 224 294 357 404
#     4  11  22  43  67  97 133 183 227 275 349 412
#     4  10  20  41  67  94 129 175 232 266 335 414
#     4  10  22  40  68  95 131 173 232 279 333 410
#     4   9  20  37  66  96 125 172 223 277 328 404
#     4  10  21  39  70  95 126 175 232 273 324 421
#     4  11  24  43  72 103 134 185 239 276 345 427
#     4  11  23  42  66  96 137 173 221 286 345 398
#
# _framework density 21.276017
#
# number of rings (size 3 to 8) (size 9 to 14) (size 15 to 20)
#    0.000    1.500    2.500    3.000    5.250    0.000 
#    2.250    0.000    0.000    0.000    0.000    0.000 
#    0.000    0.000    0.000    0.000    0.000    0.000 
#
# Total GULP energy -89126.317755 kJ/mol
# GULP energy per Si atom -5570.394860 kJ/mol
# Density = 2.122759 g / cm^3
# Si number density = 21.276017 Si / 1000 Ang^3
#
#
#
# Elastic Constant Matrix: (Units=GPa)
#
#
# Indices 1 2 3 4 5 6 
#
# 1 102.0474 5.5913 55.2035 0.0000 18.3093 0.0000
# 2 5.5913 59.8720 9.8839 0.0000 -7.9146 0.0000
# 3 55.2035 9.8839 82.0323 0.0000 24.5378 0.0000
# 4 0.0000 0.0000 0.0000 15.3991 0.0000 10.0282
# 5 18.3093 -7.9146 24.5378 0.0000 36.2089 0.0000
# 6 0.0000 0.0000 0.0000 10.0282 0.0000 14.0228
#
#
#
# Elastic Compliance Matrix: (Units=1/GPa)
#
#
# Indices 1 2 3 4 5 6 
#
# 1 0.015436 0.000108 -0.010126 0.000000 -0.000920 0.000000
# 2 0.000108 0.018320 -0.004342 0.000000 0.006892 0.000000
# 3 -0.010126 -0.004342 0.022927 0.000000 -0.011366 0.000000
# 4 0.000000 0.000000 0.000000 0.121544 0.000000 -0.086921
# 5 -0.000920 0.006892 -0.011366 0.000000 0.037292 0.000000
# 6 0.000000 0.000000 0.000000 -0.086921 0.000000 0.133473
#
#
# Mechanical properties :
#
#
# Convention : Reuss Voigt Hill
#
# Bulk Modulus (GPa) = 35.75847 42.81212 39.28529
# Shear Modulus (GPa) = 12.91882 24.67768 18.79825
#
# Velocity S-wave (km/s) = 2.46682 3.40940 2.97567
# Velocity P-wave (km/s) = 4.99570 5.97198 5.50553
#
# Compressibility (1/GPa) = 0.02796540
#
# Stress axis : x y z
#
# Youngs Moduli (GPa) = 64.78376 54.58517 43.61604
#
# Poissons Ratio (x) = -0.00592 0.44164
# Poissons Ratio (y) = -0.00703 0.18937
# Poissons Ratio (z) = 0.65597 0.23700
#
# Static dielectric constant tensor:
#      x y z
#    x 1.819870 0.000000 -0.017660 
#    y 0.000000 1.911760 0.000000 
#    z -0.017660 0.000000 1.913390 
# 
# From -- ./inp_files/26756.got.cif
#   From: 2010.05.17/outbox.cif.g08.bks.cpg/sg9_14_cif.got.tgz:26756.got - 2010.06.03 20:04:27.
