data_PCOD9135060
_publ_section_title
;
Structure prediction by ZEFSAII (Michael W. Deem and Ramdas Pophale) SiO2 
 PCOD9135060
Probable space group: C C
;
_chemical_formula_sum "Si O2"
_cell_formula_units_Z 28
_cell_length_a 7.215446
_cell_length_b 16.646502
_cell_length_c 8.343748
_cell_angle_alpha 90.000000
_cell_angle_beta 88.460805
_cell_angle_gamma 90.000000
_cell_volume 1001.822124
_symmetry_space_group_name_H-M "C C"
_symmetry_group_IT_number 9
_symmetry_cell_setting 'monoclinic'
loop_
_space_group_symop_operation_xyz
x,y,z
x,-y,1/2+z
1/2+x,1/2+y,z
1/2+x,1/2-y,1/2+z
loop_
_atom_site_type_symbol
_atom_site_label
_atom_site_fract_x
_atom_site_fract_y
_atom_site_fract_z
Si Si1 0.543080 0.750196 0.491160
Si Si2 0.477508 0.288038 0.477350
Si Si3 0.234265 0.508038 0.660061
Si Si4 0.568132 0.110544 0.374782
Si Si5 0.934322 0.395085 0.325444
Si Si6 0.574375 0.600310 0.666978
Si Si7 0.779141 0.630793 0.155190
O O1 0.760328 0.770247 0.500656
O O2 0.417244 0.791719 0.631540
O O3 0.466053 0.799350 0.341307
O O4 0.525724 0.656020 0.516856
O O5 0.575613 0.201355 0.440886
O O6 0.516451 0.347085 0.325177
O O7 0.579264 0.333373 0.622245
O O8 0.177017 0.418590 0.710877
O O9 0.452934 0.520966 0.662529
O O10 0.855987 0.405566 0.817431
O O11 0.129716 0.564627 0.792262
O O12 0.654428 0.947693 0.005841
O O13 0.840982 0.419117 0.496512
O O14 0.790803 0.587291 0.688822
#
# Coordination Sequence:
#
# PCOD9135060 Si02
#       7
#     4   4   4   4   4   4   4
#     4  10  20  36  73 106 145 177 238 318 366 415
#     4  11  21  41  74 113 140 184 244 317 356 427
#     4  12  26  47  69  97 154 201 231 301 377 447
#     4  12  26  44  72 101 148 200 237 295 377 434
#     4   9  21  42  69 101 145 181 239 308 362 436
#     4  11  21  40  70 106 142 183 246 300 371 433
#     4   9  21  42  67 106 146 176 245 305 361 430
#
# _framework density 27.949072999999999
#
# number of rings (size 3 to 8) (size 9 to 14) (size 15 to 20)
#    0.857    0.571    2.857    2.571    0.000    1.143 
#    0.000   10.000    0.000    0.000    0.000    0.000 
#    0.000    0.000    0.000    0.000    0.000    0.000 
#
# Total GULP energy -78299.277317 kJ/mol
# GULP energy per Si atom -5592.805523 kJ/mol
# Density = 2.788546 g / cm^3
# Si number density = 27.949073 Si / 1000 Ang^3
#
#
#
# Elastic Constant Matrix: (Units=GPa)
#
#
# Indices 1 2 3 4 5 6 
#
# 1 164.0993 42.3349 22.5592 0.0000 14.6552 0.0000
# 2 42.3349 130.9244 36.7172 0.0000 12.1435 0.0000
# 3 22.5592 36.7172 93.5001 0.0000 26.3913 0.0000
# 4 0.0000 0.0000 0.0000 44.9353 0.0000 -17.1390
# 5 14.6552 12.1435 26.3913 0.0000 38.8526 0.0000
# 6 0.0000 0.0000 0.0000 -17.1390 0.0000 36.3820
#
#
#
# Elastic Compliance Matrix: (Units=1/GPa)
#
#
# Indices 1 2 3 4 5 6 
#
# 1 0.006798 -0.001927 -0.000408 0.000000 -0.001685 0.000000
# 2 -0.001927 0.009137 -0.003121 0.000000 -0.000009 0.000000
# 3 -0.000408 -0.003121 0.014476 0.000000 -0.008704 0.000000
# 4 0.000000 0.000000 0.000000 0.027129 0.000000 0.012780
# 5 -0.001685 -0.000009 -0.008704 0.000000 0.032289 0.000000
# 6 0.000000 0.000000 0.000000 0.012780 0.000000 0.033507
#
#
# Mechanical properties :
#
#
# Convention : Reuss Voigt Hill
#
# Bulk Modulus (GPa) = 51.28400 65.74957 58.51679
# Shear Modulus (GPa) = 35.52507 43.16147 39.34327
#
# Velocity S-wave (km/s) = 3.56907 3.93401 3.75597
# Velocity P-wave (km/s) = 5.94754 6.64914 6.30810
#
# Compressibility (1/GPa) = 0.01949926
#
# Stress axis : x y z
#
# Youngs Moduli (GPa) = 147.11030 109.44230 69.08139
#
# Poissons Ratio (x) = 0.21094 0.02816
# Poissons Ratio (y) = 0.28355 0.21557
# Poissons Ratio (z) = 0.05997 0.34152
#
# Static dielectric constant tensor:
#      x y z
#    x 2.114210 0.000000 0.001950 
#    y 0.000000 2.177910 0.000000 
#    z 0.001950 0.000000 2.384890 
# 
# From -- ./inp_files/14435.got.cif
#   From: 2010.05.17/outbox.cif.g08.bks.cpg/sg9_8_cif.got.tgz:14435.got - 2010.06.03 20:04:27.
