data_PCOD9135821
_publ_section_title
;
Structure prediction by ZEFSAII (Michael W. Deem and Ramdas Pophale) SiO2 
 PCOD9135821
Probable space group: C C
;
_chemical_formula_sum "Si O2"
_cell_formula_units_Z 24
_cell_length_a 12.702663
_cell_length_b 5.885075
_cell_length_c 15.531083
_cell_angle_alpha 90.000000
_cell_angle_beta 114.168922
_cell_angle_gamma 90.000000
_cell_volume 1059.269199
_symmetry_space_group_name_H-M "C C"
_symmetry_group_IT_number 9
_symmetry_cell_setting 'monoclinic'
loop_
_space_group_symop_operation_xyz
x,y,z
x,-y,1/2+z
1/2+x,1/2+y,z
1/2+x,1/2-y,1/2+z
loop_
_atom_site_type_symbol
_atom_site_label
_atom_site_fract_x
_atom_site_fract_y
_atom_site_fract_z
Si Si1 0.194550 0.997750 0.053830
Si Si2 0.859418 0.486733 0.363178
Si Si3 0.986773 0.751155 0.053963
Si Si4 0.130952 0.235560 0.863088
Si Si5 0.415297 0.874966 0.703291
Si Si6 0.293113 0.375573 0.458863
O O1 0.108118 0.874406 0.088692
O O2 0.283177 0.165937 0.130990
O O3 0.265129 0.806615 0.023833
O O4 0.127275 0.128557 0.956534
O O5 0.956573 0.379969 0.456729
O O6 0.736235 0.375593 0.345244
O O7 0.895213 0.456801 0.276610
O O8 0.842728 0.743986 0.392069
O O9 0.975344 0.583431 0.131245
O O10 0.886194 0.942389 0.023881
O O11 0.176633 0.492737 0.892118
O O12 0.008547 0.206004 0.776415
#
# Coordination Sequence:
#
# PCOD9135821 Si02
#       6
#     4   4   4   4   4   4
#     4  11  23  44  68  98 141 177 226 287 333 408
#     4  10  22  43  66  98 137 178 231 283 334 409
#     4  11  23  44  68  98 141 177 226 287 333 408
#     4  10  22  43  66  98 137 178 231 283 334 409
#     4  12  22  44  65 102 140 181 226 278 350 402
#     4  10  20  46  67  94 134 179 224 286 340 390
#
# _framework density 22.657132000000001
#
# number of rings (size 3 to 8) (size 9 to 14) (size 15 to 20)
#    0.000    1.333    5.000    3.000    0.000    0.000 
#   21.000    0.000    0.000    0.000    0.000    0.000 
#    0.000    0.000    0.000    0.000    0.000    0.000 
#
# Total GULP energy -66910.726184 kJ/mol
# GULP energy per Si atom -5575.893849 kJ/mol
# Density = 2.260556 g / cm^3
# Si number density = 22.657132 Si / 1000 Ang^3
#
#
#
# Elastic Constant Matrix: (Units=GPa)
#
#
# Indices 1 2 3 4 5 6 
#
# 1 126.3446 15.1462 54.1555 0.0000 -0.6250 0.0000
# 2 15.1462 59.3550 14.5888 0.0000 -0.2431 0.0000
# 3 54.1555 14.5888 141.5007 0.0000 -1.3936 0.0000
# 4 0.0000 0.0000 0.0000 17.3801 0.0000 0.0497
# 5 -0.6250 -0.2431 -1.3936 0.0000 -92.8269 0.0000
# 6 0.0000 0.0000 0.0000 0.0497 0.0000 32.0465
#
#
#
# Elastic Compliance Matrix: (Units=1/GPa)
#
#
# Indices 1 2 3 4 5 6 
#
# 1 0.009612 -0.001589 -0.003515 0.000000 -0.000008 0.000000
# 2 -0.001589 0.017548 -0.001201 0.000000 -0.000017 0.000000
# 3 -0.003515 -0.001201 0.008535 0.000000 -0.000101 0.000000
# 4 0.000000 0.000000 0.000000 0.057537 0.000000 -0.000089
# 5 -0.000008 -0.000017 -0.000101 0.000000 -0.010771 0.000000
# 6 0.000000 0.000000 0.000000 -0.000089 0.000000 0.031205
#
#
# Mechanical properties :
#
#
# Convention : Reuss Voigt Hill
#
# Bulk Modulus (GPa) = 43.31767 54.99793 49.15780
# Shear Modulus (GPa) = 37.32124 7.54059 22.43092
#
# Velocity S-wave (km/s) = 4.06300 1.82630 3.14986
# Velocity P-wave (km/s) = 6.41645 5.36413 5.91374
#
# Compressibility (1/GPa) = 0.02308527
#
# Stress axis : x y z
#
# Youngs Moduli (GPa) = 104.03743 56.98511 117.16163
#
# Poissons Ratio (x) = 0.09054 0.41182
# Poissons Ratio (y) = 0.16530 0.14075
# Poissons Ratio (z) = 0.36569 0.06846
#
# Static dielectric constant tensor:
#      x y z
#    x 1.864650 0.000000 -0.000030 
#    y 0.000000 1.882780 0.000000 
#    z -0.000030 0.000000 1.840760 
# 
# From -- ./inp_files/21602.got.cif
#   From: 2010.05.17/outbox.cif.g08.bks.cpg/sg9_11_cif.got.tgz:21602.got - 2010.06.03 20:04:27.
