data_PCOD9135259
_publ_section_title
;
Structure prediction by ZEFSAII (Michael W. Deem and Ramdas Pophale) SiO2 
 PCOD9135259
Probable space group: C C
;
_chemical_formula_sum "Si O2"
_cell_formula_units_Z 28
_cell_length_a 13.927371
_cell_length_b 10.352389
_cell_length_c 13.785526
_cell_angle_alpha 90.000000
_cell_angle_beta 139.765764
_cell_angle_gamma 90.000000
_cell_volume 1283.830659
_symmetry_space_group_name_H-M "C C"
_symmetry_group_IT_number 9
_symmetry_cell_setting 'monoclinic'
loop_
_space_group_symop_operation_xyz
x,y,z
x,-y,1/2+z
1/2+x,1/2+y,z
1/2+x,1/2-y,1/2+z
loop_
_atom_site_type_symbol
_atom_site_label
_atom_site_fract_x
_atom_site_fract_y
_atom_site_fract_z
Si Si1 0.830940 0.585307 0.229180
Si Si2 0.466027 0.697592 0.442183
Si Si3 0.300891 0.634356 0.680777
Si Si4 0.639657 0.162304 0.365616
Si Si5 0.102057 0.026959 0.404350
Si Si6 0.148896 0.930914 0.243171
Si Si7 0.150709 0.588284 0.172287
O O1 0.773124 0.728713 0.209381
O O2 0.781793 0.487448 0.277259
O O3 0.995495 0.626014 0.318590
O O4 0.744573 0.531046 0.068340
O O5 0.564336 0.662681 0.425177
O O6 0.516839 0.594930 0.564078
O O7 0.297592 0.679743 0.279853
O O8 0.513683 0.830382 0.527206
O O9 0.273795 0.654927 0.545082
O O10 0.462093 0.568613 0.819697
O O11 0.184603 0.533607 0.633994
O O12 0.651176 0.299994 0.315072
O O13 0.638687 0.061216 0.276724
O O14 0.118625 0.035324 0.302616
#
# Coordination Sequence:
#
# PCOD9135259 Si02
#       7
#     4   4   4   4   4   4   4
#     4  11  22  38  66  95 121 170 223 258 322 406
#     4   9  21  38  63  94 122 174 217 268 332 401
#     4  11  21  41  62  96 130 168 218 276 326 397
#     4  11  23  39  64  92 128 173 213 271 331 388
#     4  10  20  39  63  88 131 170 214 268 330 387
#     4  10  20  38  66  89 125 169 214 265 325 392
#     4  10  23  39  64  94 131 166 221 274 330 391
#
# _framework density 21.809729000000001
#
# number of rings (size 3 to 8) (size 9 to 14) (size 15 to 20)
#    0.000    1.714    2.857    0.857    2.000    4.571 
#    2.571    0.000    3.143    0.000    0.000    0.000 
#    0.000    0.000    0.000    0.000    0.000    0.000 
#
# Total GULP energy -78008.293148 kJ/mol
# GULP energy per Si atom -5572.020939 kJ/mol
# Density = 2.176009 g / cm^3
# Si number density = 21.809729 Si / 1000 Ang^3
#
#
#
# Elastic Constant Matrix: (Units=GPa)
#
#
# Indices 1 2 3 4 5 6 
#
# 1 110.1370 36.7071 24.2972 0.0000 -20.8836 0.0000
# 2 36.7071 58.6809 33.5578 0.0000 -2.5766 0.0000
# 3 24.2972 33.5578 98.7135 0.0000 -11.3639 0.0000
# 4 0.0000 0.0000 0.0000 19.9053 0.0000 -3.4628
# 5 -20.8836 -2.5766 -11.3639 0.0000 36.5833 0.0000
# 6 0.0000 0.0000 0.0000 -3.4628 0.0000 36.2452
#
#
#
# Elastic Compliance Matrix: (Units=1/GPa)
#
#
# Indices 1 2 3 4 5 6 
#
# 1 0.012997 -0.008010 0.000325 0.000000 0.006956 0.000000
# 2 -0.008010 0.026112 -0.007488 0.000000 -0.005059 0.000000
# 3 0.000325 -0.007488 0.013022 0.000000 0.003703 0.000000
# 4 0.000000 0.000000 0.000000 0.051087 0.000000 0.004881
# 5 0.006956 -0.005059 0.003703 0.000000 0.032100 0.000000
# 6 0.000000 0.000000 0.000000 0.004881 0.000000 0.028056
#
#
# Mechanical properties :
#
#
# Convention : Reuss Voigt Hill
#
# Bulk Modulus (GPa) = 45.90392 50.73953 48.32173
# Shear Modulus (GPa) = 24.87808 30.07806 27.47807
#
# Velocity S-wave (km/s) = 3.38107 3.71767 3.55336
# Velocity P-wave (km/s) = 6.02788 6.46090 6.24814
#
# Compressibility (1/GPa) = 0.02178463
#
# Stress axis : x y z
#
# Youngs Moduli (GPa) = 76.94361 38.29696 76.79273
#
# Poissons Ratio (x) = 0.30677 -0.02495
# Poissons Ratio (y) = 0.61633 0.57499
# Poissons Ratio (z) = -0.02500 0.28675
#
# Static dielectric constant tensor:
#      x y z
#    x 1.853980 0.000000 0.036090 
#    y 0.000000 1.876980 0.000000 
#    z 0.036090 0.000000 1.807270 
# 
# From -- ./inp_files/25856.got.cif
#   From: 2010.05.17/outbox.cif.g08.bks.cpg/sg9_13_cif.got.tgz:25856.got - 2010.06.03 20:04:27.
