data_PCOD9135532
_publ_section_title
;
Structure prediction by ZEFSAII (Michael W. Deem and Ramdas Pophale) SiO2 
 PCOD9135532
Probable space group: C C
;
_chemical_formula_sum "Si O2"
_cell_formula_units_Z 24
_cell_length_a 7.573149
_cell_length_b 12.026118
_cell_length_c 19.002080
_cell_angle_alpha 90.000000
_cell_angle_beta 36.202465
_cell_angle_gamma 90.000000
_cell_volume 1022.177325
_symmetry_space_group_name_H-M "C C"
_symmetry_group_IT_number 9
_symmetry_cell_setting 'monoclinic'
loop_
_space_group_symop_operation_xyz
x,y,z
x,-y,1/2+z
1/2+x,1/2+y,z
1/2+x,1/2-y,1/2+z
loop_
_atom_site_type_symbol
_atom_site_label
_atom_site_fract_x
_atom_site_fract_y
_atom_site_fract_z
Si Si1 0.251790 0.722141 0.816640
Si Si2 0.313146 0.634828 0.102809
Si Si3 0.038252 0.409739 0.143296
Si Si4 0.496582 0.499492 0.761599
Si Si5 0.772441 0.678261 0.079953
Si Si6 0.163945 0.324000 0.944928
O O1 0.516585 0.810708 0.731499
O O2 0.380830 0.602361 0.752949
O O3 0.987704 0.768734 0.853466
O O4 0.094966 0.701291 0.942739
O O5 0.242543 0.512942 0.098373
O O6 0.566839 0.635876 0.081003
O O7 0.430580 0.724710 0.007582
O O8 0.133629 0.295471 0.149648
O O9 0.691630 0.445386 0.261639
O O10 0.078670 0.377179 0.047942
O O11 0.732872 0.416434 0.649743
O O12 0.218036 0.423446 0.873717
#
# Coordination Sequence:
#
# PCOD9135532 Si02
#       6
#     4   4   4   4   4   4
#     4  10  20  41  62  85 130 158 197 266 301 363
#     4  10  20  44  62  90 126 160 208 262 304 367
#     4  10  21  42  65  86 126 162 209 258 303 368
#     4  12  21  41  66  89 127 166 203 260 316 367
#     4  10  25  41  60  97 123 164 211 251 319 369
#     4  10  23  39  61  97 122 164 212 251 317 368
#
# _framework density 23.479291
#
# number of rings (size 3 to 8) (size 9 to 14) (size 15 to 20)
#    0.000    2.000    5.000    1.000    0.000    2.667 
#   15.000    0.000    0.000    0.000    0.000    0.000 
#    0.000    0.000    0.000    0.000    0.000    0.000 
#
# Total GULP energy -67037.268009 kJ/mol
# GULP energy per Si atom -5586.439001 kJ/mol
# Density = 2.342585 g / cm^3
# Si number density = 23.479291 Si / 1000 Ang^3
#
#
#
# Elastic Constant Matrix: (Units=GPa)
#
#
# Indices 1 2 3 4 5 6 
#
# 1 25.9638 30.3589 13.5352 -0.0054 -7.2034 0.0066
# 2 30.3589 167.4052 6.3086 0.0010 -8.0141 0.0058
# 3 13.5352 6.3086 64.3128 -0.0141 -13.9230 0.0209
# 4 -0.0054 0.0010 -0.0141 33.1862 0.0082 -9.7910
# 5 -7.2034 -8.0141 -13.9230 0.0082 29.7510 -0.0076
# 6 0.0066 0.0058 0.0209 -9.7910 -0.0076 34.0645
#
#
#
# Elastic Compliance Matrix: (Units=1/GPa)
#
#
# Indices 1 2 3 4 5 6 
#
# 1 0.056512 -0.009571 -0.009515 0.000004 0.006652 -0.000001
# 2 -0.009571 0.007677 0.001343 -0.000002 0.000379 -0.000001
# 3 -0.009515 0.001343 0.018916 0.000002 0.006910 -0.000008
# 4 0.000004 -0.000002 0.000002 0.032925 -0.000005 0.009464
# 5 0.006652 0.000379 0.006910 -0.000005 0.038559 0.000001
# 6 -0.000001 -0.000001 -0.000008 0.009464 0.000001 0.032076
#
#
# Mechanical properties :
#
#
# Convention : Reuss Voigt Hill
#
# Bulk Modulus (GPa) = 20.99968 39.78746 30.39357
# Shear Modulus (GPa) = 21.00632 33.23228 27.11930
#
# Velocity S-wave (km/s) = 2.99436 3.76624 3.40226
# Velocity P-wave (km/s) = 4.57364 5.99127 5.32980
#
# Compressibility (1/GPa) = 0.04761978
#
# Stress axis : x y z
#
# Youngs Moduli (GPa) = 17.69523 130.26191 52.86622
#
# Poissons Ratio (x) = 1.24680 0.50300
# Poissons Ratio (y) = 0.16937 -0.07102
# Poissons Ratio (z) = 0.16836 -0.17500
#
# Static dielectric constant tensor:
#      x y z
#    x 1.883670 0.000000 0.024150 
#    y 0.000000 1.890970 0.000000 
#    z 0.024150 0.000000 1.946350 
# 
# From -- ./inp_files/14094.got.cif
#   From: 2010.05.17/outbox.cif.g08.bks.cpg/sg9_8_cif.got.tgz:14094.got - 2010.06.03 20:04:27.
