data_PCOD9135840
_publ_section_title
;
Structure prediction by ZEFSAII (Michael W. Deem and Ramdas Pophale) SiO2 
 PCOD9135840
Probable space group: C C
;
_chemical_formula_sum "Si O2"
_cell_formula_units_Z 32
_cell_length_a 10.872624
_cell_length_b 19.216333
_cell_length_c 8.976010
_cell_angle_alpha 90.000000
_cell_angle_beta 123.406639
_cell_angle_gamma 90.000000
_cell_volume 1565.533507
_symmetry_space_group_name_H-M "C C"
_symmetry_group_IT_number 9
_symmetry_cell_setting 'monoclinic'
loop_
_space_group_symop_operation_xyz
x,y,z
x,-y,1/2+z
1/2+x,1/2+y,z
1/2+x,1/2-y,1/2+z
loop_
_atom_site_type_symbol
_atom_site_label
_atom_site_fract_x
_atom_site_fract_y
_atom_site_fract_z
Si Si1 0.855890 0.841892 0.100340
Si Si2 0.307611 0.570262 0.843206
Si Si3 0.134029 0.529147 0.005751
Si Si4 0.448953 0.951764 0.649882
Si Si5 0.036915 0.966266 0.093309
Si Si6 0.717320 0.556427 0.431192
Si Si7 0.780966 0.660126 0.218915
Si Si8 0.075210 0.256794 0.887029
O O1 0.815685 0.862529 0.244660
O O2 0.912254 0.912760 0.062851
O O3 0.995888 0.789990 0.207113
O O4 0.710721 0.807558 0.931221
O O5 0.217635 0.574511 0.937441
O O6 0.238693 0.509924 0.692790
O O7 0.464805 0.538356 0.989965
O O8 0.058300 0.467324 0.859761
O O9 0.022122 0.568485 0.041844
O O10 0.329460 0.898022 0.630354
O O11 0.378341 0.027702 0.576142
O O12 0.142150 0.991617 0.294819
O O13 0.128069 0.932197 0.021634
O O14 0.726039 0.621334 0.328629
O O15 0.934410 0.700424 0.352580
O O16 0.656509 0.708098 0.062011
#
# Coordination Sequence:
#
# PCOD9135840 Si02
#       8
#     4   4   4   4   4   4   4   4
#     4  11  22  42  66  87 129 168 219 250 306 388
#     4  11  20  36  61  93 128 152 197 263 331 373
#     4  10  21  32  56 100 122 151 186 258 344 366
#     4  11  20  36  61  93 128 152 197 263 331 373
#     4  12  22  37  63 100 128 158 199 267 335 374
#     4  12  22  37  63 100 128 158 199 267 335 374
#     4  11  22  42  66  87 129 168 219 250 306 388
#     4  10  25  42  64  84 120 191 216 242 296 374
#
# _framework density 20.440317
#
# number of rings (size 3 to 8) (size 9 to 14) (size 15 to 20)
#    0.000    1.000    5.000    2.250    3.500    0.000 
#    0.000    1.250   11.000    0.000    0.000    0.000 
#    0.000    0.000    0.000    0.000    0.000    0.000 
#
# Total GULP energy -89324.275056 kJ/mol
# GULP energy per Si atom -5582.767191 kJ/mol
# Density = 2.039379 g / cm^3
# Si number density = 20.440317 Si / 1000 Ang^3
#
#
#
# Elastic Constant Matrix: (Units=GPa)
#
#
# Indices 1 2 3 4 5 6 
#
# 1 69.4499 -9.5867 30.3857 0.0000 -10.4900 0.0000
# 2 -9.5867 35.9278 6.4442 0.0000 9.1286 0.0000
# 3 30.3857 6.4442 78.7148 0.0000 5.6562 0.0000
# 4 0.0000 0.0000 0.0000 28.7881 0.0000 9.5333
# 5 -10.4900 9.1286 5.6562 0.0000 45.7431 0.0000
# 6 0.0000 0.0000 0.0000 9.5333 0.0000 34.4829
#
#
#
# Elastic Compliance Matrix: (Units=1/GPa)
#
#
# Indices 1 2 3 4 5 6 
#
# 1 0.019449 0.005563 -0.008277 0.000000 0.004373 0.000000
# 2 0.005563 0.031226 -0.004387 0.000000 -0.004413 0.000000
# 3 -0.008277 -0.004387 0.016478 0.000000 -0.003060 0.000000
# 4 0.000000 0.000000 0.000000 0.038237 0.000000 -0.010571
# 5 0.004373 -0.004413 -0.003060 0.000000 0.024123 0.000000
# 6 0.000000 0.000000 0.000000 -0.010571 0.000000 0.031922
#
#
# Mechanical properties :
#
#
# Convention : Reuss Voigt Hill
#
# Bulk Modulus (GPa) = 18.88528 26.50877 22.69703
# Shear Modulus (GPa) = 25.86796 32.25943 29.06369
#
# Velocity S-wave (km/s) = 3.56130 3.97700 3.77487
# Velocity P-wave (km/s) = 5.11564 5.83830 5.48887
#
# Compressibility (1/GPa) = 0.05295128
#
# Stress axis : x y z
#
# Youngs Moduli (GPa) = 51.41681 32.02439 60.68544
#
# Poissons Ratio (x) = -0.17815 0.50232
# Poissons Ratio (y) = -0.28603 0.26621
# Poissons Ratio (z) = 0.42560 0.14048
#
# Static dielectric constant tensor:
#      x y z
#    x 1.766870 0.000000 0.030990 
#    y 0.000000 1.746560 0.000000 
#    z 0.030990 0.000000 1.718800 
# 
# From -- ./inp_files/8304.got.cif
#   From: 2010.05.17/outbox.cif.g08.bks.cpg/sg9_5_cif.got.tgz:8304.got - 2010.06.03 20:04:27.
