data_PCOD9135905
_publ_section_title
;
Structure prediction by ZEFSAII (Michael W. Deem and Ramdas Pophale) SiO2 
 PCOD9135905
Probable space group: C C
;
_chemical_formula_sum "Si O2"
_cell_formula_units_Z 24
_cell_length_a 7.652042
_cell_length_b 16.799812
_cell_length_c 11.873657
_cell_angle_alpha 90.000000
_cell_angle_beta 40.734663
_cell_angle_gamma 90.000000
_cell_volume 996.058121
_symmetry_space_group_name_H-M "C C"
_symmetry_group_IT_number 9
_symmetry_cell_setting 'monoclinic'
loop_
_space_group_symop_operation_xyz
x,y,z
x,-y,1/2+z
1/2+x,1/2+y,z
1/2+x,1/2-y,1/2+z
loop_
_atom_site_type_symbol
_atom_site_label
_atom_site_fract_x
_atom_site_fract_y
_atom_site_fract_z
Si Si1 0.094810 0.366649 0.675790
Si Si2 0.691917 0.935685 0.857869
Si Si3 0.592391 0.577530 0.695687
Si Si4 0.602518 0.721075 0.532608
Si Si5 0.755463 0.485535 0.343086
Si Si6 0.256276 0.392809 0.085534
O O1 0.263064 0.388173 0.707211
O O2 0.172232 0.309657 0.536128
O O3 0.850053 0.315395 0.845175
O O4 0.968277 0.448623 0.692603
O O5 0.727552 0.893385 0.962651
O O6 0.374441 0.953139 0.003588
O O7 0.864486 0.014594 0.780314
O O8 0.570422 0.664748 0.657417
O O9 0.626112 0.570862 0.812155
O O10 0.345136 0.694486 0.584971
O O11 0.502561 0.545028 0.493569
O O12 0.983282 0.423839 0.278558
#
# Coordination Sequence:
#
# PCOD9135905 Si02
#       6
#     4   4   4   4   4   4
#     4  10  21  37  56  83 118 154 190 237 290 344
#     4   9  18  35  59  87 115 148 193 243 287 341
#     4   9  18  34  57  82 110 146 190 236 283 339
#     4  10  21  37  56  83 118 154 190 237 290 344
#     4   9  18  34  57  82 110 146 190 236 283 339
#     4   9  18  35  59  87 115 148 193 243 287 341
#
# _framework density 24.094978000000001
#
# number of rings (size 3 to 8) (size 9 to 14) (size 15 to 20)
#    0.000    2.667    0.000    1.000    0.000    4.000 
#    0.000   15.000    0.000    8.000    0.000    7.000 
#    0.000    0.000    0.000    0.000    0.000    0.000 
#
# Total GULP energy -66807.069775 kJ/mol
# GULP energy per Si atom -5567.255815 kJ/mol
# Density = 2.404014 g / cm^3
# Si number density = 24.094978 Si / 1000 Ang^3
#
#
#
# Elastic Constant Matrix: (Units=GPa)
#
#
# Indices 1 2 3 4 5 6 
#
# 1 118.1756 18.9468 17.4549 -0.0001 -22.4041 0.0000
# 2 18.9468 81.0005 -3.7836 0.0000 -10.0273 0.0000
# 3 17.4549 -3.7836 63.7653 -0.0002 -0.0642 0.0001
# 4 -0.0001 0.0000 -0.0002 33.5191 0.0001 15.0322
# 5 -22.4041 -10.0273 -0.0642 0.0001 38.0994 0.0000
# 6 0.0000 0.0000 0.0001 15.0322 0.0000 37.0631
#
#
#
# Elastic Compliance Matrix: (Units=1/GPa)
#
#
# Indices 1 2 3 4 5 6 
#
# 1 0.010235 -0.001845 -0.002906 0.000000 0.005528 0.000000
# 2 -0.001845 0.013131 0.001287 0.000000 0.002373 0.000000
# 3 -0.002906 0.001287 0.016553 0.000000 -0.001342 0.000000
# 4 0.000000 0.000000 0.000000 0.036467 0.000000 -0.014790
# 5 0.005528 0.002373 -0.001342 0.000000 0.030120 0.000000
# 6 0.000000 0.000000 0.000000 -0.014790 0.000000 0.032980
#
#
# Mechanical properties :
#
#
# Convention : Reuss Voigt Hill
#
# Bulk Modulus (GPa) = 30.31196 36.46418 33.38807
# Shear Modulus (GPa) = 31.76396 37.09122 34.42759
#
# Velocity S-wave (km/s) = 3.63475 3.92774 3.78409
# Velocity P-wave (km/s) = 5.49752 5.97795 5.74276
#
# Compressibility (1/GPa) = 0.03299028
#
# Stress axis : x y z
#
# Youngs Moduli (GPa) = 97.70339 76.15491 60.41237
#
# Poissons Ratio (x) = 0.14054 0.17554
# Poissons Ratio (y) = 0.18031 -0.07773
# Poissons Ratio (z) = 0.28389 -0.09799
#
# Static dielectric constant tensor:
#      x y z
#    x 2.035140 0.000000 0.084570 
#    y 0.000000 1.868760 0.000000 
#    z 0.084570 0.000000 2.154010 
# 
# From -- ./inp_files/5209.got.cif
#   From: 2010.05.17/outbox.cif.g08.bks.cpg/sg9_3_cif.got.tgz:5209.got - 2010.06.03 20:04:27.
