data_PCOD9135941
_publ_section_title
;
Structure prediction by ZEFSAII (Michael W. Deem and Ramdas Pophale) SiO2 
 PCOD9135941
Probable space group: C C
;
_chemical_formula_sum "Si O2"
_cell_formula_units_Z 32
_cell_length_a 28.571419
_cell_length_b 9.906909
_cell_length_c 8.021734
_cell_angle_alpha 90.000000
_cell_angle_beta 39.610441
_cell_angle_gamma 90.000000
_cell_volume 1447.645727
_symmetry_space_group_name_H-M "C C"
_symmetry_group_IT_number 9
_symmetry_cell_setting 'monoclinic'
loop_
_space_group_symop_operation_xyz
x,y,z
x,-y,1/2+z
1/2+x,1/2+y,z
1/2+x,1/2-y,1/2+z
loop_
_atom_site_type_symbol
_atom_site_label
_atom_site_fract_x
_atom_site_fract_y
_atom_site_fract_z
Si Si1 0.025270 0.349761 0.829420
Si Si2 0.455546 0.936527 0.345483
Si Si3 0.799141 0.563470 0.864731
Si Si4 0.065760 0.920352 0.319457
Si Si5 0.704120 0.798997 0.975562
Si Si6 0.050567 0.201001 0.234652
Si Si7 0.729419 0.650242 0.380790
Si Si8 0.688929 0.079645 0.890750
O O1 0.028430 0.190347 0.803319
O O2 0.103393 0.408394 0.676121
O O3 0.007758 0.433049 0.714877
O O4 0.964894 0.380344 0.135198
O O5 0.490991 0.820987 0.369442
O O6 0.377344 0.999999 0.605106
O O7 0.763695 0.679010 0.840777
O O8 0.746930 0.433045 0.995336
O O9 0.789794 0.619654 0.075013
O O10 0.062634 0.859120 0.514414
O O11 0.031878 0.067388 0.392473
O O12 0.151296 0.908392 0.034090
O O13 0.722810 0.932608 0.817735
O O14 0.627343 0.749999 0.105108
O O15 0.692053 0.859122 0.195797
O O16 0.726260 0.809656 0.406882
#
# Coordination Sequence:
#
# PCOD9135941 Si02
#       8
#     4   4   4   4   4   4   4   4
#     4  10  21  37  61  90 128 166 210 270 323 383
#     4  11  23  39  60  92 128 172 213 255 325 397
#     4  11  23  39  60  92 128 172 213 255 325 397
#     4  10  22  37  61  97 123 160 218 275 326 369
#     4  11  23  38  64  96 129 166 215 274 328 384
#     4  11  23  38  64  96 129 166 215 274 328 384
#     4  10  21  37  61  90 128 166 210 270 323 383
#     4  10  22  37  61  97 123 160 218 275 326 369
#
# _framework density 22.104856000000002
#
# number of rings (size 3 to 8) (size 9 to 14) (size 15 to 20)
#    0.000    1.500    2.500    2.250    7.000    0.000 
#    0.000    1.250    0.000    3.000    0.000    0.000 
#    0.000    0.000    0.000    0.000    0.000    0.000 
#
# Total GULP energy -89247.386780 kJ/mol
# GULP energy per Si atom -5577.961674 kJ/mol
# Density = 2.205454 g / cm^3
# Si number density = 22.104856 Si / 1000 Ang^3
#
#
#
# Elastic Constant Matrix: (Units=GPa)
#
#
# Indices 1 2 3 4 5 6 
#
# 1 74.3205 71.4493 25.6905 0.0000 -3.8988 0.0000
# 2 71.4493 139.7435 26.7393 0.0000 -12.1928 0.0000
# 3 25.6905 26.7393 96.2514 0.0000 -10.8891 0.0000
# 4 0.0000 0.0000 0.0000 35.8987 0.0000 0.0179
# 5 -3.8988 -12.1928 -10.8891 0.0000 27.7839 0.0000
# 6 0.0000 0.0000 0.0000 0.0179 0.0000 38.5036
#
#
#
# Elastic Compliance Matrix: (Units=1/GPa)
#
#
# Indices 1 2 3 4 5 6 
#
# 1 0.027979 -0.013858 -0.004041 0.000000 -0.003739 0.000000
# 2 -0.013858 0.014607 0.000153 0.000000 0.004526 0.000000
# 3 -0.004041 0.000153 0.011896 0.000000 0.004163 0.000000
# 4 0.000000 0.000000 0.000000 0.027856 0.000000 -0.000013
# 5 -0.003739 0.004526 0.004163 0.000000 0.039085 0.000000
# 6 0.000000 0.000000 0.000000 -0.000013 0.000000 0.025972
#
#
# Mechanical properties :
#
#
# Convention : Reuss Voigt Hill
#
# Bulk Modulus (GPa) = 52.65971 62.00819 57.33395
# Shear Modulus (GPa) = 26.42460 32.86631 29.64546
#
# Velocity S-wave (km/s) = 3.46124 3.86014 3.66612
# Velocity P-wave (km/s) = 6.31252 6.92678 6.62677
#
# Compressibility (1/GPa) = 0.01898985
#
# Stress axis : x y z
#
# Youngs Moduli (GPa) = 35.74133 68.45955 84.05860
#
# Poissons Ratio (x) = 0.94873 0.33967
# Poissons Ratio (y) = 0.49531 -0.01286
# Poissons Ratio (z) = 0.14443 -0.01047
#
# Static dielectric constant tensor:
#      x y z
#    x 1.885570 0.000000 0.021560 
#    y 0.000000 1.870150 0.000000 
#    z 0.021560 0.000000 1.871220 
# 
# From -- ./inp_files/12695.got.cif
#   From: 2010.05.17/outbox.cif.g08.bks.cpg/sg9_7_cif.got.tgz:12695.got - 2010.06.03 20:04:27.
