data_PCOD9135830
_publ_section_title
;
Structure prediction by ZEFSAII (Michael W. Deem and Ramdas Pophale) SiO2 
 PCOD9135830
Probable space group: C C
;
_chemical_formula_sum "Si O2"
_cell_formula_units_Z 28
_cell_length_a 18.602500
_cell_length_b 5.264973
_cell_length_c 12.851704
_cell_angle_alpha 90.000000
_cell_angle_beta 59.967721
_cell_angle_gamma 90.000000
_cell_volume 1089.726357
_symmetry_space_group_name_H-M "C C"
_symmetry_group_IT_number 9
_symmetry_cell_setting 'monoclinic'
loop_
_space_group_symop_operation_xyz
x,y,z
x,-y,1/2+z
1/2+x,1/2+y,z
1/2+x,1/2-y,1/2+z
loop_
_atom_site_type_symbol
_atom_site_label
_atom_site_fract_x
_atom_site_fract_y
_atom_site_fract_z
Si Si1 0.884130 0.752938 0.381110
Si Si2 0.650988 0.605341 0.608670
Si Si3 0.504059 0.333639 0.486200
Si Si4 0.567091 0.259003 0.819916
Si Si5 0.186307 0.369566 0.782427
Si Si6 0.515164 0.053452 0.160411
Si Si7 0.280216 0.250746 0.914127
O O1 0.840130 0.483162 0.395644
O O2 0.933023 0.763014 0.454935
O O3 0.942904 0.756912 0.235075
O O4 0.821383 0.990404 0.423722
O O5 0.578784 0.487507 0.731501
O O6 0.704680 0.749972 0.656644
O O7 0.695763 0.368220 0.523915
O O8 0.603745 0.810095 0.571774
O O9 0.514064 0.638089 0.455361
O O10 0.598402 0.241128 0.389661
O O11 0.491057 0.176752 0.601731
O O12 0.529371 0.055826 0.767735
O O13 0.658357 0.161629 0.787262
O O14 0.257505 0.306927 0.811182
#
# Coordination Sequence:
#
# PCOD9135830 Si02
#       7
#     4   4   4   4   4   4   4
#     4  12  28  53  72 123 171 203 269 346 410 492
#     4  10  24  47  80 112 150 211 283 330 395 498
#     4  11  24  46  82 115 154 222 273 337 404 489
#     4  10  20  46  79 117 150 193 303 337 373 494
#     4  10  24  46  82 111 150 208 281 329 397 493
#     4  11  24  48  81 117 161 222 276 336 410 491
#     4  12  30  50  76 117 170 209 257 349 423 469
#
# _framework density 25.694521999999999
#
# number of rings (size 3 to 8) (size 9 to 14) (size 15 to 20)
#    0.000    1.143    4.286    1.714   10.000    2.286 
#    0.000    1.429    0.000    0.000    0.000    0.000 
#    0.000    0.000    0.000    0.000    0.000    0.000 
#
# Total GULP energy -78150.507002 kJ/mol
# GULP energy per Si atom -5582.179072 kJ/mol
# Density = 2.563604 g / cm^3
# Si number density = 25.694522 Si / 1000 Ang^3
#
#
#
# Elastic Constant Matrix: (Units=GPa)
#
#
# Indices 1 2 3 4 5 6 
#
# 1 137.7296 54.0931 57.1826 -0.0008 48.9361 -0.0012
# 2 54.0931 142.1286 58.7160 -0.0014 18.9808 -0.0018
# 3 57.1826 58.7160 108.0186 -0.0002 25.4279 -0.0002
# 4 -0.0008 -0.0014 -0.0002 44.6233 -0.0002 -8.4171
# 5 48.9361 18.9808 25.4279 -0.0002 48.5441 -0.0001
# 6 -0.0012 -0.0018 -0.0002 -8.4171 -0.0001 51.6108
#
#
#
# Elastic Compliance Matrix: (Units=1/GPa)
#
#
# Indices 1 2 3 4 5 6 
#
# 1 0.013388 -0.002286 -0.003283 0.000000 -0.010883 0.000000
# 2 -0.002286 0.009515 -0.004139 0.000000 0.000752 0.000000
# 3 -0.003283 -0.004139 0.013785 0.000000 -0.002293 0.000000
# 4 0.000000 0.000000 0.000000 0.023121 0.000000 0.003771
# 5 -0.010883 0.000752 -0.002293 0.000000 0.032478 0.000000
# 6 0.000000 0.000000 0.000000 0.003771 0.000000 0.019991
#
#
# Mechanical properties :
#
#
# Convention : Reuss Voigt Hill
#
# Bulk Modulus (GPa) = 57.89468 80.87335 69.38402
# Shear Modulus (GPa) = 36.37628 43.48130 39.92879
#
# Velocity S-wave (km/s) = 3.76669 4.11815 3.94633
# Velocity P-wave (km/s) = 6.44190 7.35904 6.91569
#
# Compressibility (1/GPa) = 0.01727274
#
# Stress axis : x y z
#
# Youngs Moduli (GPa) = 74.69307 105.09233 72.54053
#
# Poissons Ratio (x) = 0.24022 0.23815
# Poissons Ratio (y) = 0.17073 0.30027
# Poissons Ratio (z) = 0.24522 0.43501
#
# Static dielectric constant tensor:
#      x y z
#    x 2.066070 0.000000 -0.083860 
#    y 0.000000 2.211810 0.000000 
#    z -0.083860 0.000000 2.097430 
# 
# From -- ./inp_files/19771.got.cif
#   From: 2010.05.17/outbox.cif.g08.bks.cpg/sg9_10_cif.got.tgz:19771.got - 2010.06.03 20:04:27.
