data_PCOD9135101
_publ_section_title
;
Structure prediction by ZEFSAII (Michael W. Deem and Ramdas Pophale) SiO2 
 PCOD9135101
Probable space group: C C
;
_chemical_formula_sum "Si O2"
_cell_formula_units_Z 32
_cell_length_a 10.510962
_cell_length_b 10.499989
_cell_length_c 14.621148
_cell_angle_alpha 90.000000
_cell_angle_beta 69.091695
_cell_angle_gamma 90.000000
_cell_volume 1507.407537
_symmetry_space_group_name_H-M "C C"
_symmetry_group_IT_number 9
_symmetry_cell_setting 'monoclinic'
loop_
_space_group_symop_operation_xyz
x,y,z
x,-y,1/2+z
1/2+x,1/2+y,z
1/2+x,1/2-y,1/2+z
loop_
_atom_site_type_symbol
_atom_site_label
_atom_site_fract_x
_atom_site_fract_y
_atom_site_fract_z
Si Si1 0.103240 0.676530 0.590690
Si Si2 0.278262 0.448801 0.486034
Si Si3 0.646224 0.409097 0.106860
Si Si4 0.746090 0.240833 0.731929
Si Si5 0.100597 0.231319 0.443771
Si Si6 0.399388 0.505674 0.271875
Si Si7 0.330355 0.129312 0.035834
Si Si8 0.316360 0.300952 0.652577
O O1 0.155658 0.547273 0.533035
O O2 0.138484 0.676548 0.689761
O O3 0.205261 0.786823 0.528602
O O4 0.948886 0.712446 0.616163
O O5 0.214502 0.321883 0.459862
O O6 0.383194 0.504868 0.385228
O O7 0.334074 0.408560 0.569932
O O8 0.572286 0.368689 0.031660
O O9 0.551081 0.502112 0.191239
O O10 0.782349 0.484872 0.042409
O O11 0.688628 0.287102 0.157211
O O12 0.834745 0.126764 0.751387
O O13 0.833343 0.331253 0.642989
O O14 0.667112 0.313340 0.832437
O O15 0.969449 0.319109 0.458661
O O16 0.318024 0.622988 0.247430
#
# Coordination Sequence:
#
# PCOD9135101 Si02
#       8
#     4   4   4   4   4   4   4   4
#     4  10  20  38  61  88 125 159 204 260 306 369
#     4  10  23  38  65  90 124 170 206 261 320 361
#     4  11  22  39  62  89 125 163 205 264 304 371
#     4   9  20  39  65  85 125 171 203 260 319 360
#     4  10  21  40  63  90 124 168 209 254 320 366
#     4  11  20  43  63  89 125 167 212 259 315 371
#     4  10  20  37  61  87 123 161 201 262 302 368
#     4  11  22  40  62  90 127 161 208 262 308 374
#
# _framework density 21.2285
#
# number of rings (size 3 to 8) (size 9 to 14) (size 15 to 20)
#    0.750    1.000    3.750    0.750    0.000    3.000 
#    0.000    7.500    0.000    0.000    0.000    0.000 
#    0.000    0.000    0.000    0.000    0.000    0.000 
#
# Total GULP energy -89234.855916 kJ/mol
# GULP energy per Si atom -5577.178495 kJ/mol
# Density = 2.118018 g / cm^3
# Si number density = 21.228500 Si / 1000 Ang^3
#
#
#
# Elastic Constant Matrix: (Units=GPa)
#
#
# Indices 1 2 3 4 5 6 
#
# 1 38.9918 -8.5734 -8.2683 0.0000 -3.7346 0.0000
# 2 -8.5734 48.3817 -1.2445 0.0000 10.3980 0.0000
# 3 -8.2683 -1.2445 67.5845 0.0000 0.7832 0.0000
# 4 0.0000 0.0000 0.0000 20.2230 0.0000 -8.0847
# 5 -3.7346 10.3980 0.7832 0.0000 15.8761 0.0000
# 6 0.0000 0.0000 0.0000 -8.0847 0.0000 35.7878
#
#
#
# Elastic Compliance Matrix: (Units=1/GPa)
#
#
# Indices 1 2 3 4 5 6 
#
# 1 0.027641 0.004219 0.003418 0.000000 0.003570 0.000000
# 2 0.004219 0.024725 0.001148 0.000000 -0.015258 0.000000
# 3 0.003418 0.001148 0.015244 0.000000 -0.000700 0.000000
# 4 0.000000 0.000000 0.000000 0.054358 0.000000 0.012280
# 5 0.003570 -0.015258 -0.000700 0.000000 0.073856 0.000000
# 6 0.000000 0.000000 0.000000 0.012280 0.000000 0.030717
#
#
# Mechanical properties :
#
#
# Convention : Reuss Voigt Hill
#
# Bulk Modulus (GPa) = 11.73997 13.19839 12.46918
# Shear Modulus (GPa) = 21.06473 25.91363 23.48918
#
# Velocity S-wave (km/s) = 3.15347 3.49764 3.33001
# Velocity P-wave (km/s) = 4.33607 4.74786 4.54663
#
# Compressibility (1/GPa) = 0.08517910
#
# Stress axis : x y z
#
# Youngs Moduli (GPa) = 36.17847 40.44443 65.60086
#
# Poissons Ratio (x) = -0.17062 -0.22422
# Poissons Ratio (y) = -0.15262 -0.07532
# Poissons Ratio (z) = -0.12365 -0.04644
#
# Static dielectric constant tensor:
#      x y z
#    x 1.768990 0.000000 0.003630 
#    y 0.000000 1.793540 0.000000 
#    z 0.003630 0.000000 1.790090 
# 
# From -- ./inp_files/24554.got.cif
#   From: 2010.05.17/outbox.cif.g08.bks.cpg/sg9_13_cif.got.tgz:24554.got - 2010.06.03 20:04:27.
