data_PCOD9135783
_publ_section_title
;
Structure prediction by ZEFSAII (Michael W. Deem and Ramdas Pophale) SiO2 
 PCOD9135783
Probable space group: C C
;
_chemical_formula_sum "Si O2"
_cell_formula_units_Z 24
_cell_length_a 9.152583
_cell_length_b 14.739726
_cell_length_c 13.540270
_cell_angle_alpha 90.000000
_cell_angle_beta 32.829625
_cell_angle_gamma 90.000000
_cell_volume 990.316625
_symmetry_space_group_name_H-M "C C"
_symmetry_group_IT_number 9
_symmetry_cell_setting 'monoclinic'
loop_
_space_group_symop_operation_xyz
x,y,z
x,-y,1/2+z
1/2+x,1/2+y,z
1/2+x,1/2-y,1/2+z
loop_
_atom_site_type_symbol
_atom_site_label
_atom_site_fract_x
_atom_site_fract_y
_atom_site_fract_z
Si Si1 0.487000 0.348297 0.028400
Si Si2 0.361547 0.583297 0.971765
Si Si3 0.436491 0.159942 0.943321
Si Si4 0.839067 0.528071 0.178821
Si Si5 0.357204 0.339290 0.674842
Si Si6 0.806769 0.291354 0.033267
O O1 0.169911 0.362050 0.231598
O O2 0.400409 0.082358 0.044819
O O3 0.512138 0.252175 0.957469
O O4 0.623146 0.345794 0.060361
O O5 0.287011 0.688341 0.993401
O O6 0.381546 0.583074 0.079074
O O7 0.127815 0.517978 0.066209
O O8 0.647884 0.556468 0.765363
O O9 0.653774 0.414476 0.861544
O O10 0.141520 0.172774 0.063800
O O11 0.084198 0.348046 0.889443
O O12 0.274631 0.248891 0.661044
#
# Coordination Sequence:
#
# PCOD9135783 Si02
#       6
#     4   4   4   4   4   4
#     4  12  22  44  75  99 137 183 238 285 344 426
#     4  10  25  45  66  97 143 185 227 298 353 401
#     4  12  23  41  70 108 132 181 234 291 349 414
#     4  12  26  47  68  99 148 186 234 294 353 413
#     4  10  22  41  67 104 132 174 236 288 347 410
#     4  10  20  44  70  95 132 181 233 280 342 420
#
# _framework density 24.234672
#
# number of rings (size 3 to 8) (size 9 to 14) (size 15 to 20)
#    1.000    0.000    5.000    2.000    2.333    0.000 
#    3.000    0.000    0.000    0.000    0.000    0.000 
#    0.000    0.000    0.000    0.000    0.000    0.000 
#
# Total GULP energy -66929.226817 kJ/mol
# GULP energy per Si atom -5577.435568 kJ/mol
# Density = 2.417951 g / cm^3
# Si number density = 24.234672 Si / 1000 Ang^3
#
#
#
# Elastic Constant Matrix: (Units=GPa)
#
#
# Indices 1 2 3 4 5 6 
#
# 1 86.4521 -6.0110 5.9927 -0.0065 -19.8309 0.0058
# 2 -6.0110 39.6799 6.0795 0.0022 2.9629 0.0093
# 3 5.9927 6.0795 119.8177 0.0276 -9.9582 0.0072
# 4 -0.0065 0.0022 0.0276 32.4341 0.0102 -5.5232
# 5 -19.8309 2.9629 -9.9582 0.0102 45.4487 -0.0066
# 6 0.0058 0.0093 0.0072 -5.5232 -0.0066 12.7053
#
#
#
# Elastic Compliance Matrix: (Units=1/GPa)
#
#
# Indices 1 2 3 4 5 6 
#
# 1 0.012956 0.001595 -0.000273 0.000000 0.005490 -0.000004
# 2 0.001595 0.025770 -0.001496 -0.000003 -0.001312 -0.000021
# 3 -0.000273 -0.001496 0.008590 -0.000009 0.001861 -0.000007
# 4 0.000000 -0.000003 -0.000009 0.033297 -0.000007 0.014475
# 5 0.005490 -0.001312 0.001861 -0.000007 0.024891 0.000007
# 6 -0.000004 -0.000021 -0.000007 0.014475 0.000007 0.084999
#
#
# Mechanical properties :
#
#
# Convention : Reuss Voigt Hill
#
# Bulk Modulus (GPa) = 21.29120 28.67469 24.98295
# Shear Modulus (GPa) = 24.21200 34.11020 29.16110
#
# Velocity S-wave (km/s) = 3.16423 3.75573 3.47260
# Velocity P-wave (km/s) = 4.70683 5.53761 5.13904
#
# Compressibility (1/GPa) = 0.04696776
#
# Stress axis : x y z
#
# Youngs Moduli (GPa) = 77.18380 38.80412 116.41128
#
# Poissons Ratio (x) = -0.06188 0.03174
# Poissons Ratio (y) = -0.12307 0.17420
# Poissons Ratio (z) = 0.02105 0.05807
#
# Static dielectric constant tensor:
#      x y z
#    x 1.906860 -0.000030 0.001180 
#    y -0.000030 2.076250 -0.000010 
#    z 0.001180 -0.000010 2.077240 
# 
# From -- ./inp_files/23631.got.cif
#   From: 2010.05.17/outbox.cif.g08.bks.cpg/sg9_12_cif.got.tgz:23631.got - 2010.06.03 20:04:27.
