data_PCOD9135156
_publ_section_title
;
Structure prediction by ZEFSAII (Michael W. Deem and Ramdas Pophale) SiO2 
 PCOD9135156
Probable space group: C C
;
_chemical_formula_sum "Si O2"
_cell_formula_units_Z 32
_cell_length_a 22.331686
_cell_length_b 8.480704
_cell_length_c 17.458847
_cell_angle_alpha 90.000000
_cell_angle_beta 156.040796
_cell_angle_gamma 90.000000
_cell_volume 1342.724993
_symmetry_space_group_name_H-M "C C"
_symmetry_group_IT_number 9
_symmetry_cell_setting 'monoclinic'
loop_
_space_group_symop_operation_xyz
x,y,z
x,-y,1/2+z
1/2+x,1/2+y,z
1/2+x,1/2-y,1/2+z
loop_
_atom_site_type_symbol
_atom_site_label
_atom_site_fract_x
_atom_site_fract_y
_atom_site_fract_z
Si Si1 0.351710 0.061167 0.645120
Si Si2 0.788576 0.924165 0.339390
Si Si3 0.137808 0.920450 0.495531
Si Si4 0.037575 0.211845 0.038855
Si Si5 0.215040 0.051281 0.826777
Si Si6 0.856447 0.087995 0.093525
Si Si7 0.103917 0.376913 0.868617
Si Si8 0.444588 0.752110 0.538013
O O1 0.344166 0.245787 0.621356
O O2 0.281990 0.023142 0.645866
O O3 0.262986 0.975620 0.471048
O O4 0.513445 0.992024 0.818635
O O5 0.616132 0.881819 0.131695
O O6 0.849705 0.882352 0.495183
O O7 0.873271 0.813172 0.377399
O O8 0.840172 0.105326 0.392792
O O9 0.068093 0.877581 0.495163
O O10 0.181860 0.754213 0.509508
O O11 0.006899 0.007321 0.296398
O O12 0.132900 0.107659 0.209454
O O13 0.100579 0.197474 0.685793
O O14 0.346508 0.089689 0.920635
O O15 0.718425 0.976473 0.952879
O O16 0.993424 0.278252 0.684188
#
# Coordination Sequence:
#
# PCOD9135156 Si02
#       8
#     4   4   4   4   4   4   4   4
#     4  11  23  41  69 102 134 177 237 280 341 407
#     4  11  24  44  68 100 133 179 229 288 334 412
#     4  12  25  46  65 101 143 181 230 282 349 428
#     4  11  27  43  67  96 143 180 224 281 352 416
#     4  10  20  42  62  98 129 171 223 277 333 402
#     4  12  24  43  74  99 139 176 238 293 338 412
#     4  11  23  38  73 103 128 178 228 288 343 398
#     4  10  20  37  66  95 127 164 223 279 320 397
#
# _framework density 23.832134
#
# number of rings (size 3 to 8) (size 9 to 14) (size 15 to 20)
#    0.000    1.000    3.750    3.000    5.250    1.000 
#    4.500    1.250    0.000    0.000    0.000    0.000 
#    0.000    0.000    0.000    0.000    0.000    0.000 
#
# Total GULP energy -89316.221203 kJ/mol
# GULP energy per Si atom -5582.263825 kJ/mol
# Density = 2.377789 g / cm^3
# Si number density = 23.832134 Si / 1000 Ang^3
#
#
#
# Elastic Constant Matrix: (Units=GPa)
#
#
# Indices 1 2 3 4 5 6 
#
# 1 118.3755 26.7645 13.6027 0.0000 11.9914 0.0000
# 2 26.7645 68.2820 22.7067 0.0000 15.0546 0.0000
# 3 13.6027 22.7067 47.3028 0.0000 13.4762 0.0000
# 4 0.0000 0.0000 0.0000 -8.3523 0.0000 11.1748
# 5 11.9914 15.0546 13.4762 0.0000 28.5480 0.0000
# 6 0.0000 0.0000 0.0000 11.1748 0.0000 16.6159
#
#
#
# Elastic Compliance Matrix: (Units=1/GPa)
#
#
# Indices 1 2 3 4 5 6 
#
# 1 0.009414 -0.003014 -0.000678 0.000000 -0.002045 0.000000
# 2 -0.003014 0.019348 -0.006787 0.000000 -0.005733 0.000000
# 3 -0.000678 -0.006787 0.027143 0.000000 -0.008949 0.000000
# 4 0.000000 0.000000 0.000000 -0.063021 0.000000 0.042384
# 5 -0.002045 -0.005733 -0.008949 0.000000 0.043135 0.000000
# 6 0.000000 0.000000 0.000000 0.042384 0.000000 0.031679
#
#
# Mechanical properties :
#
#
# Convention : Reuss Voigt Hill
#
# Bulk Modulus (GPa) = 28.61524 40.01201 34.31363
# Shear Modulus (GPa) = 49.84799 18.75473 34.30136
#
# Velocity S-wave (km/s) = 4.57839 2.80831 3.79791
# Velocity P-wave (km/s) = 6.32313 5.22886 5.80185
#
# Compressibility (1/GPa) = 0.03494641
#
# Stress axis : x y z
#
# Youngs Moduli (GPa) = 106.22296 51.68619 36.84198
#
# Poissons Ratio (x) = 0.15577 0.02497
# Poissons Ratio (y) = 0.32013 0.25006
# Poissons Ratio (z) = 0.07201 0.35082
#
# Static dielectric constant tensor:
#      x y z
#    x 1.923730 0.000000 0.026150 
#    y 0.000000 1.902540 0.000000 
#    z 0.026150 0.000000 1.963590 
# 
# From -- ./inp_files/31204.got.cif
#   From: 2010.05.17/outbox.cif.g08.bks.cpg/sg9_16_cif.got.tgz:31204.got - 2010.06.03 20:04:27.
