data_PCOD9135510
_publ_section_title
;
Structure prediction by ZEFSAII (Michael W. Deem and Ramdas Pophale) SiO2 
 PCOD9135510
Probable space group: C C
;
_chemical_formula_sum "Si O2"
_cell_formula_units_Z 32
_cell_length_a 10.956747
_cell_length_b 9.759795
_cell_length_c 28.835799
_cell_angle_alpha 90.000000
_cell_angle_beta 28.188262
_cell_angle_gamma 90.000000
_cell_volume 1456.588294
_symmetry_space_group_name_H-M "C C"
_symmetry_group_IT_number 9
_symmetry_cell_setting 'monoclinic'
loop_
_space_group_symop_operation_xyz
x,y,z
x,-y,1/2+z
1/2+x,1/2+y,z
1/2+x,1/2-y,1/2+z
loop_
_atom_site_type_symbol
_atom_site_label
_atom_site_fract_x
_atom_site_fract_y
_atom_site_fract_z
Si Si1 0.934410 0.407865 0.731510
Si Si2 0.738212 0.279330 0.539230
Si Si3 0.456984 0.723747 0.037471
Si Si4 0.076210 0.004082 0.429685
Si Si5 0.203999 0.308591 0.146033
Si Si6 0.639132 0.392166 0.739596
Si Si7 0.615898 0.995517 0.929961
Si Si8 0.146334 0.360059 0.516828
O O1 0.823466 0.435550 0.819825
O O2 0.699543 0.389303 0.773966
O O3 0.080490 0.746398 0.735245
O O4 0.091711 0.547135 0.670292
O O5 0.559893 0.255471 0.554979
O O6 0.906988 0.414514 0.473312
O O7 0.628548 0.292490 0.628541
O O8 0.148383 0.704685 0.146976
O O9 0.590444 0.586665 0.971257
O O10 0.521482 0.849639 0.981633
O O11 0.910250 0.896441 0.453648
O O12 0.906935 0.142057 0.489719
O O13 0.510552 0.288700 0.055190
O O14 0.389496 0.481486 0.813134
O O15 0.909902 0.432511 0.624407
O O16 0.670531 0.081933 0.957855
#
# Coordination Sequence:
#
# PCOD9135510 Si02
#       8
#     4   4   4   4   4   4   4   4
#     4  12  23  40  74 101 135 180 229 285 346 403
#     4  11  24  46  66  96 142 177 222 283 341 406
#     4  12  25  43  67 100 139 176 226 288 340 406
#     4  12  23  46  68 101 137 184 228 281 346 411
#     4   9  21  40  64  97 130 178 222 277 337 407
#     4  10  20  40  69  97 129 181 221 278 340 410
#     4  11  23  44  70  98 134 180 226 280 340 406
#     4   9  19  39  68  88 132 174 218 270 334 399
#
# _framework density 21.969147
#
# number of rings (size 3 to 8) (size 9 to 14) (size 15 to 20)
#    0.750    0.500    5.000    0.750    0.000    3.000 
#    2.250    0.000    0.000    0.000    0.000    0.000 
#    0.000    0.000    0.000    0.000    0.000    0.000 
#
# Total GULP energy -89074.061779 kJ/mol
# GULP energy per Si atom -5567.128861 kJ/mol
# Density = 2.191914 g / cm^3
# Si number density = 21.969147 Si / 1000 Ang^3
#
#
#
# Elastic Constant Matrix: (Units=GPa)
#
#
# Indices 1 2 3 4 5 6 
#
# 1 66.0468 36.1801 -3.1341 -0.0049 2.2123 0.0009
# 2 36.1801 64.6282 -5.4376 0.0000 -7.2923 -0.0003
# 3 -3.1341 -5.4376 59.2689 -0.0346 -1.3095 0.0082
# 4 -0.0049 0.0000 -0.0346 23.8878 0.0057 7.9636
# 5 2.2123 -7.2923 -1.3095 0.0057 21.0989 0.0007
# 6 0.0009 -0.0003 0.0082 7.9636 0.0007 9.5625
#
#
#
# Elastic Compliance Matrix: (Units=1/GPa)
#
#
# Indices 1 2 3 4 5 6 
#
# 1 0.022813 -0.013589 -0.000197 0.000009 -0.007101 -0.000010
# 2 -0.013589 0.024349 0.001735 -0.000003 0.009948 0.000003
# 3 -0.000197 0.001735 0.017058 0.000040 0.001679 -0.000048
# 4 0.000009 -0.000003 0.000040 0.057952 -0.000014 -0.048263
# 5 -0.007101 0.009948 0.001679 -0.000014 0.051683 0.000007
# 6 -0.000010 0.000003 -0.000048 -0.048263 0.000007 0.144769
#
#
# Mechanical properties :
#
#
# Convention : Reuss Voigt Hill
#
# Bulk Modulus (GPa) = 24.92654 27.24007 26.08331
# Shear Modulus (GPa) = 14.04101 21.73221 17.88661
#
# Velocity S-wave (km/s) = 2.53083 3.14859 2.85646
# Velocity P-wave (km/s) = 4.46217 5.06402 4.77259
#
# Compressibility (1/GPa) = 0.04011789
#
# Stress axis : x y z
#
# Youngs Moduli (GPa) = 43.83396 41.06930 58.62306
#
# Poissons Ratio (x) = 0.55810 0.01156
# Poissons Ratio (y) = 0.59567 -0.10172
# Poissons Ratio (z) = 0.00865 -0.07126
#
# Static dielectric constant tensor:
#      x y z
#    x 1.829230 0.000000 0.035580 
#    y 0.000000 1.845340 0.000000 
#    z 0.035580 0.000000 1.902910 
# 
# From -- ./inp_files/37325.got.cif
#   From: 2010.05.17/outbox.cif.g08.bks.cpg/sg9_19_cif.got.tgz:37325.got - 2010.06.03 20:04:27.
