data_PCOD9135427
_publ_section_title
;
Structure prediction by ZEFSAII (Michael W. Deem and Ramdas Pophale) SiO2 
 PCOD9135427
Probable space group: C C
;
_chemical_formula_sum "Si O2"
_cell_formula_units_Z 32
_cell_length_a 12.910599
_cell_length_b 15.851061
_cell_length_c 12.561124
_cell_angle_alpha 90.000000
_cell_angle_beta 34.379520
_cell_angle_gamma 90.000000
_cell_volume 1451.541688
_symmetry_space_group_name_H-M "C C"
_symmetry_group_IT_number 9
_symmetry_cell_setting 'monoclinic'
loop_
_space_group_symop_operation_xyz
x,y,z
x,-y,1/2+z
1/2+x,1/2+y,z
1/2+x,1/2-y,1/2+z
loop_
_atom_site_type_symbol
_atom_site_label
_atom_site_fract_x
_atom_site_fract_y
_atom_site_fract_z
Si Si1 0.366750 0.653382 0.776930
Si Si2 0.289853 0.789008 0.174604
Si Si3 0.654828 0.934890 0.270300
Si Si4 0.775320 0.337526 0.943394
Si Si5 0.049569 0.106316 0.018534
Si Si6 0.170894 0.378738 0.852217
Si Si7 0.438798 0.482889 0.394830
Si Si8 0.308978 0.018892 0.955184
O O1 0.230313 0.627226 0.797445
O O2 0.577468 0.643439 0.560159
O O3 0.349395 0.750710 0.830570
O O4 0.352088 0.586356 0.887147
O O5 0.142265 0.811735 0.389795
O O6 0.253826 0.688678 0.196360
O O7 0.244889 0.820635 0.094833
O O8 0.476525 0.838105 0.048832
O O9 0.631739 0.027416 0.345081
O O10 0.457788 0.922028 0.384350
O O11 0.795248 0.945729 0.052482
O O12 0.884520 0.426275 0.854483
O O13 0.988923 0.054094 0.967623
O O14 0.214959 0.060171 0.934501
O O15 0.867657 0.114150 0.247442
O O16 0.634689 0.506898 0.180103
#
# Coordination Sequence:
#
# PCOD9135427 Si02
#       8
#     4   4   4   4   4   4   4   4
#     4  11  24  41  68 103 132 173 226 284 343 390
#     4  12  20  37  66  98 130 163 213 286 340 381
#     4  11  24  42  65  99 135 179 219 273 342 405
#     4  11  21  41  63 101 133 165 225 283 333 391
#     4  11  22  38  64  97 129 172 221 277 331 397
#     4  11  21  36  62  94 129 161 212 273 333 387
#     4  10  20  40  62  95 134 166 220 276 329 395
#     4  11  24  41  66  97 130 181 226 270 335 404
#
# _framework density 22.045524
#
# number of rings (size 3 to 8) (size 9 to 14) (size 15 to 20)
#    0.000    1.000    5.000    5.250    1.750    3.000 
#    2.250    0.000    2.750    1.500    0.000    0.000 
#    0.000    0.000    0.000    0.000    0.000    0.000 
#
# Total GULP energy -89079.476165 kJ/mol
# GULP energy per Si atom -5567.467260 kJ/mol
# Density = 2.199535 g / cm^3
# Si number density = 22.045524 Si / 1000 Ang^3
#
#
#
# Elastic Constant Matrix: (Units=GPa)
#
#
# Indices 1 2 3 4 5 6 
#
# 1 112.5239 15.5365 16.4892 0.0004 -14.0097 -0.0002
# 2 15.5365 17.1963 -7.6650 0.0032 -2.0625 -0.0009
# 3 16.4892 -7.6650 77.4183 -0.0005 -16.5451 0.0029
# 4 0.0004 0.0032 -0.0005 3.6549 0.0036 -1.6722
# 5 -14.0097 -2.0625 -16.5451 0.0036 27.4475 -0.0027
# 6 -0.0002 -0.0009 0.0029 -1.6722 -0.0027 16.2824
#
#
#
# Elastic Compliance Matrix: (Units=1/GPa)
#
#
# Indices 1 2 3 4 5 6 
#
# 1 0.011213 -0.010988 -0.002789 0.000005 0.003217 0.000001
# 2 -0.010988 0.073800 0.011058 -0.000071 0.006603 -0.000004
# 3 -0.002789 0.011058 0.016620 -0.000018 0.009426 -0.000003
# 4 0.000005 -0.000071 -0.000018 0.287097 -0.000048 0.029485
# 5 0.003217 0.006603 0.009426 -0.000048 0.044253 0.000001
# 6 0.000001 -0.000004 -0.000003 0.029485 0.000001 0.064444
#
#
# Mechanical properties :
#
#
# Convention : Reuss Voigt Hill
#
# Bulk Modulus (GPa) = 10.39542 28.42888 19.41215
# Shear Modulus (GPa) = 9.34699 21.66215 15.50457
#
# Velocity S-wave (km/s) = 2.06133 3.13806 2.65485
# Velocity P-wave (km/s) = 3.22352 5.10426 4.26875
#
# Compressibility (1/GPa) = 0.09619619
#
# Stress axis : x y z
#
# Youngs Moduli (GPa) = 89.17947 13.55007 60.16824
#
# Poissons Ratio (x) = 0.14889 0.16779
# Poissons Ratio (y) = 0.97992 -0.66535
# Poissons Ratio (z) = 0.24870 -0.14984
#
# Static dielectric constant tensor:
#      x y z
#    x 1.922160 0.000000 -0.101280 
#    y 0.000000 1.941080 0.000000 
#    z -0.101280 0.000000 1.957900 
# 
# From -- ./inp_files/17037.got.cif
#   From: 2010.05.17/outbox.cif.g08.bks.cpg/sg9_9_cif.got.tgz:17037.got - 2010.06.03 20:04:27.
