data_PCOD9135903
_publ_section_title
;
Structure prediction by ZEFSAII (Michael W. Deem and Ramdas Pophale) SiO2 
 PCOD9135903
Probable space group: C C
;
_chemical_formula_sum "Si O2"
_cell_formula_units_Z 28
_cell_length_a 11.607871
_cell_length_b 20.515502
_cell_length_c 5.254974
_cell_angle_alpha 90.000000
_cell_angle_beta 89.341275
_cell_angle_gamma 90.000000
_cell_volume 1251.343638
_symmetry_space_group_name_H-M "C C"
_symmetry_group_IT_number 9
_symmetry_cell_setting 'monoclinic'
loop_
_space_group_symop_operation_xyz
x,y,z
x,-y,1/2+z
1/2+x,1/2+y,z
1/2+x,1/2-y,1/2+z
loop_
_atom_site_type_symbol
_atom_site_label
_atom_site_fract_x
_atom_site_fract_y
_atom_site_fract_z
Si Si1 0.468020 0.524438 0.802700
Si Si2 0.667605 0.164895 0.367177
Si Si3 0.456444 0.784436 0.061132
Si Si4 0.719580 0.685193 0.777331
Si Si5 0.887944 0.837005 0.187958
Si Si6 0.211776 0.469020 0.708503
Si Si7 0.084586 0.172790 0.287133
O O1 0.530779 0.508060 0.537545
O O2 0.434871 0.599834 0.835529
O O3 0.346151 0.488162 0.745953
O O4 0.531855 0.160942 0.423264
O O5 0.688800 0.237806 0.270410
O O6 0.701205 0.107608 0.175904
O O7 0.756448 0.157413 0.601895
O O8 0.356499 0.812496 0.240783
O O9 0.552864 0.747935 0.227844
O O10 0.412997 0.728408 0.856120
O O11 0.667653 0.657924 0.518995
O O12 0.655477 0.655492 0.026446
O O13 0.959945 0.843852 0.918733
O O14 0.160508 0.509075 0.478409
#
# Coordination Sequence:
#
# PCOD9135903 Si02
#       7
#     4   4   4   4   4   4   4
#     4  10  22  36  57  90 122 160 199 252 327 367
#     4  11  22  39  62  90 132 158 207 257 314 380
#     4  11  24  38  60  90 124 181 199 257 318 368
#     4  11  24  39  56  84 131 161 215 238 313 385
#     4  12  22  40  66  91 135 161 213 261 318 387
#     4  10  21  37  55  88 121 158 198 248 322 365
#     4  11  23  39  56  89 119 173 199 259 308 370
#
# _framework density 22.375948999999999
#
# number of rings (size 3 to 8) (size 9 to 14) (size 15 to 20)
#    0.000    1.143    7.143    1.714    6.000    2.286 
#    0.000    0.000    0.000    0.000    0.000    6.000 
#    0.000    0.000    0.000    0.000    0.000    0.000 
#
# Total GULP energy -77990.197001 kJ/mol
# GULP energy per Si atom -5570.728357 kJ/mol
# Density = 2.232502 g / cm^3
# Si number density = 22.375949 Si / 1000 Ang^3
#
#
#
# Elastic Constant Matrix: (Units=GPa)
#
#
# Indices 1 2 3 4 5 6 
#
# 1 98.1396 8.3020 33.6774 0.0000 -31.8431 0.0000
# 2 8.3020 65.9838 18.7865 0.0000 -6.9036 0.0000
# 3 33.6774 18.7865 164.5575 0.0000 -9.8290 0.0000
# 4 0.0000 0.0000 0.0000 24.3799 0.0000 -4.4627
# 5 -31.8431 -6.9036 -9.8290 0.0000 27.9440 0.0000
# 6 0.0000 0.0000 0.0000 -4.4627 0.0000 16.9860
#
#
#
# Elastic Compliance Matrix: (Units=1/GPa)
#
#
# Indices 1 2 3 4 5 6 
#
# 1 0.017047 0.000503 -0.002429 0.000000 0.018695 0.000000
# 2 0.000503 0.015985 -0.001693 0.000000 0.003927 0.000000
# 3 -0.002429 -0.001693 0.006718 0.000000 -0.000824 0.000000
# 4 0.000000 0.000000 0.000000 0.043090 0.000000 0.011321
# 5 0.018695 0.003927 -0.000824 0.000000 0.057770 0.000000
# 6 0.000000 0.000000 0.000000 0.011321 0.000000 0.061847
#
#
# Mechanical properties :
#
#
# Convention : Reuss Voigt Hill
#
# Bulk Modulus (GPa) = 30.75972 50.02363 40.39168
# Shear Modulus (GPa) = 22.67247 31.72297 27.19772
#
# Velocity S-wave (km/s) = 3.18661 3.76936 3.49017
# Velocity P-wave (km/s) = 5.22647 6.43029 5.85937
#
# Compressibility (1/GPa) = 0.03251005
#
# Stress axis : x y z
#
# Youngs Moduli (GPa) = 58.66277 62.55913 148.84922
#
# Poissons Ratio (x) = -0.03146 0.36162
# Poissons Ratio (y) = -0.02950 0.25204
# Poissons Ratio (z) = 0.14252 0.10593
#
# Static dielectric constant tensor:
#      x y z
#    x 1.898500 0.000000 -0.088590 
#    y 0.000000 1.877250 0.000000 
#    z -0.088590 0.000000 2.103570 
# 
# From -- ./inp_files/1725.got.cif
#   From: 2010.05.17/outbox.cif.g08.bks.cpg/sg9_1_cif.got.tgz:1725.got - 2010.06.03 20:04:27.
