data_PCOD9135058
_publ_section_title
;
Structure prediction by ZEFSAII (Michael W. Deem and Ramdas Pophale) SiO2 
 PCOD9135058
Probable space group: C C
;
_chemical_formula_sum "Si O2"
_cell_formula_units_Z 32
_cell_length_a 16.435578
_cell_length_b 11.940650
_cell_length_c 18.512426
_cell_angle_alpha 90.000000
_cell_angle_beta 155.376999
_cell_angle_gamma 90.000000
_cell_volume 1513.712015
_symmetry_space_group_name_H-M "C C"
_symmetry_group_IT_number 9
_symmetry_cell_setting 'monoclinic'
loop_
_space_group_symop_operation_xyz
x,y,z
x,-y,1/2+z
1/2+x,1/2+y,z
1/2+x,1/2-y,1/2+z
loop_
_atom_site_type_symbol
_atom_site_label
_atom_site_fract_x
_atom_site_fract_y
_atom_site_fract_z
Si Si1 0.936530 0.623793 0.689250
Si Si2 0.233788 0.634895 0.247815
Si Si3 0.683768 0.382728 0.701164
Si Si4 0.983200 0.866261 0.801583
Si Si5 0.366785 0.881826 0.363061
Si Si6 0.641451 0.988377 0.475930
Si Si7 0.605259 0.174006 0.566883
Si Si8 0.263622 0.583586 0.843631
O O1 0.955428 0.742018 0.746712
O O2 0.710230 0.607224 0.490526
O O3 0.028319 0.521897 0.810144
O O4 0.073422 0.626924 0.730187
O O5 0.382083 0.619392 0.299181
O O6 0.253851 0.766589 0.277755
O O7 0.284011 0.550500 0.352314
O O8 0.010152 0.605283 0.046794
O O9 0.732038 0.513311 0.735000
O O10 0.674035 0.302917 0.622122
O O11 0.458397 0.374658 0.541812
O O12 0.872755 0.337224 0.896539
O O13 0.864382 0.949969 0.653568
O O14 0.530213 0.890582 0.432223
O O15 0.626450 0.100842 0.511439
O O16 0.731524 0.120173 0.733724
#
# Coordination Sequence:
#
# PCOD9135058 Si02
#       8
#     4   4   4   4   4   4   4   4
#     4  12  25  37  64 102 139 178 223 294 351 390
#     4  11  20  41  67 104 127 175 232 283 324 418
#     4  11  23  40  63  97 134 177 215 287 335 404
#     4  11  21  39  64  93 141 178 224 276 337 406
#     4  10  20  36  70  95 126 165 239 276 322 393
#     4  10  22  40  60 101 129 179 230 281 331 413
#     4  11  23  40  64  93 138 174 236 270 344 415
#     4  12  26  39  64 105 142 172 219 291 354 397
#
# _framework density 21.140084999999999
#
# number of rings (size 3 to 8) (size 9 to 14) (size 15 to 20)
#    0.000    1.000    7.500    1.500    5.250    1.000 
#    0.000    0.000    0.000    6.000    0.000    0.000 
#    0.000    0.000    0.000    0.000    0.000    0.000 
#
# Total GULP energy -89128.526970 kJ/mol
# GULP energy per Si atom -5570.532936 kJ/mol
# Density = 2.109197 g / cm^3
# Si number density = 21.140085 Si / 1000 Ang^3
#
#
#
# Elastic Constant Matrix: (Units=GPa)
#
#
# Indices 1 2 3 4 5 6 
#
# 1 31.3855 13.6041 24.0053 0.0023 12.1945 -0.0005
# 2 13.6041 119.4860 53.0726 0.0056 6.5496 -0.0004
# 3 24.0053 53.0726 184.8622 0.0044 14.8172 0.0008
# 4 0.0023 0.0056 0.0044 35.5932 0.0007 -7.1966
# 5 12.1945 6.5496 14.8172 0.0007 16.6300 0.0007
# 6 -0.0005 -0.0004 0.0008 -7.1966 0.0007 15.5211
#
#
#
# Elastic Compliance Matrix: (Units=1/GPa)
#
#
# Indices 1 2 3 4 5 6 
#
# 1 0.047217 -0.002356 -0.002966 -0.000001 -0.031053 0.000002
# 2 -0.002356 0.009742 -0.002500 -0.000001 0.000119 0.000000
# 3 -0.002966 -0.002500 0.006741 0.000000 -0.002846 -0.000001
# 4 -0.000001 -0.000001 0.000000 0.031002 0.000000 0.014374
# 5 -0.031053 0.000119 -0.002846 0.000000 0.085392 -0.000005
# 6 0.000002 0.000000 -0.000001 0.014374 -0.000005 0.071094
#
#
# Mechanical properties :
#
#
# Convention : Reuss Voigt Hill
#
# Bulk Modulus (GPa) = 20.80994 57.45532 39.13263
# Shear Modulus (GPa) = 17.67726 29.88563 23.78144
#
# Velocity S-wave (km/s) = 2.89484 3.76399 3.35766
# Velocity P-wave (km/s) = 4.58679 6.79173 5.79509
#
# Compressibility (1/GPa) = 0.04805396
#
# Stress axis : x y z
#
# Youngs Moduli (GPa) = 21.17880 102.65357 148.35672
#
# Poissons Ratio (x) = 0.24189 0.44001
# Poissons Ratio (y) = 0.04991 0.37093
# Poissons Ratio (z) = 0.06281 0.25666
#
# Static dielectric constant tensor:
#      x y z
#    x 1.796240 0.000000 -0.031620 
#    y 0.000000 1.837210 0.000000 
#    z -0.031620 0.000000 1.820420 
# 
# From -- ./inp_files/34124.got.cif
#   From: 2010.05.17/outbox.cif.g08.bks.cpg/sg9_18_cif.got.tgz:34124.got - 2010.06.03 20:04:27.
