data_PCOD9135753
_publ_section_title
;
Structure prediction by ZEFSAII (Michael W. Deem and Ramdas Pophale) SiO2 
 PCOD9135753
Probable space group: C C
;
_chemical_formula_sum "Si O2"
_cell_formula_units_Z 24
_cell_length_a 13.189226
_cell_length_b 5.129392
_cell_length_c 24.168409
_cell_angle_alpha 90.000000
_cell_angle_beta 145.217202
_cell_angle_gamma 90.000000
_cell_volume 932.746857
_symmetry_space_group_name_H-M "C C"
_symmetry_group_IT_number 9
_symmetry_cell_setting 'monoclinic'
loop_
_space_group_symop_operation_xyz
x,y,z
x,-y,1/2+z
1/2+x,1/2+y,z
1/2+x,1/2-y,1/2+z
loop_
_atom_site_type_symbol
_atom_site_label
_atom_site_fract_x
_atom_site_fract_y
_atom_site_fract_z
Si Si1 0.270450 0.609681 0.507360
Si Si2 0.679587 0.960399 0.205295
Si Si3 0.411095 0.100278 0.171952
Si Si4 0.072491 0.155828 0.570829
Si Si5 0.875265 0.484262 0.335443
Si Si6 0.243112 0.158643 0.882032
O O1 0.455607 0.502801 0.564789
O O2 0.315110 0.693400 0.588966
O O3 0.235586 0.843243 0.445632
O O4 0.086879 0.457209 0.425907
O O5 0.516930 0.925524 0.174895
O O6 0.612794 0.060640 0.115809
O O7 0.808715 0.718343 0.267020
O O8 0.560911 0.220948 0.278574
O O9 0.257140 0.953087 0.134415
O O10 0.924628 0.169722 0.456649
O O11 0.281299 0.280625 0.773764
O O12 0.798202 0.559561 0.362304
#
# Coordination Sequence:
#
# PCOD9135753 Si02
#       6
#     4   4   4   4   4   4
#     4   9  22  42  70 112 152 204 256 316 382 458
#     4  10  24  45  73 112 144 200 250 311 381 451
#     4  10  20  43  75 108 154 202 253 322 372 459
#     4   9  21  46  71 115 148 202 255 311 382 457
#     4  11  23  46  75 106 154 192 252 314 377 453
#     4   9  22  44  70 111 152 202 256 310 386 446
#
# _framework density 25.730456
#
# number of rings (size 3 to 8) (size 9 to 14) (size 15 to 20)
#    1.000    1.333    0.000    1.000    4.667    1.333 
#   15.000    1.667    0.000    0.000    0.000    0.000 
#    0.000    0.000    0.000    0.000    0.000    0.000 
#
# Total GULP energy -66967.367987 kJ/mol
# GULP energy per Si atom -5580.613999 kJ/mol
# Density = 2.567189 g / cm^3
# Si number density = 25.730456 Si / 1000 Ang^3
#
#
#
# Elastic Constant Matrix: (Units=GPa)
#
#
# Indices 1 2 3 4 5 6 
#
# 1 166.4482 48.1201 68.6187 -0.0002 32.1013 0.0013
# 2 48.1201 84.3145 46.1691 -0.0014 9.6204 0.0042
# 3 68.6187 46.1691 185.0806 0.0004 9.3525 -0.0004
# 4 -0.0002 -0.0014 0.0004 7.4549 0.0002 -3.5397
# 5 32.1013 9.6204 9.3525 0.0002 59.1219 -0.0009
# 6 0.0013 0.0042 -0.0004 -3.5397 -0.0009 13.9014
#
#
#
# Elastic Compliance Matrix: (Units=1/GPa)
#
#
# Indices 1 2 3 4 5 6 
#
# 1 0.008580 -0.003275 -0.002173 0.000000 -0.003782 0.000000
# 2 -0.003275 0.015160 -0.002553 0.000001 -0.000285 -0.000004
# 3 -0.002173 -0.002553 0.006819 0.000000 0.000516 0.000001
# 4 0.000000 0.000001 0.000000 0.152588 0.000000 0.038853
# 5 -0.003782 -0.000285 0.000516 0.000000 0.018932 0.000002
# 6 0.000000 -0.000004 0.000001 0.038853 0.000002 0.081828
#
#
# Mechanical properties :
#
#
# Convention : Reuss Voigt Hill
#
# Bulk Modulus (GPa) = 68.69575 84.62877 76.66226
# Shear Modulus (GPa) = 16.40618 34.29135 25.34877
#
# Velocity S-wave (km/s) = 2.52785 3.65460 3.14214
# Velocity P-wave (km/s) = 5.93938 7.12531 6.55920
#
# Compressibility (1/GPa) = 0.01455694
#
# Stress axis : x y z
#
# Youngs Moduli (GPa) = 116.55098 65.96231 146.64066
#
# Poissons Ratio (x) = 0.21605 0.31863
# Poissons Ratio (y) = 0.38175 0.37438
# Poissons Ratio (z) = 0.25325 0.16840
#
# Static dielectric constant tensor:
#      x y z
#    x 2.089850 0.000000 -0.078560 
#    y 0.000000 2.102010 0.000000 
#    z -0.078560 0.000000 2.060870 
# 
# From -- ./inp_files/36648.got.cif
#   From: 2010.05.17/outbox.cif.g08.bks.cpg/sg9_19_cif.got.tgz:36648.got - 2010.06.03 20:04:27.
