data_PCOD9135441
_publ_section_title
;
Structure prediction by ZEFSAII (Michael W. Deem and Ramdas Pophale) SiO2 
 PCOD9135441
Probable space group: C C
;
_chemical_formula_sum "Si O2"
_cell_formula_units_Z 28
_cell_length_a 15.445557
_cell_length_b 10.621531
_cell_length_c 9.003620
_cell_angle_alpha 90.000000
_cell_angle_beta 122.326597
_cell_angle_gamma 90.000000
_cell_volume 1248.163847
_symmetry_space_group_name_H-M "C C"
_symmetry_group_IT_number 9
_symmetry_cell_setting 'monoclinic'
loop_
_space_group_symop_operation_xyz
x,y,z
x,-y,1/2+z
1/2+x,1/2+y,z
1/2+x,1/2-y,1/2+z
loop_
_atom_site_type_symbol
_atom_site_label
_atom_site_fract_x
_atom_site_fract_y
_atom_site_fract_z
Si Si1 0.547760 0.397064 0.830070
Si Si2 0.042986 0.496326 0.423382
Si Si3 0.701985 0.387949 0.454864
Si Si4 0.328701 0.692531 0.058748
Si Si5 0.122506 0.347502 0.226228
Si Si6 0.331035 0.929115 0.860569
Si Si7 0.665508 0.235849 0.159544
O O1 0.596390 0.533939 0.861660
O O2 0.426699 0.387590 0.695982
O O3 0.595883 0.293338 0.759288
O O4 0.589899 0.343516 0.025354
O O5 0.058507 0.444772 0.272108
O O6 0.092751 0.625216 0.530194
O O7 0.105846 0.391416 0.572268
O O8 0.925347 0.506893 0.361843
O O9 0.752986 0.381405 0.662200
O O10 0.775424 0.473330 0.417594
O O11 0.690600 0.261197 0.351637
O O12 0.266492 0.736995 0.148100
O O13 0.240747 0.627633 0.877772
O O14 0.363742 0.811325 0.992375
#
# Coordination Sequence:
#
# PCOD9135441 Si02
#       7
#     4   4   4   4   4   4   4
#     4  10  20  40  64  89 125 164 202 256 321 366
#     4  10  22  39  62  91 125 162 208 255 312 366
#     4  12  23  39  62  99 128 157 211 264 309 370
#     4  10  21  42  68  86 124 172 209 247 327 370
#     4  10  21  39  61  90 123 162 204 260 306 373
#     4  12  21  38  68  94 119 166 215 257 300 375
#     4  10  24  41  63  91 126 167 203 261 307 380
#
# _framework density 22.432950999999999
#
# number of rings (size 3 to 8) (size 9 to 14) (size 15 to 20)
#    0.000    1.714    5.714    0.857    6.000    1.143 
#    5.143    0.000    0.000    0.000    0.000    0.000 
#    0.000    0.000    0.000    0.000    0.000    0.000 
#
# Total GULP energy -78231.280628 kJ/mol
# GULP energy per Si atom -5587.948616 kJ/mol
# Density = 2.238189 g / cm^3
# Si number density = 22.432951 Si / 1000 Ang^3
#
#
#
# Elastic Constant Matrix: (Units=GPa)
#
#
# Indices 1 2 3 4 5 6 
#
# 1 120.2158 15.5255 47.3876 0.0000 17.7410 0.0000
# 2 15.5255 24.6317 17.0883 0.0000 -13.7825 0.0000
# 3 47.3876 17.0883 106.3900 0.0000 0.2454 0.0000
# 4 0.0000 0.0000 0.0000 37.9669 0.0000 -1.2187
# 5 17.7410 -13.7825 0.2454 0.0000 46.5805 0.0000
# 6 0.0000 0.0000 0.0000 -1.2187 0.0000 32.9723
#
#
#
# Elastic Compliance Matrix: (Units=1/GPa)
#
#
# Indices 1 2 3 4 5 6 
#
# 1 0.012089 -0.008936 -0.003933 0.000000 -0.007228 0.000000
# 2 -0.008936 0.062830 -0.006162 0.000000 0.022026 0.000000
# 3 -0.003933 -0.006162 0.012142 0.000000 -0.000389 0.000000
# 4 0.000000 0.000000 0.000000 0.026370 0.000000 0.000975
# 5 -0.007228 0.022026 -0.000389 0.000000 0.030740 0.000000
# 6 0.000000 0.000000 0.000000 0.000975 0.000000 0.030365
#
#
# Mechanical properties :
#
#
# Convention : Reuss Voigt Hill
#
# Bulk Modulus (GPa) = 20.40841 45.69335 33.05088
# Shear Modulus (GPa) = 21.84058 34.91967 28.38012
#
# Velocity S-wave (km/s) = 3.12363 3.94969 3.56070
# Velocity P-wave (km/s) = 4.70390 6.41974 5.62760
#
# Compressibility (1/GPa) = 0.04899941
#
# Stress axis : x y z
#
# Youngs Moduli (GPa) = 82.71774 15.91586 82.35998
#
# Poissons Ratio (x) = 0.14222 0.32391
# Poissons Ratio (y) = 0.73915 0.50754
# Poissons Ratio (z) = 0.32531 0.09808
#
# Static dielectric constant tensor:
#      x y z
#    x 1.844080 0.000000 -0.009210 
#    y 0.000000 1.848290 0.000000 
#    z -0.009210 0.000000 1.850220 
# 
# From -- ./inp_files/9307.got.cif
#   From: 2010.05.17/outbox.cif.g08.bks.cpg/sg9_5_cif.got.tgz:9307.got - 2010.06.03 20:04:27.
