data_PCOD9135216
_publ_section_title
;
Structure prediction by ZEFSAII (Michael W. Deem and Ramdas Pophale) SiO2 
 PCOD9135216
Probable space group: C C
;
_chemical_formula_sum "Si O2"
_cell_formula_units_Z 32
_cell_length_a 12.608152
_cell_length_b 12.059003
_cell_length_c 17.218180
_cell_angle_alpha 90.000000
_cell_angle_beta 147.235150
_cell_angle_gamma 90.000000
_cell_volume 1416.777985
_symmetry_space_group_name_H-M "C C"
_symmetry_group_IT_number 9
_symmetry_cell_setting 'monoclinic'
loop_
_space_group_symop_operation_xyz
x,y,z
x,-y,1/2+z
1/2+x,1/2+y,z
1/2+x,1/2-y,1/2+z
loop_
_atom_site_type_symbol
_atom_site_label
_atom_site_fract_x
_atom_site_fract_y
_atom_site_fract_z
Si Si1 0.843670 0.933171 0.877180
Si Si2 0.825582 0.732252 0.088887
Si Si3 0.132978 0.547908 0.403673
Si Si4 0.258533 0.189269 0.882672
Si Si5 0.764715 0.576345 0.728117
Si Si6 0.981930 0.199703 0.320778
Si Si7 0.536460 0.614264 0.025857
Si Si8 0.873089 0.826054 0.584045
O O1 0.662236 0.944929 0.829209
O O2 0.877596 0.796511 0.925806
O O3 0.887786 0.897472 0.813752
O O4 0.848921 0.074511 0.864315
O O5 0.697508 0.667355 0.072067
O O6 0.031167 0.775732 0.247096
O O7 0.709733 0.841513 0.990276
O O8 0.843708 0.662830 0.019697
O O9 0.264329 0.444433 0.511327
O O10 0.917269 0.517777 0.298896
O O11 0.257523 0.095364 0.815427
O O12 0.566501 0.523733 0.566428
O O13 0.842126 0.691472 0.742588
O O14 0.199845 0.235608 0.480722
O O15 0.993718 0.175232 0.236849
O O16 0.497872 0.676627 0.081561
#
# Coordination Sequence:
#
# PCOD9135216 Si02
#       8
#     4   4   4   4   4   4   4   4
#     4   9  19  36  60  84 116 153 199 247 299 353
#     4  11  23  40  61  90 123 162 208 251 303 365
#     4   9  20  39  59  88 121 157 200 251 305 365
#     4  10  21  39  64  89 117 158 207 253 300 367
#     4  10  20  38  63  86 119 160 200 253 308 357
#     4  10  21  39  62  89 117 157 205 251 301 370
#     4  11  22  37  59  88 126 162 196 257 312 358
#     4  10  22  38  60  88 123 159 201 251 308 363
#
# _framework density 22.586461
#
# number of rings (size 3 to 8) (size 9 to 14) (size 15 to 20)
#    0.000    2.000    0.000    4.500    0.000   10.000 
#    0.000    3.750    0.000    0.000    0.000    0.000 
#    0.000    0.000    0.000    0.000    0.000    0.000 
#
# Total GULP energy -89073.170523 kJ/mol
# GULP energy per Si atom -5567.073158 kJ/mol
# Density = 2.253505 g / cm^3
# Si number density = 22.586461 Si / 1000 Ang^3
#
#
#
# Elastic Constant Matrix: (Units=GPa)
#
#
# Indices 1 2 3 4 5 6 
#
# 1 95.7937 9.4487 8.2884 0.0006 -3.7687 0.0001
# 2 9.4487 28.5493 3.0494 0.0009 0.9212 0.0002
# 3 8.2884 3.0494 66.0081 0.0016 -5.3739 0.0004
# 4 0.0006 0.0009 0.0016 20.3702 0.0004 -4.5505
# 5 -3.7687 0.9212 -5.3739 0.0004 33.7181 0.0001
# 6 0.0001 0.0002 0.0004 -4.5505 0.0001 43.8088
#
#
#
# Elastic Compliance Matrix: (Units=1/GPa)
#
#
# Indices 1 2 3 4 5 6 
#
# 1 0.010929 -0.003535 -0.001116 0.000000 0.001140 0.000000
# 2 -0.003535 0.036395 -0.001368 -0.000001 -0.001607 0.000000
# 3 -0.001116 -0.001368 0.015548 -0.000001 0.002391 0.000000
# 4 0.000000 -0.000001 -0.000001 0.050257 -0.000001 0.005220
# 5 0.001140 -0.001607 0.002391 -0.000001 0.030210 0.000000
# 6 0.000000 0.000000 0.000000 0.005220 0.000000 0.023369
#
#
# Mechanical properties :
#
#
# Convention : Reuss Voigt Hill
#
# Bulk Modulus (GPa) = 19.67218 25.76937 22.72078
# Shear Modulus (GPa) = 25.55049 30.88374 28.21712
#
# Velocity S-wave (km/s) = 3.36703 3.70179 3.53837
# Velocity P-wave (km/s) = 4.88308 5.45023 5.17443
#
# Compressibility (1/GPa) = 0.05083320
#
# Stress axis : x y z
#
# Youngs Moduli (GPa) = 91.49812 27.47630 64.31843
#
# Poissons Ratio (x) = 0.09712 0.07179
# Poissons Ratio (y) = 0.32342 0.08801
# Poissons Ratio (z) = 0.10213 0.03760
#
# Static dielectric constant tensor:
#      x y z
#    x 1.850330 0.000000 0.020680 
#    y 0.000000 1.900280 0.000000 
#    z 0.020680 0.000000 1.956660 
# 
# From -- ./inp_files/16163.got.cif
#   From: 2010.05.17/outbox.cif.g08.bks.cpg/sg9_9_cif.got.tgz:16163.got - 2010.06.03 20:04:27.
