data_PCOD9135578
_publ_section_title
;
Structure prediction by ZEFSAII (Michael W. Deem and Ramdas Pophale) SiO2 
 PCOD9135578
Probable space group: C C
;
_chemical_formula_sum "Si O2"
_cell_formula_units_Z 32
_cell_length_a 10.048358
_cell_length_b 13.926240
_cell_length_c 14.901411
_cell_angle_alpha 90.000000
_cell_angle_beta 40.169798
_cell_angle_gamma 90.000000
_cell_volume 1345.095446
_symmetry_space_group_name_H-M "C C"
_symmetry_group_IT_number 9
_symmetry_cell_setting 'monoclinic'
loop_
_space_group_symop_operation_xyz
x,y,z
x,-y,1/2+z
1/2+x,1/2+y,z
1/2+x,1/2-y,1/2+z
loop_
_atom_site_type_symbol
_atom_site_label
_atom_site_fract_x
_atom_site_fract_y
_atom_site_fract_z
Si Si1 0.542970 0.980913 0.390360
Si Si2 0.563523 0.637517 0.451983
Si Si3 0.525163 0.371328 0.769497
Si Si4 0.566824 0.154599 0.718674
Si Si5 0.434254 0.809859 0.865329
Si Si6 0.630753 0.014537 0.537854
Si Si7 0.822850 0.157358 0.056022
Si Si8 0.008826 0.034783 0.104324
O O1 0.461096 0.084348 0.396340
O O2 0.518087 0.970381 0.509947
O O3 0.791114 0.987596 0.245180
O O4 0.488546 0.894071 0.351167
O O5 0.628818 0.633238 0.314280
O O6 0.319606 0.659171 0.584629
O O7 0.714141 0.705596 0.430304
O O8 0.600351 0.537003 0.484004
O O9 0.497614 0.263571 0.748659
O O10 0.615559 0.436674 0.642489
O O11 0.303153 0.416177 0.906439
O O12 0.504333 0.082000 0.671050
O O13 0.610224 0.797995 0.700770
O O14 0.451534 0.730094 0.931372
O O15 0.750655 0.935877 0.536280
O O16 0.949546 0.127704 0.078148
#
# Coordination Sequence:
#
# PCOD9135578 Si02
#       8
#     4   4   4   4   4   4   4   4
#     4   9  20  41  66  90 131 175 215 271 338 388
#     4  10  22  43  60  96 132 173 220 271 337 399
#     4  10  21  37  71  95 124 176 223 271 337 396
#     4  10  20  41  67  94 131 168 225 278 327 400
#     4  11  25  42  65  98 131 175 226 270 331 408
#     4  10  20  43  66  90 128 179 211 277 345 387
#     4  11  23  45  68  93 135 175 221 278 337 398
#     4   9  19  44  65  90 134 171 219 276 336 394
#
# _framework density 23.790133999999998
#
# number of rings (size 3 to 8) (size 9 to 14) (size 15 to 20)
#    0.000    2.000    5.000    0.000    5.250    2.000 
#    6.750    0.000    0.000    0.000    0.000    0.000 
#    0.000    0.000    0.000    0.000    0.000    0.000 
#
# Total GULP energy -89405.906681 kJ/mol
# GULP energy per Si atom -5587.869168 kJ/mol
# Density = 2.373599 g / cm^3
# Si number density = 23.790134 Si / 1000 Ang^3
#
#
#
# Elastic Constant Matrix: (Units=GPa)
#
#
# Indices 1 2 3 4 5 6 
#
# 1 89.1029 -8.0348 29.9465 -0.0008 26.5464 0.0002
# 2 -8.0348 80.0571 34.9483 -0.0012 10.5564 0.0007
# 3 29.9465 34.9483 85.9625 -0.0033 19.9188 0.0021
# 4 -0.0008 -0.0012 -0.0033 41.6712 0.0015 9.1351
# 5 26.5464 10.5564 19.9188 0.0015 38.5280 -0.0006
# 6 0.0002 0.0007 0.0021 9.1351 -0.0006 -8.6595
#
#
#
# Elastic Compliance Matrix: (Units=1/GPa)
#
#
# Indices 1 2 3 4 5 6 
#
# 1 0.016609 0.005471 -0.005693 0.000000 -0.009999 0.000000
# 2 0.005471 0.017030 -0.007810 0.000000 -0.004398 0.000000
# 3 -0.005693 -0.007810 0.017481 0.000000 -0.002975 0.000004
# 4 0.000000 0.000000 0.000000 0.019490 -0.000001 0.020561
# 5 -0.009999 -0.004398 -0.002975 -0.000001 0.035588 -0.000004
# 6 0.000000 0.000000 0.000004 0.020561 -0.000004 -0.093790
#
#
# Mechanical properties :
#
#
# Convention : Reuss Voigt Hill
#
# Bulk Modulus (GPa) = 28.52747 40.98249 34.75498
# Shear Modulus (GPa) = 124.51289 27.52545 76.01917
#
# Velocity S-wave (km/s) = 7.24235 3.40518 5.65893
# Velocity P-wave (km/s) = 9.05278 5.72052 7.57223
#
# Compressibility (1/GPa) = 0.03505393
#
# Stress axis : x y z
#
# Youngs Moduli (GPa) = 60.20905 58.72161 57.20536
#
# Poissons Ratio (x) = -0.32125 0.32568
# Poissons Ratio (y) = -0.32939 0.44679
# Poissons Ratio (z) = 0.34278 0.45863
#
# Static dielectric constant tensor:
#      x y z
#    x 1.968780 0.000000 -0.045040 
#    y 0.000000 1.878320 0.000000 
#    z -0.045040 0.000000 1.932710 
# 
# From -- ./inp_files/24835.got.cif
#   From: 2010.05.17/outbox.cif.g08.bks.cpg/sg9_13_cif.got.tgz:24835.got - 2010.06.03 20:04:27.
