data_PCOD9135507
_publ_section_title
;
Structure prediction by ZEFSAII (Michael W. Deem and Ramdas Pophale) SiO2 
 PCOD9135507
Probable space group: C C
;
_chemical_formula_sum "Si O2"
_cell_formula_units_Z 32
_cell_length_a 26.981964
_cell_length_b 9.206105
_cell_length_c 15.705196
_cell_angle_alpha 90.000000
_cell_angle_beta 160.221443
_cell_angle_gamma 90.000000
_cell_volume 1320.094240
_symmetry_space_group_name_H-M "C C"
_symmetry_group_IT_number 9
_symmetry_cell_setting 'monoclinic'
loop_
_space_group_symop_operation_xyz
x,y,z
x,-y,1/2+z
1/2+x,1/2+y,z
1/2+x,1/2-y,1/2+z
loop_
_atom_site_type_symbol
_atom_site_label
_atom_site_fract_x
_atom_site_fract_y
_atom_site_fract_z
Si Si1 0.063520 0.180921 0.683890
Si Si2 0.068812 0.462403 0.800376
Si Si3 0.386765 0.817794 0.886449
Si Si4 0.777378 0.474881 0.410030
Si Si5 0.290911 0.692941 0.140840
Si Si6 0.373787 0.463362 0.483666
Si Si7 0.168711 0.300951 0.252933
Si Si8 0.158090 0.949440 0.035718
O O1 0.108499 0.323941 0.807674
O O2 0.197181 0.085986 0.863992
O O3 0.961702 0.207427 0.436307
O O4 0.945817 0.100330 0.554296
O O5 0.974424 0.564925 0.584981
O O6 0.950786 0.440838 0.684920
O O7 0.212604 0.552215 0.056818
O O8 0.229832 0.895285 0.625116
O O9 0.386782 0.669483 0.938588
O O10 0.493372 0.793161 0.978861
O O11 0.735855 0.645760 0.333024
O O12 0.709582 0.408975 0.213458
O O13 0.219978 0.833260 0.069437
O O14 0.242025 0.683536 0.964505
O O15 0.216864 0.435935 0.272303
O O16 0.485588 0.445106 0.743908
#
# Coordination Sequence:
#
# PCOD9135507 Si02
#       8
#     4   4   4   4   4   4   4   4
#     4  12  25  41  65 108 142 181 232 305 353 425
#     4  10  22  42  66  98 139 175 236 285 346 423
#     4  10  20  40  69  94 133 175 233 281 347 418
#     4  11  21  41  71  98 137 184 233 295 363 418
#     4  11  22  43  70  99 134 191 232 288 360 426
#     4  12  23  42  69  99 139 182 230 294 353 418
#     4  11  21  43  70 101 132 187 238 290 362 428
#     4  11  20  42  72  97 130 185 238 284 350 430
#
# _framework density 24.240693
#
# number of rings (size 3 to 8) (size 9 to 14) (size 15 to 20)
#    0.000    1.000    8.750    0.750    0.000    3.000 
#    0.000    1.250    0.000    0.000    0.000    0.000 
#    0.000    0.000    0.000    0.000    0.000    0.000 
#
# Total GULP energy -89398.691451 kJ/mol
# GULP energy per Si atom -5587.418216 kJ/mol
# Density = 2.418552 g / cm^3
# Si number density = 24.240693 Si / 1000 Ang^3
#
#
#
# Elastic Constant Matrix: (Units=GPa)
#
#
# Indices 1 2 3 4 5 6 
#
# 1 88.9670 2.7007 16.6547 0.0000 13.9860 0.0000
# 2 2.7007 64.4952 14.8399 0.0000 -4.2456 0.0000
# 3 16.6547 14.8399 83.2608 0.0000 9.3927 0.0000
# 4 0.0000 0.0000 0.0000 35.1984 0.0000 -2.0813
# 5 13.9860 -4.2456 9.3927 0.0000 27.3554 0.0000
# 6 0.0000 0.0000 0.0000 -2.0813 0.0000 30.9404
#
#
#
# Elastic Compliance Matrix: (Units=1/GPa)
#
#
# Indices 1 2 3 4 5 6 
#
# 1 0.012506 -0.000508 -0.001749 0.000000 -0.005872 0.000000
# 2 -0.000508 0.016545 -0.003294 0.000000 0.003958 0.000000
# 3 -0.001749 -0.003294 0.013424 0.000000 -0.004226 0.000000
# 4 0.000000 0.000000 0.000000 0.028524 0.000000 0.001919
# 5 -0.005872 0.003958 -0.004226 0.000000 0.041624 0.000000
# 6 0.000000 0.000000 0.000000 0.001919 0.000000 0.032449
#
#
# Mechanical properties :
#
#
# Convention : Reuss Voigt Hill
#
# Bulk Modulus (GPa) = 31.87325 33.90151 32.88738
# Shear Modulus (GPa) = 30.00652 32.20068 31.10360
#
# Velocity S-wave (km/s) = 3.52214 3.64864 3.58595
# Velocity P-wave (km/s) = 5.45140 5.63612 5.54453
#
# Compressibility (1/GPa) = 0.03137428
#
# Stress axis : x y z
#
# Youngs Moduli (GPa) = 79.96134 60.44214 74.49303
#
# Poissons Ratio (x) = 0.03070 0.13026
# Poissons Ratio (y) = 0.04061 0.24536
# Poissons Ratio (z) = 0.13982 0.19908
#
# Static dielectric constant tensor:
#      x y z
#    x 2.018700 0.000000 0.019860 
#    y 0.000000 1.923000 0.000000 
#    z 0.019860 0.000000 1.978510 
# 
# From -- ./inp_files/31866.got.cif
#   From: 2010.05.17/outbox.cif.g08.bks.cpg/sg9_16_cif.got.tgz:31866.got - 2010.06.03 20:04:27.
