data_PCOD9135324
_publ_section_title
;
Structure prediction by ZEFSAII (Michael W. Deem and Ramdas Pophale) SiO2 
 PCOD9135324
Probable space group: C C
;
_chemical_formula_sum "Si O2"
_cell_formula_units_Z 32
_cell_length_a 25.578644
_cell_length_b 9.688176
_cell_length_c 8.624214
_cell_angle_alpha 90.000000
_cell_angle_beta 44.246885
_cell_angle_gamma 90.000000
_cell_volume 1491.213581
_symmetry_space_group_name_H-M "C C"
_symmetry_group_IT_number 9
_symmetry_cell_setting 'monoclinic'
loop_
_space_group_symop_operation_xyz
x,y,z
x,-y,1/2+z
1/2+x,1/2+y,z
1/2+x,1/2-y,1/2+z
loop_
_atom_site_type_symbol
_atom_site_label
_atom_site_fract_x
_atom_site_fract_y
_atom_site_fract_z
Si Si1 0.465240 0.296364 0.045900
Si Si2 0.658369 0.431974 0.078189
Si Si3 0.997245 0.037846 0.786097
Si Si4 0.146558 0.331180 0.784557
Si Si5 0.108555 0.386898 0.221898
Si Si6 0.358445 0.653266 0.234583
Si Si7 0.317137 0.362972 0.469859
Si Si8 0.226679 0.817421 0.626663
O O1 0.490885 0.403300 0.127087
O O2 0.380417 0.259946 0.270245
O O3 0.463970 0.385908 0.890818
O O4 0.526443 0.177739 0.919883
O O5 0.583028 0.476602 0.150913
O O6 0.628462 0.320819 0.265299
O O7 0.701022 0.556363 0.071037
O O8 0.709467 0.360197 0.839042
O O9 0.946044 0.143379 0.999003
O O10 0.111074 0.452250 0.757625
O O11 0.235937 0.337934 0.577575
O O12 0.128278 0.359099 0.001690
O O13 0.170604 0.308197 0.196328
O O14 0.341719 0.515333 0.366123
O O15 0.317945 0.643972 0.153111
O O16 0.313030 0.774471 0.415988
#
# Coordination Sequence:
#
# PCOD9135324 Si02
#       8
#     4   4   4   4   4   4   4   4
#     4  10  22  38  65  93 130 160 211 265 315 378
#     4  12  25  40  66  94 128 168 211 260 323 383
#     4  10  20  39  63  95 125 164 208 258 319 373
#     4  12  25  40  66  94 128 168 211 260 323 383
#     4  12  23  41  64  96 126 164 217 267 315 377
#     4  10  22  38  65  93 130 160 211 265 315 378
#     4  10  20  39  63  95 125 164 208 258 319 373
#     4  12  23  41  64  96 126 164 217 267 315 377
#
# _framework density 21.459033999999999
#
# number of rings (size 3 to 8) (size 9 to 14) (size 15 to 20)
#    0.000    1.000    5.000    1.500    3.500    0.000 
#    0.000    1.250    0.000    0.000    0.000    0.000 
#    0.000    0.000    0.000    0.000    0.000    0.000 
#
# Total GULP energy -89420.232703 kJ/mol
# GULP energy per Si atom -5588.764544 kJ/mol
# Density = 2.141019 g / cm^3
# Si number density = 21.459034 Si / 1000 Ang^3
#
#
#
# Elastic Constant Matrix: (Units=GPa)
#
#
# Indices 1 2 3 4 5 6 
#
# 1 44.7466 11.6730 28.8548 0.0000 -11.0025 0.0000
# 2 11.6730 59.1533 21.4545 0.0000 -11.6453 0.0000
# 3 28.8548 21.4545 101.0004 0.0000 -7.9635 0.0000
# 4 0.0000 0.0000 0.0000 33.1780 0.0000 2.5237
# 5 -11.0025 -11.6453 -7.9635 0.0000 29.8000 0.0000
# 6 0.0000 0.0000 0.0000 2.5237 0.0000 26.5008
#
#
#
# Elastic Compliance Matrix: (Units=1/GPa)
#
#
# Indices 1 2 3 4 5 6 
#
# 1 0.029618 -0.001484 -0.007487 0.000000 0.008354 0.000000
# 2 -0.001484 0.019606 -0.003248 0.000000 0.006246 0.000000
# 3 -0.007487 -0.003248 0.012679 0.000000 -0.000646 0.000000
# 4 0.000000 0.000000 0.000000 0.030360 0.000000 -0.002891
# 5 0.008354 0.006246 -0.000646 0.000000 0.038910 0.000000
# 6 0.000000 0.000000 0.000000 -0.002891 0.000000 0.038010
#
#
# Mechanical properties :
#
#
# Convention : Reuss Voigt Hill
#
# Bulk Modulus (GPa) = 26.69319 36.54054 31.61687
# Shear Modulus (GPa) = 24.25887 27.42363 25.84125
#
# Velocity S-wave (km/s) = 3.36590 3.57872 3.47394
# Velocity P-wave (km/s) = 5.25089 5.84306 5.55487
#
# Compressibility (1/GPa) = 0.03746274
#
# Stress axis : x y z
#
# Youngs Moduli (GPa) = 33.76356 51.00542 78.86983
#
# Poissons Ratio (x) = 0.07571 0.59054
# Poissons Ratio (y) = 0.05011 0.25618
# Poissons Ratio (z) = 0.25280 0.16567
#
# Static dielectric constant tensor:
#      x y z
#    x 1.780690 0.000000 -0.010830 
#    y 0.000000 1.775150 0.000000 
#    z -0.010830 0.000000 1.830950 
# 
# From -- ./inp_files/12415.got.cif
#   From: 2010.05.17/outbox.cif.g08.bks.cpg/sg9_7_cif.got.tgz:12415.got - 2010.06.03 20:04:27.
