data_PCOD9135166
_publ_section_title
;
Structure prediction by ZEFSAII (Michael W. Deem and Ramdas Pophale) SiO2 
 PCOD9135166
Probable space group: C C
;
_chemical_formula_sum "Si O2"
_cell_formula_units_Z 28
_cell_length_a 14.327853
_cell_length_b 11.461037
_cell_length_c 8.383947
_cell_angle_alpha 90.000000
_cell_angle_beta 60.027692
_cell_angle_gamma 90.000000
_cell_volume 1192.628839
_symmetry_space_group_name_H-M "C C"
_symmetry_group_IT_number 9
_symmetry_cell_setting 'monoclinic'
loop_
_space_group_symop_operation_xyz
x,y,z
x,-y,1/2+z
1/2+x,1/2+y,z
1/2+x,1/2-y,1/2+z
loop_
_atom_site_type_symbol
_atom_site_label
_atom_site_fract_x
_atom_site_fract_y
_atom_site_fract_z
Si Si1 0.615240 0.614877 0.375000
Si Si2 0.255585 0.571266 0.526657
Si Si3 0.259054 0.989152 0.503315
Si Si4 0.530334 0.187161 0.113610
Si Si5 0.636853 0.126409 0.318044
Si Si6 0.893614 0.107323 0.699603
Si Si7 0.918981 0.562371 0.636387
O O1 0.709442 0.576246 0.415641
O O2 0.582783 0.750572 0.414964
O O3 0.504763 0.554302 0.531126
O O4 0.659592 0.576272 0.168503
O O5 0.211008 0.639354 0.410146
O O6 0.168052 0.497932 0.706850
O O7 0.321788 0.636542 0.606286
O O8 0.332490 0.474725 0.375374
O O9 0.330802 0.052764 0.573546
O O10 0.347330 0.904092 0.348224
O O11 0.623393 0.199442 0.168039
O O12 0.479372 0.061165 0.126649
O O13 0.434148 0.273796 0.243711
O O14 0.517759 0.136567 0.492258
#
# Coordination Sequence:
#
# PCOD9135166 Si02
#       7
#     4   4   4   4   4   4   4
#     4   9  21  39  65  91 126 164 212 255 316 378
#     4  10  20  37  68  88 125 176 209 249 334 388
#     4  10  20  37  68  89 123 176 201 246 330 397
#     4  10  22  38  66  89 133 158 211 274 307 366
#     4  11  20  39  64  92 128 171 210 264 320 386
#     4   9  21  39  66  91 127 164 216 265 315 379
#     4  11  20  39  63  90 128 165 211 253 322 382
#
# _framework density 23.477549
#
# number of rings (size 3 to 8) (size 9 to 14) (size 15 to 20)
#    0.857    1.143    2.857    0.857    0.000    2.286 
#    0.000    2.857   15.714    0.000    0.000    0.000 
#    0.000    0.000    0.000    0.000    0.000    0.000 
#
# Total GULP energy -77980.603308 kJ/mol
# GULP energy per Si atom -5570.043093 kJ/mol
# Density = 2.342411 g / cm^3
# Si number density = 23.477549 Si / 1000 Ang^3
#
#
#
# Elastic Constant Matrix: (Units=GPa)
#
#
# Indices 1 2 3 4 5 6 
#
# 1 117.2574 10.2805 -11.6369 0.0000 18.1115 0.0000
# 2 10.2805 31.3260 10.5415 0.0000 2.9783 0.0000
# 3 -11.6369 10.5415 63.0660 0.0000 -18.5566 0.0000
# 4 0.0000 0.0000 0.0000 -9.9680 0.0000 4.4916
# 5 18.1115 2.9783 -18.5566 0.0000 47.0481 0.0000
# 6 0.0000 0.0000 0.0000 4.4916 0.0000 29.0946
#
#
#
# Elastic Compliance Matrix: (Units=1/GPa)
#
#
# Indices 1 2 3 4 5 6 
#
# 1 0.009400 -0.003304 0.001452 0.000000 -0.002837 0.000000
# 2 -0.003304 0.036035 -0.007840 0.000000 -0.004101 0.000000
# 3 0.001452 -0.007840 0.019703 0.000000 0.007708 0.000000
# 4 0.000000 0.000000 0.000000 -0.093796 0.000000 0.014480
# 5 -0.002837 -0.004101 0.007708 0.000000 0.025647 0.000000
# 6 0.000000 0.000000 0.000000 0.014480 0.000000 0.032135
#
#
# Mechanical properties :
#
#
# Convention : Reuss Voigt Hill
#
# Bulk Modulus (GPa) = 21.85562 25.55775 23.70669
# Shear Modulus (GPa) = 78.42156 26.73258 52.57707
#
# Velocity S-wave (km/s) = 5.78578 3.37804 4.73743
# Velocity P-wave (km/s) = 7.34596 5.11122 6.32802
#
# Compressibility (1/GPa) = 0.04575482
#
# Stress axis : x y z
#
# Youngs Moduli (GPa) = 106.38083 27.75108 50.75403
#
# Poissons Ratio (x) = 0.09169 -0.07370
# Poissons Ratio (y) = 0.35147 0.39789
# Poissons Ratio (z) = -0.15447 0.21756
#
# Static dielectric constant tensor:
#      x y z
#    x 1.928480 0.000000 0.012660 
#    y 0.000000 1.941180 0.000000 
#    z 0.012660 0.000000 1.951550 
# 
# From -- ./inp_files/9497.got.cif
#   From: 2010.05.17/outbox.cif.g08.bks.cpg/sg9_5_cif.got.tgz:9497.got - 2010.06.03 20:04:27.
