data_PCOD9135708
_publ_section_title
;
Structure prediction by ZEFSAII (Michael W. Deem and Ramdas Pophale) SiO2 
 PCOD9135708
Probable space group: C C
;
_chemical_formula_sum "Si O2"
_cell_formula_units_Z 32
_cell_length_a 5.006056
_cell_length_b 13.013095
_cell_length_c 25.095990
_cell_angle_alpha 90.000000
_cell_angle_beta 71.087920
_cell_angle_gamma 90.000000
_cell_volume 1546.605669
_symmetry_space_group_name_H-M "C C"
_symmetry_group_IT_number 9
_symmetry_cell_setting 'monoclinic'
loop_
_space_group_symop_operation_xyz
x,y,z
x,-y,1/2+z
1/2+x,1/2+y,z
1/2+x,1/2-y,1/2+z
loop_
_atom_site_type_symbol
_atom_site_label
_atom_site_fract_x
_atom_site_fract_y
_atom_site_fract_z
Si Si1 0.148880 0.995434 0.678850
Si Si2 0.845848 0.187537 0.249541
Si Si3 0.355748 0.692810 0.722587
Si Si4 0.263877 0.414793 0.125748
Si Si5 0.255790 0.654268 0.505127
Si Si6 0.338731 0.248310 0.454636
Si Si7 0.994971 0.570582 0.360593
Si Si8 0.911815 0.023728 0.911218
O O1 0.473947 0.027513 0.660319
O O2 0.067514 0.884723 0.704655
O O3 0.964669 0.076864 0.725773
O O4 0.052698 0.728822 0.764132
O O5 0.026268 0.985804 0.127104
O O6 0.612714 0.237809 0.226095
O O7 0.671924 0.117540 0.301292
O O8 0.306057 0.683034 0.661978
O O9 0.245893 0.381774 0.066371
O O10 0.503635 0.737114 0.480960
O O11 0.334881 0.555547 0.463773
O O12 0.974479 0.705804 0.500363
O O13 0.436984 0.167591 0.403258
O O14 0.431964 0.362053 0.432731
O O15 0.697589 0.519087 0.366243
O O16 0.169272 0.487545 0.383061
#
# Coordination Sequence:
#
# PCOD9135708 Si02
#       8
#     4   4   4   4   4   4   4   4
#     4  10  22  39  56  84 121 157 196 249 287 357
#     4  12  22  39  63  86 119 166 199 243 307 356
#     4  10  22  39  56  84 121 151 201 249 282 359
#     4  10  20  43  58  83 128 155 192 263 293 343
#     4  10  21  39  60  86 118 151 195 242 300 353
#     4  10  21  39  62  87 117 151 196 246 298 360
#     4  10  23  37  61  87 119 152 195 248 295 351
#     4  10  21  41  58  89 119 147 198 248 292 365
#
# _framework density 20.690470000000001
#
# number of rings (size 3 to 8) (size 9 to 14) (size 15 to 20)
#    0.750    1.000    1.250    3.000    0.000    2.000 
#    6.750    0.000    0.000    0.000    0.000    0.000 
#    0.000    0.000    0.000    0.000    0.000    0.000 
#
# Total GULP energy -89254.319473 kJ/mol
# GULP energy per Si atom -5578.394967 kJ/mol
# Density = 2.064338 g / cm^3
# Si number density = 20.690470 Si / 1000 Ang^3
#
#
#
# Elastic Constant Matrix: (Units=GPa)
#
#
# Indices 1 2 3 4 5 6 
#
# 1 93.0004 27.0719 5.0792 0.0000 3.1270 0.0000
# 2 27.0719 44.1054 -4.1205 0.0000 5.9759 0.0000
# 3 5.0792 -4.1205 31.0027 0.0000 1.8081 0.0000
# 4 0.0000 0.0000 0.0000 12.1382 0.0000 -0.7135
# 5 3.1270 5.9759 1.8081 0.0000 17.4226 0.0000
# 6 0.0000 0.0000 0.0000 -0.7135 0.0000 14.9696
#
#
#
# Elastic Compliance Matrix: (Units=1/GPa)
#
#
# Indices 1 2 3 4 5 6 
#
# 1 0.013438 -0.008692 -0.003411 0.000000 0.000923 0.000000
# 2 -0.008692 0.029820 0.005929 0.000000 -0.009283 0.000000
# 3 -0.003411 0.005929 0.033890 0.000000 -0.004938 0.000000
# 4 0.000000 0.000000 0.000000 0.082616 0.000000 0.003938
# 5 0.000923 -0.009283 -0.004938 0.000000 0.060928 0.000000
# 6 0.000000 0.000000 0.000000 0.003938 0.000000 0.066990
#
#
# Mechanical properties :
#
#
# Convention : Reuss Voigt Hill
#
# Bulk Modulus (GPa) = 15.43212 24.90775 20.16994
# Shear Modulus (GPa) = 15.54584 18.24461 16.89523
#
# Velocity S-wave (km/s) = 2.74406 2.97271 2.86067
# Velocity P-wave (km/s) = 4.18504 4.88335 4.54762
#
# Compressibility (1/GPa) = 0.06479991
#
# Stress axis : x y z
#
# Youngs Moduli (GPa) = 74.41542 33.53474 29.50724
#
# Poissons Ratio (x) = 0.29149 0.10064
# Poissons Ratio (y) = 0.64682 -0.17494
# Poissons Ratio (z) = 0.25381 -0.19882
#
# Static dielectric constant tensor:
#      x y z
#    x 1.732240 0.000000 0.000090 
#    y 0.000000 1.739390 0.000000 
#    z 0.000090 0.000000 1.731120 
# 
# From -- ./inp_files/34799.got.cif
#   From: 2010.05.17/outbox.cif.g08.bks.cpg/sg9_18_cif.got.tgz:34799.got - 2010.06.03 20:04:27.
