data_PCOD9135677
_publ_section_title
;
Structure prediction by ZEFSAII (Michael W. Deem and Ramdas Pophale) SiO2 
 PCOD9135677
Probable space group: C C
;
_chemical_formula_sum "Si O2"
_cell_formula_units_Z 32
_cell_length_a 5.813116
_cell_length_b 26.829980
_cell_length_c 9.200211
_cell_angle_alpha 90.000000
_cell_angle_beta 87.069370
_cell_angle_gamma 90.000000
_cell_volume 1433.041508
_symmetry_space_group_name_H-M "C C"
_symmetry_group_IT_number 9
_symmetry_cell_setting 'monoclinic'
loop_
_space_group_symop_operation_xyz
x,y,z
x,-y,1/2+z
1/2+x,1/2+y,z
1/2+x,1/2-y,1/2+z
loop_
_atom_site_type_symbol
_atom_site_label
_atom_site_fract_x
_atom_site_fract_y
_atom_site_fract_z
Si Si1 0.938150 0.383723 0.006600
Si Si2 0.321694 0.351796 0.169237
Si Si3 0.745448 0.794862 0.687127
Si Si4 0.066084 0.195145 0.411924
Si Si5 0.556407 0.549057 0.530991
Si Si6 0.535676 0.557812 0.179803
Si Si7 0.548483 0.106048 0.179052
Si Si8 0.415379 0.275500 0.379803
O O1 0.817158 0.434263 0.055327
O O2 0.056886 0.358838 0.140460
O O3 0.764562 0.342383 0.950392
O O4 0.067636 0.396687 0.854435
O O5 0.419008 0.404932 0.111111
O O6 0.397666 0.331581 0.321300
O O7 0.406526 0.307302 0.058671
O O8 0.560372 0.835184 0.636758
O O9 0.618657 0.754615 0.793884
O O10 0.901141 0.773624 0.553661
O O11 0.917336 0.824853 0.785508
O O12 0.176046 0.246385 0.356254
O O13 0.525617 0.551011 0.356952
O O14 0.522314 0.496035 0.603520
O O15 0.297982 0.583202 0.126310
O O16 0.795210 0.582609 0.146277
#
# Coordination Sequence:
#
# PCOD9135677 Si02
#       8
#     4   4   4   4   4   4   4   4
#     4  10  20  42  69  94 132 186 232 286 357 422
#     4  11  22  44  69  98 140 185 232 293 357 428
#     4  12  26  44  66 101 144 185 240 295 356 430
#     4  11  22  40  69  94 136 188 237 283 349 428
#     4  10  24  43  67 101 133 182 231 293 358 427
#     4  11  25  43  73 100 136 183 238 292 363 426
#     4  11  22  43  71  99 136 188 230 294 357 429
#     4  12  27  41  68 105 141 187 238 294 355 428
#
# _framework density 22.330126
#
# number of rings (size 3 to 8) (size 9 to 14) (size 15 to 20)
#    0.000    1.000    5.000    1.500    5.250    1.000 
#    2.250    0.000    0.000    0.000    0.000    0.000 
#    0.000    0.000    0.000    0.000    0.000    0.000 
#
# Total GULP energy -89099.893870 kJ/mol
# GULP energy per Si atom -5568.743367 kJ/mol
# Density = 2.227930 g / cm^3
# Si number density = 22.330126 Si / 1000 Ang^3
#
#
#
# Elastic Constant Matrix: (Units=GPa)
#
#
# Indices 1 2 3 4 5 6 
#
# 1 93.7885 36.2453 27.4260 0.0000 4.4403 0.0000
# 2 36.2453 79.9582 17.6780 0.0000 -11.4224 0.0000
# 3 27.4260 17.6780 67.4116 0.0000 -16.2639 0.0000
# 4 0.0000 0.0000 0.0000 34.6810 0.0000 -6.0414
# 5 4.4403 -11.4224 -16.2639 0.0000 15.5663 0.0000
# 6 0.0000 0.0000 0.0000 -6.0414 0.0000 37.3320
#
#
#
# Elastic Compliance Matrix: (Units=1/GPa)
#
#
# Indices 1 2 3 4 5 6 
#
# 1 0.018516 -0.009360 -0.010710 0.000000 -0.023339 0.000000
# 2 -0.009360 0.018831 0.003807 0.000000 0.020466 0.000000
# 3 -0.010710 0.003807 0.026211 0.000000 0.033234 0.000000
# 4 0.000000 0.000000 0.000000 0.029671 0.000000 0.004802
# 5 -0.023339 0.020466 0.033234 0.000000 0.120641 0.000000
# 6 0.000000 0.000000 0.000000 0.004802 0.000000 0.027564
#
#
# Mechanical properties :
#
#
# Convention : Reuss Voigt Hill
#
# Bulk Modulus (GPa) = 32.22220 44.87299 38.54759
# Shear Modulus (GPa) = 17.58691 28.16977 22.87834
#
# Velocity S-wave (km/s) = 2.80944 3.55563 3.20433
# Velocity P-wave (km/s) = 4.99852 6.08240 5.56690
#
# Compressibility (1/GPa) = 0.03103450
#
# Stress axis : x y z
#
# Youngs Moduli (GPa) = 54.00698 53.10330 38.15171
#
# Poissons Ratio (x) = 0.49703 0.40859
# Poissons Ratio (y) = 0.50549 -0.14526
# Poissons Ratio (z) = 0.57839 -0.20218
#
# Static dielectric constant tensor:
#      x y z
#    x 1.975670 0.000000 -0.039020 
#    y 0.000000 1.864330 0.000000 
#    z -0.039020 0.000000 1.848540 
# 
# From -- ./inp_files/4376.got.cif
#   From: 2010.05.17/outbox.cif.g08.bks.cpg/sg9_3_cif.got.tgz:4376.got - 2010.06.03 20:04:27.
