data_PCOD9135358
_publ_section_title
;
Structure prediction by ZEFSAII (Michael W. Deem and Ramdas Pophale) SiO2 
 PCOD9135358
Probable space group: C C
;
_chemical_formula_sum "Si O2"
_cell_formula_units_Z 24
_cell_length_a 25.215526
_cell_length_b 9.130814
_cell_length_c 8.068779
_cell_angle_alpha 90.000000
_cell_angle_beta 148.250548
_cell_angle_gamma 90.000000
_cell_volume 977.554482
_symmetry_space_group_name_H-M "C C"
_symmetry_group_IT_number 9
_symmetry_cell_setting 'monoclinic'
loop_
_space_group_symop_operation_xyz
x,y,z
x,-y,1/2+z
1/2+x,1/2+y,z
1/2+x,1/2-y,1/2+z
loop_
_atom_site_type_symbol
_atom_site_label
_atom_site_fract_x
_atom_site_fract_y
_atom_site_fract_z
Si Si1 0.972900 0.592278 0.321300
Si Si2 0.311191 0.282795 0.074645
Si Si3 0.596112 0.649908 0.086579
Si Si4 0.387033 0.477717 0.578471
Si Si5 0.405620 0.827486 0.277723
Si Si6 0.703591 0.399005 0.541221
O O1 0.895371 0.663131 0.247881
O O2 0.989001 0.421680 0.399769
O O3 0.074087 0.687555 0.590272
O O4 0.921520 0.625122 0.008019
O O5 0.357671 0.387081 0.339260
O O6 0.304819 0.399045 0.908170
O O7 0.218748 0.199936 0.917010
O O8 0.678471 0.561035 0.410327
O O9 0.622781 0.650363 0.963160
O O10 0.493024 0.559894 0.840901
O O11 0.400725 0.346298 0.747129
O O12 0.305758 0.884606 0.918174
#
# Coordination Sequence:
#
# PCOD9135358 Si02
#       6
#     4   4   4   4   4   4
#     4  11  22  39  65  95 129 176 222 265 328 409
#     4  10  21  39  64  93 126 174 222 264 327 409
#     4  11  22  41  65  96 132 173 221 280 333 386
#     4  10  20  39  66  92 128 177 223 265 328 409
#     4  11  22  40  66  97 132 177 225 272 329 409
#     4  11  23  38  64  99 133 171 223 282 333 382
#
# _framework density 24.551062000000002
#
# number of rings (size 3 to 8) (size 9 to 14) (size 15 to 20)
#    0.000    1.333    0.000    9.000    0.000    0.000 
#    0.000    6.667    0.000   10.000    0.000    0.000 
#    0.000    0.000    0.000    0.000    0.000    0.000 
#
# Total GULP energy -67108.811146 kJ/mol
# GULP energy per Si atom -5592.400929 kJ/mol
# Density = 2.449518 g / cm^3
# Si number density = 24.551062 Si / 1000 Ang^3
#
#
#
# Elastic Constant Matrix: (Units=GPa)
#
#
# Indices 1 2 3 4 5 6 
#
# 1 134.1357 51.1200 7.6094 0.0000 -2.2324 0.0000
# 2 51.1200 145.3145 21.3411 0.0000 8.2373 0.0000
# 3 7.6094 21.3411 65.5624 0.0000 -1.1715 0.0000
# 4 0.0000 0.0000 0.0000 38.8063 0.0000 -4.9159
# 5 -2.2324 8.2373 -1.1715 0.0000 25.9098 0.0000
# 6 0.0000 0.0000 0.0000 -4.9159 0.0000 65.7981
#
#
#
# Elastic Compliance Matrix: (Units=1/GPa)
#
#
# Indices 1 2 3 4 5 6 
#
# 1 0.008687 -0.003163 0.000053 0.000000 0.001757 0.000000
# 2 -0.003163 0.008532 -0.002465 0.000000 -0.003097 0.000000
# 3 0.000053 -0.002465 0.016076 0.000000 0.001515 0.000000
# 4 0.000000 0.000000 0.000000 0.026015 0.000000 0.001944
# 5 0.001757 -0.003097 0.001515 0.000000 0.039800 0.000000
# 6 0.000000 0.000000 0.000000 0.001944 0.000000 0.015343
#
#
# Mechanical properties :
#
#
# Convention : Reuss Voigt Hill
#
# Bulk Modulus (GPa) = 45.16044 56.12817 50.64431
# Shear Modulus (GPa) = 37.59790 43.76567 40.68178
#
# Velocity S-wave (km/s) = 3.91758 4.22671 4.07508
# Velocity P-wave (km/s) = 6.23680 6.83605 6.54329
#
# Compressibility (1/GPa) = 0.02214327
#
# Stress axis : x y z
#
# Youngs Moduli (GPa) = 115.11554 117.20516 62.20412
#
# Poissons Ratio (x) = 0.37075 -0.00329
# Poissons Ratio (y) = 0.36414 0.15336
# Poissons Ratio (z) = -0.00608 0.28896
#
# Static dielectric constant tensor:
#      x y z
#    x 2.019460 0.000000 0.001650 
#    y 0.000000 1.977100 0.000000 
#    z 0.001650 0.000000 1.964420 
# 
# From -- ./inp_files/12712.got.cif
#   From: 2010.05.17/outbox.cif.g08.bks.cpg/sg9_7_cif.got.tgz:12712.got - 2010.06.03 20:04:27.
