data_PCOD9135081
_publ_section_title
;
Structure prediction by ZEFSAII (Michael W. Deem and Ramdas Pophale) SiO2 
 PCOD9135081
Probable space group: C C
;
_chemical_formula_sum "Si O2"
_cell_formula_units_Z 32
_cell_length_a 23.748027
_cell_length_b 7.962087
_cell_length_c 19.545082
_cell_angle_alpha 90.000000
_cell_angle_beta 156.964451
_cell_angle_gamma 90.000000
_cell_volume 1446.119607
_symmetry_space_group_name_H-M "C C"
_symmetry_group_IT_number 9
_symmetry_cell_setting 'monoclinic'
loop_
_space_group_symop_operation_xyz
x,y,z
x,-y,1/2+z
1/2+x,1/2+y,z
1/2+x,1/2-y,1/2+z
loop_
_atom_site_type_symbol
_atom_site_label
_atom_site_fract_x
_atom_site_fract_y
_atom_site_fract_z
Si Si1 0.335580 0.695092 0.973200
Si Si2 0.029514 0.691758 0.309423
Si Si3 0.685324 0.920841 0.557077
Si Si4 0.405986 0.273234 0.699387
Si Si5 0.048710 0.529515 0.691990
Si Si6 0.159556 0.197572 0.745217
Si Si7 0.865402 0.095334 0.395207
Si Si8 0.730656 0.432334 0.472356
O O1 0.171728 0.670243 0.816005
O O2 0.359349 0.561104 0.940109
O O3 0.424715 0.661554 0.142776
O O4 0.397981 0.872949 0.017314
O O5 0.107351 0.598329 0.458094
O O6 0.052078 0.562127 0.270030
O O7 0.102750 0.867188 0.376080
O O8 0.859441 0.703143 0.126659
O O9 0.556930 0.786138 0.400467
O O10 0.811643 0.889196 0.643092
O O11 0.758206 0.915864 0.712176
O O12 0.306133 0.105955 0.576085
O O13 0.095802 0.379938 0.695046
O O14 0.307216 0.244204 0.873418
O O15 0.031120 0.115967 0.558708
O O16 0.181463 0.092953 0.839213
#
# Coordination Sequence:
#
# PCOD9135081 Si02
#       8
#     4   4   4   4   4   4   4   4
#     4  11  21  38  61  97 115 165 207 272 299 379
#     4  10  20  38  58  88 123 155 207 258 315 363
#     4  11  23  42  60  92 129 169 204 268 314 388
#     4  11  22  39  69  89 125 163 227 254 319 374
#     4  10  20  37  59  94 119 151 207 264 305 361
#     4  10  22  39  61  91 127 161 208 260 321 375
#     4  11  25  39  62  91 134 167 208 258 333 380
#     4  10  21  36  64  90 116 157 208 272 298 368
#
# _framework density 22.128183
#
# number of rings (size 3 to 8) (size 9 to 14) (size 15 to 20)
#    0.000    1.500    3.750    2.250    3.500    1.000 
#    0.000    6.250    0.000    0.000    0.000    0.000 
#    0.000    0.000    0.000    0.000    0.000    0.000 
#
# Total GULP energy -89372.228581 kJ/mol
# GULP energy per Si atom -5585.764286 kJ/mol
# Density = 2.207782 g / cm^3
# Si number density = 22.128183 Si / 1000 Ang^3
#
#
#
# Elastic Constant Matrix: (Units=GPa)
#
#
# Indices 1 2 3 4 5 6 
#
# 1 35.7958 17.6030 10.8655 0.0000 -5.3429 0.0000
# 2 17.6030 62.0541 30.6689 0.0000 -0.9747 0.0000
# 3 10.8655 30.6689 109.6257 0.0000 -11.5679 0.0000
# 4 0.0000 0.0000 0.0000 29.2391 0.0000 15.7365
# 5 -5.3429 -0.9747 -11.5679 0.0000 44.0181 0.0000
# 6 0.0000 0.0000 0.0000 15.7365 0.0000 23.1933
#
#
#
# Elastic Compliance Matrix: (Units=1/GPa)
#
#
# Indices 1 2 3 4 5 6 
#
# 1 0.033101 -0.009173 -0.000321 0.000000 0.003730 0.000000
# 2 -0.009173 0.021284 -0.005259 0.000000 -0.002024 0.000000
# 3 -0.000321 -0.005259 0.010911 0.000000 0.002712 0.000000
# 4 0.000000 0.000000 0.000000 0.053874 0.000000 -0.036553
# 5 0.003730 -0.002024 0.002712 0.000000 0.023839 0.000000
# 6 0.000000 0.000000 0.000000 -0.036553 0.000000 0.067917
#
#
# Mechanical properties :
#
#
# Convention : Reuss Voigt Hill
#
# Bulk Modulus (GPa) = 27.93961 36.19448 32.06704
# Shear Modulus (GPa) = 19.81284 29.17932 24.49608
#
# Velocity S-wave (km/s) = 2.99551 3.63526 3.33078
# Velocity P-wave (km/s) = 4.96163 5.83202 5.41434
#
# Compressibility (1/GPa) = 0.03579149
#
# Stress axis : x y z
#
# Youngs Moduli (GPa) = 30.21039 46.98294 91.64899
#
# Poissons Ratio (x) = 0.43096 0.02942
# Poissons Ratio (y) = 0.27711 0.48198
# Poissons Ratio (z) = 0.00970 0.24708
#
# Static dielectric constant tensor:
#      x y z
#    x 1.817280 0.000000 0.038720 
#    y 0.000000 1.856760 0.000000 
#    z 0.038720 0.000000 1.813900 
# 
# From -- ./inp_files/34058.got.cif
#   From: 2010.05.17/outbox.cif.g08.bks.cpg/sg9_18_cif.got.tgz:34058.got - 2010.06.03 20:04:27.
