data_PCOD9135136
_publ_section_title
;
Structure prediction by ZEFSAII (Michael W. Deem and Ramdas Pophale) SiO2 
 PCOD9135136
Probable space group: C C
;
_chemical_formula_sum "Si O2"
_cell_formula_units_Z 28
_cell_length_a 6.797415
_cell_length_b 16.866167
_cell_length_c 9.784724
_cell_angle_alpha 90.000000
_cell_angle_beta 70.561931
_cell_angle_gamma 90.000000
_cell_volume 1057.843109
_symmetry_space_group_name_H-M "C C"
_symmetry_group_IT_number 9
_symmetry_cell_setting 'monoclinic'
loop_
_space_group_symop_operation_xyz
x,y,z
x,-y,1/2+z
1/2+x,1/2+y,z
1/2+x,1/2-y,1/2+z
loop_
_atom_site_type_symbol
_atom_site_label
_atom_site_fract_x
_atom_site_fract_y
_atom_site_fract_z
Si Si1 0.172800 0.925930 0.576330
Si Si2 0.585054 0.661926 0.344287
Si Si3 0.438772 0.790179 0.157528
Si Si4 0.014530 0.457649 0.057224
Si Si5 0.052317 0.401784 0.758381
Si Si6 0.560705 0.197286 0.012382
Si Si7 0.003860 0.825528 0.391024
O O1 0.040964 0.908200 0.743575
O O2 0.364423 0.860138 0.527379
O O3 0.047116 0.905061 0.469720
O O4 0.284595 0.009919 0.564837
O O5 0.533364 0.733631 0.250784
O O6 0.814916 0.631018 0.332362
O O7 0.507535 0.710598 0.496196
O O8 0.534301 0.877214 0.134637
O O9 0.199909 0.812105 0.249529
O O10 0.495773 0.748624 0.000308
O O11 0.080237 0.526856 0.144409
O O12 0.117183 0.435349 0.889152
O O13 0.133954 0.328114 0.649347
O O14 0.772755 0.175478 0.882389
#
# Coordination Sequence:
#
# PCOD9135136 Si02
#       7
#     4   4   4   4   4   4   4
#     4   9  21  41  63  94 138 177 228 287 351 414
#     4   9  19  38  62  97 133 173 225 293 339 412
#     4  11  23  38  68  99 134 182 236 287 352 415
#     4  10  21  42  71  95 139 195 231 278 373 418
#     4  10  23  40  69 102 139 190 230 293 354 426
#     4  10  20  37  64  92 138 168 230 283 345 407
#     4  11  23  38  65  97 133 177 226 297 340 418
#
# _framework density 26.468952999999999
#
# number of rings (size 3 to 8) (size 9 to 14) (size 15 to 20)
#    0.000    2.286    1.429    1.714    8.000    0.000 
#    0.000    2.857   12.571    0.000    0.000    0.000 
#    0.000    0.000    0.000    0.000    0.000    0.000 
#
# Total GULP energy -77963.017052 kJ/mol
# GULP energy per Si atom -5568.786932 kJ/mol
# Density = 2.640871 g / cm^3
# Si number density = 26.468953 Si / 1000 Ang^3
#
#
#
# Elastic Constant Matrix: (Units=GPa)
#
#
# Indices 1 2 3 4 5 6 
#
# 1 92.1135 13.6051 30.0577 0.0000 -14.8467 0.0000
# 2 13.6051 92.1936 35.7811 0.0000 -18.7705 0.0000
# 3 30.0577 35.7811 123.2137 0.0000 2.8097 0.0000
# 4 0.0000 0.0000 0.0000 29.9472 0.0000 16.9428
# 5 -14.8467 -18.7705 2.8097 0.0000 19.9185 0.0000
# 6 0.0000 0.0000 0.0000 16.9428 0.0000 24.4405
#
#
#
# Elastic Compliance Matrix: (Units=1/GPa)
#
#
# Indices 1 2 3 4 5 6 
#
# 1 0.014108 0.002359 -0.004431 0.000000 0.013363 0.000000
# 2 0.002359 0.016399 -0.005749 0.000000 0.018023 0.000000
# 3 -0.004431 -0.005749 0.011101 0.000000 -0.010286 0.000000
# 4 0.000000 0.000000 0.000000 0.054939 0.000000 -0.038085
# 5 0.013363 0.018023 -0.010286 0.000000 0.078600 0.000000
# 6 0.000000 0.000000 0.000000 -0.038085 0.000000 0.067318
#
#
# Mechanical properties :
#
#
# Convention : Reuss Voigt Hill
#
# Bulk Modulus (GPa) = 38.51290 51.82316 45.16803
# Shear Modulus (GPa) = 18.74326 30.06635 24.40480
#
# Velocity S-wave (km/s) = 2.66394 3.37398 3.03977
# Velocity P-wave (km/s) = 4.90346 5.89913 5.42419
#
# Compressibility (1/GPa) = 0.02596532
#
# Stress axis : x y z
#
# Youngs Moduli (GPa) = 70.88379 60.97829 90.08257
#
# Poissons Ratio (x) = -0.14383 0.39917
# Poissons Ratio (y) = -0.16719 0.51786
# Poissons Ratio (z) = 0.31410 0.35055
#
# Static dielectric constant tensor:
#      x y z
#    x 2.202100 0.000000 -0.019520 
#    y 0.000000 2.063720 0.000000 
#    z -0.019520 0.000000 2.215530 
# 
# From -- ./inp_files/14886.got.cif
#   From: 2010.05.17/outbox.cif.g08.bks.cpg/sg9_8_cif.got.tgz:14886.got - 2010.06.03 20:04:27.
