data_PCOD9135212
_publ_section_title
;
Structure prediction by ZEFSAII (Michael W. Deem and Ramdas Pophale) SiO2 
 PCOD9135212
Probable space group: C C
;
_chemical_formula_sum "Si O2"
_cell_formula_units_Z 28
_cell_length_a 5.330812
_cell_length_b 32.825549
_cell_length_c 7.253551
_cell_angle_alpha 90.000000
_cell_angle_beta 118.089797
_cell_angle_gamma 90.000000
_cell_volume 1119.768815
_symmetry_space_group_name_H-M "C C"
_symmetry_group_IT_number 9
_symmetry_cell_setting 'monoclinic'
loop_
_space_group_symop_operation_xyz
x,y,z
x,-y,1/2+z
1/2+x,1/2+y,z
1/2+x,1/2-y,1/2+z
loop_
_atom_site_type_symbol
_atom_site_label
_atom_site_fract_x
_atom_site_fract_y
_atom_site_fract_z
Si Si1 0.932020 0.003719 0.967650
Si Si2 0.422338 0.263432 0.150345
Si Si3 0.465129 0.264280 0.795057
Si Si4 0.274326 0.648354 0.112052
Si Si5 0.151690 0.060262 0.748914
Si Si6 0.092620 0.851297 0.329510
Si Si7 0.712405 0.940179 0.687123
O O1 0.681903 0.970117 0.850161
O O2 0.934009 0.035347 0.801135
O O3 0.178382 0.969537 0.083777
O O4 0.931137 0.034855 0.136390
O O5 0.716491 0.245841 0.381283
O O6 0.450163 0.312251 0.188877
O O7 0.195473 0.248242 0.222058
O O8 0.674819 0.255001 0.064625
O O9 0.419474 0.312952 0.754708
O O10 0.296017 0.606566 0.233825
O O11 0.432899 0.642070 0.970248
O O12 0.933717 0.657238 0.971123
O O13 0.069581 0.107142 0.705452
O O14 0.433077 0.060345 0.967450
#
# Coordination Sequence:
#
# PCOD9135212 Si02
#       7
#     4   4   4   4   4   4   4
#     4  10  20  38  62  90 126 174 226 268 340 400
#     4  12  25  43  69  97 131 173 221 275 336 408
#     4  12  25  43  69  97 131 173 221 275 336 408
#     4  11  23  42  66  95 133 172 218 276 336 395
#     4  10  21  37  62  91 130 172 221 277 334 398
#     4  11  23  42  66  95 133 172 218 276 336 395
#     4  10  21  37  62  91 130 172 221 277 334 398
#
# _framework density 25.00516
#
# number of rings (size 3 to 8) (size 9 to 14) (size 15 to 20)
#    0.000    1.143    1.429    6.000    2.000    0.000 
#    0.000    0.000    0.000    0.000    0.000    0.000 
#    0.000    0.000    0.000    0.000    0.000    0.000 
#
# Total GULP energy -78038.029010 kJ/mol
# GULP energy per Si atom -5574.144929 kJ/mol
# Density = 2.494825 g / cm^3
# Si number density = 25.005160 Si / 1000 Ang^3
#
#
#
# Elastic Constant Matrix: (Units=GPa)
#
#
# Indices 1 2 3 4 5 6 
#
# 1 131.7566 -2.6096 36.8934 0.0000 -3.4185 0.0000
# 2 -2.6096 231.6640 59.4393 0.0000 10.6706 0.0000
# 3 36.8934 59.4393 188.3433 0.0000 -25.5463 0.0000
# 4 0.0000 0.0000 0.0000 39.3819 0.0000 12.5255
# 5 -3.4185 10.6706 -25.5463 0.0000 42.9453 0.0000
# 6 0.0000 0.0000 0.0000 12.5255 0.0000 29.9865
#
#
#
# Elastic Compliance Matrix: (Units=1/GPa)
#
#
# Indices 1 2 3 4 5 6 
#
# 1 0.008106 0.000596 -0.001859 0.000000 -0.000608 0.000000
# 2 0.000596 0.004945 -0.001999 0.000000 -0.002370 0.000000
# 3 -0.001859 -0.001999 0.006909 0.000000 0.004459 0.000000
# 4 0.000000 0.000000 0.000000 0.029283 0.000000 -0.012231
# 5 -0.000608 -0.002370 0.004459 0.000000 0.026478 0.000000
# 6 0.000000 0.000000 0.000000 -0.012231 0.000000 0.038457
#
#
# Mechanical properties :
#
#
# Convention : Reuss Voigt Hill
#
# Bulk Modulus (GPa) = 74.41596 82.13445 78.27520
# Shear Modulus (GPa) = 39.94210 52.99879 46.47044
#
# Velocity S-wave (km/s) = 4.00103 4.60881 4.31563
# Velocity P-wave (km/s) = 7.15326 7.82559 7.49697
#
# Compressibility (1/GPa) = 0.01343798
#
# Stress axis : x y z
#
# Youngs Moduli (GPa) = 123.36255 202.20815 144.73554
#
# Poissons Ratio (x) = -0.12056 0.26900
# Poissons Ratio (y) = -0.07355 0.28933
# Poissons Ratio (z) = 0.22928 0.40422
#
# Static dielectric constant tensor:
#      x y z
#    x 3.381860 0.000000 0.025030 
#    y 0.000000 1.878750 0.000000 
#    z 0.025030 0.000000 2.458350 
# 
# From -- ./inp_files/4229.got.cif
#   From: 2010.05.17/outbox.cif.g08.bks.cpg/sg9_3_cif.got.tgz:4229.got - 2010.06.03 20:04:27.
