data_PCOD9135758
_publ_section_title
;
Structure prediction by ZEFSAII (Michael W. Deem and Ramdas Pophale) SiO2 
 PCOD9135758
Probable space group: C C
;
_chemical_formula_sum "Si O2"
_cell_formula_units_Z 24
_cell_length_a 11.935402
_cell_length_b 7.067722
_cell_length_c 15.092046
_cell_angle_alpha 90.000000
_cell_angle_beta 42.230532
_cell_angle_gamma 90.000000
_cell_volume 855.674095
_symmetry_space_group_name_H-M "C C"
_symmetry_group_IT_number 9
_symmetry_cell_setting 'monoclinic'
loop_
_space_group_symop_operation_xyz
x,y,z
x,-y,1/2+z
1/2+x,1/2+y,z
1/2+x,1/2-y,1/2+z
loop_
_atom_site_type_symbol
_atom_site_label
_atom_site_fract_x
_atom_site_fract_y
_atom_site_fract_z
Si Si1 0.808860 0.375884 0.604280
Si Si2 0.117313 0.371915 0.967779
Si Si3 0.258964 0.693966 0.807168
Si Si4 0.540284 0.199690 0.255922
Si Si5 0.851055 0.013937 0.991900
Si Si6 0.717716 0.487866 0.973847
O O1 0.727224 0.861479 0.625991
O O2 0.713146 0.302411 0.745940
O O3 0.890184 0.182406 0.518565
O O4 0.702473 0.463270 0.586473
O O5 0.227635 0.438149 0.986607
O O6 0.938665 0.469092 0.064133
O O7 0.124929 0.148442 0.972065
O O8 0.453938 0.720487 0.715833
O O9 0.212982 0.474491 0.830986
O O10 0.187730 0.794882 0.937449
O O11 0.487095 0.348757 0.364567
O O12 0.422641 0.014553 0.343716
#
# Coordination Sequence:
#
# PCOD9135758 Si02
#       6
#     4   4   4   4   4   4
#     4  11  22  42  72 105 145 212 250 319 403 462
#     4  10  20  44  64 102 145 190 261 309 382 461
#     4   9  21  41  65 102 146 194 247 327 381 462
#     4   9  20  45  68 108 151 200 256 328 381 453
#     4  10  21  43  75 106 159 203 257 327 389 469
#     4   9  22  43  66 103 144 195 253 324 378 465
#
# _framework density 28.048064
#
# number of rings (size 3 to 8) (size 9 to 14) (size 15 to 20)
#    1.000    1.333    1.667    0.000    2.333    0.000 
#    9.000   11.667    0.000    0.000    0.000    0.000 
#    0.000    0.000    0.000    0.000    0.000    0.000 
#
# Total GULP energy -67067.336378 kJ/mol
# GULP energy per Si atom -5588.944698 kJ/mol
# Density = 2.798423 g / cm^3
# Si number density = 28.048064 Si / 1000 Ang^3
#
#
#
# Elastic Constant Matrix: (Units=GPa)
#
#
# Indices 1 2 3 4 5 6 
#
# 1 90.8457 21.6391 21.3537 0.0000 9.9465 0.0000
# 2 21.6391 121.4780 -9.7099 0.0000 -11.0821 0.0000
# 3 21.3537 -9.7099 135.0237 0.0000 9.2466 0.0000
# 4 0.0000 0.0000 0.0000 31.0006 0.0000 2.8441
# 5 9.9465 -11.0821 9.2466 0.0000 41.3271 0.0000
# 6 0.0000 0.0000 0.0000 2.8441 0.0000 56.3435
#
#
#
# Elastic Compliance Matrix: (Units=1/GPa)
#
#
# Indices 1 2 3 4 5 6 
#
# 1 0.012459 -0.002674 -0.001938 0.000000 -0.003282 0.000000
# 2 -0.002674 0.009040 0.000876 0.000000 0.002872 0.000000
# 3 -0.001938 0.000876 0.007848 0.000000 -0.001054 0.000000
# 4 0.000000 0.000000 0.000000 0.032408 0.000000 -0.001636
# 5 -0.003282 0.002872 -0.001054 0.000000 0.025993 0.000000
# 6 0.000000 0.000000 0.000000 -0.001636 0.000000 0.017831
#
#
# Mechanical properties :
#
#
# Convention : Reuss Voigt Hill
#
# Bulk Modulus (GPa) = 45.71072 45.99036 45.85054
# Shear Modulus (GPa) = 41.54826 46.67187 44.11006
#
# Velocity S-wave (km/s) = 3.85297 4.08364 3.96998
# Velocity P-wave (km/s) = 6.01053 6.21831 6.11530
#
# Compressibility (1/GPa) = 0.02187671
#
# Stress axis : x y z
#
# Youngs Moduli (GPa) = 80.26054 110.61661 127.42394
#
# Poissons Ratio (x) = 0.29576 0.24694
# Poissons Ratio (y) = 0.21460 -0.11166
# Poissons Ratio (z) = 0.15554 -0.09693
#
# Static dielectric constant tensor:
#      x y z
#    x 2.267570 0.000000 -0.063310 
#    y 0.000000 2.178970 0.000000 
#    z -0.063310 0.000000 2.283360 
# 
# From -- ./inp_files/24009.got.cif
#   From: 2010.05.17/outbox.cif.g08.bks.cpg/sg9_13_cif.got.tgz:24009.got - 2010.06.03 20:04:27.
