data_PCOD9135195
_publ_section_title
;
Structure prediction by ZEFSAII (Michael W. Deem and Ramdas Pophale) SiO2 
 PCOD9135195
Probable space group: C C
;
_chemical_formula_sum "Si O2"
_cell_formula_units_Z 24
_cell_length_a 9.385982
_cell_length_b 22.405988
_cell_length_c 5.505979
_cell_angle_alpha 90.000000
_cell_angle_beta 122.266168
_cell_angle_gamma 90.000000
_cell_volume 979.110338
_symmetry_space_group_name_H-M "C C"
_symmetry_group_IT_number 9
_symmetry_cell_setting 'monoclinic'
loop_
_space_group_symop_operation_xyz
x,y,z
x,-y,1/2+z
1/2+x,1/2+y,z
1/2+x,1/2-y,1/2+z
loop_
_atom_site_type_symbol
_atom_site_label
_atom_site_fract_x
_atom_site_fract_y
_atom_site_fract_z
Si Si1 0.473720 0.298922 0.517520
Si Si2 0.309566 0.181542 0.518944
Si Si3 0.550712 0.923526 0.316579
Si Si4 0.668693 0.051813 0.425053
Si Si5 0.055464 0.972263 0.231039
Si Si6 0.515300 0.663104 0.556050
O O1 0.445098 0.231165 0.574941
O O2 0.670637 0.316718 0.680798
O O3 0.413126 0.311273 0.190750
O O4 0.418717 0.335925 0.707401
O O5 0.389059 0.117373 0.633750
O O6 0.187500 0.197529 0.635296
O O7 0.628614 0.910066 0.651163
O O8 0.539393 0.995836 0.315631
O O9 0.656153 0.913607 0.165632
O O10 0.851575 0.021893 0.564615
O O11 0.119031 0.009936 0.056802
O O12 0.071169 0.903303 0.176807
#
# Coordination Sequence:
#
# PCOD9135195 Si02
#       6
#     4   4   4   4   4   4
#     4  10  25  45  68  93 132 171 226 272 332 384
#     4  10  26  45  67  96 129 175 224 274 331 382
#     4  10  20  38  62  92 129 166 215 263 314 390
#     4  10  20  38  60  99 128 170 210 256 324 391
#     4  12  21  42  67  98 135 172 219 261 328 397
#     4  10  26  44  64 100 129 172 218 278 327 384
#
# _framework density 24.512046999999999
#
# number of rings (size 3 to 8) (size 9 to 14) (size 15 to 20)
#    1.000    0.667    3.333    1.000    4.667    2.667 
#    6.000    0.000    0.000    0.000    0.000    0.000 
#    0.000    0.000    0.000    0.000    0.000    0.000 
#
# Total GULP energy -66857.407675 kJ/mol
# GULP energy per Si atom -5571.450640 kJ/mol
# Density = 2.445626 g / cm^3
# Si number density = 24.512047 Si / 1000 Ang^3
#
#
#
# Elastic Constant Matrix: (Units=GPa)
#
#
# Indices 1 2 3 4 5 6 
#
# 1 71.1349 32.6902 62.9282 0.0000 -32.5779 0.0000
# 2 32.6902 76.6515 25.8229 0.0000 -9.4587 0.0000
# 3 62.9282 25.8229 149.5923 0.0000 -58.8816 0.0000
# 4 0.0000 0.0000 0.0000 27.2150 0.0000 -1.7357
# 5 -32.5779 -9.4587 -58.8816 0.0000 49.8591 0.0000
# 6 0.0000 0.0000 0.0000 -1.7357 0.0000 41.9840
#
#
#
# Elastic Compliance Matrix: (Units=1/GPa)
#
#
# Indices 1 2 3 4 5 6 
#
# 1 0.028049 -0.008563 -0.007001 0.000000 0.008435 0.000000
# 2 -0.008563 0.016469 -0.000399 0.000000 -0.002941 0.000000
# 3 -0.007001 -0.000399 0.014703 0.000000 0.012713 0.000000
# 4 0.000000 0.000000 0.000000 0.036842 0.000000 0.001523
# 5 0.008435 -0.002941 0.012713 0.000000 0.040024 0.000000
# 6 0.000000 0.000000 0.000000 0.001523 0.000000 0.023882
#
#
# Mechanical properties :
#
#
# Convention : Reuss Voigt Hill
#
# Bulk Modulus (GPa) = 36.63514 60.02903 48.33208
# Shear Modulus (GPa) = 24.87653 35.54079 30.20866
#
# Velocity S-wave (km/s) = 3.18916 3.81193 3.51436
# Velocity P-wave (km/s) = 5.34221 6.62700 6.01898
#
# Compressibility (1/GPa) = 0.02729620
#
# Stress axis : x y z
#
# Youngs Moduli (GPa) = 35.65149 60.71901 68.01366
#
# Poissons Ratio (x) = 0.51994 0.47617
# Poissons Ratio (y) = 0.30528 0.02711
# Poissons Ratio (z) = 0.24960 0.02420
#
# Static dielectric constant tensor:
#      x y z
#    x 2.024770 0.000000 -0.023970 
#    y 0.000000 1.920010 0.000000 
#    z -0.023970 0.000000 2.031240 
# 
# From -- ./inp_files/1810.got.cif
#   From: 2010.05.17/outbox.cif.g08.bks.cpg/sg9_1_cif.got.tgz:1810.got - 2010.06.03 20:04:27.
