data_PCOD9135824
_publ_section_title
;
Structure prediction by ZEFSAII (Michael W. Deem and Ramdas Pophale) SiO2 
 PCOD9135824
Probable space group: C C
;
_chemical_formula_sum "Si O2"
_cell_formula_units_Z 24
_cell_length_a 9.696682
_cell_length_b 11.919078
_cell_length_c 7.344755
_cell_angle_alpha 90.000000
_cell_angle_beta 92.682068
_cell_angle_gamma 90.000000
_cell_volume 847.943916
_symmetry_space_group_name_H-M "C C"
_symmetry_group_IT_number 9
_symmetry_cell_setting 'monoclinic'
loop_
_space_group_symop_operation_xyz
x,y,z
x,-y,1/2+z
1/2+x,1/2+y,z
1/2+x,1/2-y,1/2+z
loop_
_atom_site_type_symbol
_atom_site_label
_atom_site_fract_x
_atom_site_fract_y
_atom_site_fract_z
Si Si1 0.319640 0.175425 0.736030
Si Si2 0.112163 0.630183 0.695488
Si Si3 0.196961 0.398346 0.796125
Si Si4 0.527451 0.608621 0.815853
Si Si5 0.397712 0.170364 0.162793
Si Si6 0.608195 0.374612 0.739846
O O1 0.447363 0.116639 0.644438
O O2 0.299929 0.310251 0.707369
O O3 0.165991 0.126869 0.701374
O O4 0.355799 0.161676 0.950887
O O5 0.199387 0.532770 0.797659
O O6 0.181910 0.640154 0.502995
O O7 0.103691 0.746311 0.806179
O O8 0.047521 0.380948 0.697281
O O9 0.420306 0.701329 0.736800
O O10 0.514559 0.473556 0.814008
O O11 0.564359 0.634700 0.025918
O O12 0.273738 0.106913 0.259911
#
# Coordination Sequence:
#
# PCOD9135824 Si02
#       6
#     4   4   4   4   4   4
#     4  10  23  45  70 104 137 185 237 289 355 421
#     4  12  24  46  69 103 144 185 233 294 356 420
#     4  11  24  47  70 105 140 184 243 290 356 428
#     4  10  23  44  67  99 137 175 234 286 344 423
#     4  10  20  46  69  95 143 176 230 296 341 422
#     4  11  24  44  67 100 137 181 229 285 354 414
#
# _framework density 28.30376
#
# number of rings (size 3 to 8) (size 9 to 14) (size 15 to 20)
#    0.000    1.333    5.000    2.000    2.333    5.333 
#    6.000    0.000    0.000    0.000    0.000    0.000 
#    0.000    0.000    0.000    0.000    0.000    0.000 
#
# Total GULP energy -67166.963149 kJ/mol
# GULP energy per Si atom -5597.246929 kJ/mol
# Density = 2.823934 g / cm^3
# Si number density = 28.303760 Si / 1000 Ang^3
#
#
#
# Elastic Constant Matrix: (Units=GPa)
#
#
# Indices 1 2 3 4 5 6 
#
# 1 88.6846 10.1398 6.0988 0.0000 -5.0129 0.0000
# 2 10.1398 200.9728 3.4317 0.0000 1.5734 0.0000
# 3 6.0988 3.4317 80.9773 0.0000 18.1009 0.0000
# 4 0.0000 0.0000 0.0000 32.3994 0.0000 13.6844
# 5 -5.0129 1.5734 18.1009 0.0000 34.1872 0.0000
# 6 0.0000 0.0000 0.0000 13.6844 0.0000 65.3738
#
#
#
# Elastic Compliance Matrix: (Units=1/GPa)
#
#
# Indices 1 2 3 4 5 6 
#
# 1 0.011578 -0.000580 -0.001398 0.000000 0.002465 0.000000
# 2 -0.000580 0.005009 -0.000111 0.000000 -0.000257 0.000000
# 3 -0.001398 -0.000111 0.014182 0.000000 -0.007709 0.000000
# 4 0.000000 0.000000 0.000000 0.033858 0.000000 -0.007087
# 5 0.002465 -0.000257 -0.007709 0.000000 0.033706 0.000000
# 6 0.000000 0.000000 0.000000 -0.007087 0.000000 0.016780
#
#
# Mechanical properties :
#
#
# Convention : Reuss Voigt Hill
#
# Bulk Modulus (GPa) = 37.60721 45.55281 41.58001
# Shear Modulus (GPa) = 39.01529 49.78971 44.40250
#
# Velocity S-wave (km/s) = 3.71677 4.19874 3.96509
# Velocity P-wave (km/s) = 5.63339 6.29564 5.97370
#
# Compressibility (1/GPa) = 0.02659065
#
# Stress axis : x y z
#
# Youngs Moduli (GPa) = 86.37321 199.64278 70.51011
#
# Poissons Ratio (x) = 0.11570 0.09860
# Poissons Ratio (y) = 0.05006 0.00785
# Poissons Ratio (z) = 0.12078 0.02221
#
# Static dielectric constant tensor:
#      x y z
#    x 2.316940 0.000000 -0.007440 
#    y 0.000000 2.398420 0.000000 
#    z -0.007440 0.000000 2.085380 
# 
# From -- ./inp_files/6858.got.cif
#   From: 2010.05.17/outbox.cif.g08.bks.cpg/sg9_4_cif.got.tgz:6858.got - 2010.06.03 20:04:27.
