data_PCOD9135456
_publ_section_title
;
Structure prediction by ZEFSAII (Michael W. Deem and Ramdas Pophale) SiO2 
 PCOD9135456
Probable space group: C C
;
_chemical_formula_sum "Si O2"
_cell_formula_units_Z 32
_cell_length_a 31.855765
_cell_length_b 7.282169
_cell_length_c 18.968140
_cell_angle_alpha 90.000000
_cell_angle_beta 18.209572
_cell_angle_gamma 90.000000
_cell_volume 1375.037976
_symmetry_space_group_name_H-M "C C"
_symmetry_group_IT_number 9
_symmetry_cell_setting 'monoclinic'
loop_
_space_group_symop_operation_xyz
x,y,z
x,-y,1/2+z
1/2+x,1/2+y,z
1/2+x,1/2-y,1/2+z
loop_
_atom_site_type_symbol
_atom_site_label
_atom_site_fract_x
_atom_site_fract_y
_atom_site_fract_z
Si Si1 0.905360 0.184502 0.446370
Si Si2 0.181659 0.852316 0.579395
Si Si3 0.337956 0.134888 0.408118
Si Si4 0.288068 0.588027 0.234824
Si Si5 0.928295 0.613356 0.419113
Si Si6 0.009643 0.292208 0.140328
Si Si7 0.660210 0.074299 0.142130
Si Si8 0.953878 0.235212 0.079090
O O1 0.894285 0.399528 0.481232
O O2 0.046158 0.107735 0.253047
O O3 0.912728 0.185867 0.349605
O O4 0.795905 0.071618 0.664309
O O5 0.171241 0.644793 0.625152
O O6 0.315294 0.848132 0.317291
O O7 0.210564 0.000919 0.594253
O O8 0.373904 0.179696 0.431026
O O9 0.299366 0.318103 0.428955
O O10 0.456580 0.993252 0.201562
O O11 0.353280 0.765626 0.095050
O O12 0.136274 0.653292 0.486212
O O13 0.385740 0.563816 0.145956
O O14 0.085585 0.628667 0.187938
O O15 0.021367 0.190492 0.047168
O O16 0.561674 0.149710 0.361491
#
# Coordination Sequence:
#
# PCOD9135456 Si02
#       8
#     4   4   4   4   4   4   4   4
#     4  10  21  41  66  92 129 178 211 270 337 383
#     4  10  20  40  65  91 133 171 216 270 328 393
#     4  10  21  39  62  94 124 169 218 265 326 391
#     4  11  21  41  66  88 131 175 211 276 342 377
#     4   9  21  37  61  94 124 161 219 262 316 399
#     4  10  22  39  63  95 130 166 226 276 318 409
#     4  10  21  40  63  92 132 172 211 274 335 387
#     4  10  21  37  64  96 125 170 218 269 326 393
#
# _framework density 23.272085000000001
#
# number of rings (size 3 to 8) (size 9 to 14) (size 15 to 20)
#    0.000    2.000    1.250    2.250    0.000    6.000 
#    0.000   17.500    0.000    0.000    0.000    0.000 
#    0.000    0.000    0.000    0.000    0.000    0.000 
#
# Total GULP energy -89180.791224 kJ/mol
# GULP energy per Si atom -5573.799451 kJ/mol
# Density = 2.321912 g / cm^3
# Si number density = 23.272085 Si / 1000 Ang^3
#
#
#
# Elastic Constant Matrix: (Units=GPa)
#
#
# Indices 1 2 3 4 5 6 
#
# 1 139.1348 38.4324 12.4889 0.0000 -3.4104 0.0000
# 2 38.4324 61.1931 5.7967 0.0000 9.9546 0.0000
# 3 12.4889 5.7967 29.5063 0.0000 -10.1672 0.0000
# 4 0.0000 0.0000 0.0000 19.4677 0.0000 9.2865
# 5 -3.4104 9.9546 -10.1672 0.0000 27.3516 0.0000
# 6 0.0000 0.0000 0.0000 9.2865 0.0000 27.2990
#
#
#
# Elastic Compliance Matrix: (Units=1/GPa)
#
#
# Indices 1 2 3 4 5 6 
#
# 1 0.009053 -0.005950 -0.001752 0.000000 0.002643 0.000000
# 2 -0.005950 0.022407 -0.005676 0.000000 -0.011007 0.000000
# 3 -0.001752 -0.005676 0.041729 0.000000 0.017359 0.000000
# 4 0.000000 0.000000 0.000000 0.061317 0.000000 -0.020859
# 5 0.002643 -0.011007 0.017359 0.000000 0.047349 0.000000
# 6 0.000000 0.000000 0.000000 -0.020859 0.000000 0.043727
#
#
# Mechanical properties :
#
#
# Convention : Reuss Voigt Hill
#
# Bulk Modulus (GPa) = 21.53665 38.14114 29.83889
# Shear Modulus (GPa) = 18.66955 26.36473 22.51714
#
# Velocity S-wave (km/s) = 2.83544 3.36950 3.11394
# Velocity P-wave (km/s) = 4.47146 5.61808 5.07724
#
# Compressibility (1/GPa) = 0.04643248
#
# Stress axis : x y z
#
# Youngs Moduli (GPa) = 110.46383 44.62978 23.96390
#
# Poissons Ratio (x) = 0.26553 0.04199
# Poissons Ratio (y) = 0.65721 0.13603
# Poissons Ratio (z) = 0.19356 0.25334
#
# Static dielectric constant tensor:
#      x y z
#    x 2.047790 0.000000 -0.007310 
#    y 0.000000 1.864310 0.000000 
#    z -0.007310 0.000000 1.946070 
# 
# From -- ./inp_files/31842.got.cif
#   From: 2010.05.17/outbox.cif.g08.bks.cpg/sg9_16_cif.got.tgz:31842.got - 2010.06.03 20:04:27.
