data_PCOD9135154
_publ_section_title
;
Structure prediction by ZEFSAII (Michael W. Deem and Ramdas Pophale) SiO2 
 PCOD9135154
Probable space group: C C
;
_chemical_formula_sum "Si O2"
_cell_formula_units_Z 32
_cell_length_a 15.625838
_cell_length_b 15.027664
_cell_length_c 9.435670
_cell_angle_alpha 90.000000
_cell_angle_beta 137.130217
_cell_angle_gamma 90.000000
_cell_volume 1507.405150
_symmetry_space_group_name_H-M "C C"
_symmetry_group_IT_number 9
_symmetry_cell_setting 'monoclinic'
loop_
_space_group_symop_operation_xyz
x,y,z
x,-y,1/2+z
1/2+x,1/2+y,z
1/2+x,1/2-y,1/2+z
loop_
_atom_site_type_symbol
_atom_site_label
_atom_site_fract_x
_atom_site_fract_y
_atom_site_fract_z
Si Si1 0.642680 0.634286 0.731470
Si Si2 0.019546 0.489060 0.775495
Si Si3 0.942778 0.063072 0.691155
Si Si4 0.064497 0.131725 0.330621
Si Si5 0.193774 0.501388 0.731020
Si Si6 0.346431 0.157270 0.188884
Si Si7 0.761880 0.562318 0.362613
Si Si8 0.858513 0.839841 0.369480
O O1 0.528350 0.629878 0.703843
O O2 0.603809 0.668169 0.530535
O O3 0.693417 0.533084 0.775545
O O4 0.759254 0.680271 0.949322
O O5 0.967774 0.396976 0.780902
O O6 0.895607 0.548938 0.603422
O O7 0.077810 0.479988 0.691881
O O8 0.136997 0.524596 0.009988
O O9 0.916846 0.095150 0.819181
O O10 0.015843 0.969738 0.792034
O O11 0.815763 0.046033 0.446360
O O12 0.177282 0.127589 0.354192
O O13 0.946997 0.175919 0.111250
O O14 0.235335 0.605488 0.769086
O O15 0.280055 0.092143 0.222771
O O16 0.355248 0.247140 0.286294
#
# Coordination Sequence:
#
# PCOD9135154 Si02
#       8
#     4   4   4   4   4   4   4   4
#     4  10  20  37  66  92 120 162 226 270 311 385
#     4  11  22  39  65  95 127 177 224 264 321 404
#     4  10  20  38  63  93 125 168 216 266 321 392
#     4  10  20  37  66  92 120 162 226 270 311 385
#     4  11  22  39  65  95 127 177 224 264 321 404
#     4  11  24  41  63  94 134 171 210 271 339 386
#     4  10  20  38  63  93 125 168 216 266 321 392
#     4  11  24  41  63  94 134 171 210 271 339 386
#
# _framework density 21.228534
#
# number of rings (size 3 to 8) (size 9 to 14) (size 15 to 20)
#    0.000    1.500    2.500    5.250    3.500    2.000 
#    0.000    2.500    0.000    0.000    0.000    0.000 
#    0.000    0.000    0.000    0.000    0.000    0.000 
#
# Total GULP energy -89305.622052 kJ/mol
# GULP energy per Si atom -5581.601378 kJ/mol
# Density = 2.118022 g / cm^3
# Si number density = 21.228534 Si / 1000 Ang^3
#
#
#
# Elastic Constant Matrix: (Units=GPa)
#
#
# Indices 1 2 3 4 5 6 
#
# 1 62.4828 10.7424 -0.9244 0.0000 1.8642 0.0000
# 2 10.7424 29.9739 0.8419 0.0000 -4.7729 0.0000
# 3 -0.9244 0.8419 161.8123 0.0000 -8.3265 0.0000
# 4 0.0000 0.0000 0.0000 10.7391 0.0000 -14.7249
# 5 1.8642 -4.7729 -8.3265 0.0000 39.2446 0.0000
# 6 0.0000 0.0000 0.0000 -14.7249 0.0000 15.2915
#
#
#
# Elastic Compliance Matrix: (Units=1/GPa)
#
#
# Indices 1 2 3 4 5 6 
#
# 1 0.017153 -0.006401 0.000050 0.000000 -0.001583 0.000000
# 2 -0.006401 0.036410 0.000018 0.000000 0.004736 0.000000
# 3 0.000050 0.000018 0.006248 0.000000 0.001326 0.000000
# 4 0.000000 0.000000 0.000000 -0.290685 0.000000 -0.279914
# 5 -0.001583 0.004736 0.001326 0.000000 0.026414 0.000000
# 6 0.000000 0.000000 0.000000 -0.279914 0.000000 -0.204145
#
#
# Mechanical properties :
#
#
# Convention : Reuss Voigt Hill
#
# Bulk Modulus (GPa) = 21.21133 30.62098 25.91616
# Shear Modulus (GPa) = -13.15013 29.29564 8.07276
#
# Velocity S-wave (km/s) = -2.49159 3.71888 1.95219
# Velocity P-wave (km/s) = 1.31767 5.73549 4.16126
#
# Compressibility (1/GPa) = 0.04714462
#
# Stress axis : x y z
#
# Youngs Moduli (GPa) = 58.29941 27.46499 160.04092
#
# Poissons Ratio (x) = 0.17580 -0.00798
# Poissons Ratio (y) = 0.37317 -0.00283
# Poissons Ratio (z) = -0.00291 -0.00049
#
# Static dielectric constant tensor:
#      x y z
#    x 1.766250 0.000000 0.013550 
#    y 0.000000 1.783520 0.000000 
#    z 0.013550 0.000000 1.792520 
# 
# From -- ./inp_files/9732.got.cif
#   From: 2010.05.17/outbox.cif.g08.bks.cpg/sg9_5_cif.got.tgz:9732.got - 2010.06.03 20:04:27.
