data_PCOD9135953
_publ_section_title
;
Structure prediction by ZEFSAII (Michael W. Deem and Ramdas Pophale) SiO2 
 PCOD9135953
Probable space group: C C
;
_chemical_formula_sum "Si O2"
_cell_formula_units_Z 32
_cell_length_a 14.416586
_cell_length_b 19.707830
_cell_length_c 8.268605
_cell_angle_alpha 90.000000
_cell_angle_beta 36.966753
_cell_angle_gamma 90.000000
_cell_volume 1412.738814
_symmetry_space_group_name_H-M "C C"
_symmetry_group_IT_number 9
_symmetry_cell_setting 'monoclinic'
loop_
_space_group_symop_operation_xyz
x,y,z
x,-y,1/2+z
1/2+x,1/2+y,z
1/2+x,1/2-y,1/2+z
loop_
_atom_site_type_symbol
_atom_site_label
_atom_site_fract_x
_atom_site_fract_y
_atom_site_fract_z
Si Si1 0.430100 0.054904 0.461910
Si Si2 0.558511 0.519298 0.775793
Si Si3 0.806893 0.844805 0.923164
Si Si4 0.352804 0.916509 0.714308
Si Si5 0.121841 0.898234 0.501165
Si Si6 0.273488 0.330469 0.312015
Si Si7 0.031899 0.719571 0.939591
Si Si8 0.748971 0.084464 0.165450
O O1 0.447569 0.069606 0.248762
O O2 0.301257 0.107921 0.708213
O O3 0.581151 0.058764 0.357600
O O4 0.377402 0.977302 0.555451
O O5 0.676663 0.571367 0.520361
O O6 0.609427 0.441600 0.682420
O O7 0.567609 0.544804 0.946418
O O8 0.385029 0.530410 0.961393
O O9 0.758357 0.884625 0.831478
O O10 0.993802 0.840016 0.657853
O O11 0.776019 0.877112 0.145369
O O12 0.684256 0.782907 0.111972
O O13 0.418735 0.844711 0.563866
O O14 0.115375 0.288814 0.498328
O O15 0.277860 0.362472 0.480406
O O16 0.423245 0.283711 0.083764
#
# Coordination Sequence:
#
# PCOD9135953 Si02
#       8
#     4   4   4   4   4   4   4   4
#     4  10  21  37  62  99 128 167 207 259 330 385
#     4   9  21  32  59  88 127 167 204 249 324 380
#     4   9  23  43  61  93 122 165 214 262 316 375
#     4  10  21  39  60  95 132 166 207 262 323 392
#     4   9  19  38  54  91 133 160 207 256 312 392
#     4  10  24  45  63  91 122 165 221 260 317 369
#     4  10  23  45  64  90 128 167 215 268 315 378
#     4  11  22  41  65  95 122 169 211 264 323 371
#
# _framework density 22.651038
#
# number of rings (size 3 to 8) (size 9 to 14) (size 15 to 20)
#    0.750    1.500    1.250    0.000    7.000    1.000 
#    4.500    0.000    0.000    0.000    0.000    0.000 
#    0.000    0.000    0.000    0.000    0.000    0.000 
#
# Total GULP energy -89077.806208 kJ/mol
# GULP energy per Si atom -5567.362888 kJ/mol
# Density = 2.259948 g / cm^3
# Si number density = 22.651038 Si / 1000 Ang^3
#
#
#
# Elastic Constant Matrix: (Units=GPa)
#
#
# Indices 1 2 3 4 5 6 
#
# 1 99.9207 27.8822 42.4839 0.0000 -22.0458 0.0000
# 2 27.8822 41.8366 30.4187 0.0000 3.2406 0.0000
# 3 42.4839 30.4187 80.8016 0.0000 -9.4954 0.0000
# 4 0.0000 0.0000 0.0000 34.5259 0.0000 -11.0133
# 5 -22.0458 3.2406 -9.4954 0.0000 50.5618 0.0000
# 6 0.0000 0.0000 0.0000 -11.0133 0.0000 21.0346
#
#
#
# Elastic Compliance Matrix: (Units=1/GPa)
#
#
# Indices 1 2 3 4 5 6 
#
# 1 0.015428 -0.007461 -0.004557 0.000000 0.006349 0.000000
# 2 -0.007461 0.037568 -0.011131 0.000000 -0.007751 0.000000
# 3 -0.004557 -0.011131 0.019237 0.000000 0.002339 0.000000
# 4 0.000000 0.000000 0.000000 0.034771 0.000000 0.018205
# 5 0.006349 -0.007751 0.002339 0.000000 0.023482 0.000000
# 6 0.000000 0.000000 0.000000 0.018205 0.000000 0.057073
#
#
# Mechanical properties :
#
#
# Convention : Reuss Voigt Hill
#
# Bulk Modulus (GPa) = 38.55635 47.12539 42.84087
# Shear Modulus (GPa) = 20.61827 29.34276 24.98051
#
# Velocity S-wave (km/s) = 3.02032 3.60311 3.32451
# Velocity P-wave (km/s) = 5.40573 6.17738 5.80439
#
# Compressibility (1/GPa) = 0.02593606
#
# Stress axis : x y z
#
# Youngs Moduli (GPa) = 64.81645 26.61806 51.98210
#
# Poissons Ratio (x) = 0.19859 0.23689
# Poissons Ratio (y) = 0.48357 0.57863
# Poissons Ratio (z) = 0.29537 0.29629
#
# Static dielectric constant tensor:
#      x y z
#    x 1.886500 0.000000 -0.018280 
#    y 0.000000 1.916440 0.000000 
#    z -0.018280 0.000000 1.927210 
# 
# From -- ./inp_files/10016.got.cif
#   From: 2010.05.17/outbox.cif.g08.bks.cpg/sg9_6_cif.got.tgz:10016.got - 2010.06.03 20:04:27.
