data_PCOD9135699
_publ_section_title
;
Structure prediction by ZEFSAII (Michael W. Deem and Ramdas Pophale) SiO2 
 PCOD9135699
Probable space group: C C
;
_chemical_formula_sum "Si O2"
_cell_formula_units_Z 28
_cell_length_a 10.911718
_cell_length_b 9.525719
_cell_length_c 22.503460
_cell_angle_alpha 90.000000
_cell_angle_beta 148.567412
_cell_angle_gamma 90.000000
_cell_volume 1219.804870
_symmetry_space_group_name_H-M "C C"
_symmetry_group_IT_number 9
_symmetry_cell_setting 'monoclinic'
loop_
_space_group_symop_operation_xyz
x,y,z
x,-y,1/2+z
1/2+x,1/2+y,z
1/2+x,1/2-y,1/2+z
loop_
_atom_site_type_symbol
_atom_site_label
_atom_site_fract_x
_atom_site_fract_y
_atom_site_fract_z
Si Si1 0.025750 0.113633 0.062090
Si Si2 0.959973 0.304070 0.467261
Si Si3 0.217695 0.195325 0.271949
Si Si4 0.347760 0.920212 0.111170
Si Si5 0.765159 0.857391 0.997665
Si Si6 0.518808 0.594223 0.726841
Si Si7 0.534421 0.080114 0.562574
O O1 0.147484 0.149473 0.175472
O O2 0.946161 0.266328 0.006507
O O3 0.213523 0.032835 0.097233
O O4 0.807082 0.011987 0.986186
O O5 0.892145 0.240697 0.502617
O O6 0.734098 0.306307 0.332090
O O7 0.026393 0.464094 0.508200
O O8 0.169374 0.210601 0.529838
O O9 0.497539 0.190468 0.392356
O O10 0.086146 0.342197 0.232481
O O11 0.107213 0.065611 0.262428
O O12 0.406381 0.970648 0.069060
O O13 0.904630 0.859719 0.117338
O O14 0.311841 0.601092 0.689185
#
# Coordination Sequence:
#
# PCOD9135699 Si02
#       7
#     4   4   4   4   4   4   4
#     4   9  22  42  68 101 136 177 228 282 338 411
#     4  11  23  45  66 102 139 176 233 285 337 413
#     4  10  20  42  71  93 135 184 227 280 341 403
#     4  10  22  44  67 101 137 178 227 284 337 406
#     4  10  23  45  70  96 138 187 227 280 348 403
#     4  11  23  42  69  97 139 181 226 287 340 405
#     4  11  23  42  67 102 136 177 226 278 343 403
#
# _framework density 22.954491999999998
#
# number of rings (size 3 to 8) (size 9 to 14) (size 15 to 20)
#    0.000    1.714    1.429    2.571    6.000    0.000 
#    7.714    2.857    0.000    0.000    0.000    0.000 
#    0.000    0.000    0.000    0.000    0.000    0.000 
#
# Total GULP energy -78259.050632 kJ/mol
# GULP energy per Si atom -5589.932188 kJ/mol
# Density = 2.290225 g / cm^3
# Si number density = 22.954492 Si / 1000 Ang^3
#
#
#
# Elastic Constant Matrix: (Units=GPa)
#
#
# Indices 1 2 3 4 5 6 
#
# 1 88.0301 3.0857 7.1044 0.0000 16.9648 0.0000
# 2 3.0857 71.1647 -3.8372 0.0000 -5.4721 0.0000
# 3 7.1044 -3.8372 82.4673 0.0000 13.8385 0.0000
# 4 0.0000 0.0000 0.0000 7.4364 0.0000 3.4643
# 5 16.9648 -5.4721 13.8385 0.0000 27.8023 0.0000
# 6 0.0000 0.0000 0.0000 3.4643 0.0000 45.5624
#
#
#
# Elastic Compliance Matrix: (Units=1/GPa)
#
#
# Indices 1 2 3 4 5 6 
#
# 1 0.012975 -0.001186 0.000213 0.000000 -0.008257 0.000000
# 2 -0.001186 0.014380 0.000191 0.000000 0.003459 0.000000
# 3 0.000213 0.000191 0.013238 0.000000 -0.006681 0.000000
# 4 0.000000 0.000000 0.000000 0.139411 0.000000 -0.010600
# 5 -0.008257 0.003459 -0.006681 0.000000 0.045013 0.000000
# 6 0.000000 0.000000 0.000000 -0.010600 0.000000 0.022754
#
#
# Mechanical properties :
#
#
# Convention : Reuss Voigt Hill
#
# Bulk Modulus (GPa) = 25.62307 28.26310 26.94308
# Shear Modulus (GPa) = 19.05887 31.84751 25.45319
#
# Velocity S-wave (km/s) = 2.88460 3.72885 3.33356
# Velocity P-wave (km/s) = 4.72031 5.55684 5.15557
#
# Compressibility (1/GPa) = 0.03902733
#
# Stress axis : x y z
#
# Youngs Moduli (GPa) = 77.06907 69.54298 75.54168
#
# Poissons Ratio (x) = 0.08248 -0.01606
# Poissons Ratio (y) = 0.09141 -0.01441
# Poissons Ratio (z) = -0.01638 -0.01327
#
# Static dielectric constant tensor:
#      x y z
#    x 1.871410 0.000000 -0.013820 
#    y 0.000000 1.924960 0.000000 
#    z -0.013820 0.000000 1.862120 
# 
# From -- ./inp_files/20794.got.cif
#   From: 2010.05.17/outbox.cif.g08.bks.cpg/sg9_11_cif.got.tgz:20794.got - 2010.06.03 20:04:27.
