data_PCOD9135798
_publ_section_title
;
Structure prediction by ZEFSAII (Michael W. Deem and Ramdas Pophale) SiO2 
 PCOD9135798
Probable space group: C C
;
_chemical_formula_sum "Si O2"
_cell_formula_units_Z 32
_cell_length_a 25.974917
_cell_length_b 5.148681
_cell_length_c 9.363328
_cell_angle_alpha 90.000000
_cell_angle_beta 70.649790
_cell_angle_gamma 90.000000
_cell_volume 1181.482613
_symmetry_space_group_name_H-M "C C"
_symmetry_group_IT_number 9
_symmetry_cell_setting 'monoclinic'
loop_
_space_group_symop_operation_xyz
x,y,z
x,-y,1/2+z
1/2+x,1/2+y,z
1/2+x,1/2-y,1/2+z
loop_
_atom_site_type_symbol
_atom_site_label
_atom_site_fract_x
_atom_site_fract_y
_atom_site_fract_z
Si Si1 0.436330 0.913280 0.931430
Si Si2 0.774303 0.470907 0.488391
Si Si3 0.188809 0.672698 0.946411
Si Si4 0.083813 0.919582 0.906130
Si Si5 0.786437 0.969215 0.666878
Si Si6 0.507641 0.993219 0.604484
Si Si7 0.110366 0.303594 0.110651
Si Si8 0.371414 0.774736 0.739122
O O1 0.460886 0.046337 0.766606
O O2 0.401001 0.714006 0.865408
O O3 0.486165 0.832420 0.990304
O O4 0.403410 0.095289 0.074450
O O5 0.716171 0.561047 0.476478
O O6 0.781765 0.190904 0.549467
O O7 0.822475 0.535406 0.333711
O O8 0.781316 0.688974 0.603930
O O9 0.164436 0.468486 0.082078
O O10 0.135077 0.738952 0.906745
O O11 0.235735 0.528340 0.816609
O O12 0.094839 0.930199 0.728615
O O13 0.027809 0.776539 0.007502
O O14 0.099268 0.188335 0.964328
O O15 0.841796 0.023982 0.701830
O O16 0.558161 0.015400 0.666586
#
# Coordination Sequence:
#
# PCOD9135798 Si02
#       8
#     4   4   4   4   4   4   4   4
#     4  10  20  44  76 105 147 193 252 313 391 454
#     4  11  25  46  75 111 158 201 253 312 380 455
#     4  10  26  42  72 104 147 200 250 312 379 454
#     4  11  25  42  71 104 146 196 252 312 389 455
#     4  11  25  46  76 111 156 203 253 313 379 453
#     4  10  22  44  73  99 149 188 247 315 380 461
#     4  11  25  44  67 108 148 195 251 315 379 465
#     4  10  22  44  76 108 147 198 250 318 375 459
#
# _framework density 27.084610999999999
#
# number of rings (size 3 to 8) (size 9 to 14) (size 15 to 20)
#    0.000    1.500    2.500    0.750    7.000    4.000 
#    0.000    5.000    0.000    0.000    0.000    0.000 
#    0.000    0.000    0.000    0.000    0.000    0.000 
#
# Total GULP energy -89250.379628 kJ/mol
# GULP energy per Si atom -5578.148727 kJ/mol
# Density = 2.702297 g / cm^3
# Si number density = 27.084611 Si / 1000 Ang^3
#
#
#
# Elastic Constant Matrix: (Units=GPa)
#
#
# Indices 1 2 3 4 5 6 
#
# 1 108.2808 19.1069 44.1329 0.0000 14.2229 0.0000
# 2 19.1069 64.9404 19.4703 0.0000 12.0197 0.0000
# 3 44.1329 19.4703 138.5345 0.0000 6.6338 0.0000
# 4 0.0000 0.0000 0.0000 36.7382 0.0000 18.6647
# 5 14.2229 12.0197 6.6338 0.0000 47.7747 0.0000
# 6 0.0000 0.0000 0.0000 18.6647 0.0000 20.8355
#
#
#
# Elastic Compliance Matrix: (Units=1/GPa)
#
#
# Indices 1 2 3 4 5 6 
#
# 1 0.011182 -0.001890 -0.003181 0.000000 -0.002412 0.000000
# 2 -0.001890 0.017094 -0.001632 0.000000 -0.003511 0.000000
# 3 -0.003181 -0.001632 0.008452 0.000000 0.000184 0.000000
# 4 0.000000 0.000000 0.000000 0.049955 0.000000 -0.044750
# 5 -0.002412 -0.003511 0.000184 0.000000 0.022508 0.000000
# 6 0.000000 0.000000 0.000000 -0.044750 0.000000 0.088083
#
#
# Mechanical properties :
#
#
# Convention : Reuss Voigt Hill
#
# Bulk Modulus (GPa) = 42.87794 53.01952 47.94873
# Shear Modulus (GPa) = 22.88807 36.33937 29.61372
#
# Velocity S-wave (km/s) = 2.91014 3.66689 3.31021
# Velocity P-wave (km/s) = 5.21127 6.12749 5.68786
#
# Compressibility (1/GPa) = 0.02332201
#
# Stress axis : x y z
#
# Youngs Moduli (GPa) = 89.42861 58.49973 118.30899
#
# Poissons Ratio (x) = 0.11056 0.37636
# Poissons Ratio (y) = 0.16901 0.19311
# Poissons Ratio (z) = 0.28449 0.09549
#
# Static dielectric constant tensor:
#      x y z
#    x 2.379770 0.000000 -0.063640 
#    y 0.000000 2.219260 0.000000 
#    z -0.063640 0.000000 2.162580 
# 
# From -- ./inp_files/12564.got.cif
#   From: 2010.05.17/outbox.cif.g08.bks.cpg/sg9_7_cif.got.tgz:12564.got - 2010.06.03 20:04:27.
