data_PCOD9135664
_publ_section_title
;
Structure prediction by ZEFSAII (Michael W. Deem and Ramdas Pophale) SiO2 
 PCOD9135664
Probable space group: C C
;
_chemical_formula_sum "Si O2"
_cell_formula_units_Z 32
_cell_length_a 6.936722
_cell_length_b 27.523407
_cell_length_c 8.752015
_cell_angle_alpha 90.000000
_cell_angle_beta 131.552531
_cell_angle_gamma 90.000000
_cell_volume 1250.455019
_symmetry_space_group_name_H-M "C C"
_symmetry_group_IT_number 9
_symmetry_cell_setting 'monoclinic'
loop_
_space_group_symop_operation_xyz
x,y,z
x,-y,1/2+z
1/2+x,1/2+y,z
1/2+x,1/2-y,1/2+z
loop_
_atom_site_type_symbol
_atom_site_label
_atom_site_fract_x
_atom_site_fract_y
_atom_site_fract_z
Si Si1 0.384950 0.863317 0.497330
Si Si2 0.558357 0.573367 0.011059
Si Si3 0.341031 0.120463 0.428713
Si Si4 0.776269 0.995467 0.534098
Si Si5 0.406645 0.240457 0.136163
Si Si6 0.295045 0.984140 0.996257
Si Si7 0.709227 0.680968 0.614077
Si Si8 0.773797 0.100824 0.414940
O O1 0.125468 0.894187 0.398105
O O2 0.401461 0.817003 0.617374
O O3 0.405829 0.839940 0.342987
O O4 0.613586 0.897122 0.673043
O O5 0.520342 0.487513 0.769135
O O6 0.628230 0.608524 0.188305
O O7 0.757727 0.527315 0.100554
O O8 0.324201 0.073940 0.534121
O O9 0.317900 0.171366 0.503439
O O10 0.598521 0.115737 0.466924
O O11 0.523571 0.999908 0.502821
O O12 0.840755 0.045785 0.484110
O O13 0.793458 0.952727 0.416900
O O14 0.586208 0.269009 0.107750
O O15 0.598903 0.249187 0.396955
O O16 0.481917 0.641938 0.504586
#
# Coordination Sequence:
#
# PCOD9135664 Si02
#       8
#     4   4   4   4   4   4   4   4
#     4  10  22  40  68 104 135 195 242 317 386 462
#     4  10  21  39  64  98 145 183 258 301 377 459
#     4   9  22  39  63  97 137 183 245 307 369 459
#     4  10  22  39  65 101 147 197 248 316 375 469
#     4  10  21  42  77 110 147 197 257 320 406 478
#     4  10  21  38  61  99 143 193 249 305 386 447
#     4  11  21  41  71  94 141 183 244 306 393 459
#     4  10  20  42  67  97 139 183 245 302 378 449
#
# _framework density 25.590682999999999
#
# number of rings (size 3 to 8) (size 9 to 14) (size 15 to 20)
#    0.000    2.000    1.250    2.250    0.000    9.000 
#    0.000    8.750   11.000    3.000    0.000    0.000 
#    0.000    0.000    0.000    0.000    0.000    0.000 
#
# Total GULP energy -89113.015696 kJ/mol
# GULP energy per Si atom -5569.563481 kJ/mol
# Density = 2.553244 g / cm^3
# Si number density = 25.590683 Si / 1000 Ang^3
#
#
#
# Elastic Constant Matrix: (Units=GPa)
#
#
# Indices 1 2 3 4 5 6 
#
# 1 97.3057 24.1055 3.4236 0.0000 -9.4951 0.0000
# 2 24.1055 111.5322 11.6613 0.0000 -6.1348 0.0000
# 3 3.4236 11.6613 98.8497 0.0000 10.3636 0.0000
# 4 0.0000 0.0000 0.0000 14.7854 0.0000 -9.4437
# 5 -9.4951 -6.1348 10.3636 0.0000 33.8114 0.0000
# 6 0.0000 0.0000 0.0000 -9.4437 0.0000 47.8262
#
#
#
# Elastic Compliance Matrix: (Units=1/GPa)
#
#
# Indices 1 2 3 4 5 6 
#
# 1 0.011115 -0.002201 -0.000424 0.000000 0.002852 0.000000
# 2 -0.002201 0.009652 -0.001220 0.000000 0.001507 0.000000
# 3 -0.000424 -0.001220 0.010653 0.000000 -0.003606 0.000000
# 4 0.000000 0.000000 0.000000 0.077396 0.000000 0.015283
# 5 0.002852 0.001507 -0.003606 0.000000 0.031756 0.000000
# 6 0.000000 0.000000 0.000000 0.015283 0.000000 0.023927
#
#
# Mechanical properties :
#
#
# Convention : Reuss Voigt Hill
#
# Bulk Modulus (GPa) = 42.14269 42.89649 42.51959
# Shear Modulus (GPa) = 27.76232 37.18441 32.47336
#
# Velocity S-wave (km/s) = 3.29730 3.81602 3.56610
# Velocity P-wave (km/s) = 5.56776 6.01788 5.79719
#
# Compressibility (1/GPa) = 0.02372891
#
# Stress axis : x y z
#
# Youngs Moduli (GPa) = 89.96509 103.60263 93.86939
#
# Poissons Ratio (x) = 0.22804 0.03983
# Poissons Ratio (y) = 0.19803 0.11456
# Poissons Ratio (z) = 0.03818 0.12644
#
# Static dielectric constant tensor:
#      x y z
#    x 2.092830 0.000000 0.014820 
#    y 0.000000 1.969770 0.000000 
#    z 0.014820 0.000000 2.297940 
# 
# From -- ./inp_files/6529.got.cif
#   From: 2010.05.17/outbox.cif.g08.bks.cpg/sg9_4_cif.got.tgz:6529.got - 2010.06.03 20:04:27.
