data_PCOD9135774
_publ_section_title
;
Structure prediction by ZEFSAII (Michael W. Deem and Ramdas Pophale) SiO2 
 PCOD9135774
Probable space group: C C
;
_chemical_formula_sum "Si O2"
_cell_formula_units_Z 32
_cell_length_a 6.611418
_cell_length_b 25.218303
_cell_length_c 11.373539
_cell_angle_alpha 90.000000
_cell_angle_beta 133.794533
_cell_angle_gamma 90.000000
_cell_volume 1368.796158
_symmetry_space_group_name_H-M "C C"
_symmetry_group_IT_number 9
_symmetry_cell_setting 'monoclinic'
loop_
_space_group_symop_operation_xyz
x,y,z
x,-y,1/2+z
1/2+x,1/2+y,z
1/2+x,1/2-y,1/2+z
loop_
_atom_site_type_symbol
_atom_site_label
_atom_site_fract_x
_atom_site_fract_y
_atom_site_fract_z
Si Si1 0.057480 0.916036 0.281640
Si Si2 0.059479 0.397345 0.308988
Si Si3 0.262687 0.502030 0.774567
Si Si4 0.802702 0.240805 0.525409
Si Si5 0.936546 0.912017 0.681980
Si Si6 0.829998 0.815684 0.278273
Si Si7 0.237315 0.672374 0.286990
Si Si8 0.582105 0.077960 0.397032
O O1 0.296569 0.906645 0.285009
O O2 0.041741 0.865512 0.359235
O O3 0.055347 0.968075 0.361991
O O4 0.776428 0.917951 0.089345
O O5 0.070936 0.446433 0.222886
O O6 0.074616 0.341323 0.247094
O O7 0.758399 0.570407 0.299973
O O8 0.315513 0.399527 0.504872
O O9 0.220663 0.468767 0.875631
O O10 0.248828 0.459032 0.664631
O O11 0.787487 0.200079 0.626527
O O12 0.491805 0.265704 0.394311
O O13 0.890624 0.211580 0.440734
O O14 0.014584 0.288680 0.636588
O O15 0.904299 0.861618 0.756866
O O16 0.099401 0.629427 0.319796
#
# Coordination Sequence:
#
# PCOD9135774 Si02
#       8
#     4   4   4   4   4   4   4   4
#     4  11  23  42  65  96 133 174 219 273 333 403
#     4  11  24  42  66 100 133 176 220 278 336 404
#     4  10  24  40  68  96 134 176 218 274 332 404
#     4  10  20  44  68  98 132 182 224 288 332 402
#     4  11  24  42  66 100 133 176 220 278 336 404
#     4  10  22  41  68  94 136 172 227 278 337 394
#     4  10  22  41  68  94 136 172 227 278 337 394
#     4  11  23  42  65  96 133 174 219 273 333 403
#
# _framework density 23.378207
#
# number of rings (size 3 to 8) (size 9 to 14) (size 15 to 20)
#    0.000    1.500    1.250    3.000    0.000    9.000 
#    0.000   13.750    0.000    0.000    0.000    0.000 
#    0.000    0.000    0.000    0.000    0.000    0.000 
#
# Total GULP energy -89345.780511 kJ/mol
# GULP energy per Si atom -5584.111282 kJ/mol
# Density = 2.332500 g / cm^3
# Si number density = 23.378207 Si / 1000 Ang^3
#
#
#
# Elastic Constant Matrix: (Units=GPa)
#
#
# Indices 1 2 3 4 5 6 
#
# 1 148.3264 41.4517 43.5551 0.0000 -14.6059 0.0000
# 2 41.4517 130.9673 35.8900 0.0000 -21.7219 0.0000
# 3 43.5551 35.8900 94.1335 0.0000 -10.8857 0.0000
# 4 0.0000 0.0000 0.0000 22.7263 0.0000 -9.9814
# 5 -14.6059 -21.7219 -10.8857 0.0000 34.3302 0.0000
# 6 0.0000 0.0000 0.0000 -9.9814 0.0000 38.2587
#
#
#
# Elastic Compliance Matrix: (Units=1/GPa)
#
#
# Indices 1 2 3 4 5 6 
#
# 1 0.008211 -0.001503 -0.003044 0.000000 0.001577 0.000000
# 2 -0.001503 0.009539 -0.002406 0.000000 0.004633 0.000000
# 3 -0.003044 -0.002406 0.013103 0.000000 0.001338 0.000000
# 4 0.000000 0.000000 0.000000 0.049696 0.000000 0.012965
# 5 0.001577 0.004633 0.001338 0.000000 0.033156 0.000000
# 6 0.000000 0.000000 0.000000 0.012965 0.000000 0.029520
#
#
# Mechanical properties :
#
#
# Convention : Reuss Voigt Hill
#
# Bulk Modulus (GPa) = 59.00232 68.35786 63.68009
# Shear Modulus (GPa) = 30.71626 35.89840 33.30733
#
# Velocity S-wave (km/s) = 3.62869 3.92286 3.77864
# Velocity P-wave (km/s) = 6.54595 7.05846 6.80703
#
# Compressibility (1/GPa) = 0.01694848
#
# Stress axis : x y z
#
# Youngs Moduli (GPa) = 121.78725 104.83344 76.31603
#
# Poissons Ratio (x) = 0.15758 0.23229
# Poissons Ratio (y) = 0.18306 0.18358
# Poissons Ratio (z) = 0.37069 0.25219
#
# Static dielectric constant tensor:
#      x y z
#    x 1.897200 0.000000 0.020830 
#    y 0.000000 1.925270 0.000000 
#    z 0.020830 0.000000 1.879570 
# 
# From -- ./inp_files/15602.got.cif
#   From: 2010.05.17/outbox.cif.g08.bks.cpg/sg9_8_cif.got.tgz:15602.got - 2010.06.03 20:04:27.
