data_PCOD9135850
_publ_section_title
;
Structure prediction by ZEFSAII (Michael W. Deem and Ramdas Pophale) SiO2 
 PCOD9135850
Probable space group: C C
;
_chemical_formula_sum "Si O2"
_cell_formula_units_Z 24
_cell_length_a 11.643178
_cell_length_b 20.943922
_cell_length_c 5.624810
_cell_angle_alpha 90.000000
_cell_angle_beta 129.704251
_cell_angle_gamma 90.000000
_cell_volume 1055.267549
_symmetry_space_group_name_H-M "C C"
_symmetry_group_IT_number 9
_symmetry_cell_setting 'monoclinic'
loop_
_space_group_symop_operation_xyz
x,y,z
x,-y,1/2+z
1/2+x,1/2+y,z
1/2+x,1/2-y,1/2+z
loop_
_atom_site_type_symbol
_atom_site_label
_atom_site_fract_x
_atom_site_fract_y
_atom_site_fract_z
Si Si1 0.036290 0.229367 0.713800
Si Si2 0.566546 0.845440 0.460860
Si Si3 0.338591 0.787560 0.831857
Si Si4 0.362696 0.651958 0.116493
Si Si5 0.640286 0.969590 0.789495
Si Si6 0.481624 0.516389 0.193860
O O1 0.109518 0.274303 0.607491
O O2 0.934544 0.280416 0.719020
O O3 0.941191 0.174415 0.464373
O O4 0.166520 0.201626 0.048357
O O5 0.693078 0.867288 0.443373
O O6 0.584502 0.897197 0.689637
O O7 0.412149 0.835195 0.118096
O O8 0.355619 0.715365 0.951982
O O9 0.445452 0.591272 0.122516
O O10 0.588717 0.002812 0.474295
O O11 0.821690 0.978628 0.012671
O O12 0.556993 0.506538 0.550541
#
# Coordination Sequence:
#
# PCOD9135850 Si02
#       6
#     4   4   4   4   4   4
#     4  11  24  38  62  88 128 170 204 265 318 377
#     4  11  22  37  60  94 125 161 217 262 315 380
#     4  11  24  38  62  88 128 170 204 265 318 377
#     4  11  22  37  60  94 125 161 217 262 315 380
#     4  10  21  34  60  95 122 162 210 270 313 362
#     4  10  21  34  60  95 122 162 210 270 313 362
#
# _framework density 22.743047000000001
#
# number of rings (size 3 to 8) (size 9 to 14) (size 15 to 20)
#    0.000    1.333    6.667    0.000    9.333    0.000 
#    0.000    0.000    0.000    2.000    0.000    0.000 
#    0.000    0.000    0.000    0.000    0.000    0.000 
#
# Total GULP energy -67019.596477 kJ/mol
# GULP energy per Si atom -5584.966373 kJ/mol
# Density = 2.269128 g / cm^3
# Si number density = 22.743047 Si / 1000 Ang^3
#
#
#
# Elastic Constant Matrix: (Units=GPa)
#
#
# Indices 1 2 3 4 5 6 
#
# 1 34.2274 -0.0453 18.1315 0.0000 -12.2031 0.0000
# 2 -0.0453 73.1841 30.6270 0.0000 -2.4975 0.0000
# 3 18.1315 30.6270 113.9626 0.0000 -6.5713 0.0000
# 4 0.0000 0.0000 0.0000 36.8902 0.0000 -8.8873
# 5 -12.2031 -2.4975 -6.5713 0.0000 38.7852 0.0000
# 6 0.0000 0.0000 0.0000 -8.8873 0.0000 17.1437
#
#
#
# Elastic Compliance Matrix: (Units=1/GPa)
#
#
# Indices 1 2 3 4 5 6 
#
# 1 0.036106 0.002853 -0.005903 0.000000 0.010544 0.000000
# 2 0.002853 0.015624 -0.004588 0.000000 0.001126 0.000000
# 3 -0.005903 -0.004588 0.010930 0.000000 -0.000301 0.000000
# 4 0.000000 0.000000 0.000000 0.030976 0.000000 0.016058
# 5 0.010544 0.001126 -0.000301 0.000000 0.029122 0.000000
# 6 0.000000 0.000000 0.000000 0.016058 0.000000 0.066655
#
#
# Mechanical properties :
#
#
# Convention : Reuss Voigt Hill
#
# Bulk Modulus (GPa) = 21.10441 35.42227 28.26334
# Shear Modulus (GPa) = 22.67728 30.07454 26.37591
#
# Velocity S-wave (km/s) = 3.16113 3.64037 3.40918
# Velocity P-wave (km/s) = 4.75639 5.76876 5.28686
#
# Compressibility (1/GPa) = 0.04738346
#
# Stress axis : x y z
#
# Youngs Moduli (GPa) = 27.69591 64.00254 91.49441
#
# Poissons Ratio (x) = -0.18257 0.54011
# Poissons Ratio (y) = -0.07901 0.41977
# Poissons Ratio (z) = 0.16349 0.29364
#
# Static dielectric constant tensor:
#      x y z
#    x 1.897490 0.000000 -0.073350 
#    y 0.000000 1.875790 0.000000 
#    z -0.073350 0.000000 1.891060 
# 
# From -- ./inp_files/607.got.cif
#   From: 2010.05.17/outbox.cif.g08.bks.cpg/sg9_1_cif.got.tgz:607.got - 2010.06.03 20:04:27.
