data_PCOD9135150
_publ_section_title
;
Structure prediction by ZEFSAII (Michael W. Deem and Ramdas Pophale) SiO2 
 PCOD9135150
Probable space group: C C
;
_chemical_formula_sum "Si O2"
_cell_formula_units_Z 24
_cell_length_a 6.795525
_cell_length_b 9.315011
_cell_length_c 14.987850
_cell_angle_alpha 90.000000
_cell_angle_beta 101.810008
_cell_angle_gamma 90.000000
_cell_volume 928.653564
_symmetry_space_group_name_H-M "C C"
_symmetry_group_IT_number 9
_symmetry_cell_setting 'monoclinic'
loop_
_space_group_symop_operation_xyz
x,y,z
x,-y,1/2+z
1/2+x,1/2+y,z
1/2+x,1/2-y,1/2+z
loop_
_atom_site_type_symbol
_atom_site_label
_atom_site_fract_x
_atom_site_fract_y
_atom_site_fract_z
Si Si1 0.097880 0.622701 0.093530
Si Si2 0.639177 0.926669 0.791863
Si Si3 0.563716 0.658177 0.112485
Si Si4 0.580409 0.729070 0.313684
Si Si5 0.582541 0.101353 0.465291
Si Si6 0.556112 0.403224 0.998741
O O1 0.038252 0.572291 0.185122
O O2 0.337293 0.602383 0.107017
O O3 0.010706 0.550011 0.996517
O O4 0.066400 0.789631 0.079161
O O5 0.843585 0.829570 0.794437
O O6 0.514957 0.851178 0.860812
O O7 0.630124 0.098961 0.816933
O O8 0.644419 0.679919 0.219560
O O9 0.561773 0.799745 0.050418
O O10 0.649872 0.543978 0.050471
O O11 0.649467 0.657258 0.415190
O O12 0.818403 0.080343 0.461512
#
# Coordination Sequence:
#
# PCOD9135150 Si02
#       6
#     4   4   4   4   4   4
#     4  10  20  38  61  86 124 167 213 270 336 403
#     4  10  20  37  65  96 129 174 224 278 344 410
#     4  10  22  38  61  90 125 167 219 273 339 407
#     4  10  20  39  65  94 131 174 222 280 342 412
#     4  10  20  38  61  86 124 167 213 270 336 403
#     4  10  22  38  61  90 125 167 219 273 339 407
#
# _framework density 25.843868000000001
#
# number of rings (size 3 to 8) (size 9 to 14) (size 15 to 20)
#    0.000    2.000    3.333    0.000    0.000    2.667 
#    0.000    3.333    0.000    0.000    0.000    0.000 
#    0.000    0.000    0.000    0.000    0.000    0.000 
#
# Total GULP energy -66823.222978 kJ/mol
# GULP energy per Si atom -5568.601915 kJ/mol
# Density = 2.578505 g / cm^3
# Si number density = 25.843868 Si / 1000 Ang^3
#
#
#
# Elastic Constant Matrix: (Units=GPa)
#
#
# Indices 1 2 3 4 5 6 
#
# 1 86.4043 -4.7492 54.6574 0.0000 -36.2778 0.0000
# 2 -4.7492 74.9734 39.0403 0.0000 -7.9153 0.0000
# 3 54.6574 39.0403 223.0040 0.0000 -24.7662 0.0000
# 4 0.0000 0.0000 0.0000 43.2151 0.0000 1.2903
# 5 -36.2778 -7.9153 -24.7662 0.0000 51.9454 0.0000
# 6 0.0000 0.0000 0.0000 1.2903 0.0000 22.9739
#
#
#
# Elastic Compliance Matrix: (Units=1/GPa)
#
#
# Indices 1 2 3 4 5 6 
#
# 1 0.019825 0.004824 -0.004313 0.000000 0.012525 0.000000
# 2 0.004824 0.015906 -0.003509 0.000000 0.004119 0.000000
# 3 -0.004313 -0.003509 0.006084 0.000000 -0.000646 0.000000
# 4 0.000000 0.000000 0.000000 0.023179 0.000000 -0.001302
# 5 0.012525 0.004119 -0.000646 0.000000 0.028318 0.000000
# 6 0.000000 0.000000 0.000000 -0.001302 0.000000 0.043601
#
#
# Mechanical properties :
#
#
# Convention : Reuss Voigt Hill
#
# Bulk Modulus (GPa) = 27.91843 62.47540 45.19692
# Shear Modulus (GPa) = 32.28964 43.32243 37.80603
#
# Velocity S-wave (km/s) = 3.53854 4.09872 3.82889
# Velocity P-wave (km/s) = 5.24606 6.82832 6.08881
#
# Compressibility (1/GPa) = 0.03581863
#
# Stress axis : x y z
#
# Youngs Moduli (GPa) = 50.44066 62.86954 164.36918
#
# Poissons Ratio (x) = -0.30327 0.70887
# Poissons Ratio (y) = -0.24332 0.57684
# Poissons Ratio (z) = 0.21753 0.22063
#
# Static dielectric constant tensor:
#      x y z
#    x 2.255050 0.000000 0.121940 
#    y 0.000000 1.969040 0.000000 
#    z 0.121940 0.000000 2.112440 
# 
# From -- ./inp_files/22344.got.cif
#   From: 2010.05.17/outbox.cif.g08.bks.cpg/sg9_12_cif.got.tgz:22344.got - 2010.06.03 20:04:27.
