data_PCOD9135962
_publ_section_title
;
Structure prediction by ZEFSAII (Michael W. Deem and Ramdas Pophale) SiO2 
 PCOD9135962
Probable space group: C C
;
_chemical_formula_sum "Si O2"
_cell_formula_units_Z 32
_cell_length_a 15.136458
_cell_length_b 11.134376
_cell_length_c 8.083214
_cell_angle_alpha 90.000000
_cell_angle_beta 112.318102
_cell_angle_gamma 90.000000
_cell_volume 1260.254063
_symmetry_space_group_name_H-M "C C"
_symmetry_group_IT_number 9
_symmetry_cell_setting 'monoclinic'
loop_
_space_group_symop_operation_xyz
x,y,z
x,-y,1/2+z
1/2+x,1/2+y,z
1/2+x,1/2-y,1/2+z
loop_
_atom_site_type_symbol
_atom_site_label
_atom_site_fract_x
_atom_site_fract_y
_atom_site_fract_z
Si Si1 0.968560 0.885231 0.317770
Si Si2 0.577031 0.177809 0.554430
Si Si3 0.276867 0.890858 0.672981
Si Si4 0.734533 0.197093 0.178938
Si Si5 0.652171 0.415384 0.274910
Si Si6 0.787223 0.157758 0.844640
Si Si7 0.071154 0.445846 0.698671
Si Si8 0.405554 0.188816 0.007602
O O1 0.871609 0.928598 0.338740
O O2 0.930218 0.800866 0.142683
O O3 0.024582 0.804563 0.495194
O O4 0.050288 0.958876 0.275901
O O5 0.690117 0.170318 0.671147
O O6 0.559870 0.112016 0.368887
O O7 0.543174 0.084162 0.668163
O O8 0.199959 0.859342 0.473403
O O9 0.321863 0.794409 0.830218
O O10 0.361694 0.912765 0.601904
O O11 0.219515 0.984320 0.743800
O O12 0.657441 0.307114 0.145407
O O13 0.681372 0.086617 0.231689
O O14 0.829287 0.258686 0.324688
O O15 0.759701 0.151923 0.015086
O O16 0.002906 0.373239 0.523799
#
# Coordination Sequence:
#
# PCOD9135962 Si02
#       8
#     4   4   4   4   4   4   4   4
#     4  10  21  42  64  89 136 177 213 283 341 399
#     4  11  22  42  67  94 135 173 232 278 347 401
#     4  10  21  37  64  91 125 170 214 268 329 401
#     4  11  22  39  64  97 133 174 218 277 345 400
#     4  11  20  41  63  95 133 171 216 274 344 395
#     4  11  23  41  65  94 135 175 224 277 339 411
#     4  11  22  40  67  97 129 180 223 287 336 411
#     4   9  21  40  64  95 134 170 220 278 339 400
#
# _framework density 25.391705000000002
#
# number of rings (size 3 to 8) (size 9 to 14) (size 15 to 20)
#    0.000    1.500    3.750    3.000    0.000    9.000 
#    0.000    3.750    0.000    0.000    0.000    0.000 
#    0.000    0.000    0.000    0.000    0.000    0.000 
#
# Total GULP energy -89090.079197 kJ/mol
# GULP energy per Si atom -5568.129950 kJ/mol
# Density = 2.533391 g / cm^3
# Si number density = 25.391705 Si / 1000 Ang^3
#
#
#
# Elastic Constant Matrix: (Units=GPa)
#
#
# Indices 1 2 3 4 5 6 
#
# 1 112.5840 4.1690 49.1557 0.0000 17.0476 0.0000
# 2 4.1690 27.7317 9.7612 0.0000 -2.6440 0.0000
# 3 49.1557 9.7612 97.7851 0.0000 -1.3904 0.0000
# 4 0.0000 0.0000 0.0000 25.5161 0.0000 -6.3084
# 5 17.0476 -2.6440 -1.3904 0.0000 42.8992 0.0000
# 6 0.0000 0.0000 0.0000 -6.3084 0.0000 44.1902
#
#
#
# Elastic Compliance Matrix: (Units=1/GPa)
#
#
# Indices 1 2 3 4 5 6 
#
# 1 0.012418 -0.000140 -0.006302 0.000000 -0.005148 0.000000
# 2 -0.000140 0.037580 -0.003649 0.000000 0.002253 0.000000
# 3 -0.006302 -0.003649 0.013797 0.000000 0.002727 0.000000
# 4 0.000000 0.000000 0.000000 0.040625 0.000000 0.005799
# 5 -0.005148 0.002253 0.002727 0.000000 0.025583 0.000000
# 6 0.000000 0.000000 0.000000 0.005799 0.000000 0.023457
#
#
# Mechanical properties :
#
#
# Convention : Reuss Voigt Hill
#
# Bulk Modulus (GPa) = 22.92800 40.47472 31.70136
# Shear Modulus (GPa) = 26.57019 34.18875 30.37947
#
# Velocity S-wave (km/s) = 3.23834 3.67339 3.46270
# Velocity P-wave (km/s) = 4.79914 5.82807 5.33845
#
# Compressibility (1/GPa) = 0.04361479
#
# Stress axis : x y z
#
# Youngs Moduli (GPa) = 80.52568 26.60983 72.47718
#
# Poissons Ratio (x) = 0.00371 0.45674
# Poissons Ratio (y) = 0.01124 0.26448
# Poissons Ratio (z) = 0.50746 0.09710
#
# Static dielectric constant tensor:
#      x y z
#    x 2.230240 0.000000 0.078680 
#    y 0.000000 2.132100 0.000000 
#    z 0.078680 0.000000 1.967050 
# 
# From -- ./inp_files/9299.got.cif
#   From: 2010.05.17/outbox.cif.g08.bks.cpg/sg9_5_cif.got.tgz:9299.got - 2010.06.03 20:04:27.
