data_PCOD9135997
_publ_section_title
;
Structure prediction by ZEFSAII (Michael W. Deem and Ramdas Pophale) SiO2 
 PCOD9135997
Probable space group: C C
;
_chemical_formula_sum "Si O2"
_cell_formula_units_Z 24
_cell_length_a 5.754882
_cell_length_b 19.403043
_cell_length_c 7.293977
_cell_angle_alpha 90.000000
_cell_angle_beta 89.252814
_cell_angle_gamma 90.000000
_cell_volume 814.392431
_symmetry_space_group_name_H-M "C C"
_symmetry_group_IT_number 9
_symmetry_cell_setting 'monoclinic'
loop_
_space_group_symop_operation_xyz
x,y,z
x,-y,1/2+z
1/2+x,1/2+y,z
1/2+x,1/2-y,1/2+z
loop_
_atom_site_type_symbol
_atom_site_label
_atom_site_fract_x
_atom_site_fract_y
_atom_site_fract_z
Si Si1 0.910730 0.339632 0.798960
Si Si2 0.894407 0.493346 0.821761
Si Si3 0.888842 0.993346 0.125954
Si Si4 0.141624 0.888272 0.473857
Si Si5 0.641624 0.773946 0.473855
Si Si6 0.872518 0.839633 0.148751
O O1 0.905850 0.414648 0.893134
O O2 0.698543 0.345468 0.653556
O O3 0.120802 0.319654 0.658802
O O4 0.854252 0.279275 0.940586
O O5 0.141624 0.500001 0.723857
O O6 0.641624 0.499999 0.223858
O O7 0.861686 0.560689 0.947551
O O8 0.877399 0.914648 0.054577
O O9 0.921561 0.060689 0.000166
O O10 0.084705 0.845469 0.294156
O O11 0.662446 0.819655 0.288909
O O12 0.428996 0.720725 0.507125
#
# Coordination Sequence:
#
# PCOD9135997 Si02
#       6
#     4   4   4   4   4   4
#     4  10  21  38  60  91 127 169 216 261 326 386
#     4  10  21  38  63  93 126 162 208 269 325 377
#     4  10  21  38  63  93 126 162 208 269 325 377
#     4  10  21  38  64  94 127 164 218 278 326 382
#     4  10  21  38  60  86 131 174 212 262 314 398
#     4  10  21  38  60  91 127 169 216 261 326 386
#
# _framework density 29.469818
#
# number of rings (size 3 to 8) (size 9 to 14) (size 15 to 20)
#    0.000    2.000    0.000    3.000    0.000    5.333 
#    0.000    3.333    0.000    0.000    0.000    0.000 
#    0.000    0.000    0.000    0.000    0.000    0.000 
#
# Total GULP energy -67022.582730 kJ/mol
# GULP energy per Si atom -5585.215228 kJ/mol
# Density = 2.940274 g / cm^3
# Si number density = 29.469818 Si / 1000 Ang^3
#
#
#
# Elastic Constant Matrix: (Units=GPa)
#
#
# Indices 1 2 3 4 5 6 
#
# 1 185.2073 48.7602 81.6713 0.0000 -17.1528 0.0000
# 2 48.7602 198.5695 30.8132 0.0000 -33.3195 0.0000
# 3 81.6713 30.8132 109.7885 0.0000 -30.7842 0.0000
# 4 0.0000 0.0000 0.0000 46.5635 0.0000 -34.0172
# 5 -17.1528 -33.3195 -30.7842 0.0000 89.9062 0.0000
# 6 0.0000 0.0000 0.0000 -34.0172 0.0000 39.8509
#
#
#
# Elastic Compliance Matrix: (Units=1/GPa)
#
#
# Indices 1 2 3 4 5 6 
#
# 1 0.008342 -0.001261 -0.006124 0.000000 -0.000973 0.000000
# 2 -0.001261 0.005672 -0.000146 0.000000 0.001812 0.000000
# 3 -0.006124 -0.000146 0.014782 0.000000 0.003839 0.000000
# 4 0.000000 0.000000 0.000000 0.057058 0.000000 0.048705
# 5 -0.000973 0.001812 0.003839 0.000000 0.012923 0.000000
# 6 0.000000 0.000000 0.000000 0.048705 0.000000 0.066669
#
#
# Mechanical properties :
#
#
# Convention : Reuss Voigt Hill
#
# Bulk Modulus (GPa) = 72.81681 90.67273 81.74477
# Shear Modulus (GPa) = 27.01438 57.41885 42.21661
#
# Velocity S-wave (km/s) = 3.03096 4.41885 3.78899
# Velocity P-wave (km/s) = 6.08371 7.54121 6.85132
#
# Compressibility (1/GPa) = 0.01373309
#
# Stress axis : x y z
#
# Youngs Moduli (GPa) = 119.87507 176.29370 67.65154
#
# Poissons Ratio (x) = 0.22237 0.41433
# Poissons Ratio (y) = 0.15120 0.00986
# Poissons Ratio (z) = 0.73416 0.02569
#
# Static dielectric constant tensor:
#      x y z
#    x 2.249440 0.000000 0.024350 
#    y 0.000000 2.268880 0.000000 
#    z 0.024350 0.000000 2.687450 
# 
# From -- ./inp_files/3843.got.cif
#   From: 2010.05.17/outbox.cif.g08.bks.cpg/sg9_2_cif.got.tgz:3843.got - 2010.06.03 20:04:27.
