data_PCOD9135845
_publ_section_title
;
Structure prediction by ZEFSAII (Michael W. Deem and Ramdas Pophale) SiO2 
 PCOD9135845
Probable space group: C C
;
_chemical_formula_sum "Si O2"
_cell_formula_units_Z 32
_cell_length_a 15.151850
_cell_length_b 18.317182
_cell_length_c 5.377100
_cell_angle_alpha 90.000000
_cell_angle_beta 73.475183
_cell_angle_gamma 90.000000
_cell_volume 1430.716664
_symmetry_space_group_name_H-M "C C"
_symmetry_group_IT_number 9
_symmetry_cell_setting 'monoclinic'
loop_
_space_group_symop_operation_xyz
x,y,z
x,-y,1/2+z
1/2+x,1/2+y,z
1/2+x,1/2-y,1/2+z
loop_
_atom_site_type_symbol
_atom_site_label
_atom_site_fract_x
_atom_site_fract_y
_atom_site_fract_z
Si Si1 0.730990 0.648663 0.564100
Si Si2 0.404597 0.697489 0.225949
Si Si3 0.897046 0.450653 0.791481
Si Si4 0.703128 0.778131 0.907013
Si Si5 0.522045 0.821588 0.850360
Si Si6 0.074184 0.200266 0.408699
Si Si7 0.155398 0.959412 0.435340
Si Si8 0.935940 0.955740 0.541877
O O1 0.813333 0.608077 0.366826
O O2 0.733736 0.733688 0.631749
O O3 0.632405 0.640295 0.509066
O O4 0.717785 0.610822 0.840613
O O5 0.303793 0.703420 0.426771
O O6 0.481677 0.672426 0.360323
O O7 0.400148 0.627645 0.047139
O O8 0.448913 0.773516 0.079004
O O9 0.895913 0.494594 0.531951
O O10 0.982006 0.396062 0.775711
O O11 0.621897 0.834222 0.898843
O O12 0.644550 0.730207 0.147171
O O13 0.544045 0.764922 0.613629
O O14 0.046765 0.948806 0.488229
O O15 0.180250 0.992652 0.676515
O O16 0.909173 0.002113 0.318654
#
# Coordination Sequence:
#
# PCOD9135845 Si02
#       8
#     4   4   4   4   4   4   4   4
#     4  11  23  40  62 104 139 178 243 295 373 440
#     4  11  23  43  72  98 138 189 244 307 373 442
#     4  12  29  47  75 109 153 206 250 315 385 452
#     4  10  23  42  70 101 132 185 249 311 359 438
#     4  10  24  46  69 104 144 190 260 305 371 447
#     4  10  24  38  71 102 138 188 240 317 359 442
#     4  10  21  34  57  87 131 174 206 261 342 429
#     4  10  23  40  60  95 135 174 222 279 358 430
#
# _framework density 22.366413000000001
#
# number of rings (size 3 to 8) (size 9 to 14) (size 15 to 20)
#    0.000    1.500    1.250    3.000   15.750    0.000 
#    0.000    1.250    0.000    0.000    0.000    0.000 
#    0.000    0.000    0.000    0.000    0.000    0.000 
#
# Total GULP energy -89249.771702 kJ/mol
# GULP energy per Si atom -5578.110731 kJ/mol
# Density = 2.231551 g / cm^3
# Si number density = 22.366413 Si / 1000 Ang^3
#
#
#
# Elastic Constant Matrix: (Units=GPa)
#
#
# Indices 1 2 3 4 5 6 
#
# 1 133.6104 26.7569 32.7147 0.0000 -20.4767 0.0000
# 2 26.7569 46.1211 -8.4340 0.0000 -3.6044 0.0000
# 3 32.7147 -8.4340 39.7267 0.0000 0.8230 0.0000
# 4 0.0000 0.0000 0.0000 26.1281 0.0000 1.4734
# 5 -20.4767 -3.6044 0.8230 0.0000 29.0549 0.0000
# 6 0.0000 0.0000 0.0000 1.4734 0.0000 33.9599
#
#
#
# Elastic Compliance Matrix: (Units=1/GPa)
#
#
# Indices 1 2 3 4 5 6 
#
# 1 0.014473 -0.010282 -0.014295 0.000000 0.009330 0.000000
# 2 -0.010282 0.030070 0.014932 0.000000 -0.003939 0.000000
# 3 -0.014295 0.014932 0.040308 0.000000 -0.009364 0.000000
# 4 0.000000 0.000000 0.000000 0.038367 0.000000 -0.001665
# 5 0.009330 -0.003939 -0.009364 0.000000 0.040769 0.000000
# 6 0.000000 0.000000 0.000000 -0.001665 0.000000 0.029519
#
#
# Mechanical properties :
#
#
# Convention : Reuss Voigt Hill
#
# Bulk Modulus (GPa) = 15.25264 35.72592 25.48928
# Shear Modulus (GPa) = 21.30851 29.05663 25.18257
#
# Velocity S-wave (km/s) = 3.08993 3.60824 3.35910
# Velocity P-wave (km/s) = 4.42318 5.77641 5.14448
#
# Compressibility (1/GPa) = 0.06556243
#
# Stress axis : x y z
#
# Youngs Moduli (GPa) = 69.09242 33.25616 24.80913
#
# Poissons Ratio (x) = 0.34192 0.35464
# Poissons Ratio (y) = 0.71038 -0.37045
# Poissons Ratio (z) = 0.98766 -0.49659
#
# Static dielectric constant tensor:
#      x y z
#    x 1.882220 0.000000 0.036230 
#    y 0.000000 1.885190 0.000000 
#    z 0.036230 0.000000 1.894200 
# 
# From -- ./inp_files/2510.got.cif
#   From: 2010.05.17/outbox.cif.g08.bks.cpg/sg9_2_cif.got.tgz:2510.got - 2010.06.03 20:04:27.
