data_PCOD9135347
_publ_section_title
;
Structure prediction by ZEFSAII (Michael W. Deem and Ramdas Pophale) SiO2 
 PCOD9135347
Probable space group: C C
;
_chemical_formula_sum "Si O2"
_cell_formula_units_Z 28
_cell_length_a 11.277591
_cell_length_b 8.285237
_cell_length_c 12.587484
_cell_angle_alpha 90.000000
_cell_angle_beta 111.903195
_cell_angle_gamma 90.000000
_cell_volume 1091.243851
_symmetry_space_group_name_H-M "C C"
_symmetry_group_IT_number 9
_symmetry_cell_setting 'monoclinic'
loop_
_space_group_symop_operation_xyz
x,y,z
x,-y,1/2+z
1/2+x,1/2+y,z
1/2+x,1/2-y,1/2+z
loop_
_atom_site_type_symbol
_atom_site_label
_atom_site_fract_x
_atom_site_fract_y
_atom_site_fract_z
Si Si1 0.959140 0.696394 0.901910
Si Si2 0.561730 0.449249 0.419207
Si Si3 0.697841 0.232575 0.298454
Si Si4 0.223701 0.167331 0.142461
Si Si5 0.960117 0.419771 0.631105
Si Si6 0.958253 0.796244 0.587436
Si Si7 0.715602 0.010948 0.501929
O O1 0.823370 0.678336 0.796865
O O2 0.081028 0.579364 0.934831
O O3 0.917456 0.671907 0.010509
O O4 0.004933 0.875137 0.888553
O O5 0.608579 0.358128 0.331433
O O6 0.685693 0.460969 0.537568
O O7 0.473538 0.336030 0.465698
O O8 0.605899 0.138451 0.189225
O O9 0.741584 0.097398 0.397892
O O10 0.374241 0.139951 0.202163
O O11 0.100787 0.151969 0.178068
O O12 0.206788 0.345065 0.084761
O O13 0.948765 0.609461 0.610515
O O14 0.833321 0.897343 0.575346
#
# Coordination Sequence:
#
# PCOD9135347 Si02
#       7
#     4   4   4   4   4   4   4
#     4  12  21  43  66  89 128 178 199 267 318 384
#     4   9  19  41  67  83 129 165 208 251 333 358
#     4  11  24  43  60 101 127 164 216 276 297 386
#     4   9  19  38  60  91 119 165 204 256 307 381
#     4  12  22  40  70  92 131 163 220 260 322 365
#     4  10  20  39  65  90 120 174 201 261 315 384
#     4  11  21  40  68  86 128 169 210 247 334 366
#
# _framework density 25.658791999999998
#
# number of rings (size 3 to 8) (size 9 to 14) (size 15 to 20)
#    0.857    0.571    5.714    0.857    0.000    1.143 
#    5.143    1.429    0.000    0.000    0.000    0.000 
#    0.000    0.000    0.000    0.000    0.000    0.000 
#
# Total GULP energy -78154.337658 kJ/mol
# GULP energy per Si atom -5582.452690 kJ/mol
# Density = 2.560039 g / cm^3
# Si number density = 25.658792 Si / 1000 Ang^3
#
#
#
# Elastic Constant Matrix: (Units=GPa)
#
#
# Indices 1 2 3 4 5 6 
#
# 1 188.7768 82.2465 30.4743 0.0000 38.2721 0.0000
# 2 82.2465 107.6452 24.0759 0.0000 -2.3213 0.0000
# 3 30.4743 24.0759 43.6088 0.0000 3.9303 0.0000
# 4 0.0000 0.0000 0.0000 16.3822 0.0000 3.3787
# 5 38.2721 -2.3213 3.9303 0.0000 28.6530 0.0000
# 6 0.0000 0.0000 0.0000 3.3787 0.0000 55.0015
#
#
#
# Elastic Compliance Matrix: (Units=1/GPa)
#
#
# Indices 1 2 3 4 5 6 
#
# 1 0.014502 -0.011005 -0.002260 0.000000 -0.019951 0.000000
# 2 -0.011005 0.019030 -0.004333 0.000000 0.016835 0.000000
# 3 -0.002260 -0.004333 0.026996 0.000000 -0.001035 0.000000
# 4 0.000000 0.000000 0.000000 0.061825 0.000000 -0.003798
# 5 -0.019951 0.016835 -0.001035 0.000000 0.063055 0.000000
# 6 0.000000 0.000000 0.000000 -0.003798 0.000000 0.018415
#
#
# Mechanical properties :
#
#
# Convention : Reuss Voigt Hill
#
# Bulk Modulus (GPa) = 39.47649 68.18046 53.82847
# Shear Modulus (GPa) = 20.20501 33.55628 26.88064
#
# Velocity S-wave (km/s) = 2.80920 3.62026 3.24021
# Velocity P-wave (km/s) = 5.09320 6.64114 5.91800
#
# Compressibility (1/GPa) = 0.02533153
#
# Stress axis : x y z
#
# Youngs Moduli (GPa) = 68.95837 52.54827 37.04208
#
# Poissons Ratio (x) = 0.57827 0.08372
# Poissons Ratio (y) = 0.75886 0.16052
# Poissons Ratio (z) = 0.15586 0.22771
#
# Static dielectric constant tensor:
#      x y z
#    x 2.143570 0.000000 0.029530 
#    y 0.000000 1.954940 0.000000 
#    z 0.029530 0.000000 2.075540 
# 
# From -- ./inp_files/24274.got.cif
#   From: 2010.05.17/outbox.cif.g08.bks.cpg/sg9_13_cif.got.tgz:24274.got - 2010.06.03 20:04:27.
