data_PCOD9135691
_publ_section_title
;
Structure prediction by ZEFSAII (Michael W. Deem and Ramdas Pophale) SiO2 
 PCOD9135691
Probable space group: C C
;
_chemical_formula_sum "Si O2"
_cell_formula_units_Z 32
_cell_length_a 14.601101
_cell_length_b 9.163246
_cell_length_c 11.347935
_cell_angle_alpha 90.000000
_cell_angle_beta 61.422982
_cell_angle_gamma 90.000000
_cell_volume 1333.315160
_symmetry_space_group_name_H-M "C C"
_symmetry_group_IT_number 9
_symmetry_cell_setting 'monoclinic'
loop_
_space_group_symop_operation_xyz
x,y,z
x,-y,1/2+z
1/2+x,1/2+y,z
1/2+x,1/2-y,1/2+z
loop_
_atom_site_type_symbol
_atom_site_label
_atom_site_fract_x
_atom_site_fract_y
_atom_site_fract_z
Si Si1 0.618810 0.186522 0.486760
Si Si2 0.741528 0.208698 0.089368
Si Si3 0.738680 0.034734 0.761780
Si Si4 0.084209 0.250047 0.269104
Si Si5 0.888571 0.793985 0.296973
Si Si6 0.385216 0.089715 0.611799
Si Si7 0.577910 0.414861 0.309211
Si Si8 0.896625 0.529288 0.853123
O O1 0.635972 0.241929 0.607587
O O2 0.510260 0.093001 0.547896
O O3 0.594334 0.323882 0.418014
O O4 0.711803 0.088856 0.375723
O O5 0.843681 0.252039 0.102728
O O6 0.655871 0.328976 0.172761
O O7 0.716509 0.049880 0.152443
O O8 0.779765 0.217261 0.933924
O O9 0.647158 0.151399 0.820120
O O10 0.848510 0.121218 0.705518
O O11 0.973992 0.333340 0.318363
O O12 0.091244 0.086243 0.309357
O O13 0.939173 0.632552 0.284798
O O14 0.964674 0.896677 0.321744
O O15 0.333372 0.056456 0.770406
O O16 0.357297 0.996905 0.511325
#
# Coordination Sequence:
#
# PCOD9135691 Si02
#       8
#     4   4   4   4   4   4   4   4
#     4  10  21  46  68  92 141 178 229 290 347 412
#     4  10  23  45  68  92 144 182 227 285 355 408
#     4  11  23  42  67 102 132 185 228 282 347 426
#     4  11  24  42  69 102 135 180 240 279 358 414
#     4  11  24  44  69 101 138 178 236 280 357 416
#     4  10  20  42  70  98 134 186 227 288 342 420
#     4  11  24  44  67  99 133 186 226 291 348 412
#     4  10  21  43  68  96 141 179 229 287 344 416
#
# _framework density 24.000326999999999
#
# number of rings (size 3 to 8) (size 9 to 14) (size 15 to 20)
#    0.000    1.500    3.750    1.500    5.250    2.000 
#   11.250    0.000    0.000    0.000    0.000    0.000 
#    0.000    0.000    0.000    0.000    0.000    0.000 
#
# Total GULP energy -89182.502831 kJ/mol
# GULP energy per Si atom -5573.906427 kJ/mol
# Density = 2.394570 g / cm^3
# Si number density = 24.000327 Si / 1000 Ang^3
#
#
#
# Elastic Constant Matrix: (Units=GPa)
#
#
# Indices 1 2 3 4 5 6 
#
# 1 51.6052 22.2469 24.5358 0.0000 10.0446 0.0000
# 2 22.2469 149.6104 20.3178 0.0000 3.5751 0.0000
# 3 24.5358 20.3178 79.9344 0.0000 12.5813 0.0000
# 4 0.0000 0.0000 0.0000 14.1590 0.0000 7.7577
# 5 10.0446 3.5751 12.5813 0.0000 30.9589 0.0000
# 6 0.0000 0.0000 0.0000 7.7577 0.0000 37.5054
#
#
#
# Elastic Compliance Matrix: (Units=1/GPa)
#
#
# Indices 1 2 3 4 5 6 
#
# 1 0.024391 -0.002690 -0.005990 0.000000 -0.005169 0.000000
# 2 -0.002690 0.007220 -0.001085 0.000000 0.000480 0.000000
# 3 -0.005990 -0.001085 0.015276 0.000000 -0.004139 0.000000
# 4 0.000000 0.000000 0.000000 0.079653 0.000000 -0.016476
# 5 -0.005169 0.000480 -0.004139 0.000000 0.035605 0.000000
# 6 0.000000 0.000000 0.000000 -0.016476 0.000000 0.030071
#
#
# Mechanical properties :
#
#
# Convention : Reuss Voigt Hill
#
# Bulk Modulus (GPa) = 36.55218 46.15010 41.35114
# Shear Modulus (GPa) = 22.63830 30.79465 26.71647
#
# Velocity S-wave (km/s) = 3.07457 3.58591 3.34004
# Velocity P-wave (km/s) = 5.27891 6.03455 5.66933
#
# Compressibility (1/GPa) = 0.02735815
#
# Stress axis : x y z
#
# Youngs Moduli (GPa) = 40.99798 138.50584 65.46184
#
# Poissons Ratio (x) = 0.37259 0.39209
# Poissons Ratio (y) = 0.11029 0.07103
# Poissons Ratio (z) = 0.24556 0.15028
#
# Static dielectric constant tensor:
#      x y z
#    x 1.914500 0.000000 0.010720 
#    y 0.000000 1.969610 0.000000 
#    z 0.010720 0.000000 2.060550 
# 
# From -- ./inp_files/17748.got.cif
#   From: 2010.05.17/outbox.cif.g08.bks.cpg/sg9_9_cif.got.tgz:17748.got - 2010.06.03 20:04:27.
