data_PCOD9135335
_publ_section_title
;
Structure prediction by ZEFSAII (Michael W. Deem and Ramdas Pophale) SiO2 
 PCOD9135335
Probable space group: C C
;
_chemical_formula_sum "Si O2"
_cell_formula_units_Z 32
_cell_length_a 27.400479
_cell_length_b 10.282166
_cell_length_c 10.301750
_cell_angle_alpha 90.000000
_cell_angle_beta 154.568321
_cell_angle_gamma 90.000000
_cell_volume 1246.380739
_symmetry_space_group_name_H-M "C C"
_symmetry_group_IT_number 9
_symmetry_cell_setting 'monoclinic'
loop_
_space_group_symop_operation_xyz
x,y,z
x,-y,1/2+z
1/2+x,1/2+y,z
1/2+x,1/2-y,1/2+z
loop_
_atom_site_type_symbol
_atom_site_label
_atom_site_fract_x
_atom_site_fract_y
_atom_site_fract_z
Si Si1 0.896340 0.146699 0.378010
Si Si2 0.381443 0.068104 0.135497
Si Si3 0.644723 0.620535 0.903025
Si Si4 0.473392 0.937660 0.598644
Si Si5 0.167133 0.213526 0.683375
Si Si6 0.702032 0.812566 0.244835
Si Si7 0.863659 0.870412 0.077760
Si Si8 0.602745 0.650962 0.249245
O O1 0.906208 0.304357 0.399273
O O2 0.841136 0.088088 0.376222
O O3 0.027953 0.108369 0.703070
O O4 0.816601 0.113732 0.063780
O O5 0.418539 0.996767 0.094098
O O6 0.405163 0.218296 0.156939
O O7 0.459546 0.025984 0.440747
O O8 0.252252 0.087586 0.873548
O O9 0.613116 0.695805 0.693878
O O10 0.681820 0.476185 0.954711
O O11 0.724747 0.705215 0.188057
O O12 0.601705 0.899828 0.944758
O O13 0.099524 0.214592 0.385378
O O14 0.249707 0.339235 0.882769
O O15 0.654078 0.742941 0.260941
O O16 0.981435 0.913856 0.422304
#
# Coordination Sequence:
#
# PCOD9135335 Si02
#       8
#     4   4   4   4   4   4   4   4
#     4  10  21  42  62  88 125 168 202 251 321 378
#     4   9  20  38  59  96 118 158 210 253 313 362
#     4  11  25  37  62 103 121 159 216 269 304 362
#     4  10  20  39  64  91 121 162 211 260 306 374
#     4  10  23  35  61  99 119 157 209 264 313 349
#     4  11  21  42  66  85 128 176 203 250 327 382
#     4   9  20  40  63  87 124 167 202 252 321 373
#     4  12  20  41  65  91 128 167 213 253 313 394
#
# _framework density 25.674337999999999
#
# number of rings (size 3 to 8) (size 9 to 14) (size 15 to 20)
#    0.750    1.000    5.000    0.750    5.250    1.000 
#    4.500    2.500    0.000    0.000    0.000    0.000 
#    0.000    0.000    0.000    0.000    0.000    0.000 
#
# Total GULP energy -89266.206921 kJ/mol
# GULP energy per Si atom -5579.137933 kJ/mol
# Density = 2.561590 g / cm^3
# Si number density = 25.674338 Si / 1000 Ang^3
#
#
#
# Elastic Constant Matrix: (Units=GPa)
#
#
# Indices 1 2 3 4 5 6 
#
# 1 62.6076 -16.6663 -5.1595 0.0000 -17.8310 0.0000
# 2 -16.6663 11.6106 -1.4811 0.0000 -1.2321 0.0000
# 3 -5.1595 -1.4811 133.3984 0.0000 -11.7803 0.0000
# 4 0.0000 0.0000 0.0000 42.7488 0.0000 -3.5020
# 5 -17.8310 -1.2321 -11.7803 0.0000 49.4249 0.0000
# 6 0.0000 0.0000 0.0000 -3.5020 0.0000 12.9759
#
#
#
# Elastic Compliance Matrix: (Units=1/GPa)
#
#
# Indices 1 2 3 4 5 6 
#
# 1 0.033579 0.050093 0.003100 0.000000 0.014102 0.000000
# 2 0.050093 0.161266 0.005801 0.000000 0.023475 0.000000
# 3 0.003100 0.005801 0.007960 0.000000 0.003160 0.000000
# 4 0.000000 0.000000 0.000000 0.023921 0.000000 0.006456
# 5 0.014102 0.023475 0.003160 0.000000 0.026659 0.000000
# 6 0.000000 0.000000 0.000000 0.006456 0.000000 0.078808
#
#
# Mechanical properties :
#
#
# Convention : Reuss Voigt Hill
#
# Bulk Modulus (GPa) = 3.11727 17.88919 10.50323
# Shear Modulus (GPa) = 15.56976 36.42482 25.99729
#
# Velocity S-wave (km/s) = 2.46526 3.77068 3.18556
# Velocity P-wave (km/s) = 3.05289 5.09316 4.19883
#
# Compressibility (1/GPa) = 0.32079365
#
# Stress axis : x y z
#
# Youngs Moduli (GPa) = 29.78023 6.20095 125.63222
#
# Poissons Ratio (x) = -0.31063 -0.38949
# Poissons Ratio (y) = -1.49179 -0.72879
# Poissons Ratio (z) = -0.09233 -0.03597
#
# Static dielectric constant tensor:
#      x y z
#    x 1.999260 0.000000 -0.013010 
#    y 0.000000 2.154970 0.000000 
#    z -0.013010 0.000000 2.083700 
# 
# From -- ./inp_files/12544.got.cif
#   From: 2010.05.17/outbox.cif.g08.bks.cpg/sg9_7_cif.got.tgz:12544.got - 2010.06.03 20:04:27.
