data_PCOD9135244
_publ_section_title
;
Structure prediction by ZEFSAII (Michael W. Deem and Ramdas Pophale) SiO2 
 PCOD9135244
Probable space group: C C
;
_chemical_formula_sum "Si O2"
_cell_formula_units_Z 32
_cell_length_a 12.295667
_cell_length_b 8.091233
_cell_length_c 12.895835
_cell_angle_alpha 90.000000
_cell_angle_beta 110.756741
_cell_angle_gamma 90.000000
_cell_volume 1199.696289
_symmetry_space_group_name_H-M "C C"
_symmetry_group_IT_number 9
_symmetry_cell_setting 'monoclinic'
loop_
_space_group_symop_operation_xyz
x,y,z
x,-y,1/2+z
1/2+x,1/2+y,z
1/2+x,1/2-y,1/2+z
loop_
_atom_site_type_symbol
_atom_site_label
_atom_site_fract_x
_atom_site_fract_y
_atom_site_fract_z
Si Si1 0.045260 0.781393 0.804730
Si Si2 0.407197 0.766309 0.790133
Si Si3 0.081277 0.915982 0.198225
Si Si4 0.425027 0.115887 0.920420
Si Si5 0.778041 0.190632 0.239144
Si Si6 0.719017 0.113464 0.589925
Si Si7 0.877442 0.077807 0.993640
Si Si8 0.987984 0.611804 0.593431
O O1 0.045042 0.633187 0.723467
O O2 0.040590 0.708658 0.916994
O O3 0.910464 0.839118 0.746670
O O4 0.119395 0.928658 0.784399
O O5 0.518981 0.709228 0.759236
O O6 0.409802 0.948715 0.844674
O O7 0.302119 0.747338 0.671778
O O8 0.385445 0.627365 0.874826
O O9 0.191118 0.836958 0.179553
O O10 0.989343 0.985101 0.082258
O O11 0.317698 0.238778 0.865572
O O12 0.443946 0.063844 0.043281
O O13 0.715000 0.031943 0.174991
O O14 0.770216 0.023845 0.505781
O O15 0.585844 0.169800 0.542506
O O16 0.881516 0.262479 0.043195
#
# Coordination Sequence:
#
# PCOD9135244 Si02
#       8
#     4   4   4   4   4   4   4   4
#     4   9  20  42  59  82 135 156 202 270 301 368
#     4  10  20  39  64  90 128 164 208 270 306 375
#     4  10  20  41  62  86 123 169 203 261 319 368
#     4   9  21  39  58  92 121 157 211 256 307 376
#     4  10  21  41  60  87 124 163 211 252 318 373
#     4  11  22  41  66  90 124 173 211 256 324 370
#     4   9  20  43  58  92 130 156 213 265 305 378
#     4  10  20  38  65  87 121 166 205 254 316 370
#
# _framework density 26.673416
#
# number of rings (size 3 to 8) (size 9 to 14) (size 15 to 20)
#    0.750    1.500    3.750    0.000    5.250    1.000 
#   11.250    0.000    0.000    0.000    0.000    0.000 
#    0.000    0.000    0.000    0.000    0.000    0.000 
#
# Total GULP energy -89147.738580 kJ/mol
# GULP energy per Si atom -5571.733661 kJ/mol
# Density = 2.661271 g / cm^3
# Si number density = 26.673416 Si / 1000 Ang^3
#
#
#
# Elastic Constant Matrix: (Units=GPa)
#
#
# Indices 1 2 3 4 5 6 
#
# 1 58.1212 39.2303 21.9881 0.0000 -5.3169 0.0000
# 2 39.2303 109.7187 40.7314 0.0000 -30.6745 0.0000
# 3 21.9881 40.7314 65.0279 0.0000 -17.0654 0.0000
# 4 0.0000 0.0000 0.0000 50.0043 0.0000 -10.8466
# 5 -5.3169 -30.6745 -17.0654 0.0000 29.4383 0.0000
# 6 0.0000 0.0000 0.0000 -10.8466 0.0000 44.2717
#
#
#
# Elastic Compliance Matrix: (Units=1/GPa)
#
#
# Indices 1 2 3 4 5 6 
#
# 1 0.024448 -0.009256 -0.004531 0.000000 -0.007855 0.000000
# 2 -0.009256 0.018166 -0.004388 0.000000 0.014714 0.000000
# 3 -0.004531 -0.004388 0.021517 0.000000 0.007083 0.000000
# 4 0.000000 0.000000 0.000000 0.021121 0.000000 0.005175
# 5 -0.007855 0.014714 0.007083 0.000000 0.051988 0.000000
# 6 0.000000 0.000000 0.000000 0.005175 0.000000 0.023856
#
#
# Mechanical properties :
#
#
# Convention : Reuss Voigt Hill
#
# Bulk Modulus (GPa) = 35.99282 48.52971 42.26126
# Shear Modulus (GPa) = 24.18904 33.47073 28.82988
#
# Velocity S-wave (km/s) = 3.01468 3.54621 3.29119
# Velocity P-wave (km/s) = 5.06368 5.91616 5.50645
#
# Compressibility (1/GPa) = 0.02778332
#
# Stress axis : x y z
#
# Youngs Moduli (GPa) = 40.90279 55.04786 46.47459
#
# Poissons Ratio (x) = 0.50951 0.21056
# Poissons Ratio (y) = 0.37858 0.20391
# Poissons Ratio (z) = 0.18532 0.24153
#
# Static dielectric constant tensor:
#      x y z
#    x 2.133340 0.000000 -0.042070 
#    y 0.000000 2.168810 0.000000 
#    z -0.042070 0.000000 2.125770 
# 
# From -- ./inp_files/25706.got.cif
#   From: 2010.05.17/outbox.cif.g08.bks.cpg/sg9_13_cif.got.tgz:25706.got - 2010.06.03 20:04:27.
