data_PCOD9135916
_publ_section_title
;
Structure prediction by ZEFSAII (Michael W. Deem and Ramdas Pophale) SiO2 
 PCOD9135916
Probable space group: C C
;
_chemical_formula_sum "Si O2"
_cell_formula_units_Z 32
_cell_length_a 14.259306
_cell_length_b 9.348763
_cell_length_c 15.028983
_cell_angle_alpha 90.000000
_cell_angle_beta 34.951951
_cell_angle_gamma 90.000000
_cell_volume 1147.764612
_symmetry_space_group_name_H-M "C C"
_symmetry_group_IT_number 9
_symmetry_cell_setting 'monoclinic'
loop_
_space_group_symop_operation_xyz
x,y,z
x,-y,1/2+z
1/2+x,1/2+y,z
1/2+x,1/2-y,1/2+z
loop_
_atom_site_type_symbol
_atom_site_label
_atom_site_fract_x
_atom_site_fract_y
_atom_site_fract_z
Si Si1 0.068350 0.040862 0.079450
Si Si2 0.801156 0.773769 0.887255
Si Si3 0.575283 0.965703 0.498632
Si Si4 0.370264 0.727073 0.715760
Si Si5 0.204238 0.813125 0.143164
Si Si6 0.474081 0.588777 0.959243
Si Si7 0.253513 0.657536 0.608391
Si Si8 0.981528 0.542943 0.365467
O O1 0.964760 0.151780 0.222319
O O2 0.011398 0.877222 0.148000
O O3 0.226843 0.122625 0.913685
O O4 0.966273 0.040866 0.065654
O O5 0.664292 0.895925 0.969911
O O6 0.789905 0.740057 0.000507
O O7 0.434257 0.889875 0.666681
O O8 0.707945 0.834653 0.389030
O O9 0.527332 0.009816 0.434508
O O10 0.316908 0.715153 0.652770
O O11 0.140978 0.901746 0.276640
O O12 0.076577 0.679356 0.245101
O O13 0.373781 0.734037 0.033693
O O14 0.286064 0.927118 0.010119
O O15 0.366975 0.474796 0.990552
O O16 0.073105 0.592396 0.750700
#
# Coordination Sequence:
#
# PCOD9135916 Si02
#       8
#     4   4   4   4   4   4   4   4
#     4  10  21  38  60  84 118 161 202 241 299 364
#     4  11  22  38  61  90 121 152 197 260 302 343
#     4  10  21  37  59  84 116 155 201 247 294 355
#     4   9  21  40  59  81 115 159 198 235 294 371
#     4   9  15  28  55  84 114 150 201 245 282 346
#     4   9  16  31  54  82 112 152 198 239 284 354
#     4   9  20  37  55  82 120 152 192 249 302 349
#     4   9  18  33  55  87 120 159 203 246 297 364
#
# _framework density 27.880279999999999
#
# number of rings (size 3 to 8) (size 9 to 14) (size 15 to 20)
#    0.000    2.500    0.000    4.500    0.000    5.000 
#    0.000   11.250    0.000    4.500    0.000    0.000 
#    0.000    0.000    0.000    0.000    0.000    0.000 
#
# Total GULP energy -89171.833347 kJ/mol
# GULP energy per Si atom -5573.239584 kJ/mol
# Density = 2.781682 g / cm^3
# Si number density = 27.880280 Si / 1000 Ang^3
#
#
#
# Elastic Constant Matrix: (Units=GPa)
#
#
# Indices 1 2 3 4 5 6 
#
# 1 -3.0187 -11.2003 28.5799 0.0000 11.9443 0.0000
# 2 -11.2003 141.5663 70.6535 0.0000 6.9169 0.0000
# 3 28.5799 70.6535 161.5551 0.0000 -2.2635 0.0000
# 4 0.0000 0.0000 0.0000 57.4372 0.0000 13.7509
# 5 11.9443 6.9169 -2.2635 0.0000 9.3927 0.0000
# 6 0.0000 0.0000 0.0000 13.7509 0.0000 17.7068
#
#
#
# Elastic Compliance Matrix: (Units=1/GPa)
#
#
# Indices 1 2 3 4 5 6 
#
# 1 -0.028127 -0.009230 0.009641 0.000000 0.044888 0.000000
# 2 -0.009230 0.006587 -0.001155 0.000000 0.006609 0.000000
# 3 0.009641 -0.001155 0.004846 0.000000 -0.010242 0.000000
# 4 0.000000 0.000000 0.000000 0.021387 0.000000 -0.016608
# 5 0.044888 0.006609 -0.010242 0.000000 0.042048 0.000000
# 6 0.000000 0.000000 0.000000 -0.016608 0.000000 0.069373
#
#
# Mechanical properties :
#
#
# Convention : Reuss Voigt Hill
#
# Bulk Modulus (GPa) = -54.99910 52.90765 -1.04573
# Shear Modulus (GPa) = 44.82590 31.04532 37.93561
#
# Velocity S-wave (km/s) = 4.01409 3.34057 3.69272
# Velocity P-wave (km/s) = 1.30926 5.82212 4.21967
#
# Compressibility (1/GPa) = -0.01818211
#
# Stress axis : x y z
#
# Youngs Moduli (GPa) = -35.55336 151.80827 206.35642
#
# Poissons Ratio (x) = 1.40126 -1.98958
# Poissons Ratio (y) = -0.32817 0.23841
# Poissons Ratio (z) = 0.34279 0.17539
#
# Static dielectric constant tensor:
#      x y z
#    x 2.216800 0.000000 -0.062160 
#    y 0.000000 2.635320 0.000000 
#    z -0.062160 0.000000 2.235640 
# 
# From -- ./inp_files/30715.got.cif
#   From: 2010.05.17/outbox.cif.g08.bks.cpg/sg9_16_cif.got.tgz:30715.got - 2010.06.03 20:04:27.
