data_PCOD9135165
_publ_section_title
;
Structure prediction by ZEFSAII (Michael W. Deem and Ramdas Pophale) SiO2 
 PCOD9135165
Probable space group: C C
;
_chemical_formula_sum "Si O2"
_cell_formula_units_Z 32
_cell_length_a 9.497282
_cell_length_b 21.977783
_cell_length_c 13.951682
_cell_angle_alpha 90.000000
_cell_angle_beta 30.621387
_cell_angle_gamma 90.000000
_cell_volume 1483.326990
_symmetry_space_group_name_H-M "C C"
_symmetry_group_IT_number 9
_symmetry_cell_setting 'monoclinic'
loop_
_space_group_symop_operation_xyz
x,y,z
x,-y,1/2+z
1/2+x,1/2+y,z
1/2+x,1/2-y,1/2+z
loop_
_atom_site_type_symbol
_atom_site_label
_atom_site_fract_x
_atom_site_fract_y
_atom_site_fract_z
Si Si1 0.387770 0.624063 0.755960
Si Si2 0.914099 0.655519 0.572052
Si Si3 0.480621 0.969533 0.786873
Si Si4 0.614627 0.642274 0.425147
Si Si5 0.126813 0.701330 0.073936
Si Si6 0.909922 0.014585 0.199986
Si Si7 0.646027 0.217284 0.270918
Si Si8 0.749984 0.933264 0.991616
O O1 0.681790 0.626738 0.639156
O O2 0.423693 0.653739 0.630002
O O3 0.312421 0.554588 0.779736
O O4 0.197807 0.658613 0.943202
O O5 0.805234 0.718757 0.680599
O O6 0.159455 0.676777 0.357025
O O7 0.996611 0.607361 0.602580
O O8 0.338245 0.908755 0.829049
O O9 0.692790 0.959441 0.750115
O O10 0.644482 0.007871 0.610909
O O11 0.217079 0.008742 0.977451
O O12 0.434668 0.608666 0.451130
O O13 0.795007 0.697864 0.277255
O O14 0.222336 0.684387 0.127138
O O15 0.323784 0.760561 0.949061
O O16 0.907184 0.048000 0.302867
#
# Coordination Sequence:
#
# PCOD9135165 Si02
#       8
#     4   4   4   4   4   4   4   4
#     4  10  20  39  64  93 124 166 209 260 311 391
#     4  10  21  41  67  92 125 163 221 267 323 387
#     4  11  24  43  61  95 136 173 218 260 308 402
#     4  11  23  39  61  95 129 170 215 257 323 390
#     4  10  20  37  68  87 122 155 213 272 315 372
#     4  11  25  39  64  95 136 175 217 257 315 395
#     4   9  20  40  67  95 112 166 223 271 318 391
#     4  12  25  40  64  94 134 172 210 268 331 374
#
# _framework density 21.573126999999999
#
# number of rings (size 3 to 8) (size 9 to 14) (size 15 to 20)
#    0.000    1.500    3.750    2.250    5.250    2.000 
#    2.250    1.250    0.000    0.000    0.000    0.000 
#    0.000    0.000    0.000    0.000    0.000    0.000 
#
# Total GULP energy -89261.539424 kJ/mol
# GULP energy per Si atom -5578.846214 kJ/mol
# Density = 2.152403 g / cm^3
# Si number density = 21.573127 Si / 1000 Ang^3
#
#
#
# Elastic Constant Matrix: (Units=GPa)
#
#
# Indices 1 2 3 4 5 6 
#
# 1 82.9509 -2.1453 33.3313 -0.0106 18.5959 0.0103
# 2 -2.1453 41.4225 9.1946 -0.0042 14.4638 0.0035
# 3 33.3313 9.1946 91.4294 -0.0145 20.7583 0.0044
# 4 -0.0106 -0.0042 -0.0145 41.7312 0.0092 -1.1808
# 5 18.5959 14.4638 20.7583 0.0092 28.4478 -0.0067
# 6 0.0103 0.0035 0.0044 -1.1808 -0.0067 29.7106
#
#
#
# Elastic Compliance Matrix: (Units=1/GPa)
#
#
# Indices 1 2 3 4 5 6 
#
# 1 0.016140 0.005332 -0.004086 0.000005 -0.010280 -0.000008
# 2 0.005332 0.031135 -0.000827 0.000008 -0.018713 -0.000009
# 3 -0.004086 -0.000827 0.014153 0.000005 -0.007236 -0.000002
# 4 0.000005 0.000008 0.000005 0.023990 -0.000019 0.000953
# 5 -0.010280 -0.018713 -0.007236 -0.000019 0.056666 0.000019
# 6 -0.000008 -0.000009 -0.000002 0.000953 0.000019 0.033696
#
#
# Mechanical properties :
#
#
# Convention : Reuss Voigt Hill
#
# Bulk Modulus (GPa) = 16.05979 32.95155 24.50567
# Shear Modulus (GPa) = 25.54980 31.67274 28.61127
#
# Velocity S-wave (km/s) = 3.44515 3.83581 3.64572
# Velocity P-wave (km/s) = 4.82555 5.90977 5.39497
#
# Compressibility (1/GPa) = 0.06226733
#
# Stress axis : x y z
#
# Youngs Moduli (GPa) = 61.95926 32.11802 70.65610
#
# Poissons Ratio (x) = -0.17127 0.28871
# Poissons Ratio (y) = -0.33039 0.05840
# Poissons Ratio (z) = 0.25317 0.02655
#
# Static dielectric constant tensor:
#      x y z
#    x 1.755190 -0.000010 0.009100 
#    y -0.000010 1.884570 0.000000 
#    z 0.009100 0.000000 1.857820 
# 
# From -- ./inp_files/15628.got.cif
#   From: 2010.05.17/outbox.cif.g08.bks.cpg/sg9_8_cif.got.tgz:15628.got - 2010.06.03 20:04:27.
