data_PCOD9135239
_publ_section_title
;
Structure prediction by ZEFSAII (Michael W. Deem and Ramdas Pophale) SiO2 
 PCOD9135239
Probable space group: C C
;
_chemical_formula_sum "Si O2"
_cell_formula_units_Z 28
_cell_length_a 23.835651
_cell_length_b 9.017011
_cell_length_c 11.048483
_cell_angle_alpha 90.000000
_cell_angle_beta 152.071132
_cell_angle_gamma 90.000000
_cell_volume 1112.207977
_symmetry_space_group_name_H-M "C C"
_symmetry_group_IT_number 9
_symmetry_cell_setting 'monoclinic'
loop_
_space_group_symop_operation_xyz
x,y,z
x,-y,1/2+z
1/2+x,1/2+y,z
1/2+x,1/2-y,1/2+z
loop_
_atom_site_type_symbol
_atom_site_label
_atom_site_fract_x
_atom_site_fract_y
_atom_site_fract_z
Si Si1 0.314910 0.761124 0.634530
Si Si2 0.626581 0.511280 0.313673
Si Si3 0.162985 0.510366 0.423405
Si Si4 0.482780 0.950493 0.258557
Si Si5 0.269558 0.852058 0.277903
Si Si6 0.583144 0.208278 0.602384
Si Si7 0.958451 0.259449 0.446999
O O1 0.272394 0.622455 0.634133
O O2 0.280218 0.755104 0.423214
O O3 0.242002 0.906679 0.528366
O O4 0.454460 0.782992 0.924827
O O5 0.645474 0.591408 0.479789
O O6 0.629229 0.626915 0.207194
O O7 0.516239 0.401262 0.079173
O O8 0.100219 0.408520 0.404449
O O9 0.179942 0.400911 0.343665
O O10 0.054475 0.621115 0.180940
O O11 0.453400 0.823898 0.301147
O O12 0.537000 0.113573 0.402318
O O13 0.354265 0.003869 0.965638
O O14 0.340670 0.771630 0.304196
#
# Coordination Sequence:
#
# PCOD9135239 Si02
#       7
#     4   4   4   4   4   4   4
#     4  10  22  40  61  89 128 165 210 266 319 383
#     4  11  23  38  63  95 125 161 215 268 322 380
#     4   9  19  38  62  89 123 165 214 261 317 382
#     4   9  18  40  67  88 127 173 211 263 324 387
#     4  10  20  38  64  92 126 169 212 265 324 385
#     4  10  22  39  60  91 125 163 211 263 320 383
#     4   9  20  39  63  94 126 164 215 266 320 388
#
# _framework density 25.175146000000002
#
# number of rings (size 3 to 8) (size 9 to 14) (size 15 to 20)
#    0.000    2.286    0.000    3.429    0.000    9.143 
#    0.000    1.429    0.000   10.286    0.000    0.000 
#    0.000    0.000    0.000    0.000    0.000    0.000 
#
# Total GULP energy -77958.310303 kJ/mol
# GULP energy per Si atom -5568.450736 kJ/mol
# Density = 2.511785 g / cm^3
# Si number density = 25.175146 Si / 1000 Ang^3
#
#
#
# Elastic Constant Matrix: (Units=GPa)
#
#
# Indices 1 2 3 4 5 6 
#
# 1 81.9296 25.5844 7.9113 0.0000 -7.8328 0.0000
# 2 25.5844 134.1251 42.4572 0.0000 -13.4602 0.0000
# 3 7.9113 42.4572 87.0019 0.0000 -14.3488 0.0000
# 4 0.0000 0.0000 0.0000 24.8822 0.0000 -4.3472
# 5 -7.8328 -13.4602 -14.3488 0.0000 26.1288 0.0000
# 6 0.0000 0.0000 0.0000 -4.3472 0.0000 25.6046
#
#
#
# Elastic Compliance Matrix: (Units=1/GPa)
#
#
# Indices 1 2 3 4 5 6 
#
# 1 0.013184 -0.002356 0.000442 0.000000 0.002982 0.000000
# 2 -0.002356 0.009377 -0.004048 0.000000 0.001901 0.000000
# 3 0.000442 -0.004048 0.014413 0.000000 0.005962 0.000000
# 4 0.000000 0.000000 0.000000 0.041418 0.000000 0.007032
# 5 0.002982 0.001901 0.005962 0.000000 0.043419 0.000000
# 6 0.000000 0.000000 0.000000 0.007032 0.000000 0.040249
#
#
# Mechanical properties :
#
#
# Convention : Reuss Voigt Hill
#
# Bulk Modulus (GPa) = 39.91936 50.55138 45.23537
# Shear Modulus (GPa) = 27.42227 30.46336 28.94282
#
# Velocity S-wave (km/s) = 3.30397 3.48236 3.39434
# Velocity P-wave (km/s) = 5.51780 6.02433 5.77662
#
# Compressibility (1/GPa) = 0.02505050
#
# Stress axis : x y z
#
# Youngs Moduli (GPa) = 75.85224 106.63943 69.38344
#
# Poissons Ratio (x) = 0.25120 -0.03070
# Poissons Ratio (y) = 0.17868 0.28089
# Poissons Ratio (z) = -0.03356 0.43172
#
# Static dielectric constant tensor:
#      x y z
#    x 2.236020 0.000000 -0.059970 
#    y 0.000000 2.143050 0.000000 
#    z -0.059970 0.000000 1.987510 
# 
# From -- ./inp_files/21215.got.cif
#   From: 2010.05.17/outbox.cif.g08.bks.cpg/sg9_11_cif.got.tgz:21215.got - 2010.06.03 20:04:27.
