data_PCOD9135952
_publ_section_title
;
Structure prediction by ZEFSAII (Michael W. Deem and Ramdas Pophale) SiO2 
 PCOD9135952
Probable space group: C C
;
_chemical_formula_sum "Si O2"
_cell_formula_units_Z 28
_cell_length_a 11.838309
_cell_length_b 21.277442
_cell_length_c 5.383027
_cell_angle_alpha 90.000000
_cell_angle_beta 115.942543
_cell_angle_gamma 90.000000
_cell_volume 1219.292711
_symmetry_space_group_name_H-M "C C"
_symmetry_group_IT_number 9
_symmetry_cell_setting 'monoclinic'
loop_
_space_group_symop_operation_xyz
x,y,z
x,-y,1/2+z
1/2+x,1/2+y,z
1/2+x,1/2-y,1/2+z
loop_
_atom_site_type_symbol
_atom_site_label
_atom_site_fract_x
_atom_site_fract_y
_atom_site_fract_z
Si Si1 0.931750 0.351789 0.129210
Si Si2 0.534286 0.253153 0.428697
Si Si3 0.662654 0.816338 0.658280
Si Si4 0.531375 0.037876 0.428167
Si Si5 0.331484 0.462145 0.238273
Si Si6 0.659358 0.674334 0.439566
Si Si7 0.424670 0.353070 0.016113
O O1 0.047895 0.355193 0.431132
O O2 0.955639 0.400121 0.929934
O O3 0.792393 0.358575 0.096278
O O4 0.946326 0.280738 0.041667
O O5 0.627221 0.200741 0.407289
O O6 0.615332 0.310195 0.617167
O O7 0.444460 0.282312 0.135709
O O8 0.670894 0.746199 0.552242
O O9 0.791886 0.852799 0.747888
O O10 0.681483 0.050146 0.581827
O O11 0.503256 0.009262 0.131640
O O12 0.359433 0.489338 0.537643
O O13 0.405812 0.400266 0.226222
O O14 0.547266 0.637782 0.467925
#
# Coordination Sequence:
#
# PCOD9135952 Si02
#       7
#     4   4   4   4   4   4   4
#     4  11  23  39  66  92 132 171 219 271 336 392
#     4  10  21  37  63  96 129 170 217 270 331 397
#     4  10  21  37  62  95 126 169 220 268 331 390
#     4  10  24  44  66  98 129 173 228 282 324 389
#     4  10  24  43  69  96 131 171 228 279 330 384
#     4  10  22  39  57  96 135 170 208 266 340 403
#     4  11  23  39  65  95 132 168 220 272 332 397
#
# _framework density 22.964134999999999
#
# number of rings (size 3 to 8) (size 9 to 14) (size 15 to 20)
#    0.000    1.714    0.000    4.286   10.000    3.429 
#    0.000    1.429    0.000    0.000    0.000    0.000 
#    0.000    0.000    0.000    0.000    0.000    0.000 
#
# Total GULP energy -78248.160469 kJ/mol
# GULP energy per Si atom -5589.154319 kJ/mol
# Density = 2.291187 g / cm^3
# Si number density = 22.964135 Si / 1000 Ang^3
#
#
#
# Elastic Constant Matrix: (Units=GPa)
#
#
# Indices 1 2 3 4 5 6 
#
# 1 186.9846 44.0609 49.7533 0.0000 8.1433 0.0000
# 2 44.0609 66.9783 12.4180 0.0000 -2.7920 0.0000
# 3 49.7533 12.4180 64.0140 0.0000 0.0378 0.0000
# 4 0.0000 0.0000 0.0000 27.5448 0.0000 -18.6026
# 5 8.1433 -2.7920 0.0378 0.0000 32.5193 0.0000
# 6 0.0000 0.0000 0.0000 -18.6026 0.0000 33.4258
#
#
#
# Elastic Compliance Matrix: (Units=1/GPa)
#
#
# Indices 1 2 3 4 5 6 
#
# 1 0.007866 -0.004293 -0.005279 0.000000 -0.002332 0.000000
# 2 -0.004293 0.017888 -0.000135 0.000000 0.002611 0.000000
# 3 -0.005279 -0.000135 0.019750 0.000000 0.001287 0.000000
# 4 0.000000 0.000000 0.000000 0.058168 0.000000 0.032372
# 5 -0.002332 0.002611 0.001287 0.000000 0.031558 0.000000
# 6 0.000000 0.000000 0.000000 0.032372 0.000000 0.047933
#
#
# Mechanical properties :
#
#
# Convention : Reuss Voigt Hill
#
# Bulk Modulus (GPa) = 38.32957 58.93792 48.63375
# Shear Modulus (GPa) = 23.66591 32.81428 28.24009
#
# Velocity S-wave (km/s) = 3.21372 3.78423 3.51058
# Velocity P-wave (km/s) = 5.52249 6.69438 6.13648
#
# Compressibility (1/GPa) = 0.02608952
#
# Stress axis : x y z
#
# Youngs Moduli (GPa) = 127.13032 55.90299 50.63203
#
# Poissons Ratio (x) = 0.23999 0.26731
# Poissons Ratio (y) = 0.54576 0.00684
# Poissons Ratio (z) = 0.67118 0.00755
#
# Static dielectric constant tensor:
#      x y z
#    x 1.848490 0.000000 -0.043520 
#    y 0.000000 1.862570 0.000000 
#    z -0.043520 0.000000 1.965490 
# 
# From -- ./inp_files/1775.got.cif
#   From: 2010.05.17/outbox.cif.g08.bks.cpg/sg9_1_cif.got.tgz:1775.got - 2010.06.03 20:04:27.
