data_PCOD9135671
_publ_section_title
;
Structure prediction by ZEFSAII (Michael W. Deem and Ramdas Pophale) SiO2 
 PCOD9135671
Probable space group: C C
;
_chemical_formula_sum "Si O2"
_cell_formula_units_Z 24
_cell_length_a 19.892294
_cell_length_b 4.957321
_cell_length_c 12.903575
_cell_angle_alpha 90.000000
_cell_angle_beta 56.849116
_cell_angle_gamma 90.000000
_cell_volume 1065.340666
_symmetry_space_group_name_H-M "C C"
_symmetry_group_IT_number 9
_symmetry_cell_setting 'monoclinic'
loop_
_space_group_symop_operation_xyz
x,y,z
x,-y,1/2+z
1/2+x,1/2+y,z
1/2+x,1/2-y,1/2+z
loop_
_atom_site_type_symbol
_atom_site_label
_atom_site_fract_x
_atom_site_fract_y
_atom_site_fract_z
Si Si1 0.398330 0.097989 0.172050
Si Si2 0.925250 0.910297 0.525444
Si Si3 0.071332 0.952863 0.793745
Si Si4 0.816844 0.309229 0.949677
Si Si5 0.209939 0.314330 0.084940
Si Si6 0.552817 0.018297 0.173497
O O1 0.391705 0.296782 0.080669
O O2 0.338145 0.198143 0.310886
O O3 0.392352 0.790925 0.140430
O O4 0.578274 0.282901 0.216329
O O5 0.021237 0.952174 0.435166
O O6 0.987838 0.395039 0.645207
O O7 0.897839 0.229834 0.942251
O O8 0.157786 0.804374 0.725639
O O9 0.019560 0.718932 0.777967
O O10 0.775323 0.595584 0.000285
O O11 0.755758 0.094206 0.050252
O O12 0.135736 0.373655 0.067827
#
# Coordination Sequence:
#
# PCOD9135671 Si02
#       6
#     4   4   4   4   4   4
#     4  12  26  42  69 102 133 180 231 276 338 412
#     4  12  26  42  69 102 133 180 231 276 338 412
#     4  10  20  42  68  95 124 176 228 270 338 391
#     4  12  24  44  68  96 144 178 212 290 346 404
#     4  10  22  40  74  90 130 188 214 274 360 390
#     4  10  20  42  68  95 124 176 228 270 338 391
#
# _framework density 22.528008
#
# number of rings (size 3 to 8) (size 9 to 14) (size 15 to 20)
#    1.000    0.000    3.333    4.000    2.333    0.000 
#    0.000   10.000    0.000    0.000    0.000    0.000 
#    0.000    0.000    0.000    0.000    0.000    0.000 
#
# Total GULP energy -66830.966319 kJ/mol
# GULP energy per Si atom -5569.247193 kJ/mol
# Density = 2.247673 g / cm^3
# Si number density = 22.528008 Si / 1000 Ang^3
#
#
#
# Elastic Constant Matrix: (Units=GPa)
#
#
# Indices 1 2 3 4 5 6 
#
# 1 24.0738 16.9254 17.8296 0.0000 -5.6382 0.0017
# 2 16.9254 137.1062 18.2857 0.0004 1.4081 0.0014
# 3 17.8296 18.2857 80.0516 0.0006 -3.6364 -0.0029
# 4 0.0000 0.0004 0.0006 34.0569 -0.0002 -7.7400
# 5 -5.6382 1.4081 -3.6364 -0.0002 21.6951 -0.0002
# 6 0.0017 0.0014 -0.0029 -7.7400 -0.0002 22.9521
#
#
#
# Elastic Compliance Matrix: (Units=1/GPa)
#
#
# Indices 1 2 3 4 5 6 
#
# 1 0.056574 -0.005694 -0.010697 -0.000001 0.013279 -0.000006
# 2 -0.005694 0.008109 -0.000680 0.000000 -0.002120 0.000000
# 3 -0.010697 -0.000680 0.015020 0.000000 -0.000218 0.000003
# 4 -0.000001 0.000000 0.000000 0.031800 0.000000 0.010724
# 5 0.013279 -0.002120 -0.000218 0.000000 0.049646 0.000000
# 6 -0.000006 0.000000 0.000003 0.010724 0.000000 0.047185
#
#
# Mechanical properties :
#
#
# Convention : Reuss Voigt Hill
#
# Bulk Modulus (GPa) = 21.94842 38.59035 30.26939
# Shear Modulus (GPa) = 19.40520 28.28688 23.84604
#
# Velocity S-wave (km/s) = 2.93811 3.54733 3.25700
# Velocity P-wave (km/s) = 4.61236 5.82625 5.25448
#
# Compressibility (1/GPa) = 0.04556136
#
# Stress axis : x y z
#
# Youngs Moduli (GPa) = 17.67583 123.31946 66.57826
#
# Poissons Ratio (x) = 0.70215 0.71218
# Poissons Ratio (y) = 0.10064 0.04530
# Poissons Ratio (z) = 0.18908 0.08391
#
# Static dielectric constant tensor:
#      x y z
#    x 1.876620 0.000000 -0.052070 
#    y 0.000000 1.825440 0.000000 
#    z -0.052070 0.000000 1.870550 
# 
# From -- ./inp_files/27561.got.cif
#   From: 2010.05.17/outbox.cif.g08.bks.cpg/sg9_14_cif.got.tgz:27561.got - 2010.06.03 20:04:27.
