data_PCOD9135828
_publ_section_title
;
Structure prediction by ZEFSAII (Michael W. Deem and Ramdas Pophale) SiO2 
 PCOD9135828
Probable space group: C C
;
_chemical_formula_sum "Si O2"
_cell_formula_units_Z 32
_cell_length_a 6.100924
_cell_length_b 15.156092
_cell_length_c 18.422358
_cell_angle_alpha 90.000000
_cell_angle_beta 129.795051
_cell_angle_gamma 90.000000
_cell_volume 1308.822754
_symmetry_space_group_name_H-M "C C"
_symmetry_group_IT_number 9
_symmetry_cell_setting 'monoclinic'
loop_
_space_group_symop_operation_xyz
x,y,z
x,-y,1/2+z
1/2+x,1/2+y,z
1/2+x,1/2-y,1/2+z
loop_
_atom_site_type_symbol
_atom_site_label
_atom_site_fract_x
_atom_site_fract_y
_atom_site_fract_z
Si Si1 0.682370 0.796647 0.378770
Si Si2 0.817614 0.562182 0.486413
Si Si3 0.926917 0.908872 0.167741
Si Si4 0.324429 0.048876 0.188354
Si Si5 0.888464 0.947883 0.324152
Si Si6 0.828737 0.641971 0.335292
Si Si7 0.439614 0.729414 0.456338
Si Si8 0.310818 0.215821 0.081027
O O1 0.715575 0.870880 0.326944
O O2 0.595680 0.709836 0.315813
O O3 0.482256 0.804137 0.404927
O O4 0.987408 0.777501 0.481564
O O5 0.616562 0.478519 0.432603
O O6 0.896761 0.582337 0.419188
O O7 0.641045 0.644727 0.482435
O O8 0.108773 0.551072 0.590816
O O9 0.000846 0.924190 0.267977
O O10 0.889215 0.804158 0.143310
O O11 0.131184 0.959279 0.152322
O O12 0.230109 0.093779 0.243520
O O13 0.309696 0.124126 0.124072
O O14 0.656253 0.024487 0.265397
O O15 0.118438 0.694351 0.379980
O O16 0.492306 0.772183 0.545798
#
# Coordination Sequence:
#
# PCOD9135828 Si02
#       8
#     4   4   4   4   4   4   4   4
#     4  10  24  45  75 108 144 205 262 311 397 470
#     4  11  23  48  77 106 155 203 255 319 388 464
#     4  12  27  50  75 113 162 203 260 329 397 480
#     4  12  28  45  73 118 152 201 259 330 392 472
#     4  12  28  46  75 118 151 201 262 324 391 471
#     4  10  20  47  71  99 147 196 251 312 386 459
#     4  10  20  46  78 100 142 215 250 316 390 469
#     4  11  26  47  74 112 155 204 265 321 401 475
#
# _framework density 24.449452000000001
#
# number of rings (size 3 to 8) (size 9 to 14) (size 15 to 20)
#    0.000    1.000    6.250    0.750    3.500    5.000 
#    2.250    0.000    0.000    0.000    0.000    0.000 
#    0.000    0.000    0.000    0.000    0.000    0.000 
#
# Total GULP energy -89429.364661 kJ/mol
# GULP energy per Si atom -5589.335291 kJ/mol
# Density = 2.439380 g / cm^3
# Si number density = 24.449452 Si / 1000 Ang^3
#
#
#
# Elastic Constant Matrix: (Units=GPa)
#
#
# Indices 1 2 3 4 5 6 
#
# 1 78.9383 34.1613 30.9588 0.0001 -23.7869 0.0001
# 2 34.1613 102.7696 53.0085 0.0000 -16.9271 0.0000
# 3 30.9588 53.0085 85.7173 0.0001 -17.7109 0.0001
# 4 0.0001 0.0000 0.0001 50.6604 0.0001 -12.6533
# 5 -23.7869 -16.9271 -17.7109 0.0001 49.6952 0.0001
# 6 0.0001 0.0000 0.0001 -12.6533 0.0001 39.7148
#
#
#
# Elastic Compliance Matrix: (Units=1/GPa)
#
#
# Indices 1 2 3 4 5 6 
#
# 1 0.016997 -0.003133 -0.002958 0.000000 0.006014 0.000000
# 2 -0.003133 0.015026 -0.008002 0.000000 0.000766 0.000000
# 3 -0.002958 -0.008002 0.018165 0.000000 0.002332 0.000000
# 4 0.000000 0.000000 0.000000 0.021446 0.000000 0.006833
# 5 0.006014 0.000766 0.002332 0.000000 0.024093 0.000000
# 6 0.000000 0.000000 0.000000 0.006833 0.000000 0.027357
#
#
# Mechanical properties :
#
#
# Convention : Reuss Voigt Hill
#
# Bulk Modulus (GPa) = 45.45474 55.96471 50.70973
# Shear Modulus (GPa) = 31.52504 37.96720 34.74612
#
# Velocity S-wave (km/s) = 3.59471 3.94494 3.77389
# Velocity P-wave (km/s) = 5.98840 6.60982 6.30677
#
# Compressibility (1/GPa) = 0.02199990
#
# Stress axis : x y z
#
# Youngs Moduli (GPa) = 58.83551 66.55267 55.05038
#
# Poissons Ratio (x) = 0.20853 0.16286
# Poissons Ratio (y) = 0.18435 0.44052
# Poissons Ratio (z) = 0.17406 0.53256
#
# Static dielectric constant tensor:
#      x y z
#    x 2.004840 0.000000 -0.003260 
#    y 0.000000 2.012010 0.000000 
#    z -0.003260 0.000000 1.926380 
# 
# From -- ./inp_files/28733.got.cif
#   From: 2010.05.17/outbox.cif.g08.bks.cpg/sg9_15_cif.got.tgz:28733.got - 2010.06.03 20:04:27.
