data_PCOD9135743
_publ_section_title
;
Structure prediction by ZEFSAII (Michael W. Deem and Ramdas Pophale) SiO2 
 PCOD9135743
Probable space group: C C
;
_chemical_formula_sum "Si O2"
_cell_formula_units_Z 32
_cell_length_a 8.704940
_cell_length_b 20.266828
_cell_length_c 9.861044
_cell_angle_alpha 90.000000
_cell_angle_beta 51.171711
_cell_angle_gamma 90.000000
_cell_volume 1355.276172
_symmetry_space_group_name_H-M "C C"
_symmetry_group_IT_number 9
_symmetry_cell_setting 'monoclinic'
loop_
_space_group_symop_operation_xyz
x,y,z
x,-y,1/2+z
1/2+x,1/2+y,z
1/2+x,1/2-y,1/2+z
loop_
_atom_site_type_symbol
_atom_site_label
_atom_site_fract_x
_atom_site_fract_y
_atom_site_fract_z
Si Si1 0.834160 0.325131 0.934090
Si Si2 0.420369 0.014607 0.748545
Si Si3 0.093553 0.301630 0.530390
Si Si4 0.147951 0.379571 0.248503
Si Si5 0.064513 0.076617 0.434460
Si Si6 0.983701 0.853386 0.704046
Si Si7 0.595938 0.073399 0.383038
Si Si8 0.762997 0.244656 0.510668
O O1 0.974063 0.324537 0.725511
O O2 0.754024 0.251332 0.991284
O O3 0.654351 0.373753 0.996846
O O4 0.963679 0.360349 0.976268
O O5 0.452708 0.080365 0.819322
O O6 0.532024 0.027314 0.544495
O O7 0.523429 0.959876 0.785211
O O8 0.195761 0.989314 0.857726
O O9 0.172340 0.360008 0.391548
O O10 0.938107 0.265500 0.516633
O O11 0.332394 0.424249 0.095596
O O12 0.154664 0.312230 0.158515
O O13 0.087032 0.112555 0.276693
O O14 0.142112 0.809707 0.536969
O O15 0.824396 0.906561 0.742377
O O16 0.849692 0.794425 0.837603
#
# Coordination Sequence:
#
# PCOD9135743 Si02
#       8
#     4   4   4   4   4   4   4   4
#     4  11  22  39  69 104 145 183 234 294 356 434
#     4  11  26  47  70  97 141 199 241 297 348 412
#     4  12  19  38  71 112 139 188 225 291 368 441
#     4  11  21  41  72 101 140 185 237 287 355 422
#     4  10  20  43  68  96 134 194 244 289 335 429
#     4  11  21  42  68 102 138 178 233 289 356 430
#     4  11  27  47  69  98 147 184 242 306 349 416
#     4  11  18  35  71 102 136 179 222 283 365 428
#
# _framework density 23.611424
#
# number of rings (size 3 to 8) (size 9 to 14) (size 15 to 20)
#    0.000    1.000    8.750    0.000    3.500    1.000 
#    6.750    0.000    5.500    0.000    0.000    0.000 
#    0.000    0.000    0.000    0.000    0.000    0.000 
#
# Total GULP energy -89384.344179 kJ/mol
# GULP energy per Si atom -5586.521511 kJ/mol
# Density = 2.355768 g / cm^3
# Si number density = 23.611424 Si / 1000 Ang^3
#
#
#
# Elastic Constant Matrix: (Units=GPa)
#
#
# Indices 1 2 3 4 5 6 
#
# 1 83.7514 40.7517 13.6151 0.0000 -11.5645 0.0000
# 2 40.7517 100.8881 47.5877 0.0000 -25.7707 0.0000
# 3 13.6151 47.5877 70.7805 0.0000 -7.6066 0.0000
# 4 0.0000 0.0000 0.0000 41.3909 0.0000 -20.0518
# 5 -11.5645 -25.7707 -7.6066 0.0000 18.9505 0.0000
# 6 0.0000 0.0000 0.0000 -20.0518 0.0000 56.0040
#
#
#
# Elastic Compliance Matrix: (Units=1/GPa)
#
#
# Indices 1 2 3 4 5 6 
#
# 1 0.015013 -0.006649 0.001667 0.000000 0.000789 0.000000
# 2 -0.006649 0.024990 -0.012861 0.000000 0.024763 0.000000
# 3 0.001667 -0.012861 0.021617 0.000000 -0.007795 0.000000
# 4 0.000000 0.000000 0.000000 0.029230 0.000000 0.010466
# 5 0.000789 0.024763 -0.007795 0.000000 0.083797 0.000000
# 6 0.000000 0.000000 0.000000 0.010466 0.000000 0.021603
#
#
# Mechanical properties :
#
#
# Convention : Reuss Voigt Hill
#
# Bulk Modulus (GPa) = 38.55987 51.03656 44.79822
# Shear Modulus (GPa) = 20.78310 33.50012 27.14161
#
# Velocity S-wave (km/s) = 2.97006 3.77080 3.39412
# Velocity P-wave (km/s) = 5.30360 6.37343 5.86297
#
# Compressibility (1/GPa) = 0.02593369
#
# Stress axis : x y z
#
# Youngs Moduli (GPa) = 66.60723 40.01640 46.26088
#
# Poissons Ratio (x) = 0.26608 -0.07713
# Poissons Ratio (y) = 0.44290 0.59496
# Poissons Ratio (z) = -0.11106 0.51465
#
# Static dielectric constant tensor:
#      x y z
#    x 1.934430 0.000000 -0.022840 
#    y 0.000000 1.991870 0.000000 
#    z -0.022840 0.000000 1.937540 
# 
# From -- ./inp_files/15479.got.cif
#   From: 2010.05.17/outbox.cif.g08.bks.cpg/sg9_8_cif.got.tgz:15479.got - 2010.06.03 20:04:27.
