data_PCOD9135468
_publ_section_title
;
Structure prediction by ZEFSAII (Michael W. Deem and Ramdas Pophale) SiO2 
 PCOD9135468
Probable space group: C C
;
_chemical_formula_sum "Si O2"
_cell_formula_units_Z 32
_cell_length_a 28.138796
_cell_length_b 4.871623
_cell_length_c 8.683314
_cell_angle_alpha 90.000000
_cell_angle_beta 107.723396
_cell_angle_gamma 90.000000
_cell_volume 1133.826646
_symmetry_space_group_name_H-M "C C"
_symmetry_group_IT_number 9
_symmetry_cell_setting 'monoclinic'
loop_
_space_group_symop_operation_xyz
x,y,z
x,-y,1/2+z
1/2+x,1/2+y,z
1/2+x,1/2-y,1/2+z
loop_
_atom_site_type_symbol
_atom_site_label
_atom_site_fract_x
_atom_site_fract_y
_atom_site_fract_z
Si Si1 0.055070 0.863594 0.263550
Si Si2 0.207374 0.284335 0.198535
Si Si3 0.333538 0.381414 0.108862
Si Si4 0.273012 0.786671 0.262038
Si Si5 0.968220 0.790934 0.753049
Si Si6 0.404453 0.656535 0.928873
Si Si7 0.647613 0.643365 0.434187
Si Si8 0.562148 0.995812 0.506926
O O1 0.104766 0.024147 0.279222
O O2 0.059862 0.806599 0.450638
O O3 0.058984 0.578211 0.180342
O O4 0.002345 0.997468 0.190450
O O5 0.222773 0.600393 0.191307
O O6 0.258028 0.103515 0.234151
O O7 0.186620 0.264900 0.350944
O O8 0.171830 0.114909 0.047898
O O9 0.309915 0.643253 0.175855
O O10 0.364781 0.212577 0.269588
O O11 0.292510 0.250581 0.955704
O O12 0.373114 0.481540 0.020333
O O13 0.936093 0.658360 0.581216
O O14 0.009962 0.617362 0.883759
O O15 0.936289 0.959269 0.847116
O O16 0.613857 0.856662 0.499815
#
# Coordination Sequence:
#
# PCOD9135468 Si02
#       8
#     4   4   4   4   4   4   4   4
#     4  11  25  40  63  93 140 179 228 281 342 407
#     4  12  26  43  72  99 138 181 234 285 340 420
#     4   9  20  41  70  94 128 172 220 283 358 409
#     4  11  24  44  70  99 136 179 226 290 352 411
#     4  10  20  40  66  92 134 178 222 276 340 402
#     4   9  18  37  74  90 130 174 216 283 334 419
#     4  11  26  41  62  98 132 184 230 283 340 401
#     4  11  25  40  63  93 140 179 228 281 342 407
#
# _framework density 28.223006999999999
#
# number of rings (size 3 to 8) (size 9 to 14) (size 15 to 20)
#    0.000    1.500    2.500    1.500    7.000    0.000 
#    0.000    0.000   55.000    0.000    0.000    0.000 
#    0.000    0.000    0.000    0.000    0.000    0.000 
#
# Total GULP energy -89551.154445 kJ/mol
# GULP energy per Si atom -5596.947153 kJ/mol
# Density = 2.815877 g / cm^3
# Si number density = 28.223007 Si / 1000 Ang^3
#
#
#
# Elastic Constant Matrix: (Units=GPa)
#
#
# Indices 1 2 3 4 5 6 
#
# 1 135.1116 4.6550 43.5641 0.0000 -9.2346 0.0000
# 2 4.6550 68.2597 3.9423 0.0000 2.1383 0.0000
# 3 43.5641 3.9423 173.7488 0.0000 6.2119 0.0000
# 4 0.0000 0.0000 0.0000 36.5518 0.0000 -4.6893
# 5 -9.2346 2.1383 6.2119 0.0000 53.7654 0.0000
# 6 0.0000 0.0000 0.0000 -4.6893 0.0000 26.8019
#
#
#
# Elastic Compliance Matrix: (Units=1/GPa)
#
#
# Indices 1 2 3 4 5 6 
#
# 1 0.008212 -0.000491 -0.002108 0.000000 0.001674 0.000000
# 2 -0.000491 0.014715 -0.000188 0.000000 -0.000648 0.000000
# 3 -0.002108 -0.000188 0.006327 0.000000 -0.001086 0.000000
# 4 0.000000 0.000000 0.000000 0.027987 0.000000 0.004897
# 5 0.001674 -0.000648 -0.001086 0.000000 0.019038 0.000000
# 6 0.000000 0.000000 0.000000 0.004897 0.000000 0.038167
#
#
# Mechanical properties :
#
#
# Convention : Reuss Voigt Hill
#
# Bulk Modulus (GPa) = 42.22720 53.49366 47.86043
# Shear Modulus (GPa) = 39.08943 45.08773 42.08858
#
# Velocity S-wave (km/s) = 3.72562 4.00128 3.86591
# Velocity P-wave (km/s) = 5.78805 6.35154 6.07633
#
# Compressibility (1/GPa) = 0.02368142
#
# Stress axis : x y z
#
# Youngs Moduli (GPa) = 121.77033 67.96003 158.05330
#
# Poissons Ratio (x) = 0.03335 0.33314
# Poissons Ratio (y) = 0.05976 0.02966
# Poissons Ratio (z) = 0.25666 0.01275
#
# Static dielectric constant tensor:
#      x y z
#    x 2.184880 0.000000 0.077800 
#    y 0.000000 2.145050 0.000000 
#    z 0.077800 0.000000 2.147590 
# 
# From -- ./inp_files/12558.got.cif
#   From: 2010.05.17/outbox.cif.g08.bks.cpg/sg9_7_cif.got.tgz:12558.got - 2010.06.03 20:04:27.
