data_PCOD9135742
_publ_section_title
;
Structure prediction by ZEFSAII (Michael W. Deem and Ramdas Pophale) SiO2 
 PCOD9135742
Probable space group: C C
;
_chemical_formula_sum "Si O2"
_cell_formula_units_Z 28
_cell_length_a 9.495920
_cell_length_b 10.732209
_cell_length_c 14.008204
_cell_angle_alpha 90.000000
_cell_angle_beta 54.227326
_cell_angle_gamma 90.000000
_cell_volume 1158.278419
_symmetry_space_group_name_H-M "C C"
_symmetry_group_IT_number 9
_symmetry_cell_setting 'monoclinic'
loop_
_space_group_symop_operation_xyz
x,y,z
x,-y,1/2+z
1/2+x,1/2+y,z
1/2+x,1/2-y,1/2+z
loop_
_atom_site_type_symbol
_atom_site_label
_atom_site_fract_x
_atom_site_fract_y
_atom_site_fract_z
Si Si1 0.556320 0.389521 0.228540
Si Si2 0.677489 0.629780 0.109219
Si Si3 0.235656 0.460556 0.939815
Si Si4 0.817089 0.342637 0.767932
Si Si5 0.121934 0.482386 0.194887
Si Si6 0.042159 0.329047 0.408919
Si Si7 0.291936 0.703955 0.241910
O O1 0.633213 0.482508 0.118907
O O2 0.420703 0.474241 0.342569
O O3 0.447366 0.275465 0.227302
O O4 0.701511 0.327644 0.238375
O O5 0.751275 0.637540 0.187388
O O6 0.499112 0.703718 0.165886
O O7 0.837070 0.675189 0.983388
O O8 0.220827 0.346234 0.871726
O O9 0.096396 0.565157 0.962763
O O10 0.202085 0.439315 0.063634
O O11 0.644001 0.297614 0.892166
O O12 0.929637 0.459004 0.758472
O O13 0.238903 0.594699 0.189365
O O14 0.114213 0.379891 0.279978
#
# Coordination Sequence:
#
# PCOD9135742 Si02
#       7
#     4   4   4   4   4   4   4
#     4   9  21  43  69  94 129 174 216 267 330 390
#     4  11  22  44  65  99 135 166 219 275 323 389
#     4   9  18  42  69  91 133 168 218 270 319 392
#     4  10  22  43  67  93 130 176 219 258 330 386
#     4  10  20  43  68  95 129 179 215 264 332 385
#     4  10  22  41  66  97 133 169 218 273 321 389
#     4   9  21  42  64 101 131 168 223 269 325 391
#
# _framework density 24.173808999999999
#
# number of rings (size 3 to 8) (size 9 to 14) (size 15 to 20)
#    0.000    2.286    1.429    0.857    0.000    2.286 
#   25.714    1.429    0.000    0.000    0.000    0.000 
#    0.000    0.000    0.000    0.000    0.000    0.000 
#
# Total GULP energy -78351.207232 kJ/mol
# GULP energy per Si atom -5596.514802 kJ/mol
# Density = 2.411879 g / cm^3
# Si number density = 24.173809 Si / 1000 Ang^3
#
#
#
# Elastic Constant Matrix: (Units=GPa)
#
#
# Indices 1 2 3 4 5 6 
#
# 1 149.5263 37.1147 28.1215 0.0000 -17.4820 0.0000
# 2 37.1147 79.4043 3.0823 0.0000 -8.9955 0.0000
# 3 28.1215 3.0823 62.7801 0.0000 -4.9551 0.0000
# 4 0.0000 0.0000 0.0000 13.4611 0.0000 7.6816
# 5 -17.4820 -8.9955 -4.9551 0.0000 45.9414 0.0000
# 6 0.0000 0.0000 0.0000 7.6816 0.0000 50.2324
#
#
#
# Elastic Compliance Matrix: (Units=1/GPa)
#
#
# Indices 1 2 3 4 5 6 
#
# 1 0.008479 -0.003585 -0.003452 0.000000 0.002152 0.000000
# 2 -0.003585 0.014407 0.001022 0.000000 0.001567 0.000000
# 3 -0.003452 0.001022 0.017486 0.000000 0.000773 0.000000
# 4 0.000000 0.000000 0.000000 0.081390 0.000000 -0.012446
# 5 0.002152 0.001567 0.000773 0.000000 0.022976 0.000000
# 6 0.000000 0.000000 0.000000 -0.012446 0.000000 0.021811
#
#
# Mechanical properties :
#
#
# Convention : Reuss Voigt Hill
#
# Bulk Modulus (GPa) = 35.28356 47.59418 41.43887
# Shear Modulus (GPa) = 26.59213 36.81980 31.70597
#
# Velocity S-wave (km/s) = 3.32028 3.90696 3.62551
# Velocity P-wave (km/s) = 5.41539 6.33116 5.89110
#
# Compressibility (1/GPa) = 0.02834181
#
# Stress axis : x y z
#
# Youngs Moduli (GPa) = 117.94538 69.40882 57.18971
#
# Poissons Ratio (x) = 0.24884 0.19742
# Poissons Ratio (y) = 0.42286 -0.05846
# Poissons Ratio (z) = 0.40714 -0.07095
#
# Static dielectric constant tensor:
#      x y z
#    x 1.918660 0.000000 -0.036830 
#    y 0.000000 1.998240 0.000000 
#    z -0.036830 0.000000 1.936010 
# 
# From -- ./inp_files/14239.got.cif
#   From: 2010.05.17/outbox.cif.g08.bks.cpg/sg9_8_cif.got.tgz:14239.got - 2010.06.03 20:04:27.
