data_PCOD9135763
_publ_section_title
;
Structure prediction by ZEFSAII (Michael W. Deem and Ramdas Pophale) SiO2 
 PCOD9135763
Probable space group: C C
;
_chemical_formula_sum "Si O2"
_cell_formula_units_Z 32
_cell_length_a 18.679334
_cell_length_b 13.399588
_cell_length_c 10.008404
_cell_angle_alpha 90.000000
_cell_angle_beta 35.787265
_cell_angle_gamma 90.000000
_cell_volume 1464.900851
_symmetry_space_group_name_H-M "C C"
_symmetry_group_IT_number 9
_symmetry_cell_setting 'monoclinic'
loop_
_space_group_symop_operation_xyz
x,y,z
x,-y,1/2+z
1/2+x,1/2+y,z
1/2+x,1/2-y,1/2+z
loop_
_atom_site_type_symbol
_atom_site_label
_atom_site_fract_x
_atom_site_fract_y
_atom_site_fract_z
Si Si1 0.950300 0.950791 0.283580
Si Si2 0.873483 0.304226 0.518380
Si Si3 0.720456 0.592567 0.450129
Si Si4 0.784232 0.620872 0.875005
Si Si5 0.896319 0.894856 0.647262
Si Si6 0.261022 0.692767 0.919348
Si Si7 0.523738 0.181042 0.407070
Si Si8 0.138632 0.699650 0.518373
O O1 0.910296 0.965677 0.497265
O O2 0.854096 0.874077 0.361887
O O3 0.948138 0.049949 0.197857
O O4 0.086594 0.905214 0.085896
O O5 0.819552 0.396488 0.682848
O O6 0.825150 0.314846 0.441744
O O7 0.815269 0.212170 0.689490
O O8 0.019319 0.305652 0.291479
O O9 0.736115 0.486097 0.493229
O O10 0.747190 0.692337 0.494868
O O11 0.903695 0.613736 0.601004
O O12 0.683541 0.686104 0.952737
O O13 0.968530 0.793742 0.496595
O O14 0.754857 0.866654 0.882591
O O15 0.120273 0.657831 0.144030
O O16 0.599440 0.168565 0.429332
#
# Coordination Sequence:
#
# PCOD9135763 Si02
#       8
#     4   4   4   4   4   4   4   4
#     4  12  25  42  68  96 131 172 221 274 324 391
#     4   9  23  40  61  96 128 166 212 264 328 380
#     4  10  24  42  64  98 126 170 215 268 321 393
#     4  10  22  39  70  92 130 168 217 265 320 390
#     4  11  24  41  67 100 128 173 222 267 331 388
#     4  10  23  43  64  92 133 167 215 266 327 383
#     4  10  20  44  65  91 127 173 214 262 328 387
#     4  10  21  41  65  93 133 169 214 266 327 390
#
# _framework density 21.844481999999999
#
# number of rings (size 3 to 8) (size 9 to 14) (size 15 to 20)
#    0.750    1.000    2.500    0.750    3.500    5.000 
#    0.000    2.500    0.000    0.000    0.000    0.000 
#    0.000    0.000    0.000    0.000    0.000    0.000 
#
# Total GULP energy -89246.691195 kJ/mol
# GULP energy per Si atom -5577.918200 kJ/mol
# Density = 2.179476 g / cm^3
# Si number density = 21.844482 Si / 1000 Ang^3
#
#
#
# Elastic Constant Matrix: (Units=GPa)
#
#
# Indices 1 2 3 4 5 6 
#
# 1 42.9214 7.8143 30.4046 0.0000 -8.4979 0.0000
# 2 7.8143 46.0335 7.0199 0.0000 -17.3806 0.0000
# 3 30.4046 7.0199 170.2071 0.0000 -15.8984 0.0000
# 4 0.0000 0.0000 0.0000 13.5988 0.0000 -0.5969
# 5 -8.4979 -17.3806 -15.8984 0.0000 37.0768 0.0000
# 6 0.0000 0.0000 0.0000 -0.5969 0.0000 33.9312
#
#
#
# Elastic Compliance Matrix: (Units=1/GPa)
#
#
# Indices 1 2 3 4 5 6 
#
# 1 0.027633 -0.002846 -0.004533 0.000000 0.003055 0.000000
# 2 -0.002846 0.026689 0.000537 0.000000 0.012089 0.000000
# 3 -0.004533 0.000537 0.006864 0.000000 0.002156 0.000000
# 4 0.000000 0.000000 0.000000 0.073593 0.000000 0.001295
# 5 0.003055 0.012089 0.002156 0.000000 0.034263 0.000000
# 6 0.000000 0.000000 0.000000 0.001295 0.000000 0.029494
#
#
# Mechanical properties :
#
#
# Convention : Reuss Voigt Hill
#
# Bulk Modulus (GPa) = 21.05206 38.84885 29.95045
# Shear Modulus (GPa) = 21.92458 31.18287 26.55373
#
# Velocity S-wave (km/s) = 3.17151 3.78232 3.49030
# Velocity P-wave (km/s) = 4.80307 6.07433 5.47572
#
# Compressibility (1/GPa) = 0.04750129
#
# Stress axis : x y z
#
# Youngs Moduli (GPa) = 36.18884 37.46872 145.68242
#
# Poissons Ratio (x) = 0.10663 0.66043
# Poissons Ratio (y) = 0.10299 -0.07820
# Poissons Ratio (z) = 0.16406 -0.02011
#
# Static dielectric constant tensor:
#      x y z
#    x 1.767230 0.000000 0.020390 
#    y 0.000000 1.824980 0.000000 
#    z 0.020390 0.000000 1.830100 
# 
# From -- ./inp_files/20343.got.cif
#   From: 2010.05.17/outbox.cif.g08.bks.cpg/sg9_11_cif.got.tgz:20343.got - 2010.06.03 20:04:27.
