data_PCOD9135469
_publ_section_title
;
Structure prediction by ZEFSAII (Michael W. Deem and Ramdas Pophale) SiO2 
 PCOD9135469
Probable space group: C C
;
_chemical_formula_sum "Si O2"
_cell_formula_units_Z 32
_cell_length_a 28.205707
_cell_length_b 8.693848
_cell_length_c 16.751247
_cell_angle_alpha 90.000000
_cell_angle_beta 19.942803
_cell_angle_gamma 90.000000
_cell_volume 1401.053920
_symmetry_space_group_name_H-M "C C"
_symmetry_group_IT_number 9
_symmetry_cell_setting 'monoclinic'
loop_
_space_group_symop_operation_xyz
x,y,z
x,-y,1/2+z
1/2+x,1/2+y,z
1/2+x,1/2-y,1/2+z
loop_
_atom_site_type_symbol
_atom_site_label
_atom_site_fract_x
_atom_site_fract_y
_atom_site_fract_z
Si Si1 0.712390 0.258726 0.247390
Si Si2 0.864988 0.383407 0.745451
Si Si3 0.359574 0.625917 0.149135
Si Si4 0.651363 0.512240 0.699536
Si Si5 0.155727 0.698316 0.763296
Si Si6 0.703729 0.803099 0.371269
Si Si7 0.924888 0.839250 0.295520
Si Si8 0.924394 0.841254 0.730908
O O1 0.795634 0.264146 0.198573
O O2 0.703887 0.397249 0.195913
O O3 0.554165 0.226004 0.523147
O O4 0.801116 0.136808 0.054784
O O5 0.789126 0.318912 0.787939
O O6 0.869005 0.244150 0.804377
O O7 0.025821 0.418767 0.471622
O O8 0.771834 0.503630 0.942710
O O9 0.265282 0.473640 0.285755
O O10 0.371151 0.648120 0.225060
O O11 0.519897 0.599475 0.869888
O O12 0.592208 0.352336 0.824789
O O13 0.205617 0.727250 0.773957
O O14 0.291398 0.677324 0.496135
O O15 0.541015 0.773589 0.648642
O O16 0.987593 0.999089 0.165970
#
# Coordination Sequence:
#
# PCOD9135469 Si02
#       8
#     4   4   4   4   4   4   4   4
#     4  10  22  39  67  94 126 175 215 268 334 389
#     4  10  20  40  66  93 123 174 217 261 336 389
#     4  11  21  42  67  94 130 169 222 275 324 407
#     4  10  22  44  67  91 138 169 219 279 327 400
#     4  11  24  41  64  97 133 176 217 279 337 395
#     4  11  20  39  73  91 122 174 227 265 338 402
#     4  10  21  41  66  91 126 170 216 273 330 394
#     4  11  24  44  62  93 142 167 213 286 330 390
#
# _framework density 22.839950999999999
#
# number of rings (size 3 to 8) (size 9 to 14) (size 15 to 20)
#    0.000    1.500    2.500    3.750    0.000    5.000 
#    6.750    1.250    0.000    0.000    0.000    0.000 
#    0.000    0.000    0.000    0.000    0.000    0.000 
#
# Total GULP energy -89283.342422 kJ/mol
# GULP energy per Si atom -5580.208901 kJ/mol
# Density = 2.278797 g / cm^3
# Si number density = 22.839951 Si / 1000 Ang^3
#
#
#
# Elastic Constant Matrix: (Units=GPa)
#
#
# Indices 1 2 3 4 5 6 
#
# 1 93.7860 -1.7462 64.1317 0.0000 -17.5442 0.0000
# 2 -1.7462 35.7531 15.0081 0.0000 -9.8604 0.0000
# 3 64.1317 15.0081 194.1218 0.0000 13.3486 0.0000
# 4 0.0000 0.0000 0.0000 32.6152 0.0000 -2.5629
# 5 -17.5442 -9.8604 13.3486 0.0000 36.7618 0.0000
# 6 0.0000 0.0000 0.0000 -2.5629 0.0000 32.6681
#
#
#
# Elastic Compliance Matrix: (Units=1/GPa)
#
#
# Indices 1 2 3 4 5 6 
#
# 1 0.018715 0.008002 -0.007757 0.000000 0.013895 0.000000
# 2 0.008002 0.035388 -0.006456 0.000000 0.015655 0.000000
# 3 -0.007757 -0.006456 0.008807 0.000000 -0.008631 0.000000
# 4 0.000000 0.000000 0.000000 0.030851 0.000000 0.002420
# 5 0.013895 0.015655 -0.008631 0.000000 0.041166 0.000000
# 6 0.000000 0.000000 0.000000 0.002420 0.000000 0.030801
#
#
# Mechanical properties :
#
#
# Convention : Reuss Voigt Hill
#
# Bulk Modulus (GPa) = 19.80666 53.16090 36.48378
# Shear Modulus (GPa) = 25.64378 36.82685 31.23532
#
# Velocity S-wave (km/s) = 3.35440 4.01981 3.70208
# Velocity P-wave (km/s) = 4.86759 6.69859 5.85510
#
# Compressibility (1/GPa) = 0.05048808
#
# Stress axis : x y z
#
# Youngs Moduli (GPa) = 53.43289 28.25809 113.54934
#
# Poissons Ratio (x) = -0.22613 0.88080
# Poissons Ratio (y) = -0.42758 0.73309
# Poissons Ratio (z) = 0.41448 0.18244
#
# Static dielectric constant tensor:
#      x y z
#    x 1.793070 0.000000 -0.001660 
#    y 0.000000 1.917190 0.000000 
#    z -0.001660 0.000000 1.937520 
# 
# From -- ./inp_files/31856.got.cif
#   From: 2010.05.17/outbox.cif.g08.bks.cpg/sg9_16_cif.got.tgz:31856.got - 2010.06.03 20:04:27.
