data_PCOD9135247
_publ_section_title
;
Structure prediction by ZEFSAII (Michael W. Deem and Ramdas Pophale) SiO2 
 PCOD9135247
Probable space group: C C
;
_chemical_formula_sum "Si O2"
_cell_formula_units_Z 32
_cell_length_a 15.971143
_cell_length_b 12.488190
_cell_length_c 11.176701
_cell_angle_alpha 90.000000
_cell_angle_beta 35.271128
_cell_angle_gamma 90.000000
_cell_volume 1287.243549
_symmetry_space_group_name_H-M "C C"
_symmetry_group_IT_number 9
_symmetry_cell_setting 'monoclinic'
loop_
_space_group_symop_operation_xyz
x,y,z
x,-y,1/2+z
1/2+x,1/2+y,z
1/2+x,1/2-y,1/2+z
loop_
_atom_site_type_symbol
_atom_site_label
_atom_site_fract_x
_atom_site_fract_y
_atom_site_fract_z
Si Si1 0.045250 0.682217 0.500000
Si Si2 0.407286 0.675191 0.359503
Si Si3 0.810736 0.150255 0.038212
Si Si4 0.499204 0.332149 0.119979
Si Si5 0.528995 0.502249 0.403159
Si Si6 0.644616 0.024532 0.586166
Si Si7 0.356381 0.961351 0.067668
Si Si8 0.312925 0.188272 0.174748
O O1 0.179502 0.708474 0.256180
O O2 0.101417 0.578221 0.510229
O O3 0.996819 0.779001 0.642474
O O4 0.909263 0.640661 0.580794
O O5 0.502370 0.597686 0.335873
O O6 0.254988 0.615077 0.510594
O O7 0.359195 0.782031 0.487203
O O8 0.738563 0.080725 0.013523
O O9 0.949322 0.199918 0.809441
O O10 0.895628 0.075469 0.032629
O O11 0.390593 0.272290 0.163710
O O12 0.508310 0.454771 0.063384
O O13 0.649795 0.289850 0.897693
O O14 0.694352 0.459688 0.199760
O O15 0.490057 0.993657 0.825720
O O16 0.347143 0.066057 0.163489
#
# Coordination Sequence:
#
# PCOD9135247 Si02
#       8
#     4   4   4   4   4   4   4   4
#     4  11  23  39  65  99 135 171 220 281 343 403
#     4  10  21  40  69  98 125 172 230 278 331 401
#     4  10  22  42  62  94 130 178 217 270 347 399
#     4  10  21  39  64  90 120 168 218 264 317 404
#     4   9  21  41  68  97 128 171 227 279 329 407
#     4  10  21  39  65  91 132 173 219 276 334 411
#     4  10  21  38  66 101 127 165 220 282 340 390
#     4  10  20  38  65  90 121 162 219 268 319 389
#
# _framework density 24.85932
#
# number of rings (size 3 to 8) (size 9 to 14) (size 15 to 20)
#    0.000    2.000    1.250    1.500    3.500    5.000 
#    2.250    3.750    0.000    0.000    0.000    0.000 
#    0.000    0.000    0.000    0.000    0.000    0.000 
#
# Total GULP energy -89274.114613 kJ/mol
# GULP energy per Si atom -5579.632163 kJ/mol
# Density = 2.480274 g / cm^3
# Si number density = 24.859320 Si / 1000 Ang^3
#
#
#
# Elastic Constant Matrix: (Units=GPa)
#
#
# Indices 1 2 3 4 5 6 
#
# 1 104.6046 30.8617 53.7380 0.0000 -21.4443 0.0000
# 2 30.8617 73.0961 51.1422 0.0000 -4.8533 0.0000
# 3 53.7380 51.1422 179.3780 0.0000 -19.9789 0.0000
# 4 0.0000 0.0000 0.0000 13.7236 0.0000 2.4290
# 5 -21.4443 -4.8533 -19.9789 0.0000 45.0094 0.0000
# 6 0.0000 0.0000 0.0000 2.4290 0.0000 34.7564
#
#
#
# Elastic Compliance Matrix: (Units=1/GPa)
#
#
# Indices 1 2 3 4 5 6 
#
# 1 0.012718 -0.003445 -0.002309 0.000000 0.004663 0.000000
# 2 -0.003445 0.018028 -0.004286 0.000000 -0.001600 0.000000
# 3 -0.002309 -0.004286 0.007695 0.000000 0.001854 0.000000
# 4 0.000000 0.000000 0.000000 0.073780 0.000000 -0.005156
# 5 0.004663 -0.001600 0.001854 0.000000 0.025090 0.000000
# 6 0.000000 0.000000 0.000000 -0.005156 0.000000 0.029132
#
#
# Mechanical properties :
#
#
# Convention : Reuss Voigt Hill
#
# Bulk Modulus (GPa) = 54.46118 69.84027 62.15073
# Shear Modulus (GPa) = 25.95499 33.45367 29.70433
#
# Velocity S-wave (km/s) = 3.23472 3.67238 3.46048
# Velocity P-wave (km/s) = 5.99221 6.79243 6.40483
#
# Compressibility (1/GPa) = 0.01836170
#
# Stress axis : x y z
#
# Youngs Moduli (GPa) = 78.62822 55.47064 129.95734
#
# Poissons Ratio (x) = 0.19109 0.30001
# Poissons Ratio (y) = 0.27086 0.55700
# Poissons Ratio (z) = 0.18152 0.23775
#
# Static dielectric constant tensor:
#      x y z
#    x 2.008580 0.000000 0.146970 
#    y 0.000000 2.089770 0.000000 
#    z 0.146970 0.000000 2.200970 
# 
# From -- ./inp_files/7542.got.cif
#   From: 2010.05.17/outbox.cif.g08.bks.cpg/sg9_4_cif.got.tgz:7542.got - 2010.06.03 20:04:27.
