data_PCOD9135792
_publ_section_title
;
Structure prediction by ZEFSAII (Michael W. Deem and Ramdas Pophale) SiO2 
 PCOD9135792
Probable space group: C C
;
_chemical_formula_sum "Si O2"
_cell_formula_units_Z 32
_cell_length_a 17.277853
_cell_length_b 12.525261
_cell_length_c 9.048097
_cell_angle_alpha 90.000000
_cell_angle_beta 44.640166
_cell_angle_gamma 90.000000
_cell_volume 1375.859583
_symmetry_space_group_name_H-M "C C"
_symmetry_group_IT_number 9
_symmetry_cell_setting 'monoclinic'
loop_
_space_group_symop_operation_xyz
x,y,z
x,-y,1/2+z
1/2+x,1/2+y,z
1/2+x,1/2-y,1/2+z
loop_
_atom_site_type_symbol
_atom_site_label
_atom_site_fract_x
_atom_site_fract_y
_atom_site_fract_z
Si Si1 0.658700 0.070902 0.505830
Si Si2 0.789310 0.305114 0.065313
Si Si3 0.781617 0.928496 0.546929
Si Si4 0.958520 0.437488 0.663410
Si Si5 0.476256 0.787937 0.371319
Si Si6 0.304690 0.145830 0.879195
Si Si7 0.124775 0.975276 0.159886
Si Si8 0.997312 0.082951 0.555865
O O1 0.757859 0.072915 0.253665
O O2 0.586051 0.178827 0.628518
O O3 0.708713 0.025544 0.587343
O O4 0.573600 0.980669 0.565189
O O5 0.748268 0.193773 0.053976
O O6 0.803035 0.300549 0.222041
O O7 0.702446 0.394816 0.140726
O O8 0.903917 0.346554 0.839785
O O9 0.895512 0.935456 0.303320
O O10 0.881357 0.540934 0.765513
O O11 0.961432 0.391056 0.495541
O O12 0.367784 0.781663 0.414561
O O13 0.486570 0.689908 0.471607
O O14 0.186781 0.090330 0.070730
O O15 0.017167 0.992483 0.406062
O O16 0.099310 0.928761 0.032438
#
# Coordination Sequence:
#
# PCOD9135792 Si02
#       8
#     4   4   4   4   4   4   4   4
#     4  11  25  46  72 100 144 184 238 294 360 425
#     4  11  24  43  73 108 136 187 241 302 358 436
#     4  12  27  46  67 102 144 193 233 291 357 434
#     4  10  20  44  72 104 134 181 239 311 350 413
#     4  11  24  45  76 108 140 184 245 306 360 430
#     4  10  22  44  74 106 140 181 247 301 360 423
#     4  11  25  47  76 103 152 190 245 301 370 437
#     4  12  27  49  68 109 148 200 238 300 367 436
#
# _framework density 23.258188000000001
#
# number of rings (size 3 to 8) (size 9 to 14) (size 15 to 20)
#    0.000    1.000    3.750    3.000    7.000    0.000 
#    6.750    0.000    0.000    0.000    0.000    0.000 
#    0.000    0.000    0.000    0.000    0.000    0.000 
#
# Total GULP energy -89327.824318 kJ/mol
# GULP energy per Si atom -5582.989020 kJ/mol
# Density = 2.320525 g / cm^3
# Si number density = 23.258188 Si / 1000 Ang^3
#
#
#
# Elastic Constant Matrix: (Units=GPa)
#
#
# Indices 1 2 3 4 5 6 
#
# 1 112.7678 48.9401 48.2334 0.0000 27.4917 0.0000
# 2 48.9401 47.2066 13.6239 0.0000 -0.5338 0.0000
# 3 48.2334 13.6239 141.8537 0.0000 6.3390 0.0000
# 4 0.0000 0.0000 0.0000 37.1784 0.0000 12.2866
# 5 27.4917 -0.5338 6.3390 0.0000 36.5934 0.0000
# 6 0.0000 0.0000 0.0000 12.2866 0.0000 13.6317
#
#
#
# Elastic Compliance Matrix: (Units=1/GPa)
#
#
# Indices 1 2 3 4 5 6 
#
# 1 0.029131 -0.028650 -0.006205 0.000000 -0.021228 0.000000
# 2 -0.028650 0.049981 0.003978 0.000000 0.021564 0.000000
# 3 -0.006205 0.003978 0.008633 0.000000 0.003224 0.000000
# 4 0.000000 0.000000 0.000000 0.038308 0.000000 -0.034528
# 5 -0.021228 0.021564 0.003224 0.000000 0.043032 0.000000
# 6 0.000000 0.000000 0.000000 -0.034528 0.000000 0.104479
#
#
# Mechanical properties :
#
#
# Convention : Reuss Voigt Hill
#
# Bulk Modulus (GPa) = 38.47462 58.15807 48.31635
# Shear Modulus (GPa) = 14.53564 30.21607 22.37585
#
# Velocity S-wave (km/s) = 2.50265 3.60829 3.10508
# Velocity P-wave (km/s) = 4.99293 6.51302 5.80296
#
# Compressibility (1/GPa) = 0.02599116
#
# Stress axis : x y z
#
# Youngs Moduli (GPa) = 34.32803 20.00751 115.83159
#
# Poissons Ratio (x) = 0.57321 0.71872
# Poissons Ratio (y) = 0.98349 -0.46074
# Poissons Ratio (z) = 0.21300 -0.07958
#
# Static dielectric constant tensor:
#      x y z
#    x 1.900180 0.000000 -0.056220 
#    y 0.000000 1.879610 0.000000 
#    z -0.056220 0.000000 1.925510 
# 
# From -- ./inp_files/10865.got.cif
#   From: 2010.05.17/outbox.cif.g08.bks.cpg/sg9_6_cif.got.tgz:10865.got - 2010.06.03 20:04:27.
