data_PCOD9135274
_publ_section_title
;
Structure prediction by ZEFSAII (Michael W. Deem and Ramdas Pophale) SiO2 
 PCOD9135274
Probable space group: C C
;
_chemical_formula_sum "Si O2"
_cell_formula_units_Z 28
_cell_length_a 20.758241
_cell_length_b 5.982622
_cell_length_c 18.430618
_cell_angle_alpha 90.000000
_cell_angle_beta 152.137699
_cell_angle_gamma 90.000000
_cell_volume 1069.701499
_symmetry_space_group_name_H-M "C C"
_symmetry_group_IT_number 9
_symmetry_cell_setting 'monoclinic'
loop_
_space_group_symop_operation_xyz
x,y,z
x,-y,1/2+z
1/2+x,1/2+y,z
1/2+x,1/2-y,1/2+z
loop_
_atom_site_type_symbol
_atom_site_label
_atom_site_fract_x
_atom_site_fract_y
_atom_site_fract_z
Si Si1 0.381630 0.809258 0.785930
Si Si2 0.185242 0.514250 0.759428
Si Si3 0.234360 0.102758 0.532236
Si Si4 0.346671 0.536647 0.624687
Si Si5 0.095244 0.755767 0.302841
Si Si6 0.582754 0.787127 0.519080
Si Si7 0.467867 0.606077 0.009884
O O1 0.413639 0.586730 0.771301
O O2 0.371812 0.754793 0.860010
O O3 0.265657 0.889605 0.615177
O O4 0.474340 0.028028 0.885114
O O5 0.113435 0.331274 0.739989
O O6 0.181388 0.413641 0.674493
O O7 0.346122 0.532171 0.942702
O O8 0.088932 0.736676 0.661625
O O9 0.354408 0.268019 0.624414
O O10 0.160144 0.238972 0.521805
O O11 0.155745 0.998627 0.385660
O O12 0.188722 0.582475 0.441894
O O13 0.437807 0.712996 0.669341
O O14 0.528184 0.583267 0.515639
#
# Coordination Sequence:
#
# PCOD9135274 Si02
#       7
#     4   4   4   4   4   4   4
#     4  10  20  38  68 108 142 181 243 311 378 443
#     4  11  27  48  73 109 152 203 256 316 387 467
#     4  11  22  42  74 110 149 196 252 310 384 455
#     4  11  24  46  73 105 149 199 256 313 385 457
#     4  11  27  48  71 104 154 201 257 314 379 463
#     4  11  22  40  76 112 153 190 247 311 392 458
#     4  11  24  46  75 110 149 196 255 317 391 461
#
# _framework density 26.175526000000001
#
# number of rings (size 3 to 8) (size 9 to 14) (size 15 to 20)
#    0.000    1.143    0.000    6.000    2.000    8.000 
#    5.143    0.000    0.000    0.000    0.000    0.000 
#    0.000    0.000    0.000    0.000    0.000    0.000 
#
# Total GULP energy -78018.624619 kJ/mol
# GULP energy per Si atom -5572.758901 kJ/mol
# Density = 2.611595 g / cm^3
# Si number density = 26.175526 Si / 1000 Ang^3
#
#
#
# Elastic Constant Matrix: (Units=GPa)
#
#
# Indices 1 2 3 4 5 6 
#
# 1 65.1795 -1.5665 20.1301 0.0000 0.4777 0.0000
# 2 -1.5665 46.6332 12.6998 -0.0001 -2.2226 0.0000
# 3 20.1301 12.6998 80.7400 0.0000 -6.7774 0.0000
# 4 0.0000 -0.0001 0.0000 61.0179 0.0000 -5.0884
# 5 0.4777 -2.2226 -6.7774 0.0000 47.6734 0.0000
# 6 0.0000 0.0000 0.0000 -5.0884 0.0000 44.6927
#
#
#
# Elastic Compliance Matrix: (Units=1/GPa)
#
#
# Indices 1 2 3 4 5 6 
#
# 1 0.016787 0.001761 -0.004524 0.000000 -0.000729 0.000000
# 2 0.001761 0.022603 -0.003954 0.000000 0.000474 0.000000
# 3 -0.004524 -0.003954 0.014294 0.000000 0.001893 0.000000
# 4 0.000000 0.000000 0.000000 0.016546 0.000000 0.001884
# 5 -0.000729 0.000474 0.001893 0.000000 0.021275 0.000000
# 6 0.000000 0.000000 0.000000 0.001884 0.000000 0.022589
#
#
# Mechanical properties :
#
#
# Convention : Reuss Voigt Hill
#
# Bulk Modulus (GPa) = 24.84485 28.34216 26.59350
# Shear Modulus (GPa) = 35.47505 41.42942 38.45224
#
# Velocity S-wave (km/s) = 3.68540 3.98270 3.83693
# Velocity P-wave (km/s) = 5.25565 5.65689 5.45996
#
# Compressibility (1/GPa) = 0.04024980
#
# Stress axis : x y z
#
# Youngs Moduli (GPa) = 59.57003 44.24263 69.95864
#
# Poissons Ratio (x) = -0.07791 0.31646
# Poissons Ratio (y) = -0.10491 0.27665
# Poissons Ratio (z) = 0.26947 0.17496
#
# Static dielectric constant tensor:
#      x y z
#    x 2.421570 0.000000 0.066400 
#    y 0.000000 2.393550 0.000000 
#    z 0.066400 0.000000 2.143420 
# 
# From -- ./inp_files/34424.got.cif
#   From: 2010.05.17/outbox.cif.g08.bks.cpg/sg9_18_cif.got.tgz:34424.got - 2010.06.03 20:04:27.
