data_PCOD9135433
_publ_section_title
;
Structure prediction by ZEFSAII (Michael W. Deem and Ramdas Pophale) SiO2 
 PCOD9135433
Probable space group: C C
;
_chemical_formula_sum "Si O2"
_cell_formula_units_Z 28
_cell_length_a 5.316200
_cell_length_b 28.172353
_cell_length_c 7.396180
_cell_angle_alpha 90.000000
_cell_angle_beta 72.782296
_cell_angle_gamma 90.000000
_cell_volume 1058.084330
_symmetry_space_group_name_H-M "C C"
_symmetry_group_IT_number 9
_symmetry_cell_setting 'monoclinic'
loop_
_space_group_symop_operation_xyz
x,y,z
x,-y,1/2+z
1/2+x,1/2+y,z
1/2+x,1/2-y,1/2+z
loop_
_atom_site_type_symbol
_atom_site_label
_atom_site_fract_x
_atom_site_fract_y
_atom_site_fract_z
Si Si1 0.280320 0.301035 0.191870
Si Si2 0.454512 0.259372 0.507469
Si Si3 0.351505 0.561192 0.084460
Si Si4 0.924543 0.438593 0.001971
Si Si5 0.102314 0.658958 0.062258
Si Si6 0.733090 0.656939 0.446686
Si Si7 0.639333 0.505120 0.288302
O O1 0.483647 0.286145 0.309341
O O2 0.057098 0.323031 0.368184
O O3 0.181171 0.256698 0.096302
O O4 0.421774 0.339666 0.038276
O O5 0.256518 0.298430 0.634074
O O6 0.326964 0.209670 0.475364
O O7 0.291233 0.613509 0.027359
O O8 0.612884 0.543333 0.131764
O O9 0.148693 0.556361 0.299606
O O10 0.390815 0.528205 0.897359
O O11 0.864459 0.383371 0.041544
O O12 0.672707 0.459770 0.949783
O O13 0.890917 0.471055 0.187254
O O14 0.836594 0.647483 0.223913
#
# Coordination Sequence:
#
# PCOD9135433 Si02
#       7
#     4   4   4   4   4   4   4
#     4  10  24  46  64  97 135 179 229 290 337 407
#     4  10  24  45  66  96 140 178 234 286 341 407
#     4  10  20  40  63  92 133 170 221 277 341 397
#     4  10  22  38  63  95 131 170 226 276 339 405
#     4   9  23  44  67  99 131 183 229 284 345 413
#     4  11  22  43  66  99 131 183 229 287 343 411
#     4  10  21  38  63  94 129 177 218 284 334 402
#
# _framework density 26.462917999999998
#
# number of rings (size 3 to 8) (size 9 to 14) (size 15 to 20)
#    0.857    1.143    0.000    2.571    0.000    5.714 
#    2.571    8.571    0.000    0.000    0.000    0.000 
#    0.000    0.000    0.000    0.000    0.000    0.000 
#
# Total GULP energy -77964.972825 kJ/mol
# GULP energy per Si atom -5568.926630 kJ/mol
# Density = 2.640269 g / cm^3
# Si number density = 26.462918 Si / 1000 Ang^3
#
#
#
# Elastic Constant Matrix: (Units=GPa)
#
#
# Indices 1 2 3 4 5 6 
#
# 1 44.2460 6.5729 38.3806 0.0000 -3.8947 0.0000
# 2 6.5729 109.2443 12.3959 0.0000 -6.8033 0.0000
# 3 38.3806 12.3959 120.5770 0.0000 -23.1841 0.0000
# 4 0.0000 0.0000 0.0000 34.8090 0.0000 -7.5597
# 5 -3.8947 -6.8033 -23.1841 0.0000 45.4658 0.0000
# 6 0.0000 0.0000 0.0000 -7.5597 0.0000 19.3384
#
#
#
# Elastic Compliance Matrix: (Units=1/GPa)
#
#
# Indices 1 2 3 4 5 6 
#
# 1 0.031596 -0.000883 -0.010501 0.000000 -0.002780 0.000000
# 2 -0.000883 0.009328 -0.000470 0.000000 0.001080 0.000000
# 3 -0.010501 -0.000470 0.012748 0.000000 0.005530 0.000000
# 4 0.000000 0.000000 0.000000 0.031394 0.000000 0.012272
# 5 -0.002780 0.001080 0.005530 0.000000 0.024738 0.000000
# 6 0.000000 0.000000 0.000000 0.012272 0.000000 0.056508
#
#
# Mechanical properties :
#
#
# Convention : Reuss Voigt Hill
#
# Bulk Modulus (GPa) = 33.37385 43.19623 38.28504
# Shear Modulus (GPa) = 24.99905 34.37049 29.68477
#
# Velocity S-wave (km/s) = 3.07690 3.60782 3.35289
# Velocity P-wave (km/s) = 5.02614 5.80637 5.43028
#
# Compressibility (1/GPa) = 0.02996357
#
# Stress axis : x y z
#
# Youngs Moduli (GPa) = 31.64912 107.20936 78.44488
#
# Poissons Ratio (x) = 0.09463 0.82377
# Poissons Ratio (y) = 0.02793 0.03689
# Poissons Ratio (z) = 0.33235 0.05041
#
# Static dielectric constant tensor:
#      x y z
#    x 2.291520 0.000000 -0.051010 
#    y 0.000000 2.016560 0.000000 
#    z -0.051010 0.000000 2.327180 
# 
# From -- ./inp_files/4118.got.cif
#   From: 2010.05.17/outbox.cif.g08.bks.cpg/sg9_3_cif.got.tgz:4118.got - 2010.06.03 20:04:27.
