data_PCOD9135127
_publ_section_title
;
Structure prediction by ZEFSAII (Michael W. Deem and Ramdas Pophale) SiO2 
 PCOD9135127
Probable space group: C C
;
_chemical_formula_sum "Si O2"
_cell_formula_units_Z 32
_cell_length_a 22.728299
_cell_length_b 5.722805
_cell_length_c 10.550658
_cell_angle_alpha 90.000000
_cell_angle_beta 80.198136
_cell_angle_gamma 90.000000
_cell_volume 1352.287476
_symmetry_space_group_name_H-M "C C"
_symmetry_group_IT_number 9
_symmetry_cell_setting 'monoclinic'
loop_
_space_group_symop_operation_xyz
x,y,z
x,-y,1/2+z
1/2+x,1/2+y,z
1/2+x,1/2-y,1/2+z
loop_
_atom_site_type_symbol
_atom_site_label
_atom_site_fract_x
_atom_site_fract_y
_atom_site_fract_z
Si Si1 0.148130 0.096640 0.540450
Si Si2 0.731831 0.248987 0.648223
Si Si3 0.759817 0.751013 0.391423
Si Si4 0.874153 0.034202 0.306440
Si Si5 0.117494 0.465798 0.733206
Si Si6 0.925580 0.216442 0.036106
Si Si7 0.566068 0.783558 0.003539
Si Si8 0.843517 0.403360 0.499196
O O1 0.194133 0.292250 0.471248
O O2 0.117380 0.207291 0.673575
O O3 0.192904 0.890236 0.563087
O O4 0.099517 0.966414 0.474080
O O5 0.745823 0.397848 0.769823
O O6 0.797514 0.207750 0.568398
O O7 0.686765 0.049369 0.712324
O O8 0.804882 0.950631 0.327322
O O9 0.798743 0.609765 0.476558
O O10 0.907656 0.881000 0.402632
O O11 0.903337 0.046610 0.157373
O O12 0.874267 0.292710 0.366070
O O13 0.083991 0.619001 0.637014
O O14 0.088310 0.453390 0.882273
O O15 0.995824 0.250000 0.019823
O O16 0.892130 0.466414 0.065565
#
# Coordination Sequence:
#
# PCOD9135127 Si02
#       8
#     4   4   4   4   4   4   4   4
#     4  10  22  40  66  98 136 182 226 282 348 411
#     4  10  20  37  64 100 136 172 225 282 350 412
#     4  10  20  37  64 100 136 172 225 282 350 412
#     4  11  24  44  68  98 138 180 231 287 348 413
#     4  11  24  44  68  98 138 180 231 287 348 413
#     4  11  27  45  68 101 137 187 238 284 345 414
#     4  11  27  45  68 101 137 187 238 284 345 414
#     4  10  22  40  66  98 136 182 226 282 348 411
#
# _framework density 23.663608
#
# number of rings (size 3 to 8) (size 9 to 14) (size 15 to 20)
#    0.000    1.500    0.000    3.750    3.500    8.000 
#    0.000    0.000    0.000    0.000    0.000    0.000 
#    0.000    0.000    0.000    0.000    0.000    0.000 
#
# Total GULP energy -89235.025310 kJ/mol
# GULP energy per Si atom -5577.189082 kJ/mol
# Density = 2.360975 g / cm^3
# Si number density = 23.663608 Si / 1000 Ang^3
#
#
#
# Elastic Constant Matrix: (Units=GPa)
#
#
# Indices 1 2 3 4 5 6 
#
# 1 194.6523 44.2979 62.1651 0.0000 -12.7631 0.0000
# 2 44.2979 60.8117 25.5391 0.0000 -7.7157 0.0000
# 3 62.1651 25.5391 122.4796 0.0000 -1.8391 0.0000
# 4 0.0000 0.0000 0.0000 37.4920 0.0000 4.7581
# 5 -12.7631 -7.7157 -1.8391 0.0000 27.9207 0.0000
# 6 0.0000 0.0000 0.0000 4.7581 0.0000 31.0381
#
#
#
# Elastic Compliance Matrix: (Units=1/GPa)
#
#
# Indices 1 2 3 4 5 6 
#
# 1 0.006983 -0.003680 -0.002747 0.000000 0.001994 0.000000
# 2 -0.003680 0.020610 -0.002372 0.000000 0.003857 0.000000
# 3 -0.002747 -0.002372 0.010035 0.000000 -0.001250 0.000000
# 4 0.000000 0.000000 0.000000 0.027202 0.000000 -0.004170
# 5 0.001994 0.003857 -0.001250 0.000000 0.037711 0.000000
# 6 0.000000 0.000000 0.000000 -0.004170 0.000000 0.032858
#
#
# Mechanical properties :
#
#
# Convention : Reuss Voigt Hill
#
# Bulk Modulus (GPa) = 49.92442 71.32754 60.62598
# Shear Modulus (GPa) = 31.31413 35.68625 33.50019
#
# Velocity S-wave (km/s) = 3.64167 3.88759 3.76664
# Velocity P-wave (km/s) = 6.23103 7.09640 6.67775
#
# Compressibility (1/GPa) = 0.02003028
#
# Stress axis : x y z
#
# Youngs Moduli (GPa) = 143.20807 48.51928 99.65480
#
# Poissons Ratio (x) = 0.17855 0.27374
# Poissons Ratio (y) = 0.52700 0.23637
# Poissons Ratio (z) = 0.39338 0.11508
#
# Static dielectric constant tensor:
#      x y z
#    x 1.871870 0.000000 0.027660 
#    y 0.000000 1.974810 0.000000 
#    z 0.027660 0.000000 2.009830 
# 
# From -- ./inp_files/19786.got.cif
#   From: 2010.05.17/outbox.cif.g08.bks.cpg/sg9_10_cif.got.tgz:19786.got - 2010.06.03 20:04:27.
