data_PCOD9135114
_publ_section_title
;
Structure prediction by ZEFSAII (Michael W. Deem and Ramdas Pophale) SiO2 
 PCOD9135114
Probable space group: C C
;
_chemical_formula_sum "Si O2"
_cell_formula_units_Z 32
_cell_length_a 28.893341
_cell_length_b 12.216185
_cell_length_c 23.566608
_cell_angle_alpha 90.000000
_cell_angle_beta 168.439327
_cell_angle_gamma 90.000000
_cell_volume 1667.017253
_symmetry_space_group_name_H-M "C C"
_symmetry_group_IT_number 9
_symmetry_cell_setting 'monoclinic'
loop_
_space_group_symop_operation_xyz
x,y,z
x,-y,1/2+z
1/2+x,1/2+y,z
1/2+x,1/2-y,1/2+z
loop_
_atom_site_type_symbol
_atom_site_label
_atom_site_fract_x
_atom_site_fract_y
_atom_site_fract_z
Si Si1 0.343210 0.027927 0.750000
Si Si2 0.525172 0.549829 0.155231
Si Si3 0.537363 0.164271 0.554532
Si Si4 0.749301 0.849283 0.789453
Si Si5 0.195731 0.101050 0.238315
Si Si6 0.399952 0.885046 0.192731
Si Si7 0.877612 0.145103 0.213643
Si Si8 0.051629 0.136413 0.543714
O O1 0.419648 0.054648 0.777288
O O2 0.074536 0.061376 0.429901
O O3 0.490402 0.103023 0.971650
O O4 0.409643 0.907536 0.852792
O O5 0.688107 0.568574 0.295567
O O6 0.672150 0.576233 0.386672
O O7 0.303279 0.626973 0.878526
O O8 0.410983 0.429019 0.019926
O O9 0.425189 0.136466 0.480814
O O10 0.530697 0.293417 0.534186
O O11 0.741821 0.721621 0.794966
O O12 0.854481 0.861970 0.853469
O O13 0.118586 0.988942 0.115854
O O14 0.624702 0.902389 0.422954
O O15 0.378061 0.754199 0.176563
O O16 0.961204 0.183178 0.376312
#
# Coordination Sequence:
#
# PCOD9135114 Si02
#       8
#     4   4   4   4   4   4   4   4
#     4  11  22  38  61  94 123 167 206 265 321 364
#     4  10  26  40  58  93 132 176 199 260 325 384
#     4  11  23  40  64  90 130 167 219 259 317 374
#     4  10  20  37  62  93 124 156 211 266 315 366
#     4  11  23  38  64  94 123 166 215 262 314 370
#     4  12  24  37  58  96 138 162 212 255 327 386
#     4  12  21  34  62  96 126 162 204 272 316 364
#     4  11  19  36  63  98 120 150 216 271 313 356
#
# _framework density 19.195961
#
# number of rings (size 3 to 8) (size 9 to 14) (size 15 to 20)
#    0.000    1.000    6.250    0.750    3.500    1.000 
#    0.000    0.000    0.000    6.000    0.000    0.000 
#    0.000    0.000    0.000    0.000    0.000    0.000 
#
# Total GULP energy -89228.302522 kJ/mol
# GULP energy per Si atom -5576.768908 kJ/mol
# Density = 1.915227 g / cm^3
# Si number density = 19.195961 Si / 1000 Ang^3
#
#
#
# Elastic Constant Matrix: (Units=GPa)
#
#
# Indices 1 2 3 4 5 6 
#
# 1 53.2061 11.8123 43.3671 0.0016 7.8975 -0.0130
# 2 11.8123 136.6471 50.6864 0.0074 -10.2579 -0.0022
# 3 43.3671 50.6864 106.3503 0.0186 3.0785 0.0014
# 4 0.0016 0.0074 0.0186 22.8401 0.0024 4.4321
# 5 7.8975 -10.2579 3.0785 0.0024 38.8148 0.0046
# 6 -0.0130 -0.0022 0.0014 4.4321 0.0046 20.1105
#
#
#
# Elastic Compliance Matrix: (Units=1/GPa)
#
#
# Indices 1 2 3 4 5 6 
#
# 1 0.029453 0.001851 -0.012762 0.000004 -0.004491 0.000020
# 2 0.001851 0.009296 -0.005257 0.000001 0.002497 0.000002
# 3 -0.012762 -0.005257 0.017117 -0.000010 -0.000150 -0.000008
# 4 0.000004 0.000001 -0.000010 0.045739 -0.000002 -0.010080
# 5 -0.004491 0.002497 -0.000150 -0.000002 0.027349 -0.000009
# 6 0.000020 0.000002 -0.000008 -0.010080 -0.000009 0.051947
#
#
# Mechanical properties :
#
#
# Convention : Reuss Voigt Hill
#
# Bulk Modulus (GPa) = 42.50262 56.43722 49.46992
# Shear Modulus (GPa) = 22.61626 29.04226 25.82926
#
# Velocity S-wave (km/s) = 3.43618 3.89387 3.67216
# Velocity P-wave (km/s) = 6.15895 7.04845 6.61866
#
# Compressibility (1/GPa) = 0.02352796
#
# Stress axis : x y z
#
# Youngs Moduli (GPa) = 33.95264 107.57703 58.42166
#
# Poissons Ratio (x) = -0.19909 0.74559
# Poissons Ratio (y) = -0.06284 0.30714
# Poissons Ratio (z) = 0.43331 0.56556
#
# Static dielectric constant tensor:
#      x y z
#    x 1.696520 -0.000010 0.051030 
#    y -0.000010 1.718590 0.000010 
#    z 0.051030 0.000010 1.693620 
# 
# From -- ./inp_files/31337.got.cif
#   From: 2010.05.17/outbox.cif.g08.bks.cpg/sg9_16_cif.got.tgz:31337.got - 2010.06.03 20:04:27.
