data_PCOD9135839
_publ_section_title
;
Structure prediction by ZEFSAII (Michael W. Deem and Ramdas Pophale) SiO2 
 PCOD9135839
Probable space group: C C
;
_chemical_formula_sum "Si O2"
_cell_formula_units_Z 20
_cell_length_a 6.817519
_cell_length_b 22.535269
_cell_length_c 9.385018
_cell_angle_alpha 90.000000
_cell_angle_beta 34.034180
_cell_angle_gamma 90.000000
_cell_volume 806.992911
_symmetry_space_group_name_H-M "C C"
_symmetry_group_IT_number 9
_symmetry_cell_setting 'monoclinic'
loop_
_space_group_symop_operation_xyz
x,y,z
x,-y,1/2+z
1/2+x,1/2+y,z
1/2+x,1/2-y,1/2+z
loop_
_atom_site_type_symbol
_atom_site_label
_atom_site_fract_x
_atom_site_fract_y
_atom_site_fract_z
Si Si1 0.677140 0.084939 0.282750
Si Si2 0.970137 0.096986 0.404069
Si Si3 0.909223 0.457264 0.418376
Si Si4 0.688158 0.277503 0.669528
Si Si5 0.608323 0.216828 0.266369
O O1 0.673660 0.093499 0.456271
O O2 0.564042 0.146060 0.279424
O O3 0.471491 0.026653 0.361697
O O4 0.090327 0.069577 0.017441
O O5 0.764444 0.077381 0.667125
O O6 0.127515 0.162118 0.291942
O O7 0.271566 0.053743 0.161899
O O8 0.402578 0.277920 0.713634
O O9 0.048613 0.271330 0.365878
O O10 0.274509 0.251484 0.529360
#
# Coordination Sequence:
#
# PCOD9135839 Si02
#       5
#     4   4   4   4   4
#     4   9  22  34  53  78 107 133 172 207 258 304
#     4   9  20  31  48  75 104 133 166 207 250 304
#     4  10  21  32  52  72 110 135 168 208 252 308
#     4   9  15  25  44  68  99 127 157 206 257 291
#     4   9  18  28  49  73 100 126 163 214 255 289
#
# _framework density 24.783365
#
# number of rings (size 3 to 8) (size 9 to 14) (size 15 to 20)
#    1.200    1.600    0.000    1.200   11.200    0.000 
#    0.000    0.000    0.000    0.000    0.000   11.200 
#    0.000    0.000    0.000    0.000    0.000    0.000 
#
# Total GULP energy -55823.528024 kJ/mol
# GULP energy per Si atom -5582.352802 kJ/mol
# Density = 2.472696 g / cm^3
# Si number density = 24.783365 Si / 1000 Ang^3
#
#
#
# Elastic Constant Matrix: (Units=GPa)
#
#
# Indices 1 2 3 4 5 6 
#
# 1 61.9757 -37.4353 -11.5445 0.0000 7.2874 0.0000
# 2 -37.4353 146.5384 30.2673 0.0000 7.4513 0.0000
# 3 -11.5445 30.2673 121.4989 0.0000 8.7743 0.0000
# 4 0.0000 0.0000 0.0000 26.9013 0.0000 -7.0589
# 5 7.2874 7.4513 8.7743 0.0000 18.5725 0.0000
# 6 0.0000 0.0000 0.0000 -7.0589 0.0000 5.2857
#
#
#
# Elastic Compliance Matrix: (Units=1/GPa)
#
#
# Indices 1 2 3 4 5 6 
#
# 1 0.021154 0.005685 0.001406 0.000000 -0.011245 0.000000
# 2 0.005685 0.008803 -0.001280 0.000000 -0.005158 0.000000
# 3 0.001406 -0.001280 0.008993 0.000000 -0.004286 0.000000
# 4 0.000000 0.000000 0.000000 0.057227 0.000000 0.076425
# 5 -0.011245 -0.005158 -0.004286 0.000000 0.062350 0.000000
# 6 0.000000 0.000000 0.000000 0.076425 0.000000 0.291252
#
#
# Mechanical properties :
#
#
# Convention : Reuss Voigt Hill
#
# Bulk Modulus (GPa) = 19.77405 32.50977 26.14191
# Shear Modulus (GPa) = 10.98867 33.40027 22.19447
#
# Velocity S-wave (km/s) = 2.10796 3.67507 2.99580
# Velocity P-wave (km/s) = 3.73105 5.58160 4.74737
#
# Compressibility (1/GPa) = 0.05057133
#
# Stress axis : x y z
#
# Youngs Moduli (GPa) = 47.27309 113.59370 111.20255
#
# Poissons Ratio (x) = -0.64583 -0.15632
# Poissons Ratio (y) = -0.26877 0.14238
# Poissons Ratio (z) = -0.06645 0.14544
#
# Static dielectric constant tensor:
#      x y z
#    x 2.090930 0.000000 -0.004880 
#    y 0.000000 1.969150 0.000000 
#    z -0.004880 0.000000 1.906460 
# 
# From -- ./inp_files/498.got.cif
#   From: 2010.05.17/outbox.cif.g08.bks.cpg/sg9_1_cif.got.tgz:498.got - 2010.06.03 20:04:27.
