data_PCOD9135874
_publ_section_title
;
Structure prediction by ZEFSAII (Michael W. Deem and Ramdas Pophale) SiO2 
 PCOD9135874
Probable space group: C C
;
_chemical_formula_sum "Si O2"
_cell_formula_units_Z 32
_cell_length_a 14.170205
_cell_length_b 18.649962
_cell_length_c 5.150316
_cell_angle_alpha 90.000000
_cell_angle_beta 74.958789
_cell_angle_gamma 90.000000
_cell_volume 1314.461644
_symmetry_space_group_name_H-M "C C"
_symmetry_group_IT_number 9
_symmetry_cell_setting 'monoclinic'
loop_
_space_group_symop_operation_xyz
x,y,z
x,-y,1/2+z
1/2+x,1/2+y,z
1/2+x,1/2-y,1/2+z
loop_
_atom_site_type_symbol
_atom_site_label
_atom_site_fract_x
_atom_site_fract_y
_atom_site_fract_z
Si Si1 0.382560 0.823144 0.826640
Si Si2 0.063748 0.758834 0.971939
Si Si3 0.766609 0.309227 0.415893
Si Si4 0.876645 0.051223 0.067734
Si Si5 0.698085 0.836889 0.697004
Si Si6 0.091239 0.540280 0.560250
Si Si7 0.069328 0.148341 0.956583
Si Si8 0.876247 0.482295 0.723980
O O1 0.465027 0.770049 0.674101
O O2 0.293683 0.804867 0.697354
O O3 0.412285 0.901968 0.714820
O O4 0.353101 0.824636 0.148496
O O5 0.142330 0.695891 0.984669
O O6 0.084513 0.824441 0.151246
O O7 0.047648 0.788969 0.692219
O O8 0.729922 0.232263 0.339631
O O9 0.680984 0.367721 0.454311
O O10 0.792648 0.112274 0.093000
O O11 0.981256 0.092059 0.014575
O O12 0.867134 0.004093 0.335709
O O13 0.623139 0.884599 0.920228
O O14 0.126718 0.518181 0.820238
O O15 0.973916 0.531155 0.656187
O O16 0.816717 0.499051 0.516217
#
# Coordination Sequence:
#
# PCOD9135874 Si02
#       8
#     4   4   4   4   4   4   4   4
#     4  12  23  42  66 101 137 176 226 277 352 414
#     4  11  23  40  73 102 139 181 220 297 354 424
#     4  11  26  43  69  98 136 180 228 293 337 404
#     4  12  27  46  72 101 140 189 236 292 347 421
#     4  11  24  43  69 105 138 172 226 285 364 420
#     4  10  21  36  58  91 134 170 202 255 329 418
#     4  11  25  47  67  98 135 185 247 284 343 404
#     4  10  21  37  58  88 127 165 205 255 318 403
#
# _framework density 24.344569
#
# number of rings (size 3 to 8) (size 9 to 14) (size 15 to 20)
#    0.000    1.000    0.000    7.500    0.000   11.000 
#    0.000    3.750    0.000    0.000    0.000    0.000 
#    0.000    0.000    0.000    0.000    0.000    0.000 
#
# Total GULP energy -89394.337322 kJ/mol
# GULP energy per Si atom -5587.146083 kJ/mol
# Density = 2.428916 g / cm^3
# Si number density = 24.344569 Si / 1000 Ang^3
#
#
#
# Elastic Constant Matrix: (Units=GPa)
#
#
# Indices 1 2 3 4 5 6 
#
# 1 88.3854 30.9297 13.4134 0.0000 -5.6112 0.0000
# 2 30.9297 77.1028 13.6904 0.0000 -12.8039 0.0000
# 3 13.4134 13.6904 143.5945 0.0000 5.2391 0.0000
# 4 0.0000 0.0000 0.0000 37.2197 0.0000 -6.1970
# 5 -5.6112 -12.8039 5.2391 0.0000 34.9687 0.0000
# 6 0.0000 0.0000 0.0000 -6.1970 0.0000 63.5224
#
#
#
# Elastic Compliance Matrix: (Units=1/GPa)
#
#
# Indices 1 2 3 4 5 6 
#
# 1 0.013243 -0.005116 -0.000763 0.000000 0.000366 0.000000
# 2 -0.005116 0.016119 -0.001251 0.000000 0.005269 0.000000
# 3 -0.000763 -0.001251 0.007215 0.000000 -0.001661 0.000000
# 4 0.000000 0.000000 0.000000 0.027311 0.000000 0.002664
# 5 0.000366 0.005269 -0.001661 0.000000 0.030834 0.000000
# 6 0.000000 0.000000 0.000000 0.002664 0.000000 0.016002
#
#
# Mechanical properties :
#
#
# Convention : Reuss Voigt Hill
#
# Bulk Modulus (GPa) = 44.80780 47.23885 46.02332
# Shear Modulus (GPa) = 37.75732 43.87878 40.81805
#
# Velocity S-wave (km/s) = 3.94249 4.25008 4.09917
# Velocity P-wave (km/s) = 6.25859 6.59778 6.43042
#
# Compressibility (1/GPa) = 0.02231754
#
# Stress axis : x y z
#
# Youngs Moduli (GPa) = 75.50876 62.03785 138.59634
#
# Poissons Ratio (x) = 0.31741 0.10570
# Poissons Ratio (y) = 0.38633 0.17340
# Poissons Ratio (z) = 0.05759 0.07762
#
# Static dielectric constant tensor:
#      x y z
#    x 2.037080 0.000000 0.028370 
#    y 0.000000 1.940280 0.000000 
#    z 0.028370 0.000000 2.027110 
# 
# From -- ./inp_files/2575.got.cif
#   From: 2010.05.17/outbox.cif.g08.bks.cpg/sg9_2_cif.got.tgz:2575.got - 2010.06.03 20:04:27.
