data_PCOD9135610
_publ_section_title
;
Structure prediction by ZEFSAII (Michael W. Deem and Ramdas Pophale) SiO2 
 PCOD9135610
Probable space group: C C
;
_chemical_formula_sum "Si O2"
_cell_formula_units_Z 32
_cell_length_a 20.717872
_cell_length_b 10.134063
_cell_length_c 11.053890
_cell_angle_alpha 90.000000
_cell_angle_beta 34.214298
_cell_angle_gamma 90.000000
_cell_volume 1304.980600
_symmetry_space_group_name_H-M "C C"
_symmetry_group_IT_number 9
_symmetry_cell_setting 'monoclinic'
loop_
_space_group_symop_operation_xyz
x,y,z
x,-y,1/2+z
1/2+x,1/2+y,z
1/2+x,1/2-y,1/2+z
loop_
_atom_site_type_symbol
_atom_site_label
_atom_site_fract_x
_atom_site_fract_y
_atom_site_fract_z
Si Si1 0.784820 0.471054 0.714720
Si Si2 0.329235 0.359641 0.517941
Si Si3 0.560539 0.552195 0.671161
Si Si4 0.576666 0.182736 0.309813
Si Si5 0.339993 0.750466 0.250538
Si Si6 0.498986 0.048819 0.748289
Si Si7 0.613357 0.278091 0.708310
Si Si8 0.447360 0.158227 0.156430
O O1 0.799660 0.620900 0.736125
O O2 0.861020 0.442974 0.479613
O O3 0.845994 0.384147 0.723625
O O4 0.650681 0.444964 0.921569
O O5 0.428551 0.465923 0.334228
O O6 0.200183 0.352751 0.671891
O O7 0.328427 0.360382 0.665221
O O8 0.390061 0.234295 0.357206
O O9 0.579373 0.688473 0.717040
O O10 0.596192 0.429519 0.699185
O O11 0.474720 0.223937 0.561123
O O12 0.538796 0.055268 0.290586
O O13 0.247679 0.737848 0.499219
O O14 0.514882 0.969224 0.600949
O O15 0.560231 0.184179 0.684950
O O16 0.538255 0.241949 0.940458
#
# Coordination Sequence:
#
# PCOD9135610 Si02
#       8
#     4   4   4   4   4   4   4   4
#     4   9  18  37  67  94 131 170 224 268 325 406
#     4  11  21  41  74  96 128 181 229 266 347 401
#     4  10  20  42  65 100 136 168 222 289 328 385
#     4  10  20  41  73  96 129 186 227 262 330 426
#     4   9  20  42  63  95 133 178 215 272 338 406
#     4  10  21  43  69  97 133 183 222 267 339 414
#     4  10  24  42  67 102 145 163 227 298 327 384
#     4  11  20  40  72 100 125 183 226 268 338 404
#
# _framework density 24.521439000000001
#
# number of rings (size 3 to 8) (size 9 to 14) (size 15 to 20)
#    0.000    2.000    5.000    0.000    0.000    3.000 
#   13.500    2.500   16.500    0.000    0.000    0.000 
#    0.000    0.000    0.000    0.000    0.000    0.000 
#
# Total GULP energy -89377.666042 kJ/mol
# GULP energy per Si atom -5586.104128 kJ/mol
# Density = 2.446563 g / cm^3
# Si number density = 24.521439 Si / 1000 Ang^3
#
#
#
# Elastic Constant Matrix: (Units=GPa)
#
#
# Indices 1 2 3 4 5 6 
#
# 1 94.2745 11.9356 48.4590 0.0000 -25.0718 0.0000
# 2 11.9356 62.7483 12.7578 0.0000 0.1302 0.0000
# 3 48.4590 12.7578 154.0432 0.0000 -50.4886 0.0000
# 4 0.0000 0.0000 0.0000 27.3412 0.0000 2.6264
# 5 -25.0718 0.1302 -50.4886 0.0000 44.1475 0.0000
# 6 0.0000 0.0000 0.0000 2.6264 0.0000 33.3565
#
#
#
# Elastic Compliance Matrix: (Units=1/GPa)
#
#
# Indices 1 2 3 4 5 6 
#
# 1 0.013416 -0.002058 -0.002481 0.000000 0.004788 0.000000
# 2 -0.002058 0.016704 -0.001816 0.000000 -0.003295 0.000000
# 3 -0.002481 -0.001816 0.011137 0.000000 0.011333 0.000000
# 4 0.000000 0.000000 0.000000 0.036854 0.000000 -0.002902
# 5 0.004788 -0.003295 0.011333 0.000000 0.038341 0.000000
# 6 0.000000 0.000000 0.000000 -0.002902 0.000000 0.030208
#
#
# Mechanical properties :
#
#
# Convention : Reuss Voigt Hill
#
# Bulk Modulus (GPa) = 35.02755 50.81899 42.92327
# Shear Modulus (GPa) = 29.60596 36.82995 33.21796
#
# Velocity S-wave (km/s) = 3.47846 3.87970 3.68455
# Velocity P-wave (km/s) = 5.51801 6.39052 5.97023
#
# Compressibility (1/GPa) = 0.02854896
#
# Stress axis : x y z
#
# Youngs Moduli (GPa) = 74.53567 59.86543 89.79098
#
# Poissons Ratio (x) = 0.12318 0.22275
# Poissons Ratio (y) = 0.15336 0.16306
# Poissons Ratio (z) = 0.18490 0.10871
#
# Static dielectric constant tensor:
#      x y z
#    x 1.983160 0.000000 0.009600 
#    y 0.000000 1.971940 0.000000 
#    z 0.009600 0.000000 1.998960 
# 
# From -- ./inp_files/20947.got.cif
#   From: 2010.05.17/outbox.cif.g08.bks.cpg/sg9_11_cif.got.tgz:20947.got - 2010.06.03 20:04:27.
