data_PCOD9135947
_publ_section_title
;
Structure prediction by ZEFSAII (Michael W. Deem and Ramdas Pophale) SiO2 
 PCOD9135947
Probable space group: C C
;
_chemical_formula_sum "Si O2"
_cell_formula_units_Z 32
_cell_length_a 7.434692
_cell_length_b 12.469461
_cell_length_c 16.728738
_cell_angle_alpha 90.000000
_cell_angle_beta 117.617282
_cell_angle_gamma 90.000000
_cell_volume 1374.164846
_symmetry_space_group_name_H-M "C C"
_symmetry_group_IT_number 9
_symmetry_cell_setting 'monoclinic'
loop_
_space_group_symop_operation_xyz
x,y,z
x,-y,1/2+z
1/2+x,1/2+y,z
1/2+x,1/2-y,1/2+z
loop_
_atom_site_type_symbol
_atom_site_label
_atom_site_fract_x
_atom_site_fract_y
_atom_site_fract_z
Si Si1 0.342610 0.845138 0.909500
Si Si2 0.824538 0.827086 0.655264
Si Si3 0.482109 0.808443 0.340059
Si Si4 0.544005 0.998778 0.749018
Si Si5 0.363204 0.173839 0.100977
Si Si6 0.078179 0.333017 0.110996
Si Si7 0.966870 0.008204 0.289972
Si Si8 0.641016 0.699593 0.895603
O O1 0.509668 0.807363 0.879872
O O2 0.208538 0.737335 0.896754
O O3 0.174934 0.930742 0.851610
O O4 0.462403 0.883094 0.012052
O O5 0.887570 0.757966 0.746568
O O6 0.582684 0.822427 0.603809
O O7 0.900366 0.947650 0.689297
O O8 0.945504 0.770610 0.609878
O O9 0.479072 0.932432 0.311927
O O10 0.347039 0.787191 0.389140
O O11 0.575818 0.086917 0.684445
O O12 0.393576 0.912534 0.678463
O O13 0.774247 0.956491 0.804839
O O14 0.291737 0.285061 0.126229
O O15 0.199530 0.156366 0.996397
O O16 0.010846 0.885977 0.319349
#
# Coordination Sequence:
#
# PCOD9135947 Si02
#       8
#     4   4   4   4   4   4   4   4
#     4  10  21  41  59  90 124 169 206 267 322 378
#     4   9  21  37  57  87 116 158 208 264 306 377
#     4  10  21  37  62  87 123 163 211 263 317 376
#     4  10  21  41  62  94 128 165 217 268 315 388
#     4  10  22  38  60  89 124 165 210 259 322 381
#     4  10  21  38  65  84 125 167 210 259 326 375
#     4  10  21  38  61  86 126 157 210 263 313 377
#     4  11  22  38  62  89 124 166 210 263 325 384
#
# _framework density 23.286871999999999
#
# number of rings (size 3 to 8) (size 9 to 14) (size 15 to 20)
#    0.000    2.000    1.250    1.500    3.500    0.000 
#    4.500    0.000    2.750    0.000    0.000    0.000 
#    0.000    0.000    0.000    0.000    0.000    0.000 
#
# Total GULP energy -89381.703244 kJ/mol
# GULP energy per Si atom -5586.356453 kJ/mol
# Density = 2.323387 g / cm^3
# Si number density = 23.286872 Si / 1000 Ang^3
#
#
#
# Elastic Constant Matrix: (Units=GPa)
#
#
# Indices 1 2 3 4 5 6 
#
# 1 103.6303 15.3115 35.1750 0.0000 -0.4988 0.0000
# 2 15.3115 48.6644 17.5572 0.0000 6.6113 0.0000
# 3 35.1750 17.5572 85.6985 0.0000 13.3636 0.0000
# 4 0.0000 0.0000 0.0000 21.7078 0.0000 0.3008
# 5 -0.4988 6.6113 13.3636 0.0000 33.5456 0.0000
# 6 0.0000 0.0000 0.0000 0.3008 0.0000 37.0825
#
#
#
# Elastic Compliance Matrix: (Units=1/GPa)
#
#
# Indices 1 2 3 4 5 6 
#
# 1 0.011587 -0.002298 -0.004673 0.000000 0.002487 0.000000
# 2 -0.002298 0.022882 -0.003237 0.000000 -0.003254 0.000000
# 3 -0.004673 -0.003237 0.015099 0.000000 -0.005447 0.000000
# 4 0.000000 0.000000 0.000000 0.046072 0.000000 -0.000374
# 5 0.002487 -0.003254 -0.005447 0.000000 0.032658 0.000000
# 6 0.000000 0.000000 0.000000 -0.000374 0.000000 0.026970
#
#
# Mechanical properties :
#
#
# Convention : Reuss Voigt Hill
#
# Bulk Modulus (GPa) = 34.30233 41.56451 37.93342
# Shear Modulus (GPa) = 26.96841 29.79714 28.38277
#
# Velocity S-wave (km/s) = 3.40677 3.58099 3.49496
# Velocity P-wave (km/s) = 5.49883 5.91486 5.71063
#
# Compressibility (1/GPa) = 0.02915254
#
# Stress axis : x y z
#
# Youngs Moduli (GPa) = 86.30128 43.70268 66.22746
#
# Poissons Ratio (x) = 0.10041 0.30949
# Poissons Ratio (y) = 0.19829 0.21440
# Poissons Ratio (z) = 0.40329 0.14148
#
# Static dielectric constant tensor:
#      x y z
#    x 1.882660 0.000000 0.000660 
#    y 0.000000 1.950050 0.000000 
#    z 0.000660 0.000000 1.852850 
# 
# From -- ./inp_files/28572.got.cif
#   From: 2010.05.17/outbox.cif.g08.bks.cpg/sg9_15_cif.got.tgz:28572.got - 2010.06.03 20:04:27.
