data_PCOD9135075
_publ_section_title
;
Structure prediction by ZEFSAII (Michael W. Deem and Ramdas Pophale) SiO2 
 PCOD9135075
Probable space group: C C
;
_chemical_formula_sum "Si O2"
_cell_formula_units_Z 28
_cell_length_a 19.078387
_cell_length_b 9.524333
_cell_length_c 21.984554
_cell_angle_alpha 90.000000
_cell_angle_beta 22.598451
_cell_angle_gamma 90.000000
_cell_volume 1535.079160
_symmetry_space_group_name_H-M "C C"
_symmetry_group_IT_number 9
_symmetry_cell_setting 'monoclinic'
loop_
_space_group_symop_operation_xyz
x,y,z
x,-y,1/2+z
1/2+x,1/2+y,z
1/2+x,1/2-y,1/2+z
loop_
_atom_site_type_symbol
_atom_site_label
_atom_site_fract_x
_atom_site_fract_y
_atom_site_fract_z
Si Si1 0.269590 0.198826 0.644270
Si Si2 0.690147 0.376505 0.569353
Si Si3 0.761644 0.800800 0.135459
Si Si4 0.646454 0.441476 0.807757
Si Si5 0.885287 0.356259 0.181497
Si Si6 0.787762 0.176657 0.377535
Si Si7 0.503715 0.062763 0.353912
O O1 0.356904 0.230630 0.640869
O O2 0.429165 0.138326 0.474297
O O3 0.153371 0.326097 0.709864
O O4 0.137737 0.067220 0.765168
O O5 0.717343 0.280009 0.607896
O O6 0.752089 0.281169 0.462766
O O7 0.474323 0.408047 0.738981
O O8 0.819159 0.513279 0.468073
O O9 0.765413 0.681203 0.183125
O O10 0.609575 0.915425 0.274985
O O11 0.950434 0.881438 0.978625
O O12 0.751511 0.512642 0.779197
O O13 0.827055 0.266942 0.285792
O O14 0.095685 0.399982 0.020510
#
# Coordination Sequence:
#
# PCOD9135075 Si02
#       7
#     4   4   4   4   4   4   4
#     4  10  22  38  59  93 120 155 193 253 314 349
#     4  11  20  36  60  92 111 157 199 249 288 352
#     4  12  20  37  62  96 120 149 196 262 312 360
#     4  10  21  36  60  92 122 149 199 250 319 349
#     4   9  21  37  56  87 113 155 200 240 286 358
#     4  10  20  37  59  82 119 159 207 236 277 362
#     4  12  22  37  60  94 125 152 198 252 314 354
#
# _framework density 18.240102
#
# number of rings (size 3 to 8) (size 9 to 14) (size 15 to 20)
#    0.857    0.571    4.286    1.714    2.000    0.000 
#    0.000    0.000    0.000    5.143    0.000    0.000 
#    0.000    0.000    0.000    0.000    0.000    0.000 
#
# Total GULP energy -77971.460762 kJ/mol
# GULP energy per Si atom -5569.390054 kJ/mol
# Density = 1.819859 g / cm^3
# Si number density = 18.240102 Si / 1000 Ang^3
#
#
#
# Elastic Constant Matrix: (Units=GPa)
#
#
# Indices 1 2 3 4 5 6 
#
# 1 61.2534 12.4251 31.7578 -0.0003 -5.1561 0.0002
# 2 12.4251 68.9835 14.6359 -0.0032 -10.6336 0.0001
# 3 31.7578 14.6359 81.6484 -0.0026 -19.6784 0.0004
# 4 -0.0003 -0.0032 -0.0026 36.7405 -0.0001 -2.2940
# 5 -5.1561 -10.6336 -19.6784 -0.0001 36.5866 -0.0001
# 6 0.0002 0.0001 0.0004 -2.2940 -0.0001 9.8641
#
#
#
# Elastic Compliance Matrix: (Units=1/GPa)
#
#
# Indices 1 2 3 4 5 6 
#
# 1 0.020884 -0.002350 -0.008223 -0.000001 -0.002163 0.000000
# 2 -0.002350 0.015703 -0.001012 0.000001 0.003689 0.000000
# 3 -0.008223 -0.001012 0.017553 0.000001 0.007988 0.000000
# 4 -0.000001 0.000001 0.000001 0.027619 0.000001 0.006423
# 5 -0.002163 0.003689 0.007988 0.000001 0.032396 0.000000
# 6 0.000000 0.000000 0.000000 0.006423 0.000000 0.102871
#
#
# Mechanical properties :
#
#
# Convention : Reuss Voigt Hill
#
# Bulk Modulus (GPa) = 32.28995 36.61367 34.45181
# Shear Modulus (GPa) = 19.95870 26.84269 23.40069
#
# Velocity S-wave (km/s) = 3.31149 3.84035 3.58568
# Velocity P-wave (km/s) = 5.68880 6.30722 6.00598
#
# Compressibility (1/GPa) = 0.03096939
#
# Stress axis : x y z
#
# Youngs Moduli (GPa) = 47.88456 63.68313 56.97194
#
# Poissons Ratio (x) = 0.14967 0.46847
# Poissons Ratio (y) = 0.11254 0.05764
# Poissons Ratio (z) = 0.39374 0.06442
#
# Static dielectric constant tensor:
#      x y z
#    x 1.632280 0.000000 -0.007420 
#    y 0.000000 1.622790 0.000000 
#    z -0.007420 0.000000 1.681040 
# 
# From -- ./inp_files/10451.got.cif
#   From: 2010.05.17/outbox.cif.g08.bks.cpg/sg9_6_cif.got.tgz:10451.got - 2010.06.03 20:04:27.
