data_PCOD9135704
_publ_section_title
;
Structure prediction by ZEFSAII (Michael W. Deem and Ramdas Pophale) SiO2 
 PCOD9135704
Probable space group: C C
;
_chemical_formula_sum "Si O2"
_cell_formula_units_Z 32
_cell_length_a 13.803750
_cell_length_b 5.354599
_cell_length_c 18.155720
_cell_angle_alpha 90.000000
_cell_angle_beta 62.508664
_cell_angle_gamma 90.000000
_cell_volume 1190.421106
_symmetry_space_group_name_H-M "C C"
_symmetry_group_IT_number 9
_symmetry_cell_setting 'monoclinic'
loop_
_space_group_symop_operation_xyz
x,y,z
x,-y,1/2+z
1/2+x,1/2+y,z
1/2+x,1/2-y,1/2+z
loop_
_atom_site_type_symbol
_atom_site_label
_atom_site_fract_x
_atom_site_fract_y
_atom_site_fract_z
Si Si1 0.428670 0.876978 0.132630
Si Si2 0.398527 0.749707 0.886360
Si Si3 0.292633 0.755466 0.378757
Si Si4 0.133596 0.528260 0.332627
Si Si5 0.043981 0.747055 0.993654
Si Si6 0.335711 0.452677 0.550432
Si Si7 0.644997 0.380643 0.576923
Si Si8 0.725117 0.326812 0.681525
O O1 0.485331 0.996600 0.040661
O O2 0.336072 0.083935 0.181020
O O3 0.359310 0.649293 0.123520
O O4 0.534317 0.783657 0.138158
O O5 0.372494 0.482727 0.859738
O O6 0.355983 0.985422 0.855944
O O7 0.523159 0.817362 0.860224
O O8 0.327206 0.742837 0.987955
O O9 0.226294 0.717514 0.326817
O O10 0.213019 0.766962 0.478825
O O11 0.128391 0.336708 0.403315
O O12 0.157677 0.349562 0.256503
O O13 0.089592 0.892221 0.047052
O O14 0.947599 0.905052 0.990151
O O15 0.246542 0.667588 0.596451
O O16 0.670475 0.532158 0.648252
#
# Coordination Sequence:
#
# PCOD9135704 Si02
#       8
#     4   4   4   4   4   4   4   4
#     4  10  21  42  69 100 142 194 250 309 377 473
#     4  12  25  47  79 108 149 200 267 309 380 475
#     4  12  26  45  80 108 145 206 262 309 382 472
#     4  12  26  50  72 116 157 198 254 342 396 451
#     4  10  20  42  74 102 145 200 261 306 381 468
#     4  10  20  44  75 101 141 197 259 315 376 472
#     4  11  22  41  74 106 138 205 263 309 376 484
#     4  11  26  45  71 111 151 192 254 331 402 447
#
# _framework density 26.881243999999999
#
# number of rings (size 3 to 8) (size 9 to 14) (size 15 to 20)
#    0.000    1.000    3.750    3.000    0.000    3.000 
#   15.750    0.000    0.000    0.000    0.000    0.000 
#    0.000    0.000    0.000    0.000    0.000    0.000 
#
# Total GULP energy -89368.717409 kJ/mol
# GULP energy per Si atom -5585.544838 kJ/mol
# Density = 2.682006 g / cm^3
# Si number density = 26.881244 Si / 1000 Ang^3
#
#
#
# Elastic Constant Matrix: (Units=GPa)
#
#
# Indices 1 2 3 4 5 6 
#
# 1 156.7743 30.9736 3.9801 0.0006 8.8850 0.0022
# 2 30.9736 92.0278 4.7255 0.0017 -3.5887 0.0044
# 3 3.9801 4.7255 79.2397 0.0001 16.3389 0.0009
# 4 0.0006 0.0017 0.0001 35.6262 0.0000 3.0545
# 5 8.8850 -3.5887 16.3389 0.0000 19.4704 0.0003
# 6 0.0022 0.0044 0.0009 3.0545 0.0003 14.3916
#
#
#
# Elastic Compliance Matrix: (Units=1/GPa)
#
#
# Indices 1 2 3 4 5 6 
#
# 1 0.007118 -0.002599 0.000684 0.000000 -0.004302 0.000000
# 2 -0.002599 0.012004 -0.001555 0.000000 0.004704 -0.000003
# 3 0.000684 -0.001555 0.015480 0.000000 -0.013590 0.000000
# 4 0.000000 0.000000 0.000000 0.028590 0.000000 -0.006068
# 5 -0.004302 0.004704 -0.013590 0.000000 0.065594 -0.000001
# 6 0.000000 -0.000003 0.000000 -0.006068 -0.000001 0.070773
#
#
# Mechanical properties :
#
#
# Convention : Reuss Voigt Hill
#
# Bulk Modulus (GPa) = 36.14796 45.26667 40.70732
# Shear Modulus (GPa) = 23.17823 33.12181 28.15002
#
# Velocity S-wave (km/s) = 2.93959 3.51401 3.23956
# Velocity P-wave (km/s) = 4.99980 5.77412 5.40085
#
# Compressibility (1/GPa) = 0.02766408
#
# Stress axis : x y z
#
# Youngs Moduli (GPa) = 140.48021 83.30415 64.59763
#
# Poissons Ratio (x) = 0.21649 -0.04421
# Poissons Ratio (y) = 0.36507 0.10046
# Poissons Ratio (z) = -0.09615 0.12955
#
# Static dielectric constant tensor:
#      x y z
#    x 2.201820 0.000000 -0.047260 
#    y 0.000000 2.261140 0.000000 
#    z -0.047260 0.000000 2.081990 
# 
# From -- ./inp_files/30447.got.cif
#   From: 2010.05.17/outbox.cif.g08.bks.cpg/sg9_16_cif.got.tgz:30447.got - 2010.06.03 20:04:27.
