data_PCOD9135044
_publ_section_title
;
Structure prediction by ZEFSAII (Michael W. Deem and Ramdas Pophale) SiO2 
 PCOD9135044
Probable space group: C C
;
_chemical_formula_sum "Si O2"
_cell_formula_units_Z 32
_cell_length_a 15.363744
_cell_length_b 11.840144
_cell_length_c 7.795964
_cell_angle_alpha 90.000000
_cell_angle_beta 91.266517
_cell_angle_gamma 90.000000
_cell_volume 1417.809098
_symmetry_space_group_name_H-M "C C"
_symmetry_group_IT_number 9
_symmetry_cell_setting 'monoclinic'
loop_
_space_group_symop_operation_xyz
x,y,z
x,-y,1/2+z
1/2+x,1/2+y,z
1/2+x,1/2-y,1/2+z
loop_
_atom_site_type_symbol
_atom_site_label
_atom_site_fract_x
_atom_site_fract_y
_atom_site_fract_z
Si Si1 0.248760 0.932226 0.369530
Si Si2 0.938491 0.618326 0.745192
Si Si3 0.614921 0.745775 0.877980
Si Si4 0.856004 0.027210 0.334923
Si Si5 0.481685 0.123664 0.139492
Si Si6 0.455254 0.652196 0.057573
Si Si7 0.745376 0.119623 0.615444
Si Si8 0.287292 0.844173 0.750156
O O1 0.339924 0.917920 0.277468
O O2 0.179793 0.844028 0.293217
O O3 0.258386 0.888241 0.562099
O O4 0.241134 0.067299 0.372851
O O5 0.988076 0.511531 0.666525
O O6 0.933213 0.721189 0.614453
O O7 0.975592 0.647273 0.935814
O O8 0.557750 0.809913 0.735719
O O9 0.552388 0.666816 0.992175
O O10 0.662948 0.840357 0.999120
O O11 0.932609 0.079874 0.225319
O O12 0.824044 0.114639 0.478699
O O13 0.895987 0.913490 0.417418
O O14 0.769474 0.995095 0.219252
O O15 0.391985 0.155909 0.235578
O O16 0.753784 0.217541 0.756532
#
# Coordination Sequence:
#
# PCOD9135044 Si02
#       8
#     4   4   4   4   4   4   4   4
#     4   9  20  37  61  87 122 159 201 249 307 371
#     4  10  21  41  64  91 125 170 209 247 312 392
#     4  11  23  39  62  98 131 156 203 268 315 362
#     4  10  23  43  66  85 119 173 218 250 311 389
#     4  10  20  36  64  94 126 162 205 254 310 374
#     4  11  23  40  64  91 121 164 215 263 312 370
#     4  10  22  41  62  88 123 163 210 260 309 373
#     4   9  18  37  59  84 117 161 201 241 300 377
#
# _framework density 22.570032999999999
#
# number of rings (size 3 to 8) (size 9 to 14) (size 15 to 20)
#    0.000    2.000    0.000    3.750    0.000    9.000 
#    0.000    5.000    0.000    0.000    0.000    0.000 
#    0.000    0.000    0.000    0.000    0.000    0.000 
#
# Total GULP energy -89233.344844 kJ/mol
# GULP energy per Si atom -5577.084053 kJ/mol
# Density = 2.251866 g / cm^3
# Si number density = 22.570033 Si / 1000 Ang^3
#
#
#
# Elastic Constant Matrix: (Units=GPa)
#
#
# Indices 1 2 3 4 5 6 
#
# 1 73.1623 16.4292 24.2110 0.0000 17.5432 0.0000
# 2 16.4292 56.0673 35.1247 0.0000 11.1458 0.0000
# 3 24.2110 35.1247 61.1149 0.0000 7.4525 0.0000
# 4 0.0000 0.0000 0.0000 30.8986 0.0000 -2.5625
# 5 17.5432 11.1458 7.4525 0.0000 17.5763 0.0000
# 6 0.0000 0.0000 0.0000 -2.5625 0.0000 39.2976
#
#
#
# Elastic Compliance Matrix: (Units=1/GPa)
#
#
# Indices 1 2 3 4 5 6 
#
# 1 0.019830 0.002096 -0.006838 0.000000 -0.018222 0.000000
# 2 0.002096 0.030475 -0.016591 0.000000 -0.014382 0.000000
# 3 -0.006838 -0.016591 0.027936 0.000000 0.005501 0.000000
# 4 0.000000 0.000000 0.000000 0.032540 0.000000 0.002122
# 5 -0.018222 -0.014382 0.005501 0.000000 0.081870 0.000000
# 6 0.000000 0.000000 0.000000 0.002122 0.000000 0.025585
#
#
# Mechanical properties :
#
#
# Convention : Reuss Voigt Hill
#
# Bulk Modulus (GPa) = 28.11088 37.98603 33.04845
# Shear Modulus (GPa) = 18.33109 25.19314 21.76212
#
# Velocity S-wave (km/s) = 2.85298 3.34461 3.10853
# Velocity P-wave (km/s) = 4.83060 5.63756 5.24961
#
# Compressibility (1/GPa) = 0.03557342
#
# Stress axis : x y z
#
# Youngs Moduli (GPa) = 50.42891 32.81428 35.79586
#
# Poissons Ratio (x) = -0.06877 0.24478
# Poissons Ratio (y) = -0.10568 0.59389
# Poissons Ratio (z) = 0.34484 0.54442
#
# Static dielectric constant tensor:
#      x y z
#    x 1.866390 0.000000 0.009930 
#    y 0.000000 1.956930 0.000000 
#    z 0.009930 0.000000 1.906010 
# 
# From -- ./inp_files/9138.got.cif
#   From: 2010.05.17/outbox.cif.g08.bks.cpg/sg9_5_cif.got.tgz:9138.got - 2010.06.03 20:04:27.
