data_PCOD9135858
_publ_section_title
;
Structure prediction by ZEFSAII (Michael W. Deem and Ramdas Pophale) SiO2 
 PCOD9135858
Probable space group: C C
;
_chemical_formula_sum "Si O2"
_cell_formula_units_Z 24
_cell_length_a 8.708788
_cell_length_b 17.802702
_cell_length_c 5.595893
_cell_angle_alpha 90.000000
_cell_angle_beta 89.048654
_cell_angle_gamma 90.000000
_cell_volume 867.467420
_symmetry_space_group_name_H-M "C C"
_symmetry_group_IT_number 9
_symmetry_cell_setting 'monoclinic'
loop_
_space_group_symop_operation_xyz
x,y,z
x,-y,1/2+z
1/2+x,1/2+y,z
1/2+x,1/2-y,1/2+z
loop_
_atom_site_type_symbol
_atom_site_label
_atom_site_fract_x
_atom_site_fract_y
_atom_site_fract_z
Si Si1 0.484510 0.423136 0.519680
Si Si2 0.422628 0.833956 0.222172
Si Si3 0.627033 0.897114 0.597203
Si Si4 0.376037 0.037970 0.394474
Si Si5 0.205890 0.716521 0.446159
Si Si6 0.985851 0.895401 0.021547
O O1 0.299605 0.414536 0.525695
O O2 0.548699 0.383899 0.754515
O O3 0.491164 0.513329 0.518889
O O4 0.548520 0.382410 0.284020
O O5 0.509344 0.896348 0.380612
O O6 0.346402 0.877853 0.001036
O O7 0.311273 0.786810 0.390299
O O8 0.561165 0.782330 0.123099
O O9 0.556720 0.948333 0.812326
O O10 0.635008 0.812474 0.697620
O O11 0.320264 0.009260 0.132896
O O12 0.323227 0.649029 0.520530
#
# Coordination Sequence:
#
# PCOD9135858 Si02
#       6
#     4   4   4   4   4   4
#     4   9  17  27  50  81 116 144 192 259 319 345
#     4  11  23  41  63  97 131 179 213 270 327 403
#     4  10  21  35  60  92 131 164 214 272 328 377
#     4  11  23  37  62  98 128 161 217 286 336 378
#     4  10  23  38  58  93 133 173 218 259 328 398
#     4   9  17  30  49  81 117 149 190 254 312 363
#
# _framework density 27.666746
#
# number of rings (size 3 to 8) (size 9 to 14) (size 15 to 20)
#    0.000    2.000    3.333    0.000    9.333    2.667 
#    0.000    0.000    0.000    0.000   13.000    0.000 
#    0.000    0.000    0.000    0.000    0.000    0.000 
#
# Total GULP energy -66963.890197 kJ/mol
# GULP energy per Si atom -5580.324183 kJ/mol
# Density = 2.760378 g / cm^3
# Si number density = 27.666746 Si / 1000 Ang^3
#
#
#
# Elastic Constant Matrix: (Units=GPa)
#
#
# Indices 1 2 3 4 5 6 
#
# 1 133.9705 57.1900 69.4989 0.0000 -13.1474 0.0000
# 2 57.1900 108.7799 55.0365 0.0000 -13.7905 0.0000
# 3 69.4989 55.0365 244.0120 0.0000 5.8022 0.0000
# 4 0.0000 0.0000 0.0000 31.4884 0.0000 -10.8789
# 5 -13.1474 -13.7905 5.8022 0.0000 45.8861 0.0000
# 6 0.0000 0.0000 0.0000 -10.8789 0.0000 25.8781
#
#
#
# Elastic Compliance Matrix: (Units=1/GPa)
#
#
# Indices 1 2 3 4 5 6 
#
# 1 0.010559 -0.004232 -0.002101 0.000000 0.002019 0.000000
# 2 -0.004232 0.012639 -0.001712 0.000000 0.002802 0.000000
# 3 -0.002101 -0.001712 0.005125 0.000000 -0.001764 0.000000
# 4 0.000000 0.000000 0.000000 0.037154 0.000000 0.015619
# 5 0.002019 0.002802 -0.001764 0.000000 0.023437 0.000000
# 6 0.000000 0.000000 0.000000 0.015619 0.000000 0.045209
#
#
# Mechanical properties :
#
#
# Convention : Reuss Voigt Hill
#
# Bulk Modulus (GPa) = 81.74833 94.46813 88.10823
# Shear Modulus (GPa) = 32.40627 40.98631 36.69629
#
# Velocity S-wave (km/s) = 3.42615 3.85311 3.64588
# Velocity P-wave (km/s) = 6.72778 7.34945 7.04547
#
# Compressibility (1/GPa) = 0.01223267
#
# Stress axis : x y z
#
# Youngs Moduli (GPa) = 94.70534 79.11706 195.13775
#
# Poissons Ratio (x) = 0.33486 0.40994
# Poissons Ratio (y) = 0.40084 0.33407
# Poissons Ratio (z) = 0.19896 0.13545
#
# Static dielectric constant tensor:
#      x y z
#    x 2.216550 0.000000 0.078690 
#    y 0.000000 2.225900 0.000000 
#    z 0.078690 0.000000 2.230800 
# 
# From -- ./inp_files/1674.got.cif
#   From: 2010.05.17/outbox.cif.g08.bks.cpg/sg9_1_cif.got.tgz:1674.got - 2010.06.03 20:04:27.
