data_PCOD9135273
_publ_section_title
;
Structure prediction by ZEFSAII (Michael W. Deem and Ramdas Pophale) SiO2 
 PCOD9135273
Probable space group: C C
;
_chemical_formula_sum "Si O2"
_cell_formula_units_Z 24
_cell_length_a 6.841346
_cell_length_b 17.078616
_cell_length_c 9.594500
_cell_angle_alpha 90.000000
_cell_angle_beta 109.723980
_cell_angle_gamma 90.000000
_cell_volume 1055.256872
_symmetry_space_group_name_H-M "C C"
_symmetry_group_IT_number 9
_symmetry_cell_setting 'monoclinic'
loop_
_space_group_symop_operation_xyz
x,y,z
x,-y,1/2+z
1/2+x,1/2+y,z
1/2+x,1/2-y,1/2+z
loop_
_atom_site_type_symbol
_atom_site_label
_atom_site_fract_x
_atom_site_fract_y
_atom_site_fract_z
Si Si1 0.418520 0.325343 0.153040
Si Si2 0.844426 0.418615 0.279401
Si Si3 0.379183 0.623260 0.351480
Si Si4 0.624299 0.174108 0.063175
Si Si5 0.231300 0.238501 0.356266
Si Si6 0.822035 0.427910 0.945984
O O1 0.610016 0.383077 0.235848
O O2 0.518306 0.243463 0.124355
O O3 0.271398 0.297252 0.240963
O O4 0.309847 0.363837 0.992602
O O5 0.883875 0.502228 0.360805
O O6 0.981940 0.362764 0.409825
O O7 0.891743 0.423461 0.124683
O O8 0.210384 0.611461 0.192947
O O9 0.500882 0.703679 0.333353
O O10 0.568998 0.563072 0.397451
O O11 0.800409 0.216238 0.012323
O O12 0.351114 0.156119 0.378739
#
# Coordination Sequence:
#
# PCOD9135273 Si02
#       6
#     4   4   4   4   4   4
#     4  10  20  38  67  95 118 170 214 263 308 376
#     4  11  23  43  64  93 133 164 210 263 325 374
#     4   8  20  40  61  91 128 158 216 257 316 368
#     4  11  21  39  64  95 128 160 214 275 300 376
#     4   9  21  38  67  91 122 165 219 256 309 370
#     4   9  23  42  63  87 127 173 203 258 320 382
#
# _framework density 22.743276999999999
#
# number of rings (size 3 to 8) (size 9 to 14) (size 15 to 20)
#    1.000    1.333    1.667    2.000    2.333    4.000 
#    0.000    5.000    0.000    0.000    0.000    0.000 
#    0.000    0.000    0.000    0.000    0.000    0.000 
#
# Total GULP energy -66831.119931 kJ/mol
# GULP energy per Si atom -5569.259994 kJ/mol
# Density = 2.269151 g / cm^3
# Si number density = 22.743277 Si / 1000 Ang^3
#
#
#
# Elastic Constant Matrix: (Units=GPa)
#
#
# Indices 1 2 3 4 5 6 
#
# 1 25.6512 -6.2332 17.4075 0.0000 -1.6939 0.0000
# 2 -6.2332 80.8280 28.9297 0.0000 4.9087 0.0000
# 3 17.4075 28.9297 141.6994 0.0000 6.5378 0.0000
# 4 0.0000 0.0000 0.0000 22.4468 0.0000 -2.0672
# 5 -1.6939 4.9087 6.5378 0.0000 40.5724 0.0000
# 6 0.0000 0.0000 0.0000 -2.0672 0.0000 20.2817
#
#
#
# Elastic Compliance Matrix: (Units=1/GPa)
#
#
# Indices 1 2 3 4 5 6 
#
# 1 0.045185 0.005793 -0.006839 0.000000 0.002288 0.000000
# 2 0.005793 0.014147 -0.003559 0.000000 -0.000896 0.000000
# 3 -0.006839 -0.003559 0.008682 0.000000 -0.001254 0.000000
# 4 0.000000 0.000000 0.000000 0.044972 0.000000 0.004584
# 5 0.002288 -0.000896 -0.001254 0.000000 0.025053 0.000000
# 6 0.000000 0.000000 0.000000 0.004584 0.000000 0.049773
#
#
# Mechanical properties :
#
#
# Convention : Reuss Voigt Hill
#
# Bulk Modulus (GPa) = 17.00548 36.48741 26.74644
# Shear Modulus (GPa) = 23.08172 30.53181 26.80676
#
# Velocity S-wave (km/s) = 3.18918 3.66793 3.43690
# Velocity P-wave (km/s) = 4.58852 5.83234 5.24742
#
# Compressibility (1/GPa) = 0.05880456
#
# Stress axis : x y z
#
# Youngs Moduli (GPa) = 22.13139 70.68710 115.18381
#
# Poissons Ratio (x) = -0.40952 0.78777
# Poissons Ratio (y) = -0.12822 0.40990
# Poissons Ratio (z) = 0.15136 0.25155
#
# Static dielectric constant tensor:
#      x y z
#    x 1.929250 0.000000 0.031690 
#    y 0.000000 1.864990 0.000000 
#    z 0.031690 0.000000 1.876230 
# 
# From -- ./inp_files/5150.got.cif
#   From: 2010.05.17/outbox.cif.g08.bks.cpg/sg9_3_cif.got.tgz:5150.got - 2010.06.03 20:04:27.
