data_PCOD9135755
_publ_section_title
;
Structure prediction by ZEFSAII (Michael W. Deem and Ramdas Pophale) SiO2 
 PCOD9135755
Probable space group: C C
;
_chemical_formula_sum "Si O2"
_cell_formula_units_Z 32
_cell_length_a 5.139832
_cell_length_b 26.324445
_cell_length_c 9.253340
_cell_angle_alpha 90.000000
_cell_angle_beta 98.873869
_cell_angle_gamma 90.000000
_cell_volume 1237.020625
_symmetry_space_group_name_H-M "C C"
_symmetry_group_IT_number 9
_symmetry_cell_setting 'monoclinic'
loop_
_space_group_symop_operation_xyz
x,y,z
x,-y,1/2+z
1/2+x,1/2+y,z
1/2+x,1/2-y,1/2+z
loop_
_atom_site_type_symbol
_atom_site_label
_atom_site_fract_x
_atom_site_fract_y
_atom_site_fract_z
Si Si1 0.157720 0.174107 0.101230
Si Si2 0.649406 0.110281 0.012314
Si Si3 0.453428 0.163611 0.397174
Si Si4 0.695043 0.993610 0.693745
Si Si5 0.860578 0.241366 0.444050
Si Si6 0.535812 0.938606 0.961244
Si Si7 0.761299 0.690236 0.687605
Si Si8 0.892457 0.096162 0.721690
O O1 0.379303 0.135744 0.048741
O O2 0.257115 0.189541 0.268057
O O3 0.882521 0.146704 0.081218
O O4 0.137252 0.223940 0.001183
O O5 0.709680 0.056179 0.095016
O O6 0.695775 0.105279 0.841957
O O7 0.730387 0.189107 0.380842
O O8 0.367911 0.104565 0.373070
O O9 0.423265 0.172260 0.564148
O O10 0.470595 0.028187 0.595400
O O11 0.935153 0.034384 0.732515
O O12 0.626381 0.975704 0.845789
O O13 0.929226 0.279230 0.319356
O O14 0.059653 0.228596 0.589843
O O15 0.770421 0.904286 0.049353
O O16 0.606478 0.640934 0.738015
#
# Coordination Sequence:
#
# PCOD9135755 Si02
#       8
#     4   4   4   4   4   4   4   4
#     4  12  30  46  82 109 155 200 262 322 382 465
#     4  12  26  51  73 116 150 200 258 318 384 462
#     4  12  28  46  73 110 154 203 258 323 389 467
#     4  10  20  43  76 104 153 196 249 316 384 464
#     4  12  27  48  71 112 147 210 252 323 388 460
#     4  10  21  43  73 106 145 199 251 314 384 458
#     4  12  28  46  75 109 152 205 261 325 388 471
#     4  10  22  45  73 106 150 193 255 307 389 453
#
# _framework density 25.868604999999999
#
# number of rings (size 3 to 8) (size 9 to 14) (size 15 to 20)
#    0.750    0.000    6.250    0.000    8.750    0.000 
#    2.250    0.000    0.000    0.000    0.000    0.000 
#    0.000    0.000    0.000    0.000    0.000    0.000 
#
# Total GULP energy -89250.521214 kJ/mol
# GULP energy per Si atom -5578.157576 kJ/mol
# Density = 2.580973 g / cm^3
# Si number density = 25.868605 Si / 1000 Ang^3
#
#
#
# Elastic Constant Matrix: (Units=GPa)
#
#
# Indices 1 2 3 4 5 6 
#
# 1 52.6052 35.5523 23.7847 0.0000 -14.8948 0.0000
# 2 35.5523 167.7225 49.3461 0.0000 -17.8662 0.0000
# 3 23.7847 49.3461 163.5135 0.0000 -9.7524 0.0000
# 4 0.0000 0.0000 0.0000 58.9243 0.0000 -3.1655
# 5 -14.8948 -17.8662 -9.7524 0.0000 33.5475 0.0000
# 6 0.0000 0.0000 0.0000 -3.1655 0.0000 13.4914
#
#
#
# Elastic Compliance Matrix: (Units=1/GPa)
#
#
# Indices 1 2 3 4 5 6 
#
# 1 0.024851 -0.003789 -0.001968 0.000000 0.008444 0.000000
# 2 -0.003789 0.007424 -0.001581 0.000000 0.001811 0.000000
# 3 -0.001968 -0.001581 0.006896 0.000000 0.000289 0.000000
# 4 0.000000 0.000000 0.000000 0.017188 0.000000 0.004033
# 5 0.008444 0.001811 0.000289 0.000000 0.034606 0.000000
# 6 0.000000 0.000000 0.000000 0.004033 0.000000 0.075067
#
#
# Mechanical properties :
#
#
# Convention : Reuss Voigt Hill
#
# Bulk Modulus (GPa) = 40.82530 66.80082 53.81306
# Shear Modulus (GPa) = 26.47285 39.53651 33.00468
#
# Velocity S-wave (km/s) = 3.20247 3.91366 3.57579
# Velocity P-wave (km/s) = 5.43051 6.80452 6.15597
#
# Compressibility (1/GPa) = 0.02449462
#
# Stress axis : x y z
#
# Youngs Moduli (GPa) = 40.24010 134.70558 145.00490
#
# Poissons Ratio (x) = 0.51044 0.28532
# Poissons Ratio (y) = 0.15248 0.22927
# Poissons Ratio (z) = 0.07918 0.21298
#
# Static dielectric constant tensor:
#      x y z
#    x 2.069570 0.000000 -0.001700 
#    y 0.000000 2.205850 0.000000 
#    z -0.001700 0.000000 2.039850 
# 
# From -- ./inp_files/4502.got.cif
#   From: 2010.05.17/outbox.cif.g08.bks.cpg/sg9_3_cif.got.tgz:4502.got - 2010.06.03 20:04:27.
