data_PCOD9135787
_publ_section_title
;
Structure prediction by ZEFSAII (Michael W. Deem and Ramdas Pophale) SiO2 
 PCOD9135787
Probable space group: C C
;
_chemical_formula_sum "Si O2"
_cell_formula_units_Z 32
_cell_length_a 31.931123
_cell_length_b 7.012420
_cell_length_c 16.997012
_cell_angle_alpha 90.000000
_cell_angle_beta 21.588451
_cell_angle_gamma 90.000000
_cell_volume 1400.323291
_symmetry_space_group_name_H-M "C C"
_symmetry_group_IT_number 9
_symmetry_cell_setting 'monoclinic'
loop_
_space_group_symop_operation_xyz
x,y,z
x,-y,1/2+z
1/2+x,1/2+y,z
1/2+x,1/2-y,1/2+z
loop_
_atom_site_type_symbol
_atom_site_label
_atom_site_fract_x
_atom_site_fract_y
_atom_site_fract_z
Si Si1 0.379880 0.492085 0.353310
Si Si2 0.417145 0.963722 0.409414
Si Si3 0.180941 0.208841 0.548140
Si Si4 0.428070 0.712413 0.545210
Si Si5 0.309323 0.053956 0.451127
Si Si6 0.016811 0.671328 0.578776
Si Si7 0.957155 0.892506 0.384315
Si Si8 0.634112 0.956687 0.241651
O O1 0.306674 0.248124 0.296732
O O2 0.488538 0.604978 0.129311
O O3 0.397456 0.498854 0.416249
O O4 0.266086 0.597327 0.521848
O O5 0.307369 0.969841 0.542717
O O6 0.421881 0.174187 0.436941
O O7 0.424610 0.822632 0.468139
O O8 0.513558 0.910748 0.174473
O O9 0.094619 0.115078 0.637920
O O10 0.198474 0.072464 0.592908
O O11 0.130440 0.404292 0.672081
O O12 0.433982 0.491987 0.508100
O O13 0.537658 0.796566 0.399651
O O14 0.362257 0.269037 0.365441
O O15 0.403598 0.929601 0.242004
O O16 0.113634 0.589864 0.354544
#
# Coordination Sequence:
#
# PCOD9135787 Si02
#       8
#     4   4   4   4   4   4   4   4
#     4  10  22  43  65  99 129 174 228 264 339 402
#     4   9  20  42  66  93 135 166 222 276 324 403
#     4  11  24  43  65 101 134 170 231 272 332 407
#     4  12  23  44  66  99 136 174 218 285 339 391
#     4   8  19  40  62  88 131 164 217 272 312 406
#     4  10  20  44  71  89 134 175 221 276 328 395
#     4  11  23  44  68 100 136 172 223 277 342 400
#     4  11  25  44  71  97 135 181 226 280 330 404
#
# _framework density 22.851866000000001
#
# number of rings (size 3 to 8) (size 9 to 14) (size 15 to 20)
#    0.750    1.000    3.750    0.000    1.750    3.000 
#    9.000    0.000    0.000    0.000    0.000    0.000 
#    0.000    0.000    0.000    0.000    0.000    0.000 
#
# Total GULP energy -89136.159095 kJ/mol
# GULP energy per Si atom -5571.009943 kJ/mol
# Density = 2.279985 g / cm^3
# Si number density = 22.851866 Si / 1000 Ang^3
#
#
#
# Elastic Constant Matrix: (Units=GPa)
#
#
# Indices 1 2 3 4 5 6 
#
# 1 89.7713 12.8349 19.6777 0.0000 -6.3832 0.0000
# 2 12.8349 55.0069 2.4966 0.0000 5.0794 0.0000
# 3 19.6777 2.4966 64.7253 0.0000 6.5220 0.0000
# 4 0.0000 0.0000 0.0000 23.9229 0.0000 -2.6709
# 5 -6.3832 5.0794 6.5220 0.0000 39.4424 0.0000
# 6 0.0000 0.0000 0.0000 -2.6709 0.0000 26.7263
#
#
#
# Elastic Compliance Matrix: (Units=1/GPa)
#
#
# Indices 1 2 3 4 5 6 
#
# 1 0.012688 -0.003064 -0.004053 0.000000 0.003118 0.000000
# 2 -0.003064 0.019153 0.000500 0.000000 -0.003045 0.000000
# 3 -0.004053 0.000500 0.017019 0.000000 -0.003535 0.000000
# 4 0.000000 0.000000 0.000000 0.042273 0.000000 0.004225
# 5 0.003118 -0.003045 -0.003535 0.000000 0.026835 0.000000
# 6 0.000000 0.000000 0.000000 0.004225 0.000000 0.037838
#
#
# Mechanical properties :
#
#
# Convention : Reuss Voigt Hill
#
# Bulk Modulus (GPa) = 28.07112 31.05799 29.56455
# Shear Modulus (GPa) = 27.63708 29.65128 28.64418
#
# Velocity S-wave (km/s) = 3.48142 3.60605 3.54428
# Velocity P-wave (km/s) = 5.33582 5.56405 5.45113
#
# Compressibility (1/GPa) = 0.03562381
#
# Stress axis : x y z
#
# Youngs Moduli (GPa) = 78.81620 52.21092 58.75764
#
# Poissons Ratio (x) = 0.16000 0.23816
# Poissons Ratio (y) = 0.24153 -0.02936
# Poissons Ratio (z) = 0.31947 -0.02609
#
# Static dielectric constant tensor:
#      x y z
#    x 1.882110 0.000000 0.014950 
#    y 0.000000 1.947150 0.000000 
#    z 0.014950 0.000000 1.857650 
# 
# From -- ./inp_files/31787.got.cif
#   From: 2010.05.17/outbox.cif.g08.bks.cpg/sg9_16_cif.got.tgz:31787.got - 2010.06.03 20:04:27.
