data_PCOD9135978
_publ_section_title
;
Structure prediction by ZEFSAII (Michael W. Deem and Ramdas Pophale) SiO2 
 PCOD9135978
Probable space group: C C
;
_chemical_formula_sum "Si O2"
_cell_formula_units_Z 32
_cell_length_a 22.059209
_cell_length_b 5.124195
_cell_length_c 13.756615
_cell_angle_alpha 90.000000
_cell_angle_beta 54.894580
_cell_angle_gamma 90.000000
_cell_volume 1272.128772
_symmetry_space_group_name_H-M "C C"
_symmetry_group_IT_number 9
_symmetry_cell_setting 'monoclinic'
loop_
_space_group_symop_operation_xyz
x,y,z
x,-y,1/2+z
1/2+x,1/2+y,z
1/2+x,1/2-y,1/2+z
loop_
_atom_site_type_symbol
_atom_site_label
_atom_site_fract_x
_atom_site_fract_y
_atom_site_fract_z
Si Si1 0.396730 0.508428 0.049420
Si Si2 0.614230 0.547179 0.405145
Si Si3 0.989892 0.809031 0.636046
Si Si4 0.789222 0.347934 0.015415
Si Si5 0.152602 0.639685 0.207227
Si Si6 0.435405 0.183462 0.295599
Si Si7 0.258803 0.745038 0.715590
Si Si8 0.516863 0.105644 0.874088
O O1 0.442641 0.685883 0.080335
O O2 0.339029 0.639327 0.029380
O O3 0.340393 0.340309 0.170569
O O4 0.452073 0.316848 0.942534
O O5 0.572108 0.394226 0.528224
O O6 0.613733 0.369765 0.306000
O O7 0.701237 0.604374 0.337959
O O8 0.563860 0.805003 0.427508
O O9 0.956010 0.033766 0.736420
O O10 0.977752 0.530647 0.693236
O O11 0.707129 0.236394 0.072406
O O12 0.773233 0.582214 0.105150
O O13 0.848584 0.399857 0.877028
O O14 0.208649 0.500658 0.230456
O O15 0.090137 0.429828 0.238555
O O16 0.469681 0.134059 0.372068
#
# Coordination Sequence:
#
# PCOD9135978 Si02
#       8
#     4   4   4   4   4   4   4   4
#     4  10  21  38  69  97 120 172 231 271 318 397
#     4   9  21  39  66  93 124 173 221 271 321 393
#     4  11  28  40  64  96 142 171 213 271 346 390
#     4  10  21  40  69  94 128 166 230 269 329 387
#     4   9  20  37  69  96 123 160 233 277 317 379
#     4  12  26  42  64  99 140 172 211 276 338 394
#     4   9  18  37  68  95 117 162 229 279 313 379
#     4  10  21  37  69  92 124 168 232 260 326 385
#
# _framework density 25.154684
#
# number of rings (size 3 to 8) (size 9 to 14) (size 15 to 20)
#    0.000    2.000    1.250    0.750   14.000    0.000 
#    0.000    1.250    0.000    0.000    0.000    0.000 
#    0.000    0.000    0.000    0.000    0.000    0.000 
#
# Total GULP energy -89142.047364 kJ/mol
# GULP energy per Si atom -5571.377960 kJ/mol
# Density = 2.509743 g / cm^3
# Si number density = 25.154684 Si / 1000 Ang^3
#
#
#
# Elastic Constant Matrix: (Units=GPa)
#
#
# Indices 1 2 3 4 5 6 
#
# 1 59.4076 13.7564 40.5384 0.0010 -18.6423 -0.0041
# 2 13.7564 39.9509 19.1215 0.0021 -2.0396 -0.0027
# 3 40.5384 19.1215 139.6277 0.0013 -27.8705 -0.0029
# 4 0.0010 0.0021 0.0013 44.9116 -0.0006 -0.5639
# 5 -18.6423 -2.0396 -27.8705 -0.0006 50.0374 0.0027
# 6 -0.0041 -0.0027 -0.0029 -0.5639 0.0027 32.4007
#
#
#
# Elastic Compliance Matrix: (Units=1/GPa)
#
#
# Indices 1 2 3 4 5 6 
#
# 1 0.023181 -0.005367 -0.004855 0.000000 0.005714 0.000002
# 2 -0.005367 0.028080 -0.002765 -0.000001 -0.002395 0.000002
# 3 -0.004855 -0.002765 0.009638 0.000000 0.003447 0.000000
# 4 0.000000 -0.000001 0.000000 0.022271 0.000000 0.000388
# 5 0.005714 -0.002395 0.003447 0.000000 0.023936 -0.000001
# 6 0.000002 0.000002 0.000000 0.000388 -0.000001 0.030870
#
#
# Mechanical properties :
#
#
# Convention : Reuss Voigt Hill
#
# Bulk Modulus (GPa) = 28.63236 42.86875 35.75055
# Shear Modulus (GPa) = 28.47501 36.50794 32.49147
#
# Velocity S-wave (km/s) = 3.36817 3.81378 3.59788
# Velocity P-wave (km/s) = 5.15105 6.03922 5.61273
#
# Compressibility (1/GPa) = 0.03492551
#
# Stress axis : x y z
#
# Youngs Moduli (GPa) = 43.13801 35.61259 103.75426
#
# Poissons Ratio (x) = 0.19112 0.50371
# Poissons Ratio (y) = 0.23151 0.28692
# Poissons Ratio (z) = 0.20943 0.09848
#
# Static dielectric constant tensor:
#      x y z
#    x 2.005570 0.000000 0.013140 
#    y 0.000000 2.086210 0.000000 
#    z 0.013140 0.000000 2.221160 
# 
# From -- ./inp_files/27158.got.cif
#   From: 2010.05.17/outbox.cif.g08.bks.cpg/sg9_14_cif.got.tgz:27158.got - 2010.06.03 20:04:27.
