data_PCOD9135220
_publ_section_title
;
Structure prediction by ZEFSAII (Michael W. Deem and Ramdas Pophale) SiO2 
 PCOD9135220
Probable space group: C C
;
_chemical_formula_sum "Si O2"
_cell_formula_units_Z 32
_cell_length_a 12.776762
_cell_length_b 6.936471
_cell_length_c 33.015075
_cell_angle_alpha 90.000000
_cell_angle_beta 154.466831
_cell_angle_gamma 90.000000
_cell_volume 1261.196428
_symmetry_space_group_name_H-M "C C"
_symmetry_group_IT_number 9
_symmetry_cell_setting 'monoclinic'
loop_
_space_group_symop_operation_xyz
x,y,z
x,-y,1/2+z
1/2+x,1/2+y,z
1/2+x,1/2-y,1/2+z
loop_
_atom_site_type_symbol
_atom_site_label
_atom_site_fract_x
_atom_site_fract_y
_atom_site_fract_z
Si Si1 0.246750 0.722620 0.357100
Si Si2 0.074863 0.162195 0.313167
Si Si3 0.717987 0.312523 0.689933
Si Si4 0.516118 0.935142 0.596006
Si Si5 0.288780 0.584792 0.537667
Si Si6 0.603959 0.800724 0.540702
Si Si7 0.152228 0.777588 0.753318
Si Si8 0.976504 0.366150 0.363279
O O1 0.427837 0.656375 0.455577
O O2 0.393654 0.706134 0.366679
O O3 0.974370 0.648388 0.259186
O O4 0.192937 0.948298 0.351503
O O5 0.196191 0.265813 0.315883
O O6 0.792643 0.123606 0.203751
O O7 0.072215 0.277299 0.354732
O O8 0.563338 0.505531 0.634299
O O9 0.776932 0.215628 0.754753
O O10 0.529348 0.162713 0.604518
O O11 0.319494 0.813233 0.551828
O O12 0.476125 0.875613 0.535992
O O13 0.167646 0.477652 0.532955
O O14 0.158734 0.508196 0.451374
O O15 0.871216 0.728884 0.646509
O O16 0.228854 0.004444 0.774885
#
# Coordination Sequence:
#
# PCOD9135220 Si02
#       8
#     4   4   4   4   4   4   4   4
#     4   9  20  36  61  91 122 166 204 261 320 366
#     4   9  18  36  60  85 121 162 205 258 300 375
#     4  10  21  39  66  94 125 167 211 258 324 381
#     4  10  21  38  62  88 124 163 206 262 309 372
#     4  10  22  40  63  90 127 169 207 263 319 373
#     4   9  19  38  62  85 127 164 205 259 313 372
#     4   9  19  37  61  85 126 166 201 260 319 367
#     4  10  20  38  63  90 124 167 213 255 316 382
#
# _framework density 25.372731999999999
#
# number of rings (size 3 to 8) (size 9 to 14) (size 15 to 20)
#    0.000    2.500    0.000    2.250    3.500    0.000 
#    0.000   15.000    0.000    3.000    0.000    0.000 
#    0.000    0.000    0.000    0.000    0.000    0.000 
#
# Total GULP energy -89219.848671 kJ/mol
# GULP energy per Si atom -5576.240542 kJ/mol
# Density = 2.531498 g / cm^3
# Si number density = 25.372732 Si / 1000 Ang^3
#
#
#
# Elastic Constant Matrix: (Units=GPa)
#
#
# Indices 1 2 3 4 5 6 
#
# 1 119.7589 12.6922 13.4883 -0.0008 -17.6411 -0.0002
# 2 12.6922 50.7566 6.5623 0.0019 12.2964 -0.0008
# 3 13.4883 6.5623 97.3652 -0.0023 -2.1730 -0.0002
# 4 -0.0008 0.0019 -0.0023 15.4841 -0.0011 5.1403
# 5 -17.6411 12.2964 -2.1730 -0.0011 39.2825 0.0000
# 6 -0.0002 -0.0008 -0.0002 5.1403 0.0000 27.1735
#
#
#
# Elastic Compliance Matrix: (Units=1/GPa)
#
#
# Indices 1 2 3 4 5 6 
#
# 1 0.009635 -0.003591 -0.000972 0.000001 0.005397 0.000000
# 2 -0.003591 0.022905 -0.001244 -0.000004 -0.008852 0.000001
# 3 -0.000972 -0.001244 0.010501 0.000002 0.000534 0.000000
# 4 0.000001 -0.000004 0.000002 0.068910 0.000004 -0.013035
# 5 0.005397 -0.008852 0.000534 0.000004 0.030681 -0.000001
# 6 0.000000 0.000001 0.000000 -0.013035 -0.000001 0.039266
#
#
# Mechanical properties :
#
#
# Convention : Reuss Voigt Hill
#
# Bulk Modulus (GPa) = 31.82014 37.04070 34.43042
# Shear Modulus (GPa) = 24.51116 32.06388 28.28752
#
# Velocity S-wave (km/s) = 3.11150 3.55873 3.34260
# Velocity P-wave (km/s) = 5.04746 5.61395 5.33822
#
# Compressibility (1/GPa) = 0.03142664
#
# Stress axis : x y z
#
# Youngs Moduli (GPa) = 103.78501 43.65835 95.22866
#
# Poissons Ratio (x) = 0.15679 0.09259
# Poissons Ratio (y) = 0.37272 0.11845
# Poissons Ratio (z) = 0.10091 0.05430
#
# Static dielectric constant tensor:
#      x y z
#    x 2.061440 0.000000 -0.066270 
#    y 0.000000 2.156800 0.000010 
#    z -0.066270 0.000010 2.105840 
# 
# From -- ./inp_files/29842.got.cif
#   From: 2010.05.17/outbox.cif.g08.bks.cpg/sg9_15_cif.got.tgz:29842.got - 2010.06.03 20:04:27.
