data_PCOD9135452
_publ_section_title
;
Structure prediction by ZEFSAII (Michael W. Deem and Ramdas Pophale) SiO2 
 PCOD9135452
Probable space group: C C
;
_chemical_formula_sum "Si O2"
_cell_formula_units_Z 32
_cell_length_a 9.508246
_cell_length_b 10.424366
_cell_length_c 17.922930
_cell_angle_alpha 90.000000
_cell_angle_beta 54.212655
_cell_angle_gamma 90.000000
_cell_volume 1441.063981
_symmetry_space_group_name_H-M "C C"
_symmetry_group_IT_number 9
_symmetry_cell_setting 'monoclinic'
loop_
_space_group_symop_operation_xyz
x,y,z
x,-y,1/2+z
1/2+x,1/2+y,z
1/2+x,1/2-y,1/2+z
loop_
_atom_site_type_symbol
_atom_site_label
_atom_site_fract_x
_atom_site_fract_y
_atom_site_fract_z
Si Si1 0.211320 0.682887 0.603470
Si Si2 0.311212 0.944382 0.404850
Si Si3 0.923488 0.948558 0.544179
Si Si4 0.378397 0.699575 0.284755
Si Si5 0.031461 0.678415 0.335210
Si Si6 0.383291 0.552737 0.883442
Si Si7 0.977766 0.603595 0.005810
Si Si8 0.477190 0.167109 0.532757
O O1 0.272958 0.545184 0.614056
O O2 0.380881 0.769948 0.560739
O O3 0.140317 0.673660 0.539703
O O4 0.055549 0.750416 0.694786
O O5 0.303200 0.825608 0.350735
O O6 0.441746 0.901462 0.429043
O O7 0.125740 0.968783 0.503216
O O8 0.399131 0.072551 0.344558
O O9 0.942520 0.972275 0.449283
O O10 0.879220 0.800590 0.572800
O O11 0.236725 0.658498 0.267058
O O12 0.903518 0.075291 0.328865
O O13 0.009565 0.667898 0.433189
O O14 0.982533 0.820869 0.324354
O O15 0.182308 0.594323 0.952749
O O16 0.900451 0.474628 0.068342
#
# Coordination Sequence:
#
# PCOD9135452 Si02
#       8
#     4   4   4   4   4   4   4   4
#     4  12  25  38  63  96 136 161 198 263 326 366
#     4  11  20  41  70  91 120 166 219 255 299 375
#     4  11  20  41  69  93 120 166 219 257 298 375
#     4  12  24  41  59  98 137 159 197 267 324 364
#     4  10  21  39  69  92 118 165 220 259 297 369
#     4  11  20  41  70  91 120 166 219 255 299 375
#     4  11  20  41  69  93 120 166 219 257 298 375
#     4  10  20  40  65  90 119 165 211 259 293 369
#
# _framework density 22.205812999999999
#
# number of rings (size 3 to 8) (size 9 to 14) (size 15 to 20)
#    0.000    1.000    7.500    1.500    0.000    2.000 
#    0.000    0.000    0.000    0.000    0.000    0.000 
#    0.000    0.000    0.000    0.000    0.000    0.000 
#
# Total GULP energy -89234.760968 kJ/mol
# GULP energy per Si atom -5577.172561 kJ/mol
# Density = 2.215527 g / cm^3
# Si number density = 22.205813 Si / 1000 Ang^3
#
#
#
# Elastic Constant Matrix: (Units=GPa)
#
#
# Indices 1 2 3 4 5 6 
#
# 1 60.4552 32.1026 0.4039 0.0000 -6.2891 0.0000
# 2 32.1026 86.7489 -41.3485 0.0000 23.5315 0.0000
# 3 0.4039 -41.3485 1.1158 0.0000 17.1433 0.0000
# 4 0.0000 0.0000 0.0000 12.4170 0.0000 -9.3866
# 5 -6.2891 23.5315 17.1433 0.0000 9.9846 0.0000
# 6 0.0000 0.0000 0.0000 -9.3866 0.0000 41.2486
#
#
#
# Elastic Compliance Matrix: (Units=1/GPa)
#
#
# Indices 1 2 3 4 5 6 
#
# 1 0.016631 -0.000908 0.009199 0.000000 -0.003179 0.000000
# 2 -0.000908 0.003791 -0.011302 0.000000 0.009900 0.000000
# 3 0.009199 -0.011302 0.000954 0.000000 0.030793 0.000000
# 4 0.000000 0.000000 0.000000 0.097267 0.000000 0.022134
# 5 -0.003179 0.009900 0.030793 0.000000 0.021949 0.000000
# 6 0.000000 0.000000 0.000000 0.022134 0.000000 0.029280
#
#
# Mechanical properties :
#
#
# Convention : Reuss Voigt Hill
#
# Bulk Modulus (GPa) = 65.13266 14.51510 39.82388
# Shear Modulus (GPa) = 27.62260 23.20751 25.41506
#
# Velocity S-wave (km/s) = 3.53077 3.23632 3.38675
# Velocity P-wave (km/s) = 6.78357 4.52944 5.76770
#
# Compressibility (1/GPa) = 0.01535328
#
# Stress axis : x y z
#
# Youngs Moduli (GPa) = 60.12907 263.80028 1048.25591
#
# Poissons Ratio (x) = 0.23941 -9.64250
# Poissons Ratio (y) = 0.05457 11.84762
# Poissons Ratio (z) = -0.55310 2.98153
#
# Static dielectric constant tensor:
#      x y z
#    x 1.799240 0.000000 -0.007920 
#    y 0.000000 1.859840 0.000000 
#    z -0.007920 0.000000 1.880420 
# 
# From -- ./inp_files/34982.got.cif
#   From: 2010.05.17/outbox.cif.g08.bks.cpg/sg9_18_cif.got.tgz:34982.got - 2010.06.03 20:04:27.
