data_PCOD9135495
_publ_section_title
;
Structure prediction by ZEFSAII (Michael W. Deem and Ramdas Pophale) SiO2 
 PCOD9135495
Probable space group: C C
;
_chemical_formula_sum "Si O2"
_cell_formula_units_Z 24
_cell_length_a 16.070352
_cell_length_b 9.808563
_cell_length_c 9.857357
_cell_angle_alpha 90.000000
_cell_angle_beta 147.617483
_cell_angle_gamma 90.000000
_cell_volume 832.159933
_symmetry_space_group_name_H-M "C C"
_symmetry_group_IT_number 9
_symmetry_cell_setting 'monoclinic'
loop_
_space_group_symop_operation_xyz
x,y,z
x,-y,1/2+z
1/2+x,1/2+y,z
1/2+x,1/2-y,1/2+z
loop_
_atom_site_type_symbol
_atom_site_label
_atom_site_fract_x
_atom_site_fract_y
_atom_site_fract_z
Si Si1 0.475540 0.912653 0.012130
Si Si2 0.984852 0.086529 0.644862
Si Si3 0.702933 0.226664 0.133505
Si Si4 0.381280 0.111804 0.677591
Si Si5 0.045402 0.133173 0.013644
Si Si6 0.252150 0.527523 0.512258
O O1 0.365696 0.890272 0.992763
O O2 0.587973 0.038311 0.214290
O O3 0.574707 0.775258 0.127899
O O4 0.422469 0.963371 0.792758
O O5 0.851043 0.204452 0.437306
O O6 0.093478 0.129501 0.920850
O O7 0.061848 0.008329 0.623481
O O8 0.872881 0.975786 0.564279
O O9 0.741664 0.345783 0.083307
O O10 0.519134 0.219599 0.907303
O O11 0.719479 0.085849 0.076062
O O12 0.854796 0.138829 0.729378
#
# Coordination Sequence:
#
# PCOD9135495 Si02
#       6
#     4   4   4   4   4   4
#     4  11  22  38  67 104 133 186 238 295 345 439
#     4   9  17  35  62  90 131 179 229 275 356 424
#     4  10  20  40  68  95 137 186 231 293 352 433
#     4  11  24  41  71  96 143 181 241 289 370 414
#     4   9  19  34  63  94 130 179 234 282 347 424
#     4   8  18  36  63  91 130 175 231 270 354 416
#
# _framework density 28.840609000000001
#
# number of rings (size 3 to 8) (size 9 to 14) (size 15 to 20)
#    1.000    1.333    1.667    1.000    2.333    0.000 
#    0.000    0.000   25.667    0.000    0.000    0.000 
#    0.000    0.000    0.000    0.000    0.000    0.000 
#
# Total GULP energy -66866.560297 kJ/mol
# GULP energy per Si atom -5572.213358 kJ/mol
# Density = 2.877497 g / cm^3
# Si number density = 28.840609 Si / 1000 Ang^3
#
#
#
# Elastic Constant Matrix: (Units=GPa)
#
#
# Indices 1 2 3 4 5 6 
#
# 1 97.9134 6.9234 22.1263 0.0000 -9.7577 0.0000
# 2 6.9234 67.8325 30.7499 0.0000 -2.2012 0.0000
# 3 22.1263 30.7499 95.2697 0.0000 -47.1447 0.0000
# 4 0.0000 0.0000 0.0000 37.8795 0.0000 3.8921
# 5 -9.7577 -2.2012 -47.1447 0.0000 62.4257 0.0000
# 6 0.0000 0.0000 0.0000 3.8921 0.0000 37.4455
#
#
#
# Elastic Compliance Matrix: (Units=1/GPa)
#
#
# Indices 1 2 3 4 5 6 
#
# 1 0.010784 0.000124 -0.002728 0.000000 -0.000370 0.000000
# 2 0.000124 0.018667 -0.009131 0.000000 -0.006218 0.000000
# 3 -0.002728 -0.009131 0.021886 0.000000 0.015780 0.000000
# 4 0.000000 0.000000 0.000000 0.026685 0.000000 -0.002774
# 5 -0.000370 -0.006218 0.015780 0.000000 0.027659 0.000000
# 6 0.000000 0.000000 0.000000 -0.002774 0.000000 0.026994
#
#
# Mechanical properties :
#
#
# Convention : Reuss Voigt Hill
#
# Bulk Modulus (GPa) = 35.88397 42.29053 39.08725
# Shear Modulus (GPa) = 30.22365 40.96455 35.59410
#
# Velocity S-wave (km/s) = 3.24072 3.77288 3.51688
# Velocity P-wave (km/s) = 5.14512 5.80300 5.48394
#
# Compressibility (1/GPa) = 0.02786760
#
# Stress axis : x y z
#
# Youngs Moduli (GPa) = 92.73124 53.57041 45.69106
#
# Poissons Ratio (x) = -0.00663 0.12462
# Poissons Ratio (y) = -0.01148 0.41720
# Poissons Ratio (z) = 0.25293 0.48915
#
# Static dielectric constant tensor:
#      x y z
#    x 2.283260 0.000000 0.045830 
#    y 0.000000 2.129340 0.000000 
#    z 0.045830 0.000000 2.582740 
# 
# From -- ./inp_files/20066.got.cif
#   From: 2010.05.17/outbox.cif.g08.bks.cpg/sg9_11_cif.got.tgz:20066.got - 2010.06.03 20:04:27.
