data_PCOD9135622
_publ_section_title
;
Structure prediction by ZEFSAII (Michael W. Deem and Ramdas Pophale) SiO2 
 PCOD9135622
Probable space group: C C
;
_chemical_formula_sum "Si O2"
_cell_formula_units_Z 32
_cell_length_a 11.828890
_cell_length_b 7.487112
_cell_length_c 19.347551
_cell_angle_alpha 90.000000
_cell_angle_beta 50.439236
_cell_angle_gamma 90.000000
_cell_volume 1321.022737
_symmetry_space_group_name_H-M "C C"
_symmetry_group_IT_number 9
_symmetry_cell_setting 'monoclinic'
loop_
_space_group_symop_operation_xyz
x,y,z
x,-y,1/2+z
1/2+x,1/2+y,z
1/2+x,1/2-y,1/2+z
loop_
_atom_site_type_symbol
_atom_site_label
_atom_site_fract_x
_atom_site_fract_y
_atom_site_fract_z
Si Si1 0.288930 0.615175 0.109520
Si Si2 0.933333 0.625245 0.116816
Si Si3 0.623989 0.326842 0.443266
Si Si4 0.512166 0.290199 0.346007
Si Si5 0.651373 0.481033 0.169245
Si Si6 0.739718 0.956848 0.993376
Si Si7 0.320962 0.129834 0.308521
Si Si8 0.363144 0.473536 0.212600
O O1 0.195924 0.787308 0.120864
O O2 0.246516 0.456657 0.074184
O O3 0.262028 0.586172 0.201498
O O4 0.462084 0.658061 0.038257
O O5 0.801707 0.584577 0.116232
O O6 0.889842 0.550331 0.210754
O O7 0.935146 0.834957 0.129600
O O8 0.085334 0.546563 0.033809
O O9 0.595132 0.224775 0.382023
O O10 0.733609 0.226595 0.452871
O O11 0.690572 0.514873 0.391230
O O12 0.604248 0.431034 0.265250
O O13 0.372654 0.410647 0.424376
O O14 0.443256 0.148234 0.320072
O O15 0.505566 0.562202 0.191892
O O16 0.289796 0.335449 0.295579
#
# Coordination Sequence:
#
# PCOD9135622 Si02
#       8
#     4   4   4   4   4   4   4   4
#     4  11  23  40  66  92 127 166 217 262 313 378
#     4  10  20  42  63  88 129 162 209 258 311 376
#     4  11  23  40  60  94 130 162 206 268 320 373
#     4  10  22  41  64  87 128 169 205 260 318 372
#     4  11  20  43  65  89 125 171 208 258 316 376
#     4  11  23  41  62  98 127 164 211 267 314 378
#     4   9  21  41  60  90 124 162 210 257 307 377
#     4   9  22  40  64  90 122 164 214 262 305 378
#
# _framework density 24.223655999999998
#
# number of rings (size 3 to 8) (size 9 to 14) (size 15 to 20)
#    0.750    1.000    3.750    0.000    1.750    3.000 
#    2.250   10.000    0.000    0.000    0.000    0.000 
#    0.000    0.000    0.000    0.000    0.000    0.000 
#
# Total GULP energy -89265.604034 kJ/mol
# GULP energy per Si atom -5579.100252 kJ/mol
# Density = 2.416852 g / cm^3
# Si number density = 24.223656 Si / 1000 Ang^3
#
#
#
# Elastic Constant Matrix: (Units=GPa)
#
#
# Indices 1 2 3 4 5 6 
#
# 1 123.9517 28.8711 13.2217 0.0000 26.9672 0.0000
# 2 28.8711 31.3759 6.4004 0.0000 8.6467 0.0000
# 3 13.2217 6.4004 64.3574 0.0000 3.2573 0.0000
# 4 0.0000 0.0000 0.0000 23.9954 0.0000 6.0563
# 5 26.9672 8.6467 3.2573 0.0000 49.9547 0.0000
# 6 0.0000 0.0000 0.0000 6.0563 0.0000 30.4873
#
#
#
# Elastic Compliance Matrix: (Units=1/GPa)
#
#
# Indices 1 2 3 4 5 6 
#
# 1 0.011227 -0.008860 -0.001200 0.000000 -0.004449 0.000000
# 2 -0.008860 0.041066 -0.002153 0.000000 -0.002185 0.000000
# 3 -0.001200 -0.002153 0.016000 0.000000 -0.000023 0.000000
# 4 0.000000 0.000000 0.000000 0.043874 0.000000 -0.008716
# 5 -0.004449 -0.002185 -0.000023 0.000000 0.022800 0.000000
# 6 0.000000 0.000000 0.000000 -0.008716 0.000000 0.034532
#
#
# Mechanical properties :
#
#
# Convention : Reuss Voigt Hill
#
# Bulk Modulus (GPa) = 22.79670 35.18571 28.99121
# Shear Modulus (GPa) = 23.97527 32.30026 28.13776
#
# Velocity S-wave (km/s) = 3.14944 3.65556 3.41190
# Velocity P-wave (km/s) = 4.75990 5.68985 5.24552
#
# Compressibility (1/GPa) = 0.04386599
#
# Stress axis : x y z
#
# Youngs Moduli (GPa) = 89.06820 24.35120 62.49961
#
# Poissons Ratio (x) = 0.21575 0.07501
# Poissons Ratio (y) = 0.78916 0.13458
# Poissons Ratio (z) = 0.10690 0.05243
#
# Static dielectric constant tensor:
#      x y z
#    x 1.945150 0.000000 0.031200 
#    y 0.000000 1.983530 0.000000 
#    z 0.031200 0.000000 1.983380 
# 
# From -- ./inp_files/33133.got.cif
#   From: 2010.05.17/outbox.cif.g08.bks.cpg/sg9_17_cif.got.tgz:33133.got - 2010.06.03 20:04:27.
