data_PCOD9135789
_publ_section_title
;
Structure prediction by ZEFSAII (Michael W. Deem and Ramdas Pophale) SiO2 
 PCOD9135789
Probable space group: C C
;
_chemical_formula_sum "Si O2"
_cell_formula_units_Z 28
_cell_length_a 22.229638
_cell_length_b 5.121593
_cell_length_c 11.867410
_cell_angle_alpha 90.000000
_cell_angle_beta 123.944549
_cell_angle_gamma 90.000000
_cell_volume 1120.858583
_symmetry_space_group_name_H-M "C C"
_symmetry_group_IT_number 9
_symmetry_cell_setting 'monoclinic'
loop_
_space_group_symop_operation_xyz
x,y,z
x,-y,1/2+z
1/2+x,1/2+y,z
1/2+x,1/2-y,1/2+z
loop_
_atom_site_type_symbol
_atom_site_label
_atom_site_fract_x
_atom_site_fract_y
_atom_site_fract_z
Si Si1 0.049890 0.689930 0.112960
Si Si2 0.911395 0.280295 0.598920
Si Si3 0.146429 0.658993 0.424643
Si Si4 0.496191 0.784249 0.893034
Si Si5 0.365608 0.533721 0.239641
Si Si6 0.672692 0.641689 0.576287
Si Si7 0.312135 0.027351 0.310929
O O1 0.113694 0.608747 0.267360
O O2 0.095326 0.825091 0.060015
O O3 0.984173 0.827873 0.112894
O O4 0.007123 0.441390 0.018271
O O5 0.862836 0.054676 0.606618
O O6 0.860095 0.454632 0.468845
O O7 0.947295 0.423826 0.744685
O O8 0.074466 0.716241 0.421896
O O9 0.184679 0.418234 0.526426
O O10 0.185307 0.931534 0.489124
O O11 0.451081 0.517522 0.855871
O O12 0.337073 0.810445 0.245563
O O13 0.327779 0.313555 0.279117
O O14 0.727564 0.541014 0.729917
#
# Coordination Sequence:
#
# PCOD9135789 Si02
#       7
#     4   4   4   4   4   4   4
#     4  10  20  44  71  95 133 168 223 277 329 380
#     4   9  20  41  69  98 124 172 218 276 328 381
#     4  10  23  43  66  97 130 176 218 275 327 388
#     4   8  19  41  66 100 124 161 222 276 319 388
#     4  10  24  41  66  97 131 166 225 268 328 392
#     4  11  26  42  65  97 136 174 223 263 332 402
#     4  12  24  44  65  96 138 177 211 275 329 401
#
# _framework density 24.980848000000002
#
# number of rings (size 3 to 8) (size 9 to 14) (size 15 to 20)
#    0.857    1.143    1.429    0.857    2.000    5.714 
#    2.571    0.000    0.000    0.000    0.000    0.000 
#    0.000    0.000    0.000    0.000    0.000    0.000 
#
# Total GULP energy -78060.714353 kJ/mol
# GULP energy per Si atom -5575.765311 kJ/mol
# Density = 2.492399 g / cm^3
# Si number density = 24.980848 Si / 1000 Ang^3
#
#
#
# Elastic Constant Matrix: (Units=GPa)
#
#
# Indices 1 2 3 4 5 6 
#
# 1 41.1517 5.8701 -3.3878 0.0000 5.5063 0.0000
# 2 5.8701 85.3661 24.3736 0.0000 -1.3594 0.0000
# 3 -3.3878 24.3736 124.6096 0.0000 7.2260 0.0000
# 4 0.0000 0.0000 0.0000 22.5837 0.0000 -1.1705
# 5 5.5063 -1.3594 7.2260 0.0000 39.8467 0.0000
# 6 0.0000 0.0000 0.0000 -1.1705 0.0000 28.9315
#
#
#
# Elastic Compliance Matrix: (Units=1/GPa)
#
#
# Indices 1 2 3 4 5 6 
#
# 1 0.025229 -0.002176 0.001332 0.000000 -0.003802 0.000000
# 2 -0.002176 0.012625 -0.002598 0.000000 0.001203 0.000000
# 3 0.001332 -0.002598 0.008677 0.000000 -0.001846 0.000000
# 4 0.000000 0.000000 0.000000 0.044373 0.000000 0.001795
# 5 -0.003802 0.001203 -0.001846 0.000000 0.025997 0.000000
# 6 0.000000 0.000000 0.000000 0.001795 0.000000 0.034637
#
#
# Mechanical properties :
#
#
# Convention : Reuss Voigt Hill
#
# Bulk Modulus (GPa) = 25.22295 33.87102 29.54699
# Shear Modulus (GPa) = 29.13119 33.22381 31.17750
#
# Velocity S-wave (km/s) = 3.41859 3.65083 3.53662
# Velocity P-wave (km/s) = 5.06963 5.59997 5.34139
#
# Compressibility (1/GPa) = 0.03964643
#
# Stress axis : x y z
#
# Youngs Moduli (GPa) = 39.63681 79.20868 115.25305
#
# Poissons Ratio (x) = 0.17233 -0.15351
# Poissons Ratio (y) = 0.08624 0.29946
# Poissons Ratio (z) = -0.05279 0.20581
#
# Static dielectric constant tensor:
#      x y z
#    x 2.040600 0.000000 0.020460 
#    y 0.000000 2.050540 0.000000 
#    z 0.020460 0.000000 2.052360 
# 
# From -- ./inp_files/19840.got.cif
#   From: 2010.05.17/outbox.cif.g08.bks.cpg/sg9_10_cif.got.tgz:19840.got - 2010.06.03 20:04:27.
