data_PCOD9135108
_publ_section_title
;
Structure prediction by ZEFSAII (Michael W. Deem and Ramdas Pophale) SiO2 
 PCOD9135108
Probable space group: C C
;
_chemical_formula_sum "Si O2"
_cell_formula_units_Z 32
_cell_length_a 12.286331
_cell_length_b 20.600100
_cell_length_c 8.145872
_cell_angle_alpha 90.000000
_cell_angle_beta 128.415819
_cell_angle_gamma 90.000000
_cell_volume 1615.400746
_symmetry_space_group_name_H-M "C C"
_symmetry_group_IT_number 9
_symmetry_cell_setting 'monoclinic'
loop_
_space_group_symop_operation_xyz
x,y,z
x,-y,1/2+z
1/2+x,1/2+y,z
1/2+x,1/2-y,1/2+z
loop_
_atom_site_type_symbol
_atom_site_label
_atom_site_fract_x
_atom_site_fract_y
_atom_site_fract_z
Si Si1 0.806950 0.708038 0.134220
Si Si2 0.889356 0.426596 0.872533
Si Si3 0.025440 0.776564 0.534670
Si Si4 0.218564 0.994851 0.464066
Si Si5 0.880472 0.835738 0.687813
Si Si6 0.597051 0.594799 0.586462
Si Si7 0.084516 0.358257 0.280665
Si Si8 0.349743 0.191503 0.794096
O O1 0.854645 0.643833 0.272293
O O2 0.642996 0.710685 0.009934
O O3 0.882654 0.765140 0.303787
O O4 0.858274 0.704648 0.996210
O O5 0.860407 0.472825 0.690106
O O6 0.771755 0.452855 0.883897
O O7 0.028672 0.414834 0.107500
O O8 0.073049 0.710511 0.672480
O O9 0.992941 0.829062 0.645364
O O10 0.116099 0.032258 0.488421
O O11 0.143405 0.933894 0.306531
O O12 0.739287 0.867683 0.491291
O O13 0.842798 0.761407 0.700335
O O14 0.950972 0.872049 0.907601
O O15 0.712295 0.648347 0.645819
O O16 0.976667 0.347814 0.330818
#
# Coordination Sequence:
#
# PCOD9135108 Si02
#       8
#     4   4   4   4   4   4   4   4
#     4  11  22  35  58  93 126 158 209 257 316 383
#     4  10  20  37  62  84 117 153 218 262 303 367
#     4  10  21  37  57  86 127 170 197 252 318 386
#     4  10  21  39  66  90 114 166 226 268 300 378
#     4  11  23  39  62  92 136 168 203 261 336 392
#     4  11  22  41  65  93 122 171 219 266 315 377
#     4  10  21  39  57  89 124 169 199 252 324 385
#     4  11  22  37  63  95 132 165 213 260 326 392
#
# _framework density 19.809325000000001
#
# number of rings (size 3 to 8) (size 9 to 14) (size 15 to 20)
#    0.000    1.500    3.750    2.250    5.250    0.000 
#    0.000    1.250    0.000    0.000    0.000    0.000 
#    0.000    0.000    0.000    0.000    0.000    0.000 
#
# Total GULP energy -89191.702160 kJ/mol
# GULP energy per Si atom -5574.481385 kJ/mol
# Density = 1.976424 g / cm^3
# Si number density = 19.809325 Si / 1000 Ang^3
#
#
#
# Elastic Constant Matrix: (Units=GPa)
#
#
# Indices 1 2 3 4 5 6 
#
# 1 52.0657 2.9229 29.4956 0.0000 -7.3162 0.0000
# 2 2.9229 40.2157 22.6592 0.0000 -6.1583 0.0000
# 3 29.4956 22.6592 108.9148 0.0000 0.2537 0.0000
# 4 0.0000 0.0000 0.0000 10.0664 0.0000 5.5664
# 5 -7.3162 -6.1583 0.2537 0.0000 28.1029 0.0000
# 6 0.0000 0.0000 0.0000 5.5664 0.0000 4.2913
#
#
#
# Elastic Compliance Matrix: (Units=1/GPa)
#
#
# Indices 1 2 3 4 5 6 
#
# 1 0.024126 0.003425 -0.007263 0.000000 0.007097 0.000000
# 2 0.003425 0.029787 -0.007142 0.000000 0.007484 0.000000
# 3 -0.007263 -0.007142 0.012643 0.000000 -0.003570 0.000000
# 4 0.000000 0.000000 0.000000 0.351379 0.000000 -0.455789
# 5 0.007097 0.007484 -0.003570 0.000000 0.039103 0.000000
# 6 0.000000 0.000000 0.000000 -0.455789 0.000000 0.824254
#
#
# Mechanical properties :
#
#
# Convention : Reuss Voigt Hill
#
# Bulk Modulus (GPa) = 22.42325 34.59462 28.50893
# Shear Modulus (GPa) = 3.79329 18.23333 11.01331
#
# Velocity S-wave (km/s) = 1.38530 3.03717 2.36045
# Velocity P-wave (km/s) = 3.72865 5.45902 4.67460
#
# Compressibility (1/GPa) = 0.04459658
#
# Stress axis : x y z
#
# Youngs Moduli (GPa) = 41.44921 33.57153 79.09783
#
# Poissons Ratio (x) = -0.11500 0.57447
# Poissons Ratio (y) = -0.14198 0.56493
# Poissons Ratio (z) = 0.30104 0.23977
#
# Static dielectric constant tensor:
#      x y z
#    x 1.696070 0.000000 -0.037090 
#    y 0.000000 1.696030 0.000000 
#    z -0.037090 0.000000 1.756880 
# 
# From -- ./inp_files/8274.got.cif
#   From: 2010.05.17/outbox.cif.g08.bks.cpg/sg9_5_cif.got.tgz:8274.got - 2010.06.03 20:04:27.
