data_PCOD9135029
_publ_section_title
;
Structure prediction by ZEFSAII (Michael W. Deem and Ramdas Pophale) SiO2 
 PCOD9135029
Probable space group: C C
;
_chemical_formula_sum "Si O2"
_cell_formula_units_Z 28
_cell_length_a 20.689956
_cell_length_b 14.294956
_cell_length_c 14.692265
_cell_angle_alpha 90.000000
_cell_angle_beta 20.022326
_cell_angle_gamma 90.000000
_cell_volume 1487.810079
_symmetry_space_group_name_H-M "C C"
_symmetry_group_IT_number 9
_symmetry_cell_setting 'monoclinic'
loop_
_space_group_symop_operation_xyz
x,y,z
x,-y,1/2+z
1/2+x,1/2+y,z
1/2+x,1/2-y,1/2+z
loop_
_atom_site_type_symbol
_atom_site_label
_atom_site_fract_x
_atom_site_fract_y
_atom_site_fract_z
Si Si1 0.784240 0.403040 0.082630
Si Si2 0.115247 0.327852 0.089563
Si Si3 0.184630 0.301357 0.788878
Si Si4 0.837483 0.570670 0.711458
Si Si5 0.534429 0.982483 0.613519
Si Si6 0.936006 0.862929 0.814827
Si Si7 0.397303 0.484512 0.520683
O O1 0.723863 0.297844 0.191473
O O2 0.850729 0.451549 0.087971
O O3 0.605437 0.459954 0.280520
O O4 0.950412 0.402680 0.788263
O O5 0.198017 0.299768 0.880776
O O6 0.274780 0.349299 0.952443
O O7 0.003519 0.422449 0.213087
O O8 0.989031 0.239371 0.283510
O O9 0.320438 0.386596 0.580814
O O10 0.977134 0.341634 0.043378
O O11 0.915658 0.493426 0.677771
O O12 0.624098 0.596116 0.018538
O O13 0.752329 0.986252 0.293584
O O14 0.887805 0.934904 0.958296
#
# Coordination Sequence:
#
# PCOD9135029 Si02
#       7
#     4   4   4   4   4   4   4
#     4  12  21  39  71  91 129 171 212 273 315 377
#     4  10  22  36  64  94 121 165 219 270 308 372
#     4  10  22  39  63  98 125 159 222 268 310 376
#     4  10  20  36  62  94 120 160 212 266 313 368
#     4  10  24  40  60  98 128 162 221 259 324 390
#     4  12  21  39  66  92 130 164 212 274 319 375
#     4  10  24  41  62  95 133 169 210 262 329 384
#
# _framework density 18.819606
#
# number of rings (size 3 to 8) (size 9 to 14) (size 15 to 20)
#    0.000    1.714    2.857    4.286    6.000    0.000 
#    0.000    0.000    9.429    0.000    0.000    0.000 
#    0.000    0.000    0.000    0.000    0.000    0.000 
#
# Total GULP energy -78096.999707 kJ/mol
# GULP energy per Si atom -5578.357122 kJ/mol
# Density = 1.877677 g / cm^3
# Si number density = 18.819606 Si / 1000 Ang^3
#
#
#
# Elastic Constant Matrix: (Units=GPa)
#
#
# Indices 1 2 3 4 5 6 
#
# 1 120.5991 42.5783 42.9780 -0.0006 -12.1027 0.0003
# 2 42.5783 80.9838 23.5588 -0.0009 13.3200 0.0002
# 3 42.9780 23.5588 70.8736 -0.0015 7.9964 0.0006
# 4 -0.0006 -0.0009 -0.0015 30.4688 0.0005 11.2541
# 5 -12.1027 13.3200 7.9964 0.0005 34.2328 -0.0003
# 6 0.0003 0.0002 0.0006 11.2541 -0.0003 32.0190
#
#
#
# Elastic Compliance Matrix: (Units=1/GPa)
#
#
# Indices 1 2 3 4 5 6 
#
# 1 0.014364 -0.006944 -0.007477 -0.000001 0.009527 0.000000
# 2 -0.006944 0.017695 -0.000634 0.000001 -0.009192 0.000000
# 3 -0.007477 -0.000634 0.019643 0.000001 -0.006985 -0.000001
# 4 -0.000001 0.000001 0.000001 0.037717 -0.000001 -0.013257
# 5 0.009527 -0.009192 -0.006985 -0.000001 0.037788 0.000001
# 6 0.000000 0.000000 -0.000001 -0.013257 0.000001 0.035891
#
#
# Mechanical properties :
#
#
# Convention : Reuss Voigt Hill
#
# Bulk Modulus (GPa) = 46.31379 54.52075 50.41727
# Shear Modulus (GPa) = 24.94927 30.23354 27.59140
#
# Velocity S-wave (km/s) = 3.64497 4.01245 3.83312
# Velocity P-wave (km/s) = 6.50978 7.10630 6.81457
#
# Compressibility (1/GPa) = 0.02159184
#
# Stress axis : x y z
#
# Youngs Moduli (GPa) = 69.61697 56.51179 50.90945
#
# Poissons Ratio (x) = 0.39242 0.38066
# Poissons Ratio (y) = 0.48342 0.03228
# Poissons Ratio (z) = 0.52054 0.03583
#
# Static dielectric constant tensor:
#      x y z
#    x 1.670360 0.000000 -0.009480 
#    y 0.000000 1.690500 0.000000 
#    z -0.009480 0.000000 1.694230 
# 
# From -- ./inp_files/7688.got.cif
#   From: 2010.05.17/outbox.cif.g08.bks.cpg/sg9_4_cif.got.tgz:7688.got - 2010.06.03 20:04:27.
