data_PCOD9135230
_publ_section_title
;
Structure prediction by ZEFSAII (Michael W. Deem and Ramdas Pophale) SiO2 
 PCOD9135230
Probable space group: C C
;
_chemical_formula_sum "Si O2"
_cell_formula_units_Z 28
_cell_length_a 11.142251
_cell_length_b 21.520891
_cell_length_c 5.146531
_cell_angle_alpha 90.000000
_cell_angle_beta 74.579087
_cell_angle_gamma 90.000000
_cell_volume 1189.663390
_symmetry_space_group_name_H-M "C C"
_symmetry_group_IT_number 9
_symmetry_cell_setting 'monoclinic'
loop_
_space_group_symop_operation_xyz
x,y,z
x,-y,1/2+z
1/2+x,1/2+y,z
1/2+x,1/2-y,1/2+z
loop_
_atom_site_type_symbol
_atom_site_label
_atom_site_fract_x
_atom_site_fract_y
_atom_site_fract_z
Si Si1 0.370240 0.847365 0.765010
Si Si2 0.531601 0.161106 0.653764
Si Si3 0.218330 0.041220 0.559892
Si Si4 0.846001 0.965332 0.468878
Si Si5 0.008276 0.142535 0.761797
Si Si6 0.108992 0.207385 0.229744
Si Si7 0.572801 0.022389 0.586622
O O1 0.450566 0.851708 0.458042
O O2 0.243127 0.814302 0.753308
O O3 0.448051 0.817675 0.956194
O O4 0.328114 0.911704 0.921687
O O5 0.616130 0.219594 0.670657
O O6 0.596022 0.095508 0.547137
O O7 0.097865 0.086040 0.620555
O O8 0.217655 0.987469 0.346340
O O9 0.880130 0.894338 0.391935
O O10 0.895608 0.011518 0.216475
O O11 0.698456 0.980914 0.552966
O O12 0.013250 0.190649 0.519710
O O13 0.064603 0.172199 0.992893
O O14 0.502785 0.990740 0.392260
#
# Coordination Sequence:
#
# PCOD9135230 Si02
#       7
#     4   4   4   4   4   4   4
#     4  11  25  44  68 101 137 177 245 283 343 430
#     4  12  25  47  71  97 141 188 234 296 351 412
#     4  11  21  36  64 101 131 176 216 283 347 407
#     4  10  20  38  63  98 140 178 219 280 350 417
#     4  11  21  40  67  98 146 175 227 289 341 424
#     4  11  25  46  67 102 139 185 244 287 346 418
#     4  10  23  43  66  99 138 173 233 286 340 426
#
# _framework density 23.536066999999999
#
# number of rings (size 3 to 8) (size 9 to 14) (size 15 to 20)
#    0.000    1.143    0.000    7.714    0.000    3.429 
#   15.429    0.000    0.000    0.000    0.000    0.000 
#    0.000    0.000    0.000    0.000    0.000    0.000 
#
# Total GULP energy -78275.428932 kJ/mol
# GULP energy per Si atom -5591.102067 kJ/mol
# Density = 2.348250 g / cm^3
# Si number density = 23.536067 Si / 1000 Ang^3
#
#
#
# Elastic Constant Matrix: (Units=GPa)
#
#
# Indices 1 2 3 4 5 6 
#
# 1 55.7467 35.7861 13.0133 0.0000 2.9024 0.0000
# 2 35.7861 129.0484 11.3589 0.0000 4.0574 0.0000
# 3 13.0133 11.3589 134.4719 0.0000 24.7286 0.0000
# 4 0.0000 0.0000 0.0000 37.4426 0.0000 18.3201
# 5 2.9024 4.0574 24.7286 0.0000 28.3872 0.0000
# 6 0.0000 0.0000 0.0000 18.3201 0.0000 12.2719
#
#
#
# Elastic Compliance Matrix: (Units=1/GPa)
#
#
# Indices 1 2 3 4 5 6 
#
# 1 0.022176 -0.006006 -0.001643 0.000000 0.000022 0.000000
# 2 -0.006006 0.009443 -0.000097 0.000000 -0.000652 0.000000
# 3 -0.001643 -0.000097 0.009014 0.000000 -0.007671 0.000000
# 4 0.000000 0.000000 0.000000 0.099073 0.000000 -0.147900
# 5 0.000022 -0.000652 -0.007671 0.000000 0.042000 0.000000
# 6 0.000000 0.000000 0.000000 -0.147900 0.000000 0.302278
#
#
# Mechanical properties :
#
#
# Convention : Reuss Voigt Hill
#
# Bulk Modulus (GPa) = 39.77211 48.84264 44.30738
# Shear Modulus (GPa) = 9.84531 32.89427 21.36979
#
# Velocity S-wave (km/s) = 2.04748 3.74252 3.01651
# Velocity P-wave (km/s) = 4.74601 6.28272 5.56764
#
# Compressibility (1/GPa) = 0.02514325
#
# Stress axis : x y z
#
# Youngs Moduli (GPa) = 45.09407 105.89374 110.93552
#
# Poissons Ratio (x) = 0.63596 0.18225
# Poissons Ratio (y) = 0.27082 0.01073
# Poissons Ratio (z) = 0.07408 0.01024
#
# Static dielectric constant tensor:
#      x y z
#    x 1.963580 0.000000 0.000130 
#    y 0.000000 1.875250 0.000000 
#    z 0.000130 0.000000 2.017450 
# 
# From -- ./inp_files/1835.got.cif
#   From: 2010.05.17/outbox.cif.g08.bks.cpg/sg9_1_cif.got.tgz:1835.got - 2010.06.03 20:04:27.
