data_PCOD9135224
_publ_section_title
;
Structure prediction by ZEFSAII (Michael W. Deem and Ramdas Pophale) SiO2 
 PCOD9135224
Probable space group: C C
;
_chemical_formula_sum "Si O2"
_cell_formula_units_Z 28
_cell_length_a 10.693962
_cell_length_b 8.831756
_cell_length_c 25.249542
_cell_angle_alpha 90.000000
_cell_angle_beta 33.174964
_cell_angle_gamma 90.000000
_cell_volume 1304.918350
_symmetry_space_group_name_H-M "C C"
_symmetry_group_IT_number 9
_symmetry_cell_setting 'monoclinic'
loop_
_space_group_symop_operation_xyz
x,y,z
x,-y,1/2+z
1/2+x,1/2+y,z
1/2+x,1/2-y,1/2+z
loop_
_atom_site_type_symbol
_atom_site_label
_atom_site_fract_x
_atom_site_fract_y
_atom_site_fract_z
Si Si1 0.609610 0.958051 0.486920
Si Si2 0.827499 0.259358 0.828630
Si Si3 0.914950 0.460111 0.242153
Si Si4 0.726705 0.766124 0.878889
Si Si5 0.595252 0.558406 0.650792
Si Si6 0.758462 0.869108 0.550730
Si Si7 0.724940 0.821151 0.763614
O O1 0.703618 0.925616 0.511658
O O2 0.655876 0.819339 0.430083
O O3 0.743587 0.103713 0.415606
O O4 0.340043 0.995385 0.582757
O O5 0.758530 0.397379 0.814695
O O6 0.948197 0.129839 0.750827
O O7 0.025944 0.338886 0.792794
O O8 0.142454 0.527467 0.136486
O O9 0.933168 0.337545 0.283813
O O10 0.797784 0.355370 0.239000
O O11 0.642138 0.843838 0.853668
O O12 0.526012 0.652261 0.966309
O O13 0.650084 0.701672 0.594635
O O14 0.441305 0.428778 0.679059
#
# Coordination Sequence:
#
# PCOD9135224 Si02
#       7
#     4   4   4   4   4   4   4
#     4  11  20  37  66  88 121 167 205 249 311 363
#     4  11  20  39  63  85 124 166 198 253 308 358
#     4   9  21  37  59  88 121 156 201 250 297 365
#     4   9  20  39  60  87 129 158 199 254 303 360
#     4  10  23  38  61  90 122 161 206 250 303 368
#     4  10  20  38  63  93 120 160 208 253 302 358
#     4  10  20  40  60  85 123 158 197 251 300 356
#
# _framework density 21.457281999999999
#
# number of rings (size 3 to 8) (size 9 to 14) (size 15 to 20)
#    0.857    1.143    2.857    0.857    0.000    2.286 
#    0.000    7.143    0.000    0.000    0.000    0.000 
#    0.000    0.000    0.000    0.000    0.000    0.000 
#
# Total GULP energy -78043.278075 kJ/mol
# GULP energy per Si atom -5574.519863 kJ/mol
# Density = 2.140844 g / cm^3
# Si number density = 21.457282 Si / 1000 Ang^3
#
#
#
# Elastic Constant Matrix: (Units=GPa)
#
#
# Indices 1 2 3 4 5 6 
#
# 1 50.2732 42.2314 14.8031 0.0000 4.2543 0.0000
# 2 42.2314 92.9885 39.6217 0.0000 2.2073 0.0000
# 3 14.8031 39.6217 76.3708 -0.0001 16.3378 0.0000
# 4 0.0000 0.0000 -0.0001 51.6921 0.0000 5.4869
# 5 4.2543 2.2073 16.3378 0.0000 21.4782 0.0000
# 6 0.0000 0.0000 0.0000 5.4869 0.0000 24.5473
#
#
#
# Elastic Compliance Matrix: (Units=1/GPa)
#
#
# Indices 1 2 3 4 5 6 
#
# 1 0.033368 -0.016592 0.003809 0.000000 -0.007802 0.000000
# 2 -0.016592 0.022486 -0.010341 0.000000 0.008842 0.000000
# 3 0.003809 -0.010341 0.021086 0.000000 -0.015731 0.000000
# 4 0.000000 0.000000 0.000000 0.019815 0.000000 -0.004429
# 5 -0.007802 0.008842 -0.015731 0.000000 0.059162 0.000000
# 6 0.000000 0.000000 0.000000 -0.004429 0.000000 0.041728
#
#
# Mechanical properties :
#
#
# Convention : Reuss Voigt Hill
#
# Bulk Modulus (GPa) = 32.58195 45.88278 39.23236
# Shear Modulus (GPa) = 19.67540 27.74191 23.70866
#
# Velocity S-wave (km/s) = 3.03141 3.59958 3.32765
# Velocity P-wave (km/s) = 5.24120 6.22139 5.75221
#
# Compressibility (1/GPa) = 0.03069184
#
# Stress axis : x y z
#
# Youngs Moduli (GPa) = 29.96879 44.47206 47.42450
#
# Poissons Ratio (x) = 0.73790 -0.18066
# Poissons Ratio (y) = 0.49725 0.49043
# Poissons Ratio (z) = -0.11417 0.45990
#
# Static dielectric constant tensor:
#      x y z
#    x 1.743350 0.000000 0.007030 
#    y 0.000000 1.824840 0.000000 
#    z 0.007030 0.000000 1.810830 
# 
# From -- ./inp_files/24072.got.cif
#   From: 2010.05.17/outbox.cif.g08.bks.cpg/sg9_13_cif.got.tgz:24072.got - 2010.06.03 20:04:27.
