data_PCOD9135669
_publ_section_title
;
Structure prediction by ZEFSAII (Michael W. Deem and Ramdas Pophale) SiO2 
 PCOD9135669
Probable space group: C C
;
_chemical_formula_sum "Si O2"
_cell_formula_units_Z 28
_cell_length_a 6.800255
_cell_length_b 20.547235
_cell_length_c 9.480312
_cell_angle_alpha 90.000000
_cell_angle_beta 115.377971
_cell_angle_gamma 90.000000
_cell_volume 1196.821665
_symmetry_space_group_name_H-M "C C"
_symmetry_group_IT_number 9
_symmetry_cell_setting 'monoclinic'
loop_
_space_group_symop_operation_xyz
x,y,z
x,-y,1/2+z
1/2+x,1/2+y,z
1/2+x,1/2-y,1/2+z
loop_
_atom_site_type_symbol
_atom_site_label
_atom_site_fract_x
_atom_site_fract_y
_atom_site_fract_z
Si Si1 0.947040 0.808463 0.185040
Si Si2 0.934273 0.592648 0.789465
Si Si3 0.669524 0.327243 0.736638
Si Si4 0.429795 0.211453 0.586277
Si Si5 0.099687 0.972550 0.660107
Si Si6 0.360205 0.197764 0.991951
Si Si7 0.392974 0.445740 0.298365
O O1 0.690278 0.799921 0.140468
O O2 0.981449 0.766808 0.052309
O O3 0.969333 0.884733 0.226130
O O4 0.133617 0.783266 0.347120
O O5 0.784804 0.527779 0.741754
O O6 0.857790 0.651299 0.662024
O O7 0.166699 0.570418 0.802108
O O8 0.956343 0.635919 0.938904
O O9 0.446885 0.285585 0.648988
O O10 0.646923 0.403931 0.748255
O O11 0.805401 0.323711 0.633265
O O12 0.798558 0.294714 0.903088
O O13 0.051854 0.961698 0.479339
O O14 0.889541 0.997906 0.681678
#
# Coordination Sequence:
#
# PCOD9135669 Si02
#       7
#     4   4   4   4   4   4   4
#     4  10  20  42  68 106 141 190 236 312 360 436
#     4  11  26  46  73 106 144 195 249 303 372 452
#     4  11  22  41  75 104 143 198 242 308 369 440
#     4  10  23  40  70 106 147 186 247 304 372 438
#     4  12  24  48  73 105 151 196 245 310 368 454
#     4  11  21  42  73 102 149 184 247 306 367 438
#     4  11  26  47  72 105 149 193 248 303 374 444
#
# _framework density 23.395299000000001
#
# number of rings (size 3 to 8) (size 9 to 14) (size 15 to 20)
#    0.000    1.143    2.857    4.286    2.000    5.714 
#    2.571    0.000    0.000    0.000    0.000    0.000 
#    0.000    0.000    0.000    0.000    0.000    0.000 
#
# Total GULP energy -78073.746630 kJ/mol
# GULP energy per Si atom -5576.696188 kJ/mol
# Density = 2.334205 g / cm^3
# Si number density = 23.395299 Si / 1000 Ang^3
#
#
#
# Elastic Constant Matrix: (Units=GPa)
#
#
# Indices 1 2 3 4 5 6 
#
# 1 84.2449 68.8718 42.9764 0.0000 -9.7938 0.0000
# 2 68.8718 204.7031 73.7029 0.0000 6.3746 0.0000
# 3 42.9764 73.7029 116.7131 0.0000 -5.7546 0.0000
# 4 0.0000 0.0000 0.0000 50.9991 0.0000 -6.1395
# 5 -9.7938 6.3746 -5.7546 0.0000 26.9638 0.0000
# 6 0.0000 0.0000 0.0000 -6.1395 0.0000 42.4634
#
#
#
# Elastic Compliance Matrix: (Units=1/GPa)
#
#
# Indices 1 2 3 4 5 6 
#
# 1 0.018754 -0.005418 -0.003118 0.000000 0.007427 0.000000
# 2 -0.005418 0.008042 -0.003309 0.000000 -0.004575 0.000000
# 3 -0.003118 -0.003309 0.011914 0.000000 0.002192 0.000000
# 4 0.000000 0.000000 0.000000 0.019956 0.000000 0.002885
# 5 0.007427 -0.004575 0.002192 0.000000 0.041334 0.000000
# 6 0.000000 0.000000 0.000000 0.002885 0.000000 0.023967
#
#
# Mechanical properties :
#
#
# Convention : Reuss Voigt Hill
#
# Bulk Modulus (GPa) = 66.58025 86.30704 76.44365
# Shear Modulus (GPa) = 32.75209 38.75927 35.75568
#
# Velocity S-wave (km/s) = 3.74564 4.07469 3.91362
# Velocity P-wave (km/s) = 6.87219 7.68819 7.29162
#
# Compressibility (1/GPa) = 0.01501947
#
# Stress axis : x y z
#
# Youngs Moduli (GPa) = 53.32275 124.34800 83.93783
#
# Poissons Ratio (x) = 0.67377 0.26169
# Poissons Ratio (y) = 0.28893 0.27773
# Poissons Ratio (z) = 0.16624 0.41144
#
# Static dielectric constant tensor:
#      x y z
#    x 2.017850 0.000000 -0.052410 
#    y 0.000000 1.974510 0.000000 
#    z -0.052410 0.000000 1.873440 
# 
# From -- ./inp_files/5677.got.cif
#   From: 2010.05.17/outbox.cif.g08.bks.cpg/sg9_3_cif.got.tgz:5677.got - 2010.06.03 20:04:27.
