data_PCOD9135367
_publ_section_title
;
Structure prediction by ZEFSAII (Michael W. Deem and Ramdas Pophale) SiO2 
 PCOD9135367
Probable space group: C C
;
_chemical_formula_sum "Si O2"
_cell_formula_units_Z 24
_cell_length_a 12.652368
_cell_length_b 10.780707
_cell_length_c 9.437996
_cell_angle_alpha 90.000000
_cell_angle_beta 135.621653
_cell_angle_gamma 90.000000
_cell_volume 900.368520
_symmetry_space_group_name_H-M "C C"
_symmetry_group_IT_number 9
_symmetry_cell_setting 'monoclinic'
loop_
_space_group_symop_operation_xyz
x,y,z
x,-y,1/2+z
1/2+x,1/2+y,z
1/2+x,1/2-y,1/2+z
loop_
_atom_site_type_symbol
_atom_site_label
_atom_site_fract_x
_atom_site_fract_y
_atom_site_fract_z
Si Si1 0.945510 0.406598 0.257580
Si Si2 0.978589 0.119245 0.618854
Si Si3 0.446384 0.649544 0.144211
Si Si4 0.709679 0.241177 0.714703
Si Si5 0.277646 0.007064 0.330440
Si Si6 0.149672 0.369693 0.864010
O O1 0.973004 0.259832 0.278562
O O2 0.911157 0.429878 0.388354
O O3 0.066234 0.499607 0.304812
O O4 0.805175 0.443224 0.017010
O O5 0.800316 0.133192 0.409160
O O6 0.040552 0.250718 0.733275
O O7 0.966415 0.992922 0.704900
O O8 0.122125 0.068348 0.664884
O O9 0.555735 0.695659 0.121097
O O10 0.285158 0.672152 0.917994
O O11 0.796353 0.367030 0.757669
O O12 0.707633 0.156177 0.578625
#
# Coordination Sequence:
#
# PCOD9135367 Si02
#       6
#     4   4   4   4   4   4
#     4  11  23  44  72 102 137 179 228 285 345 409
#     4  11  24  41  65  99 139 181 228 280 340 404
#     4  10  22  42  66  96 129 172 228 283 334 399
#     4  10  20  39  67  93 130 184 227 259 332 429
#     4  10  22  43  68  99 140 181 225 286 344 400
#     4  12  23  43  70 101 137 183 230 279 339 409
#
# _framework density 26.655750000000001
#
# number of rings (size 3 to 8) (size 9 to 14) (size 15 to 20)
#    0.000    1.333    0.000    7.000    0.000    1.333 
#    0.000   25.000    0.000    2.000    0.000    0.000 
#    0.000    0.000    0.000    0.000    0.000    0.000 
#
# Total GULP energy -66924.292987 kJ/mol
# GULP energy per Si atom -5577.024416 kJ/mol
# Density = 2.659508 g / cm^3
# Si number density = 26.655750 Si / 1000 Ang^3
#
#
#
# Elastic Constant Matrix: (Units=GPa)
#
#
# Indices 1 2 3 4 5 6 
#
# 1 71.3004 46.5829 12.2328 0.0000 12.7066 0.0000
# 2 46.5829 192.7005 48.7378 0.0000 28.6756 0.0000
# 3 12.2328 48.7378 59.8796 0.0000 15.8184 0.0000
# 4 0.0000 0.0000 0.0000 29.6959 0.0000 8.9690
# 5 12.7066 28.6756 15.8184 0.0000 37.3261 0.0000
# 6 0.0000 0.0000 0.0000 8.9690 0.0000 52.1954
#
#
#
# Elastic Compliance Matrix: (Units=1/GPa)
#
#
# Indices 1 2 3 4 5 6 
#
# 1 0.016947 -0.003740 0.000391 0.000000 -0.003062 0.000000
# 2 -0.003740 0.007698 -0.004815 0.000000 -0.002601 0.000000
# 3 0.000391 -0.004815 0.022068 0.000000 -0.005786 0.000000
# 4 0.000000 0.000000 0.000000 0.035518 0.000000 -0.006103
# 5 -0.003062 -0.002601 -0.005786 0.000000 0.032283 0.000000
# 6 0.000000 0.000000 0.000000 -0.006103 0.000000 0.020208
#
#
# Mechanical properties :
#
#
# Convention : Reuss Voigt Hill
#
# Bulk Modulus (GPa) = 32.91090 59.88747 46.39919
# Shear Modulus (GPa) = 31.02153 38.26529 34.64341
#
# Velocity S-wave (km/s) = 3.41513 3.79296 3.60899
# Velocity P-wave (km/s) = 5.28434 6.45738 5.90009
#
# Compressibility (1/GPa) = 0.03038507
#
# Stress axis : x y z
#
# Youngs Moduli (GPa) = 59.00681 129.89981 45.31488
#
# Poissons Ratio (x) = 0.48583 -0.01771
# Poissons Ratio (y) = 0.22069 0.21818
# Poissons Ratio (z) = -0.02306 0.62544
#
# Static dielectric constant tensor:
#      x y z
#    x 2.144910 0.000000 0.145410 
#    y 0.000000 2.067630 0.000000 
#    z 0.145410 0.000000 2.248770 
# 
# From -- ./inp_files/8876.got.cif
#   From: 2010.05.17/outbox.cif.g08.bks.cpg/sg9_5_cif.got.tgz:8876.got - 2010.06.03 20:04:27.
