data_PCOD9135718
_publ_section_title
;
Structure prediction by ZEFSAII (Michael W. Deem and Ramdas Pophale) SiO2 
 PCOD9135718
Probable space group: C C
;
_chemical_formula_sum "Si O2"
_cell_formula_units_Z 24
_cell_length_a 9.614478
_cell_length_b 21.966856
_cell_length_c 5.092034
_cell_angle_alpha 90.000000
_cell_angle_beta 75.206528
_cell_angle_gamma 90.000000
_cell_volume 1039.788779
_symmetry_space_group_name_H-M "C C"
_symmetry_group_IT_number 9
_symmetry_cell_setting 'monoclinic'
loop_
_space_group_symop_operation_xyz
x,y,z
x,-y,1/2+z
1/2+x,1/2+y,z
1/2+x,1/2-y,1/2+z
loop_
_atom_site_type_symbol
_atom_site_label
_atom_site_fract_x
_atom_site_fract_y
_atom_site_fract_z
Si Si1 0.270610 0.836124 0.798950
Si Si2 0.592501 0.351335 0.410877
Si Si3 0.642771 0.228219 0.615523
Si Si4 0.645168 0.977526 0.403927
Si Si5 0.089441 0.347372 0.652056
Si Si6 0.465666 0.527503 0.124379
O O1 0.217743 0.869556 0.559858
O O2 0.425411 0.854977 0.824270
O O3 0.155451 0.843211 0.089482
O O4 0.271497 0.766124 0.691733
O O5 0.548964 0.284432 0.541137
O O6 0.478365 0.404853 0.503984
O O7 0.580156 0.192110 0.890382
O O8 0.672184 0.184892 0.352960
O O9 0.803205 0.004347 0.258876
O O10 0.572469 0.020773 0.654610
O O11 0.649636 0.911302 0.525725
O O12 0.534042 0.517379 0.376398
#
# Coordination Sequence:
#
# PCOD9135718 Si02
#       6
#     4   4   4   4   4   4
#     4  10  22  41  62  98 132 170 223 276 354 399
#     4  10  20  43  61  93 140 165 237 273 340 413
#     4  10  22  41  64 100 127 183 220 282 354 395
#     4  10  23  44  62  95 132 177 229 272 342 392
#     4  12  22  43  68  94 144 171 235 279 335 425
#     4  10  21  40  63  92 131 172 222 288 325 396
#
# _framework density 23.081609
#
# number of rings (size 3 to 8) (size 9 to 14) (size 15 to 20)
#    1.000    0.667    1.667    3.000    0.000    0.000 
#   18.000    5.000    0.000    0.000    0.000    0.000 
#    0.000    0.000    0.000    0.000    0.000    0.000 
#
# Total GULP energy -66818.721329 kJ/mol
# GULP energy per Si atom -5568.226777 kJ/mol
# Density = 2.302907 g / cm^3
# Si number density = 23.081609 Si / 1000 Ang^3
#
#
#
# Elastic Constant Matrix: (Units=GPa)
#
#
# Indices 1 2 3 4 5 6 
#
# 1 44.6576 18.0516 24.3184 0.0000 -0.9456 0.0000
# 2 18.0516 134.0337 70.1301 0.0000 -15.0660 0.0000
# 3 24.3184 70.1301 196.2147 0.0000 33.5702 0.0000
# 4 0.0000 0.0000 0.0000 42.2695 0.0000 4.7885
# 5 -0.9456 -15.0660 33.5702 0.0000 26.6831 0.0000
# 6 0.0000 0.0000 0.0000 4.7885 0.0000 14.8663
#
#
#
# Elastic Compliance Matrix: (Units=1/GPa)
#
#
# Indices 1 2 3 4 5 6 
#
# 1 0.024817 -0.000926 -0.003576 0.000000 0.004855 0.000000
# 2 -0.000926 0.013550 -0.007686 0.000000 0.017288 0.000000
# 3 -0.003576 -0.007686 0.011534 0.000000 -0.018977 0.000000
# 4 0.000000 0.000000 0.000000 0.024554 0.000000 -0.007909
# 5 0.004855 0.017288 -0.018977 0.000000 0.071285 0.000000
# 6 0.000000 0.000000 0.000000 -0.007909 0.000000 0.069814
#
#
# Mechanical properties :
#
#
# Convention : Reuss Voigt Hill
#
# Bulk Modulus (GPa) = 39.17625 66.65625 52.91625
# Shear Modulus (GPa) = 20.12582 34.25750 27.19166
#
# Velocity S-wave (km/s) = 2.95607 3.85670 3.43602
# Velocity P-wave (km/s) = 5.35359 6.98379 6.22231
#
# Compressibility (1/GPa) = 0.02552567
#
# Stress axis : x y z
#
# Youngs Moduli (GPa) = 40.29543 73.79869 86.70382
#
# Poissons Ratio (x) = 0.06832 0.31001
# Poissons Ratio (y) = 0.03730 0.66642
# Poissons Ratio (z) = 0.14408 0.56723
#
# Static dielectric constant tensor:
#      x y z
#    x 2.119180 0.000000 0.147630 
#    y 0.000000 1.925040 0.000000 
#    z 0.147630 0.000000 1.916610 
# 
# From -- ./inp_files/1750.got.cif
#   From: 2010.05.17/outbox.cif.g08.bks.cpg/sg9_1_cif.got.tgz:1750.got - 2010.06.03 20:04:27.
