data_PCOD9135759
_publ_section_title
;
Structure prediction by ZEFSAII (Michael W. Deem and Ramdas Pophale) SiO2 
 PCOD9135759
Probable space group: C C
;
_chemical_formula_sum "Si O2"
_cell_formula_units_Z 28
_cell_length_a 14.386803
_cell_length_b 4.747891
_cell_length_c 19.311226
_cell_angle_alpha 90.000000
_cell_angle_beta 130.052634
_cell_angle_gamma 90.000000
_cell_volume 1009.703290
_symmetry_space_group_name_H-M "C C"
_symmetry_group_IT_number 9
_symmetry_cell_setting 'monoclinic'
loop_
_space_group_symop_operation_xyz
x,y,z
x,-y,1/2+z
1/2+x,1/2+y,z
1/2+x,1/2-y,1/2+z
loop_
_atom_site_type_symbol
_atom_site_label
_atom_site_fract_x
_atom_site_fract_y
_atom_site_fract_z
Si Si1 0.797270 0.561838 0.909340
Si Si2 0.604560 0.754974 0.634466
Si Si3 0.823387 0.402302 0.714169
Si Si4 0.396960 0.434571 0.376624
Si Si5 0.647739 0.863983 0.023957
Si Si6 0.542598 0.813436 0.749869
Si Si7 0.374317 0.420262 0.065991
O O1 0.818159 0.246069 0.894798
O O2 0.658928 0.666322 0.837437
O O3 0.877609 0.751389 0.894632
O O4 0.843078 0.629091 0.008716
O O5 0.730949 0.604178 0.708710
O O6 0.579387 0.934935 0.692387
O O7 0.496961 0.517517 0.580324
O O8 0.608541 0.931454 0.567089
O O9 0.846128 0.142844 0.776705
O O10 0.742194 0.345878 0.607146
O O11 0.958588 0.502024 0.758407
O O12 0.533734 0.311380 0.442166
O O13 0.737788 0.027922 0.013657
O O14 0.441624 0.590542 0.672834
#
# Coordination Sequence:
#
# PCOD9135759 Si02
#       7
#     4   4   4   4   4   4   4
#     4  12  23  46  67 103 139 192 228 299 349 417
#     4  10  20  44  64  92 140 170 236 284 350 412
#     4  11  23  43  70 101 135 191 230 292 351 424
#     4  12  25  42  75  97 147 184 238 287 361 413
#     4  11  23  43  70 101 135 191 230 292 351 424
#     4   9  21  43  65  99 137 177 238 285 348 420
#     4   9  21  43  65  99 137 177 238 285 348 420
#
# _framework density 27.730917999999999
#
# number of rings (size 3 to 8) (size 9 to 14) (size 15 to 20)
#    0.857    0.571    2.857    2.571    0.000    0.000 
#   18.000    2.857    0.000    0.000    0.000    0.000 
#    0.000    0.000    0.000    0.000    0.000    0.000 
#
# Total GULP energy -78118.510846 kJ/mol
# GULP energy per Si atom -5579.893632 kJ/mol
# Density = 2.766780 g / cm^3
# Si number density = 27.730918 Si / 1000 Ang^3
#
#
#
# Elastic Constant Matrix: (Units=GPa)
#
#
# Indices 1 2 3 4 5 6 
#
# 1 198.1081 14.4807 14.1153 0.0000 31.5638 0.0000
# 2 14.4807 47.6386 -0.6662 0.0000 4.4542 0.0000
# 3 14.1153 -0.6662 143.2700 0.0000 29.3349 0.0000
# 4 0.0000 0.0000 0.0000 29.0597 0.0000 -3.8218
# 5 31.5638 4.4542 29.3349 0.0000 64.8138 0.0000
# 6 0.0000 0.0000 0.0000 -3.8218 0.0000 18.9917
#
#
#
# Elastic Compliance Matrix: (Units=1/GPa)
#
#
# Indices 1 2 3 4 5 6 
#
# 1 0.005570 -0.001450 -0.000023 0.000000 -0.002603 0.000000
# 2 -0.001450 0.021529 0.000442 0.000000 -0.000974 0.000000
# 3 -0.000023 0.000442 0.007702 0.000000 -0.003505 0.000000
# 4 0.000000 0.000000 0.000000 0.035347 0.000000 0.007113
# 5 -0.002603 -0.000974 -0.003505 0.000000 0.018350 0.000000
# 6 0.000000 0.000000 0.000000 0.007113 0.000000 0.054086
#
#
# Mechanical properties :
#
#
# Convention : Reuss Voigt Hill
#
# Bulk Modulus (GPa) = 30.54320 49.43068 39.98694
# Shear Modulus (GPa) = 32.14224 46.64551 39.39387
#
# Velocity S-wave (km/s) = 3.40821 4.10576 3.77314
# Velocity P-wave (km/s) = 5.15033 6.35139 5.78213
#
# Compressibility (1/GPa) = 0.03274051
#
# Stress axis : x y z
#
# Youngs Moduli (GPa) = 179.53241 46.44812 129.83933
#
# Poissons Ratio (x) = 0.06735 0.00294
# Poissons Ratio (y) = 0.26034 -0.05743
# Poissons Ratio (z) = 0.00406 -0.02055
#
# Static dielectric constant tensor:
#      x y z
#    x 2.385690 0.000000 -0.059440 
#    y 0.000000 2.206870 0.000000 
#    z -0.059440 0.000000 2.200580 
# 
# From -- ./inp_files/33554.got.cif
#   From: 2010.05.17/outbox.cif.g08.bks.cpg/sg9_17_cif.got.tgz:33554.got - 2010.06.03 20:04:27.
