data_PCOD9135353
_publ_section_title
;
Structure prediction by ZEFSAII (Michael W. Deem and Ramdas Pophale) SiO2 
 PCOD9135353
Probable space group: C C
;
_chemical_formula_sum "Si O2"
_cell_formula_units_Z 28
_cell_length_a 7.934795
_cell_length_b 22.703737
_cell_length_c 9.677836
_cell_angle_alpha 90.000000
_cell_angle_beta 130.856567
_cell_angle_gamma 90.000000
_cell_volume 1318.663196
_symmetry_space_group_name_H-M "C C"
_symmetry_group_IT_number 9
_symmetry_cell_setting 'monoclinic'
loop_
_space_group_symop_operation_xyz
x,y,z
x,-y,1/2+z
1/2+x,1/2+y,z
1/2+x,1/2-y,1/2+z
loop_
_atom_site_type_symbol
_atom_site_label
_atom_site_fract_x
_atom_site_fract_y
_atom_site_fract_z
Si Si1 0.009160 0.556266 0.989700
Si Si2 0.960311 0.117692 0.337244
Si Si3 0.187796 0.699073 0.387416
Si Si4 0.915631 0.554762 0.627295
Si Si5 0.637056 0.178000 0.681664
Si Si6 0.360813 0.292182 0.572692
Si Si7 0.398800 0.819062 0.488156
O O1 0.002782 0.539788 0.826344
O O2 0.250559 0.579362 0.170426
O O3 0.939315 0.501332 0.043001
O O4 0.852065 0.614213 0.920555
O O5 0.876766 0.158905 0.417503
O O6 0.016456 0.162840 0.241894
O O7 0.161926 0.077029 0.489491
O O8 0.226189 0.767445 0.371365
O O9 0.187441 0.690468 0.549741
O O10 0.965646 0.680742 0.185846
O O11 0.054134 0.611579 0.652088
O O12 0.451873 0.226284 0.627579
O O13 0.830995 0.188916 0.897910
O O14 0.122202 0.300104 0.521885
#
# Coordination Sequence:
#
# PCOD9135353 Si02
#       7
#     4   4   4   4   4   4   4
#     4  10  26  45  67  96 129 176 229 276 315 406
#     4  10  24  46  69  96 130 177 217 277 341 401
#     4  10  22  35  65  96 135 163 209 278 331 390
#     4  12  25  46  71  90 135 182 224 271 337 385
#     4  12  21  38  65 102 133 172 216 280 327 394
#     4  10  20  39  65  98 131 169 220 270 337 396
#     4  10  20  41  60  92 131 169 211 268 336 392
#
# _framework density 21.233626000000001
#
# number of rings (size 3 to 8) (size 9 to 14) (size 15 to 20)
#    0.000    1.714    2.857    4.286    6.000    1.143 
#    0.000    0.000    0.000    0.000    0.000    0.000 
#    0.000    0.000    0.000    0.000    0.000    0.000 
#
# Total GULP energy -78275.330050 kJ/mol
# GULP energy per Si atom -5591.095004 kJ/mol
# Density = 2.118530 g / cm^3
# Si number density = 21.233626 Si / 1000 Ang^3
#
#
#
# Elastic Constant Matrix: (Units=GPa)
#
#
# Indices 1 2 3 4 5 6 
#
# 1 44.2943 53.0443 39.2347 0.0000 -19.1076 0.0000
# 2 53.0443 168.4184 37.8107 0.0000 -15.7294 0.0000
# 3 39.2347 37.8107 91.2711 0.0000 -26.9349 0.0000
# 4 0.0000 0.0000 0.0000 31.0351 0.0000 -11.3669
# 5 -19.1076 -15.7294 -26.9349 0.0000 34.0668 0.0000
# 6 0.0000 0.0000 0.0000 -11.3669 0.0000 24.6605
#
#
#
# Elastic Compliance Matrix: (Units=1/GPa)
#
#
# Indices 1 2 3 4 5 6 
#
# 1 0.058903 -0.013751 -0.015323 0.000000 0.014574 0.000000
# 2 -0.013751 0.009791 0.001191 0.000000 -0.002250 0.000000
# 3 -0.015323 0.001191 0.019142 0.000000 0.007090 0.000000
# 4 0.000000 0.000000 0.000000 0.038766 0.000000 0.017869
# 5 0.014574 -0.002250 0.007090 0.000000 0.042095 0.000000
# 6 0.000000 0.000000 0.000000 0.017869 0.000000 0.048787
#
#
# Mechanical properties :
#
#
# Convention : Reuss Voigt Hill
#
# Bulk Modulus (GPa) = 31.18179 62.68480 46.93329
# Shear Modulus (GPa) = 17.60931 29.54543 23.57737
#
# Velocity S-wave (km/s) = 2.88290 3.73425 3.33585
# Velocity P-wave (km/s) = 5.07922 6.94107 6.08181
#
# Compressibility (1/GPa) = 0.03207000
#
# Stress axis : x y z
#
# Youngs Moduli (GPa) = 16.97708 102.13568 52.23985
#
# Poissons Ratio (x) = 1.40442 0.80049
# Poissons Ratio (y) = 0.23344 -0.06221
# Poissons Ratio (z) = 0.26015 -0.12162
#
# Static dielectric constant tensor:
#      x y z
#    x 1.802420 0.000000 0.027520 
#    y 0.000000 1.733220 0.000000 
#    z 0.027520 0.000000 1.791060 
# 
# From -- ./inp_files/5555.got.cif
#   From: 2010.05.17/outbox.cif.g08.bks.cpg/sg9_3_cif.got.tgz:5555.got - 2010.06.03 20:04:27.
