data_PCOD9135603
_publ_section_title
;
Structure prediction by ZEFSAII (Michael W. Deem and Ramdas Pophale) SiO2 
 PCOD9135603
Probable space group: C C
;
_chemical_formula_sum "Si O2"
_cell_formula_units_Z 32
_cell_length_a 13.970463
_cell_length_b 5.513300
_cell_length_c 16.851819
_cell_angle_alpha 90.000000
_cell_angle_beta 103.479619
_cell_angle_gamma 90.000000
_cell_volume 1262.227929
_symmetry_space_group_name_H-M "C C"
_symmetry_group_IT_number 9
_symmetry_cell_setting 'monoclinic'
loop_
_space_group_symop_operation_xyz
x,y,z
x,-y,1/2+z
1/2+x,1/2+y,z
1/2+x,1/2-y,1/2+z
loop_
_atom_site_type_symbol
_atom_site_label
_atom_site_fract_x
_atom_site_fract_y
_atom_site_fract_z
Si Si1 0.198320 0.119737 0.591120
Si Si2 0.478193 0.625705 0.491801
Si Si3 0.585286 0.340945 0.776595
Si Si4 0.183224 0.213361 0.888919
Si Si5 0.990689 0.517707 0.385124
Si Si6 0.801434 0.134837 0.559696
Si Si7 0.199785 0.544090 0.227827
Si Si8 0.909570 0.080448 0.804610
O O1 0.247999 0.373381 0.566282
O O2 0.169998 0.221069 0.672588
O O3 0.094278 0.071340 0.526994
O O4 0.266208 0.875167 0.603979
O O5 0.414725 0.579414 0.558360
O O6 0.430264 0.525456 0.398776
O O7 0.476243 0.910294 0.468500
O O8 0.672592 0.452010 0.847041
O O9 0.502148 0.551828 0.761666
O O10 0.526629 0.164729 0.824645
O O11 0.626590 0.186624 0.711117
O O12 0.080131 0.294323 0.907025
O O13 0.199805 0.391788 0.819739
O O14 0.264280 0.258634 0.968554
O O15 0.897081 0.640802 0.327346
O O16 0.315319 0.500697 0.237406
#
# Coordination Sequence:
#
# PCOD9135603 Si02
#       8
#     4   4   4   4   4   4   4   4
#     4  12  30  50  68 111 155 189 238 309 368 436
#     4  11  24  42  74 101 142 195 241 297 364 427
#     4   9  21  37  64 100 130 177 229 296 356 415
#     4  10  20  41  71  98 135 184 244 293 347 429
#     4   9  18  37  63  99 130 167 233 302 334 414
#     4  12  27  47  76 105 148 196 248 290 367 444
#     4  11  25  43  68  99 144 184 233 299 371 416
#     4  10  21  39  68 103 132 178 246 294 347 429
#
# _framework density 25.351998999999999
#
# number of rings (size 3 to 8) (size 9 to 14) (size 15 to 20)
#    0.000    1.500    2.500    2.250    7.000    1.000 
#    6.750    0.000    0.000    0.000    0.000    0.000 
#    0.000    0.000    0.000    0.000    0.000    0.000 
#
# Total GULP energy -89082.317906 kJ/mol
# GULP energy per Si atom -5567.644869 kJ/mol
# Density = 2.529430 g / cm^3
# Si number density = 25.351999 Si / 1000 Ang^3
#
#
#
# Elastic Constant Matrix: (Units=GPa)
#
#
# Indices 1 2 3 4 5 6 
#
# 1 125.6279 29.4814 6.2021 0.0000 -12.1156 0.0000
# 2 29.4814 88.7128 -1.7675 0.0000 -5.4706 0.0000
# 3 6.2021 -1.7675 51.1461 0.0000 0.3418 0.0000
# 4 0.0000 0.0000 0.0000 40.0631 0.0000 -8.0562
# 5 -12.1156 -5.4706 0.3418 0.0000 31.6179 0.0000
# 6 0.0000 0.0000 0.0000 -8.0562 0.0000 11.3312
#
#
#
# Elastic Compliance Matrix: (Units=1/GPa)
#
#
# Indices 1 2 3 4 5 6 
#
# 1 0.008967 -0.002821 -0.001205 0.000000 0.002961 0.000000
# 2 -0.002821 0.012289 0.000760 0.000000 0.001037 0.000000
# 3 -0.001205 0.000760 0.019728 0.000000 -0.000543 0.000000
# 4 0.000000 0.000000 0.000000 0.029125 0.000000 0.020707
# 5 0.002961 0.001037 -0.000543 0.000000 0.032947 0.000000
# 6 0.000000 0.000000 0.000000 0.020707 0.000000 0.102975
#
#
# Mechanical properties :
#
#
# Convention : Reuss Voigt Hill
#
# Bulk Modulus (GPa) = 29.02623 37.03544 33.03083
# Shear Modulus (GPa) = 22.31676 32.04048 27.17862
#
# Velocity S-wave (km/s) = 2.97016 3.55889 3.27777
# Velocity P-wave (km/s) = 4.82044 5.61496 5.23280
#
# Compressibility (1/GPa) = 0.03445159
#
# Stress axis : x y z
#
# Youngs Moduli (GPa) = 111.51815 81.37329 50.68989
#
# Poissons Ratio (x) = 0.22959 0.06106
# Poissons Ratio (y) = 0.31464 -0.03852
# Poissons Ratio (z) = 0.13434 -0.06183
#
# Static dielectric constant tensor:
#      x y z
#    x 2.217840 0.000000 -0.011600 
#    y 0.000000 2.292020 0.000000 
#    z -0.011600 0.000000 2.027140 
# 
# From -- ./inp_files/30475.got.cif
#   From: 2010.05.17/outbox.cif.g08.bks.cpg/sg9_16_cif.got.tgz:30475.got - 2010.06.03 20:04:27.
