data_PCOD9135981
_publ_section_title
;
Structure prediction by ZEFSAII (Michael W. Deem and Ramdas Pophale) SiO2 
 PCOD9135981
Probable space group: C C
;
_chemical_formula_sum "Si O2"
_cell_formula_units_Z 32
_cell_length_a 7.610745
_cell_length_b 17.750012
_cell_length_c 9.826866
_cell_angle_alpha 90.000000
_cell_angle_beta 63.506249
_cell_angle_gamma 90.000000
_cell_volume 1188.107267
_symmetry_space_group_name_H-M "C C"
_symmetry_group_IT_number 9
_symmetry_cell_setting 'monoclinic'
loop_
_space_group_symop_operation_xyz
x,y,z
x,-y,1/2+z
1/2+x,1/2+y,z
1/2+x,1/2-y,1/2+z
loop_
_atom_site_type_symbol
_atom_site_label
_atom_site_fract_x
_atom_site_fract_y
_atom_site_fract_z
Si Si1 0.039740 0.151416 0.113570
Si Si2 0.467812 0.188212 0.136791
Si Si3 0.018397 0.148248 0.709210
Si Si4 0.293481 0.924892 0.919100
Si Si5 0.444964 0.075122 0.949304
Si Si6 0.667304 0.896920 0.121440
Si Si7 0.917072 0.967581 0.482200
Si Si8 0.288345 0.735246 0.420622
O O1 0.228049 0.097815 0.078630
O O2 0.952923 0.207554 0.257376
O O3 0.120362 0.202007 0.960415
O O4 0.887087 0.088966 0.120208
O O5 0.535339 0.260258 0.201812
O O6 0.355709 0.136411 0.286038
O O7 0.577317 0.122390 0.010742
O O8 0.382257 0.232113 0.030074
O O9 0.842748 0.128458 0.663084
O O10 0.974885 0.087705 0.841253
O O11 0.219234 0.121051 0.573086
O O12 0.107303 0.976192 0.932379
O O13 0.448400 0.986845 0.918118
O O14 0.482043 0.106892 0.784681
O O15 0.671193 0.839515 0.998031
O O16 0.732154 0.977642 0.044684
#
# Coordination Sequence:
#
# PCOD9135981 Si02
#       8
#     4   4   4   4   4   4   4   4
#     4  10  22  42  68  98 133 178 222 278 338 398
#     4  10  22  37  68  96 132 167 225 270 331 391
#     4  10  23  40  68  99 136 176 223 272 349 400
#     4  10  22  41  68  99 129 182 217 282 341 397
#     4  10  22  40  64  98 135 171 228 274 328 406
#     4  10  23  38  68  99 129 178 224 279 333 398
#     4  10  23  43  68  95 141 174 222 276 347 401
#     4  10  21  37  70  96 129 172 229 271 327 405
#
# _framework density 26.933595
#
# number of rings (size 3 to 8) (size 9 to 14) (size 15 to 20)
#    0.000    2.000    0.000    2.250   19.250    1.000 
#    2.250    0.000    0.000    0.000    0.000    0.000 
#    0.000    0.000    0.000    0.000    0.000    0.000 
#
# Total GULP energy -89178.119400 kJ/mol
# GULP energy per Si atom -5573.632462 kJ/mol
# Density = 2.687229 g / cm^3
# Si number density = 26.933595 Si / 1000 Ang^3
#
#
#
# Elastic Constant Matrix: (Units=GPa)
#
#
# Indices 1 2 3 4 5 6 
#
# 1 49.6340 15.0911 13.6628 0.0000 -0.4094 0.0000
# 2 15.0911 213.8413 80.1928 0.0000 2.5540 0.0000
# 3 13.6628 80.1928 184.0772 0.0000 -14.5261 0.0000
# 4 0.0000 0.0000 0.0000 58.4287 0.0000 -2.0852
# 5 -0.4094 2.5540 -14.5261 0.0000 18.1405 0.0000
# 6 0.0000 0.0000 0.0000 -2.0852 0.0000 27.3866
#
#
#
# Elastic Compliance Matrix: (Units=1/GPa)
#
#
# Indices 1 2 3 4 5 6 
#
# 1 0.020768 -0.001048 -0.001106 0.000000 -0.000270 0.000000
# 2 -0.001048 0.005791 -0.002681 0.000000 -0.002986 0.000000
# 3 -0.001106 -0.002681 0.007163 0.000000 0.006088 0.000000
# 4 0.000000 0.000000 0.000000 0.017161 0.000000 0.001307
# 5 -0.000270 -0.002986 0.006088 0.000000 0.060415 0.000000
# 6 0.000000 0.000000 0.000000 0.001307 0.000000 0.036614
#
#
# Mechanical properties :
#
#
# Convention : Reuss Voigt Hill
#
# Bulk Modulus (GPa) = 41.57479 73.93843 57.75661
# Shear Modulus (GPa) = 30.19332 43.36488 36.77910
#
# Velocity S-wave (km/s) = 3.35181 4.01692 3.69934
# Velocity P-wave (km/s) = 5.51806 7.00185 6.30377
#
# Compressibility (1/GPa) = 0.02405304
#
# Stress axis : x y z
#
# Youngs Moduli (GPa) = 48.15027 172.67329 139.60712
#
# Poissons Ratio (x) = 0.18088 0.15447
# Poissons Ratio (y) = 0.05044 0.37426
# Poissons Ratio (z) = 0.05328 0.46291
#
# Static dielectric constant tensor:
#      x y z
#    x 2.413200 0.000000 0.032530 
#    y 0.000000 2.132780 0.000000 
#    z 0.032530 0.000000 2.057840 
# 
# From -- ./inp_files/7488.got.cif
#   From: 2010.05.17/outbox.cif.g08.bks.cpg/sg9_4_cif.got.tgz:7488.got - 2010.06.03 20:04:27.
