data_PCOD9135313
_publ_section_title
;
Structure prediction by ZEFSAII (Michael W. Deem and Ramdas Pophale) SiO2 
 PCOD9135313
Probable space group: C C
;
_chemical_formula_sum "Si O2"
_cell_formula_units_Z 32
_cell_length_a 27.688850
_cell_length_b 10.150214
_cell_length_c 8.470960
_cell_angle_alpha 90.000000
_cell_angle_beta 137.630475
_cell_angle_gamma 90.000000
_cell_volume 1604.406220
_symmetry_space_group_name_H-M "C C"
_symmetry_group_IT_number 9
_symmetry_cell_setting 'monoclinic'
loop_
_space_group_symop_operation_xyz
x,y,z
x,-y,1/2+z
1/2+x,1/2+y,z
1/2+x,1/2-y,1/2+z
loop_
_atom_site_type_symbol
_atom_site_label
_atom_site_fract_x
_atom_site_fract_y
_atom_site_fract_z
Si Si1 0.927320 0.585355 0.409050
Si Si2 0.701827 0.406315 0.824062
Si Si3 0.435658 0.182688 0.065591
Si Si4 0.269756 0.140195 0.158020
Si Si5 0.536921 0.590037 0.910364
Si Si6 0.305251 0.405720 0.093496
Si Si7 0.284630 0.315173 0.683196
Si Si8 0.472184 0.643933 0.084693
O O1 0.926958 0.628642 0.224995
O O2 0.956499 0.440307 0.508190
O O3 0.847223 0.589647 0.286476
O O4 0.968864 0.700092 0.603270
O O5 0.754548 0.384871 0.803762
O O6 0.620075 0.399806 0.572676
O O7 0.714763 0.549157 0.930104
O O8 0.723057 0.291260 0.998881
O O9 0.492214 0.300381 0.207568
O O10 0.359719 0.242141 0.830016
O O11 0.268441 0.294343 0.113150
O O12 0.524010 0.619550 0.062382
O O13 0.501064 0.449094 0.790324
O O14 0.279314 0.552682 0.066870
O O15 0.390773 0.396837 0.337989
O O16 0.290764 0.362188 0.879242
#
# Coordination Sequence:
#
# PCOD9135313 Si02
#       8
#     4   4   4   4   4   4   4   4
#     4  10  21  37  62  94 114 154 208 260 308 345
#     4  12  25  38  62  92 129 175 201 259 316 381
#     4  11  21  40  62  90 123 156 207 264 299 371
#     4  11  21  39  60  92 127 157 214 255 311 371
#     4  11  23  41  59  91 129 163 210 247 320 375
#     4  11  21  40  66  95 120 157 215 265 310 359
#     4  12  22  40  63  95 124 161 208 265 312 367
#     4  10  20  39  62  89 122 157 207 265 302 371
#
# _framework density 19.945073000000001
#
# number of rings (size 3 to 8) (size 9 to 14) (size 15 to 20)
#    0.000    1.000    6.250    3.000    0.000    2.000 
#    0.000    6.250    0.000    0.000    0.000    0.000 
#    0.000    0.000    0.000    0.000    0.000    0.000 
#
# Total GULP energy -89424.299286 kJ/mol
# GULP energy per Si atom -5589.018705 kJ/mol
# Density = 1.989968 g / cm^3
# Si number density = 19.945073 Si / 1000 Ang^3
#
#
#
# Elastic Constant Matrix: (Units=GPa)
#
#
# Indices 1 2 3 4 5 6 
#
# 1 35.5290 7.3512 15.0547 0.0000 -5.3453 0.0000
# 2 7.3512 132.8803 36.3019 0.0000 1.5606 0.0000
# 3 15.0547 36.3019 74.1671 0.0000 4.4484 0.0000
# 4 0.0000 0.0000 0.0000 29.0994 0.0000 -9.3066
# 5 -5.3453 1.5606 4.4484 0.0000 12.3375 0.0000
# 6 0.0000 0.0000 0.0000 -9.3066 0.0000 24.3808
#
#
#
# Elastic Compliance Matrix: (Units=1/GPa)
#
#
# Indices 1 2 3 4 5 6 
#
# 1 0.034202 0.000100 -0.008054 0.000000 0.017709 0.000000
# 2 0.000100 0.008690 -0.004303 0.000000 0.000496 0.000000
# 3 -0.008054 -0.004303 0.017785 0.000000 -0.009358 0.000000
# 4 0.000000 0.000000 0.000000 0.039144 0.000000 0.014942
# 5 0.017709 0.000496 -0.009358 0.000000 0.092037 0.000000
# 6 0.000000 0.000000 0.000000 0.014942 0.000000 0.046720
#
#
# Mechanical properties :
#
#
# Convention : Reuss Voigt Hill
#
# Bulk Modulus (GPa) = 27.65217 39.99912 33.82564
# Shear Modulus (GPa) = 18.17214 25.42144 21.79679
#
# Velocity S-wave (km/s) = 3.02173 3.57399 3.30940
# Velocity P-wave (km/s) = 5.10576 6.09339 5.62130
#
# Compressibility (1/GPa) = 0.03616353
#
# Stress axis : x y z
#
# Youngs Moduli (GPa) = 29.23793 115.07651 56.22590
#
# Poissons Ratio (x) = -0.01151 0.45282
# Poissons Ratio (y) = -0.00293 0.24196
# Poissons Ratio (z) = 0.23547 0.49522
#
# Static dielectric constant tensor:
#      x y z
#    x 1.705060 0.000000 -0.024440 
#    y 0.000000 1.718490 0.000000 
#    z -0.024440 0.000000 1.712190 
# 
# From -- ./inp_files/12449.got.cif
#   From: 2010.05.17/outbox.cif.g08.bks.cpg/sg9_7_cif.got.tgz:12449.got - 2010.06.03 20:04:27.
