data_PCOD9135602
_publ_section_title
;
Structure prediction by ZEFSAII (Michael W. Deem and Ramdas Pophale) SiO2 
 PCOD9135602
Probable space group: C C
;
_chemical_formula_sum "Si O2"
_cell_formula_units_Z 32
_cell_length_a 18.003551
_cell_length_b 5.997405
_cell_length_c 15.371725
_cell_angle_alpha 90.000000
_cell_angle_beta 70.348715
_cell_angle_gamma 90.000000
_cell_volume 1563.086200
_symmetry_space_group_name_H-M "C C"
_symmetry_group_IT_number 9
_symmetry_cell_setting 'monoclinic'
loop_
_space_group_symop_operation_xyz
x,y,z
x,-y,1/2+z
1/2+x,1/2+y,z
1/2+x,1/2-y,1/2+z
loop_
_atom_site_type_symbol
_atom_site_label
_atom_site_fract_x
_atom_site_fract_y
_atom_site_fract_z
Si Si1 0.726150 0.077737 0.153940
Si Si2 0.007086 0.355135 0.565100
Si Si3 0.278371 0.730683 0.793344
Si Si4 0.635908 0.571946 0.423140
Si Si5 0.100438 0.050402 0.741846
Si Si6 0.365042 0.121027 0.653466
Si Si7 0.638015 0.208126 0.571393
Si Si8 0.438242 0.486932 0.235721
O O1 0.646736 0.225658 0.195717
O O2 0.802842 0.233873 0.124008
O O3 0.739094 0.922106 0.233597
O O4 0.713742 0.930399 0.073120
O O5 0.059482 0.217257 0.476947
O O6 0.067314 0.535542 0.581441
O O7 0.928083 0.487498 0.570278
O O8 0.974726 0.175634 0.647212
O O9 0.215128 0.782595 0.891973
O O10 0.354828 0.606249 0.799023
O O11 0.313231 0.950448 0.731710
O O12 0.630572 0.497129 0.325933
O O13 0.644474 0.367024 0.485666
O O14 0.005723 0.033902 0.780927
O O15 0.120751 0.867053 0.660735
O O16 0.416243 0.279915 0.697728
#
# Coordination Sequence:
#
# PCOD9135602 Si02
#       8
#     4   4   4   4   4   4   4   4
#     4  11  21  41  72  98 133 185 233 280 355 422
#     4  11  22  41  70  98 138 178 231 291 350 411
#     4  10  23  40  71  99 133 181 224 288 357 413
#     4  12  25  40  71 103 136 182 247 284 342 423
#     4  12  23  44  71 101 131 186 232 285 355 416
#     4  10  20  41  71  96 133 182 228 284 356 415
#     4  12  23  41  70 101 138 181 232 297 342 422
#     4  10  21  42  72  94 134 181 227 285 357 412
#
# _framework density 20.472318999999999
#
# number of rings (size 3 to 8) (size 9 to 14) (size 15 to 20)
#    0.000    1.000    6.250    0.000    1.750    0.000 
#    0.000    0.000   52.250    0.000    0.000    0.000 
#    0.000    0.000    0.000    0.000    0.000    0.000 
#
# Total GULP energy -89301.956791 kJ/mol
# GULP energy per Si atom -5581.372299 kJ/mol
# Density = 2.042572 g / cm^3
# Si number density = 20.472319 Si / 1000 Ang^3
#
#
#
# Elastic Constant Matrix: (Units=GPa)
#
#
# Indices 1 2 3 4 5 6 
#
# 1 85.1507 15.4024 -6.9744 0.0000 -1.7085 0.0000
# 2 15.4024 84.3055 10.9454 -0.0001 2.4730 -0.0002
# 3 -6.9744 10.9454 49.4102 0.0000 1.5325 0.0000
# 4 0.0000 -0.0001 0.0000 16.0427 0.0000 -0.2538
# 5 -1.7085 2.4730 1.5325 0.0000 34.3206 0.0000
# 6 0.0000 -0.0002 0.0000 -0.2538 0.0000 49.4081
#
#
#
# Elastic Compliance Matrix: (Units=1/GPa)
#
#
# Indices 1 2 3 4 5 6 
#
# 1 0.012415 -0.002588 0.002304 0.000000 0.000702 0.000000
# 2 -0.002588 0.012772 -0.003166 0.000000 -0.000908 0.000000
# 3 0.002304 -0.003166 0.021284 0.000000 -0.000608 0.000000
# 4 0.000000 0.000000 0.000000 0.062339 0.000000 0.000320
# 5 0.000702 -0.000908 -0.000608 0.000000 0.029264 0.000000
# 6 0.000000 0.000000 0.000000 0.000320 0.000000 0.020241
#
#
# Mechanical properties :
#
#
# Convention : Reuss Voigt Hill
#
# Bulk Modulus (GPa) = 25.27146 28.62368 26.94757
# Shear Modulus (GPa) = 28.02589 33.25381 30.63985
#
# Velocity S-wave (km/s) = 3.70397 4.03467 3.87285
# Velocity P-wave (km/s) = 5.53746 5.97635 5.76109
#
# Compressibility (1/GPa) = 0.03957033
#
# Stress axis : x y z
#
# Youngs Moduli (GPa) = 80.54927 78.29543 46.98322
#
# Poissons Ratio (x) = 0.20262 -0.10824
# Poissons Ratio (y) = 0.20845 0.14877
# Poissons Ratio (z) = -0.18557 0.24792
#
# Static dielectric constant tensor:
#      x y z
#    x 1.771300 0.000000 0.004030 
#    y 0.000000 1.781050 0.000000 
#    z 0.004030 0.000000 1.687160 
# 
# From -- ./inp_files/26330.got.cif
#   From: 2010.05.17/outbox.cif.g08.bks.cpg/sg9_14_cif.got.tgz:26330.got - 2010.06.03 20:04:27.
