data_PCOD9135963
_publ_section_title
;
Structure prediction by ZEFSAII (Michael W. Deem and Ramdas Pophale) SiO2 
 PCOD9135963
Probable space group: C C
;
_chemical_formula_sum "Si O2"
_cell_formula_units_Z 32
_cell_length_a 15.232929
_cell_length_b 8.884731
_cell_length_c 12.624770
_cell_angle_alpha 90.000000
_cell_angle_beta 63.622814
_cell_angle_gamma 90.000000
_cell_volume 1530.753465
_symmetry_space_group_name_H-M "C C"
_symmetry_group_IT_number 9
_symmetry_cell_setting 'monoclinic'
loop_
_space_group_symop_operation_xyz
x,y,z
x,-y,1/2+z
1/2+x,1/2+y,z
1/2+x,1/2-y,1/2+z
loop_
_atom_site_type_symbol
_atom_site_label
_atom_site_fract_x
_atom_site_fract_y
_atom_site_fract_z
Si Si1 0.112360 0.717074 0.238010
Si Si2 0.042452 0.427176 0.367051
Si Si3 0.589162 0.293946 0.008160
Si Si4 0.288852 0.091630 0.348627
Si Si5 0.369966 0.771730 0.376839
Si Si6 0.354057 0.702326 0.622006
Si Si7 0.314983 0.628810 0.202641
Si Si8 0.924207 0.288885 0.958080
O O1 0.962086 0.540925 0.462785
O O2 0.112239 0.769128 0.118563
O O3 0.216165 0.725951 0.239280
O O4 0.019707 0.784246 0.351003
O O5 0.104545 0.354967 0.427180
O O6 0.984970 0.297464 0.336762
O O7 0.090745 0.537751 0.257051
O O8 0.472522 0.323365 0.062716
O O9 0.671347 0.407498 0.921350
O O10 0.323982 0.168397 0.220961
O O11 0.338492 0.191017 0.416977
O O12 0.331169 0.925868 0.345310
O O13 0.326611 0.743957 0.516382
O O14 0.349314 0.642628 0.304507
O O15 0.304669 0.545443 0.679567
O O16 0.390461 0.701316 0.078843
#
# Coordination Sequence:
#
# PCOD9135963 Si02
#       8
#     4   4   4   4   4   4   4   4
#     4  10  21  37  64  93 122 176 224 260 322 395
#     4   8  20  38  61  91 125 172 220 258 322 398
#     4  11  20  39  66  95 129 169 220 278 326 380
#     4  11  22  42  71  94 128 177 221 273 325 397
#     4  10  25  43  68  93 132 179 220 266 341 398
#     4  11  26  44  65 100 140 165 223 280 333 391
#     4  12  25  41  67  97 137 172 218 280 333 390
#     4   9  21  38  64  91 127 174 222 261 324 393
#
# _framework density 20.904737999999998
#
# number of rings (size 3 to 8) (size 9 to 14) (size 15 to 20)
#    0.750    1.000    2.500    0.750    8.750    2.000 
#    0.000    7.500    0.000    0.000    0.000    0.000 
#    0.000    0.000    0.000    0.000    0.000    0.000 
#
# Total GULP energy -89202.074778 kJ/mol
# GULP energy per Si atom -5575.129674 kJ/mol
# Density = 2.085716 g / cm^3
# Si number density = 20.904738 Si / 1000 Ang^3
#
#
#
# Elastic Constant Matrix: (Units=GPa)
#
#
# Indices 1 2 3 4 5 6 
#
# 1 63.7660 2.3532 44.6698 0.0000 -2.9491 0.0000
# 2 2.3532 42.1669 24.5765 0.0000 11.3902 0.0000
# 3 44.6698 24.5765 95.9530 0.0000 8.8272 0.0000
# 4 0.0000 0.0000 0.0000 28.2859 0.0000 7.8961
# 5 -2.9491 11.3902 8.8272 0.0000 44.0357 0.0000
# 6 0.0000 0.0000 0.0000 7.8961 0.0000 13.3696
#
#
#
# Elastic Compliance Matrix: (Units=1/GPa)
#
#
# Indices 1 2 3 4 5 6 
#
# 1 0.024927 0.005579 -0.013299 0.000000 0.002892 0.000000
# 2 0.005579 0.030709 -0.009950 0.000000 -0.005575 0.000000
# 3 -0.013299 -0.009950 0.019364 0.000000 -0.002199 0.000000
# 4 0.000000 0.000000 0.000000 0.042332 0.000000 -0.025001
# 5 0.002892 -0.005575 -0.002199 0.000000 0.024785 0.000000
# 6 0.000000 0.000000 0.000000 -0.025001 0.000000 0.089562
#
#
# Mechanical properties :
#
#
# Convention : Reuss Voigt Hill
#
# Bulk Modulus (GPa) = 25.21481 38.34274 31.77878
# Shear Modulus (GPa) = 17.84184 25.82401 21.83293
#
# Velocity S-wave (km/s) = 2.92461 3.51852 3.23523
# Velocity P-wave (km/s) = 4.84690 5.90662 5.40280
#
# Compressibility (1/GPa) = 0.03965923
#
# Stress axis : x y z
#
# Youngs Moduli (GPa) = 40.11742 32.56368 51.64247
#
# Poissons Ratio (x) = -0.18167 0.68682
# Poissons Ratio (y) = -0.22382 0.51384
# Poissons Ratio (z) = 0.53354 0.32401
#
# Static dielectric constant tensor:
#      x y z
#    x 1.776970 0.000000 -0.043490 
#    y 0.000000 1.757930 0.000000 
#    z -0.043490 0.000000 1.755670 
# 
# From -- ./inp_files/17889.got.cif
#   From: 2010.05.17/outbox.cif.g08.bks.cpg/sg9_9_cif.got.tgz:17889.got - 2010.06.03 20:04:27.
