data_PCOD9135257
_publ_section_title
;
Structure prediction by ZEFSAII (Michael W. Deem and Ramdas Pophale) SiO2 
 PCOD9135257
Probable space group: C C
;
_chemical_formula_sum "Si O2"
_cell_formula_units_Z 28
_cell_length_a 5.038414
_cell_length_b 18.164993
_cell_length_c 15.136917
_cell_angle_alpha 90.000000
_cell_angle_beta 106.100986
_cell_angle_gamma 90.000000
_cell_volume 1331.030260
_symmetry_space_group_name_H-M "C C"
_symmetry_group_IT_number 9
_symmetry_cell_setting 'monoclinic'
loop_
_space_group_symop_operation_xyz
x,y,z
x,-y,1/2+z
1/2+x,1/2+y,z
1/2+x,1/2-y,1/2+z
loop_
_atom_site_type_symbol
_atom_site_label
_atom_site_fract_x
_atom_site_fract_y
_atom_site_fract_z
Si Si1 0.834270 0.337683 0.077040
Si Si2 0.628058 0.204720 0.137243
Si Si3 0.512911 0.600870 0.396718
Si Si4 0.120310 0.776464 0.472660
Si Si5 0.887783 0.496181 0.037164
Si Si6 0.415228 0.407839 0.554618
Si Si7 0.959259 0.667892 0.311602
O O1 0.759746 0.286270 0.152043
O O2 0.958381 0.419406 0.093712
O O3 0.019459 0.285976 0.032339
O O4 0.561132 0.354442 0.992938
O O5 0.426189 0.203442 0.033464
O O6 0.850896 0.142621 0.133852
O O7 0.460348 0.186972 0.209179
O O8 0.679101 0.527104 0.438007
O O9 0.191800 0.604296 0.346667
O O10 0.684446 0.642527 0.336481
O O11 0.073913 0.740047 0.373911
O O12 0.945273 0.850119 0.476680
O O13 0.701864 0.547629 0.082335
O O14 0.161124 0.535435 0.027727
#
# Coordination Sequence:
#
# PCOD9135257 Si02
#       7
#     4   4   4   4   4   4   4
#     4   8  20  35  65  85 118 158 210 239 302 372
#     4  11  22  38  65  95 122 160 212 260 308 356
#     4   9  20  37  60  90 113 163 206 241 298 375
#     4  10  20  41  59  94 120 160 208 253 308 362
#     4  10  20  38  66  85 119 166 198 246 313 371
#     4  11  22  36  62  93 118 159 202 253 311 369
#     4  11  22  37  65  90 124 158 214 260 296 363
#
# _framework density 21.036335999999999
#
# number of rings (size 3 to 8) (size 9 to 14) (size 15 to 20)
#    0.857    1.143    2.857    0.857    6.000    0.000 
#    0.000    0.000    9.429    0.000    0.000    0.000 
#    0.000    0.000    0.000    0.000    0.000    0.000 
#
# Total GULP energy -77994.122258 kJ/mol
# GULP energy per Si atom -5571.008733 kJ/mol
# Density = 2.098846 g / cm^3
# Si number density = 21.036336 Si / 1000 Ang^3
#
#
#
# Elastic Constant Matrix: (Units=GPa)
#
#
# Indices 1 2 3 4 5 6 
#
# 1 73.7686 33.3153 -5.2739 0.0000 -4.8928 0.0000
# 2 33.3153 131.5350 14.8434 0.0000 -9.8114 0.0000
# 3 -5.2739 14.8434 48.5264 0.0000 -12.8449 0.0000
# 4 0.0000 0.0000 0.0000 9.9625 0.0000 -3.5821
# 5 -4.8928 -9.8114 -12.8449 0.0000 24.1378 0.0000
# 6 0.0000 0.0000 0.0000 -3.5821 0.0000 40.8347
#
#
#
# Elastic Compliance Matrix: (Units=1/GPa)
#
#
# Indices 1 2 3 4 5 6 
#
# 1 0.015994 -0.004230 0.003998 0.000000 0.003650 0.000000
# 2 -0.004230 0.009098 -0.002899 0.000000 0.001298 0.000000
# 3 0.003998 -0.002899 0.025411 0.000000 0.013154 0.000000
# 4 0.000000 0.000000 0.000000 0.103646 0.000000 0.009092
# 5 0.003650 0.001298 0.013154 0.000000 0.049696 0.000000
# 6 0.000000 0.000000 0.000000 0.009092 0.000000 0.025287
#
#
# Mechanical properties :
#
#
# Convention : Reuss Voigt Hill
#
# Bulk Modulus (GPa) = 22.60321 37.73327 30.16824
# Shear Modulus (GPa) = 19.98885 29.05002 24.51944
#
# Velocity S-wave (km/s) = 3.08588 3.72014 3.41776
# Velocity P-wave (km/s) = 4.84408 6.03562 5.47238
#
# Compressibility (1/GPa) = 0.04424150
#
# Stress axis : x y z
#
# Youngs Moduli (GPa) = 62.52271 109.91592 39.35373
#
# Poissons Ratio (x) = 0.46494 -0.15735
# Poissons Ratio (y) = 0.26447 0.11409
# Poissons Ratio (z) = -0.24999 0.31865
#
# Static dielectric constant tensor:
#      x y z
#    x 1.799540 0.000000 0.028310 
#    y 0.000000 1.833110 0.000000 
#    z 0.028310 0.000000 1.773330 
# 
# From -- ./inp_files/21860.got.cif
#   From: 2010.05.17/outbox.cif.g08.bks.cpg/sg9_11_cif.got.tgz:21860.got - 2010.06.03 20:04:27.
