data_PCOD9135188
_publ_section_title
;
Structure prediction by ZEFSAII (Michael W. Deem and Ramdas Pophale) SiO2 
 PCOD9135188
Probable space group: C C
;
_chemical_formula_sum "Si O2"
_cell_formula_units_Z 32
_cell_length_a 7.350394
_cell_length_b 12.007055
_cell_length_c 21.595952
_cell_angle_alpha 90.000000
_cell_angle_beta 45.509136
_cell_angle_gamma 90.000000
_cell_volume 1359.657639
_symmetry_space_group_name_H-M "C C"
_symmetry_group_IT_number 9
_symmetry_cell_setting 'monoclinic'
loop_
_space_group_symop_operation_xyz
x,y,z
x,-y,1/2+z
1/2+x,1/2+y,z
1/2+x,1/2-y,1/2+z
loop_
_atom_site_type_symbol
_atom_site_label
_atom_site_fract_x
_atom_site_fract_y
_atom_site_fract_z
Si Si1 0.307310 0.383963 0.708300
Si Si2 0.586191 0.991102 0.425635
Si Si3 0.177206 0.334128 0.513351
Si Si4 0.992869 0.184441 0.829632
Si Si5 0.607836 0.383963 0.508970
Si Si6 0.237941 0.165872 0.203919
Si Si7 0.828956 0.508898 0.291635
Si Si8 0.922278 0.184442 0.387638
O O1 0.127250 0.274111 0.755225
O O2 0.457573 0.387184 0.608635
O O3 0.513149 0.376902 0.713260
O O4 0.098637 0.481410 0.760094
O O5 0.316510 0.981410 0.457176
O O6 0.558968 0.936371 0.501400
O O7 0.805222 0.909197 0.345502
O O8 0.703408 0.111854 0.406593
O O9 0.314840 0.264458 0.426246
O O10 0.401997 0.376902 0.504011
O O11 0.856179 0.436371 0.715870
O O12 0.957573 0.282971 0.608635
O O13 0.211739 0.111854 0.810677
O O14 0.787897 0.274111 0.462045
O O15 0.100307 0.235542 0.291024
O O16 0.609926 0.590804 0.371768
#
# Coordination Sequence:
#
# PCOD9135188 Si02
#       8
#     4   4   4   4   4   4   4   4
#     4  12  21  37  63  87 118 163 195 242 311 353
#     4   9  21  40  57  85 119 155 197 247 301 344
#     4  10  20  38  60  82 120 152 196 255 290 354
#     4   9  21  41  57  88 120 152 204 242 295 367
#     4  12  21  37  63  87 118 163 195 242 311 353
#     4  10  20  38  60  82 120 152 196 255 290 354
#     4   9  21  40  57  85 119 155 197 247 301 344
#     4   9  21  41  57  88 120 152 204 242 295 367
#
# _framework density 23.535335
#
# number of rings (size 3 to 8) (size 9 to 14) (size 15 to 20)
#    1.500    0.500    2.500    1.500    0.000    2.000 
#    0.000    1.250    0.000    0.000    0.000    0.000 
#    0.000    0.000    0.000    0.000    0.000    0.000 
#
# Total GULP energy -89262.608461 kJ/mol
# GULP energy per Si atom -5578.913029 kJ/mol
# Density = 2.348177 g / cm^3
# Si number density = 23.535335 Si / 1000 Ang^3
#
#
#
# Elastic Constant Matrix: (Units=GPa)
#
#
# Indices 1 2 3 4 5 6 
#
# 1 105.0498 10.4210 -0.1428 -0.0002 -28.5954 -0.0001
# 2 10.4210 60.7700 36.8733 0.0000 -8.3175 -0.0003
# 3 -0.1428 36.8733 133.5027 -0.0004 -14.7286 -0.0001
# 4 -0.0002 0.0000 -0.0004 13.9153 0.0004 1.6976
# 5 -28.5954 -8.3175 -14.7286 0.0004 39.4400 0.0000
# 6 -0.0001 -0.0003 -0.0001 1.6976 0.0000 27.8795
#
#
#
# Elastic Compliance Matrix: (Units=1/GPa)
#
#
# Indices 1 2 3 4 5 6 
#
# 1 0.012143 -0.001756 0.001490 0.000000 0.008990 0.000000
# 2 -0.001756 0.020211 -0.005480 0.000000 0.000943 0.000000
# 3 0.001490 -0.005480 0.009384 0.000000 0.003429 0.000000
# 4 0.000000 0.000000 0.000000 0.072401 -0.000001 -0.004409
# 5 0.008990 0.000943 0.003429 -0.000001 0.033352 0.000000
# 6 0.000000 0.000000 0.000000 -0.004409 0.000000 0.036137
#
#
# Mechanical properties :
#
#
# Convention : Reuss Voigt Hill
#
# Bulk Modulus (GPa) = 33.06311 43.73616 38.39964
# Shear Modulus (GPa) = 24.36627 33.05836 28.71231
#
# Velocity S-wave (km/s) = 3.22111 3.75190 3.49659
# Velocity P-wave (km/s) = 5.28326 6.11494 5.71425
#
# Compressibility (1/GPa) = 0.03024519
#
# Stress axis : x y z
#
# Youngs Moduli (GPa) = 82.35459 49.47871 106.56505
#
# Poissons Ratio (x) = 0.08687 -0.15875
# Poissons Ratio (y) = 0.14459 0.58398
# Poissons Ratio (z) = -0.12269 0.27115
#
# Static dielectric constant tensor:
#      x y z
#    x 1.952050 0.000000 0.010560 
#    y 0.000000 1.858150 0.000000 
#    z 0.010560 0.000000 1.884920 
# 
# From -- ./inp_files/29397.got.cif
#   From: 2010.05.17/outbox.cif.g08.bks.cpg/sg9_15_cif.got.tgz:29397.got - 2010.06.03 20:04:27.
