data_PCOD9135332
_publ_section_title
;
Structure prediction by ZEFSAII (Michael W. Deem and Ramdas Pophale) SiO2 
 PCOD9135332
Probable space group: C C
;
_chemical_formula_sum "Si O2"
_cell_formula_units_Z 28
_cell_length_a 8.195859
_cell_length_b 11.540244
_cell_length_c 13.957619
_cell_angle_alpha 90.000000
_cell_angle_beta 108.290256
_cell_angle_gamma 90.000000
_cell_volume 1253.447389
_symmetry_space_group_name_H-M "C C"
_symmetry_group_IT_number 9
_symmetry_cell_setting 'monoclinic'
loop_
_space_group_symop_operation_xyz
x,y,z
x,-y,1/2+z
1/2+x,1/2+y,z
1/2+x,1/2-y,1/2+z
loop_
_atom_site_type_symbol
_atom_site_label
_atom_site_fract_x
_atom_site_fract_y
_atom_site_fract_z
Si Si1 0.942530 0.249826 0.512550
Si Si2 0.029154 0.511005 0.994840
Si Si3 0.660796 0.317469 0.217801
Si Si4 0.187024 0.803316 0.629700
Si Si5 0.501519 0.085973 0.688784
Si Si6 0.433787 0.486121 0.073216
Si Si7 0.524209 0.875580 0.807798
O O1 0.774067 0.262732 0.547099
O O2 0.953864 0.112615 0.493006
O O3 0.965089 0.361593 0.451255
O O4 0.100754 0.264276 0.618000
O O5 0.993136 0.412909 0.910180
O O6 0.942729 0.477556 0.079798
O O7 0.234275 0.511916 0.046880
O O8 0.516870 0.418504 0.180366
O O9 0.639372 0.237207 0.306572
O O10 0.840968 0.370290 0.221246
O O11 0.108245 0.695299 0.672102
O O12 0.341765 0.852675 0.723030
O O13 0.044699 0.899469 0.581663
O O14 0.599905 0.989822 0.769405
#
# Coordination Sequence:
#
# PCOD9135332 Si02
#       7
#     4   4   4   4   4   4   4
#     4   9  19  38  61  88 121 163 202 260 309 376
#     4  12  22  40  70  91 132 166 220 259 324 374
#     4   9  19  41  68  80 131 168 207 258 330 361
#     4  11  21  40  67  89 125 169 209 256 330 369
#     4  12  21  43  66  91 129 176 202 267 329 378
#     4  10  20  39  64  90 122 170 208 257 317 386
#     4  11  24  43  60 101 128 164 218 275 301 390
#
# _framework density 22.338391999999999
#
# number of rings (size 3 to 8) (size 9 to 14) (size 15 to 20)
#    0.857    0.571    5.714    0.857    0.000    1.143 
#    5.143    1.429    0.000    0.000    0.000    0.000 
#    0.000    0.000    0.000    0.000    0.000    0.000 
#
# Total GULP energy -78095.733911 kJ/mol
# GULP energy per Si atom -5578.266708 kJ/mol
# Density = 2.228755 g / cm^3
# Si number density = 22.338392 Si / 1000 Ang^3
#
#
#
# Elastic Constant Matrix: (Units=GPa)
#
#
# Indices 1 2 3 4 5 6 
#
# 1 98.6213 49.6920 18.3506 0.0000 11.7778 0.0000
# 2 49.6920 129.6700 9.9382 0.0000 6.7280 0.0000
# 3 18.3506 9.9382 67.8432 0.0000 -6.4549 0.0000
# 4 0.0000 0.0000 0.0000 16.2490 0.0000 -4.5184
# 5 11.7778 6.7280 -6.4549 0.0000 9.5598 0.0000
# 6 0.0000 0.0000 0.0000 -4.5184 0.0000 52.8887
#
#
#
# Elastic Compliance Matrix: (Units=1/GPa)
#
#
# Indices 1 2 3 4 5 6 
#
# 1 0.015896 -0.004627 -0.005531 0.000000 -0.020063 0.000000
# 2 -0.004627 0.009568 -0.000266 0.000000 -0.001213 0.000000
# 3 -0.005531 -0.000266 0.018104 0.000000 0.019225 0.000000
# 4 0.000000 0.000000 0.000000 0.063040 0.000000 0.005386
# 5 -0.020063 -0.001213 0.019225 0.000000 0.143157 0.000000
# 6 0.000000 0.000000 0.000000 0.005386 0.000000 0.019368
#
#
# Mechanical properties :
#
#
# Convention : Reuss Voigt Hill
#
# Bulk Modulus (GPa) = 44.01009 50.23290 47.12150
# Shear Modulus (GPa) = 16.80371 30.28307 23.54339
#
# Velocity S-wave (km/s) = 2.74566 3.68591 3.24997
# Velocity P-wave (km/s) = 5.45856 6.37579 5.93492
#
# Compressibility (1/GPa) = 0.02272206
#
# Stress axis : x y z
#
# Youngs Moduli (GPa) = 62.90800 104.51208 55.23669
#
# Poissons Ratio (x) = 0.48357 0.30550
# Poissons Ratio (y) = 0.29107 0.01467
# Poissons Ratio (z) = 0.34793 0.02775
#
# Static dielectric constant tensor:
#      x y z
#    x 1.794990 0.000000 0.033860 
#    y 0.000000 1.896120 0.000000 
#    z 0.033860 0.000000 1.871780 
# 
# From -- ./inp_files/22621.got.cif
#   From: 2010.05.17/outbox.cif.g08.bks.cpg/sg9_12_cif.got.tgz:22621.got - 2010.06.03 20:04:27.
