data_PCOD9135695
_publ_section_title
;
Structure prediction by ZEFSAII (Michael W. Deem and Ramdas Pophale) SiO2 
 PCOD9135695
Probable space group: C C
;
_chemical_formula_sum "Si O2"
_cell_formula_units_Z 32
_cell_length_a 11.660037
_cell_length_b 7.384953
_cell_length_c 21.405148
_cell_angle_alpha 90.000000
_cell_angle_beta 42.626002
_cell_angle_gamma 90.000000
_cell_volume 1248.214529
_symmetry_space_group_name_H-M "C C"
_symmetry_group_IT_number 9
_symmetry_cell_setting 'monoclinic'
loop_
_space_group_symop_operation_xyz
x,y,z
x,-y,1/2+z
1/2+x,1/2+y,z
1/2+x,1/2-y,1/2+z
loop_
_atom_site_type_symbol
_atom_site_label
_atom_site_fract_x
_atom_site_fract_y
_atom_site_fract_z
Si Si1 0.393920 0.874430 0.672150
Si Si2 0.786030 0.786614 0.714477
Si Si3 0.213387 0.095304 0.932404
Si Si4 0.488877 0.757968 0.503177
Si Si5 0.048239 0.733267 0.843056
Si Si6 0.005941 0.156971 0.896523
Si Si7 0.144259 0.145195 0.105136
Si Si8 0.218497 0.261567 0.603941
O O1 0.484968 0.863809 0.569118
O O2 0.237703 0.735310 0.740604
O O3 0.530588 0.835014 0.669993
O O4 0.321612 0.072868 0.707589
O O5 0.589344 0.792786 0.813335
O O6 0.798181 0.831412 0.636348
O O7 0.941213 0.860749 0.693385
O O8 0.412084 0.139949 0.853233
O O9 0.129477 0.188471 0.906536
O O10 0.164202 0.155148 0.022162
O O11 0.128200 0.897919 0.958020
O O12 0.538439 0.847555 0.417265
O O13 0.285968 0.713397 0.573751
O O14 0.003274 0.948112 0.873206
O O15 0.826404 0.195906 0.999053
O O16 0.206827 0.956265 0.108855
#
# Coordination Sequence:
#
# PCOD9135695 Si02
#       8
#     4   4   4   4   4   4   4   4
#     4  11  24  44  72  99 138 183 232 289 350 416
#     4  11  26  46  69 103 137 186 236 292 348 417
#     4  10  20  42  70  99 140 179 229 281 357 413
#     4  10  21  41  69 101 135 181 225 283 352 409
#     4   9  23  43  68 104 138 184 232 290 348 420
#     4  10  24  44  69 103 138 185 238 292 350 410
#     4  11  23  43  69  97 144 180 226 286 350 417
#     4  12  25  45  68 106 140 184 236 287 355 420
#
# _framework density 25.636621000000002
#
# number of rings (size 3 to 8) (size 9 to 14) (size 15 to 20)
#    0.000    1.500    3.750    0.000    7.000    1.000 
#    6.750    0.000    0.000    0.000    0.000    0.000 
#    0.000    0.000    0.000    0.000    0.000    0.000 
#
# Total GULP energy -89381.412746 kJ/mol
# GULP energy per Si atom -5586.338297 kJ/mol
# Density = 2.557827 g / cm^3
# Si number density = 25.636621 Si / 1000 Ang^3
#
#
#
# Elastic Constant Matrix: (Units=GPa)
#
#
# Indices 1 2 3 4 5 6 
#
# 1 163.8246 37.9429 25.6171 0.0000 -31.4519 0.0000
# 2 37.9429 59.0417 26.3685 0.0000 -20.7399 0.0000
# 3 25.6171 26.3685 79.5713 0.0000 -12.9627 0.0000
# 4 0.0000 0.0000 0.0000 33.1857 0.0000 -5.1142
# 5 -31.4519 -20.7399 -12.9627 0.0000 47.3165 0.0000
# 6 0.0000 0.0000 0.0000 -5.1142 0.0000 37.9346
#
#
#
# Elastic Compliance Matrix: (Units=1/GPa)
#
#
# Indices 1 2 3 4 5 6 
#
# 1 0.007662 -0.003376 -0.000795 0.000000 0.003396 0.000000
# 2 -0.003376 0.024050 -0.005789 0.000000 0.006711 0.000000
# 3 -0.000795 -0.005789 0.014908 0.000000 0.001018 0.000000
# 4 0.000000 0.000000 0.000000 0.030773 0.000000 0.004149
# 5 0.003396 0.006711 0.001018 0.000000 0.026612 0.000000
# 6 0.000000 0.000000 0.000000 0.004149 0.000000 0.026920
#
#
# Mechanical properties :
#
#
# Convention : Reuss Voigt Hill
#
# Bulk Modulus (GPa) = 37.45493 53.58830 45.52162
# Shear Modulus (GPa) = 31.29968 37.85464 34.57716
#
# Velocity S-wave (km/s) = 3.49792 3.84680 3.67650
# Velocity P-wave (km/s) = 5.56378 6.37800 5.98475
#
# Compressibility (1/GPa) = 0.02669875
#
# Stress axis : x y z
#
# Youngs Moduli (GPa) = 130.50994 41.57977 67.07998
#
# Poissons Ratio (x) = 0.14039 0.05331
# Poissons Ratio (y) = 0.44066 0.38836
# Poissons Ratio (z) = 0.10372 0.24072
#
# Static dielectric constant tensor:
#      x y z
#    x 1.944050 0.000000 -0.045860 
#    y 0.000000 2.094310 0.000000 
#    z -0.045860 0.000000 2.134290 
# 
# From -- ./inp_files/29860.got.cif
#   From: 2010.05.17/outbox.cif.g08.bks.cpg/sg9_15_cif.got.tgz:29860.got - 2010.06.03 20:04:27.
