data_PCOD9135732
_publ_section_title
;
Structure prediction by ZEFSAII (Michael W. Deem and Ramdas Pophale) SiO2 
 PCOD9135732
Probable space group: C C
;
_chemical_formula_sum "Si O2"
_cell_formula_units_Z 32
_cell_length_a 24.685248
_cell_length_b 6.978773
_cell_length_c 25.987600
_cell_angle_alpha 90.000000
_cell_angle_beta 158.494026
_cell_angle_gamma 90.000000
_cell_volume 1641.243847
_symmetry_space_group_name_H-M "C C"
_symmetry_group_IT_number 9
_symmetry_cell_setting 'monoclinic'
loop_
_space_group_symop_operation_xyz
x,y,z
x,-y,1/2+z
1/2+x,1/2+y,z
1/2+x,1/2-y,1/2+z
loop_
_atom_site_type_symbol
_atom_site_label
_atom_site_fract_x
_atom_site_fract_y
_atom_site_fract_z
Si Si1 0.724480 0.549742 0.726840
Si Si2 0.214296 0.318671 0.384400
Si Si3 0.028325 0.226806 0.124295
Si Si4 0.248834 0.822459 0.025845
Si Si5 0.045795 0.151009 0.890682
Si Si6 0.544400 0.942753 0.558358
Si Si7 0.232701 0.720598 0.652175
Si Si8 0.058235 0.497427 0.331027
O O1 0.627983 0.412671 0.678315
O O2 0.634422 0.745599 0.640430
O O3 0.750829 0.423088 0.698557
O O4 0.881417 0.590268 0.891889
O O5 0.095093 0.236320 0.240172
O O6 0.361907 0.349405 0.482445
O O7 0.251009 0.178635 0.465141
O O8 0.143198 0.499780 0.351355
O O9 0.031142 0.436106 0.099768
O O10 0.409317 0.872881 0.190181
O O11 0.176464 0.614118 0.971707
O O12 0.129557 0.970371 0.941648
O O13 0.019975 0.302884 0.822260
O O14 0.889676 0.121490 0.780544
O O15 0.152970 0.238613 0.028295
O O16 0.631219 0.084628 0.596899
#
# Coordination Sequence:
#
# PCOD9135732 Si02
#       8
#     4   4   4   4   4   4   4   4
#     4  11  26  44  67 101 125 167 219 268 322 396
#     4  10  20  43  66  94 133 175 205 270 316 372
#     4  11  22  44  68  92 137 170 210 261 332 376
#     4  10  23  41  63  93 132 168 220 262 307 376
#     4  12  24  43  66  97 130 176 213 264 320 381
#     4  11  26  44  67 100 128 164 220 268 321 399
#     4  11  26  44  66  93 135 170 212 268 328 376
#     4  10  23  41  63  94 130 170 219 261 308 376
#
# _framework density 19.497408
#
# number of rings (size 3 to 8) (size 9 to 14) (size 15 to 20)
#    0.750    0.500    5.000    0.000    5.250    2.000 
#    4.500    0.000    0.000    0.000    0.000    0.000 
#    0.000    0.000    0.000    0.000    0.000    0.000 
#
# Total GULP energy -89238.583592 kJ/mol
# GULP energy per Si atom -5577.411474 kJ/mol
# Density = 1.945303 g / cm^3
# Si number density = 19.497408 Si / 1000 Ang^3
#
#
#
# Elastic Constant Matrix: (Units=GPa)
#
#
# Indices 1 2 3 4 5 6 
#
# 1 66.5981 23.0211 12.3419 -0.0001 11.6239 -0.0002
# 2 23.0211 58.4373 23.4771 -0.0006 2.8001 -0.0014
# 3 12.3419 23.4771 108.5319 0.0003 19.6748 -0.0002
# 4 -0.0001 -0.0006 0.0003 34.9379 0.0001 21.4172
# 5 11.6239 2.8001 19.6748 0.0001 38.8049 -0.0001
# 6 -0.0002 -0.0014 -0.0002 21.4172 -0.0001 33.8521
#
#
#
# Elastic Compliance Matrix: (Units=1/GPa)
#
#
# Indices 1 2 3 4 5 6 
#
# 1 0.018307 -0.007123 0.000396 0.000000 -0.005171 0.000000
# 2 -0.007123 0.021534 -0.004353 0.000000 0.002787 0.000001
# 3 0.000396 -0.004353 0.011095 0.000000 -0.005430 0.000000
# 4 0.000000 0.000000 0.000000 0.046756 0.000000 -0.029581
# 5 -0.005171 0.002787 -0.005430 0.000000 0.029871 0.000000
# 6 0.000000 0.000001 0.000000 -0.029581 0.000000 0.048255
#
#
# Mechanical properties :
#
#
# Convention : Reuss Voigt Hill
#
# Bulk Modulus (GPa) = 34.75227 39.02751 36.88989
# Shear Modulus (GPa) = 24.08833 33.16747 28.62790
#
# Velocity S-wave (km/s) = 3.51873 4.12894 3.83599
# Velocity P-wave (km/s) = 5.86271 6.54149 6.21138
#
# Compressibility (1/GPa) = 0.02877510
#
# Stress axis : x y z
#
# Youngs Moduli (GPa) = 54.62441 46.43827 90.13208
#
# Poissons Ratio (x) = 0.33080 -0.03573
# Poissons Ratio (y) = 0.38911 0.39237
# Poissons Ratio (z) = -0.02166 0.20216
#
# Static dielectric constant tensor:
#      x y z
#    x 1.694050 0.000000 0.004810 
#    y 0.000000 1.658450 0.000000 
#    z 0.004810 0.000000 1.678080 
# 
# From -- ./inp_files/37747.got.cif
#   From: 2010.05.17/outbox.cif.g08.bks.cpg/sg9_19_cif.got.tgz:37747.got - 2010.06.03 20:04:27.
