data_PCOD9135175
_publ_section_title
;
Structure prediction by ZEFSAII (Michael W. Deem and Ramdas Pophale) SiO2 
 PCOD9135175
Probable space group: C C
;
_chemical_formula_sum "Si O2"
_cell_formula_units_Z 28
_cell_length_a 12.802954
_cell_length_b 21.609451
_cell_length_c 5.142936
_cell_angle_alpha 90.000000
_cell_angle_beta 83.743177
_cell_angle_gamma 90.000000
_cell_volume 1414.393886
_symmetry_space_group_name_H-M "C C"
_symmetry_group_IT_number 9
_symmetry_cell_setting 'monoclinic'
loop_
_space_group_symop_operation_xyz
x,y,z
x,-y,1/2+z
1/2+x,1/2+y,z
1/2+x,1/2-y,1/2+z
loop_
_atom_site_type_symbol
_atom_site_label
_atom_site_fract_x
_atom_site_fract_y
_atom_site_fract_z
Si Si1 0.729660 0.685745 0.343100
Si Si2 0.042110 0.749411 0.736931
Si Si3 0.767727 0.427560 0.451791
Si Si4 0.036340 0.036144 0.879509
Si Si5 0.926979 0.357472 0.028457
Si Si6 0.469851 0.965508 0.663080
Si Si7 0.531374 0.327956 0.221911
O O1 0.847908 0.689776 0.406234
O O2 0.653628 0.665695 0.599986
O O3 0.667530 0.745375 0.255758
O O4 0.726958 0.631074 0.132701
O O5 0.989826 0.787978 0.988034
O O6 0.999886 0.681210 0.700541
O O7 0.023159 0.787746 0.480902
O O8 0.663906 0.459013 0.365914
O O9 0.849359 0.401336 0.215360
O O10 0.843451 0.464334 0.634782
O O11 0.995348 0.102667 0.793729
O O12 0.005241 0.984912 0.676110
O O13 0.985069 0.399079 0.796445
O O14 0.509600 0.985917 0.369449
#
# Coordination Sequence:
#
# PCOD9135175 Si02
#       7
#     4   4   4   4   4   4   4
#     4   9  19  33  54  67 109 133 180 216 254 300
#     4  10  21  36  52  68 105 145 176 225 254 299
#     4  11  19  33  46  78 105 141 178 206 249 320
#     4  12  21  29  51  74 104 147 171 195 254 320
#     4  11  22  33  56  75 102 151 179 208 273 307
#     4  11  22  32  45  71 108 137 170 210 244 313
#     4  10  20  38  46  73 107 140 174 220 248 295
#
# _framework density 19.796468000000001
#
# number of rings (size 3 to 8) (size 9 to 14) (size 15 to 20)
#    0.857    0.571    4.286    2.571    6.000    0.000 
#    0.000    0.000    0.000    0.000    0.000    0.000 
#    0.000    6.857    0.286    0.000    0.000    0.000 
#
# Total GULP energy -77955.515478 kJ/mol
# GULP energy per Si atom -5568.251106 kJ/mol
# Density = 1.975141 g / cm^3
# Si number density = 19.796468 Si / 1000 Ang^3
#
#
#
# Elastic Constant Matrix: (Units=GPa)
#
#
# Indices 1 2 3 4 5 6 
#
# 1 18.1939 24.0535 8.7939 0.0000 11.5823 0.0000
# 2 24.0535 65.0653 25.2297 0.0000 18.4662 0.0000
# 3 8.7939 25.2297 135.3497 0.0000 15.7740 0.0000
# 4 0.0000 0.0000 0.0000 43.6604 0.0000 17.4194
# 5 11.5823 18.4662 15.7740 0.0000 19.4466 0.0000
# 6 0.0000 0.0000 0.0000 17.4194 0.0000 31.9480
#
#
#
# Elastic Compliance Matrix: (Units=1/GPa)
#
#
# Indices 1 2 3 4 5 6 
#
# 1 0.131360 -0.036885 0.003729 0.000000 -0.046237 0.000000
# 2 -0.036885 0.031783 -0.002839 0.000000 -0.005909 0.000000
# 3 0.003729 -0.002839 0.008415 0.000000 -0.006351 0.000000
# 4 0.000000 0.000000 0.000000 0.029272 0.000000 -0.015960
# 5 -0.046237 -0.005909 -0.006351 0.000000 0.089724 0.000000
# 6 0.000000 0.000000 0.000000 -0.015960 0.000000 0.040003
#
#
# Mechanical properties :
#
#
# Convention : Reuss Voigt Hill
#
# Bulk Modulus (GPa) = 10.04335 37.19589 23.61962
# Shear Modulus (GPa) = 11.47483 29.71312 20.59398
#
# Velocity S-wave (km/s) = 2.41018 3.87839 3.22884
# Velocity P-wave (km/s) = 3.58185 6.23585 5.08505
#
# Compressibility (1/GPa) = 0.09956842
#
# Stress axis : x y z
#
# Youngs Moduli (GPa) = 7.61268 31.46355 118.82981
#
# Poissons Ratio (x) = 1.16053 -0.44316
# Poissons Ratio (y) = 0.28079 0.33740
# Poissons Ratio (z) = -0.02839 0.08934
#
# Static dielectric constant tensor:
#      x y z
#    x 1.704160 0.000000 0.023100 
#    y 0.000000 1.769760 0.000000 
#    z 0.023100 0.000000 1.765820 
# 
# From -- ./inp_files/2990.got.cif
#   From: 2010.05.17/outbox.cif.g08.bks.cpg/sg9_2_cif.got.tgz:2990.got - 2010.06.03 20:04:27.
