data_PCOD9135492
_publ_section_title
;
Structure prediction by ZEFSAII (Michael W. Deem and Ramdas Pophale) SiO2 
 PCOD9135492
Probable space group: C C
;
_chemical_formula_sum "Si O2"
_cell_formula_units_Z 32
_cell_length_a 11.931507
_cell_length_b 10.134475
_cell_length_c 22.407441
_cell_angle_alpha 90.000000
_cell_angle_beta 150.334097
_cell_angle_gamma 90.000000
_cell_volume 1341.043368
_symmetry_space_group_name_H-M "C C"
_symmetry_group_IT_number 9
_symmetry_cell_setting 'monoclinic'
loop_
_space_group_symop_operation_xyz
x,y,z
x,-y,1/2+z
1/2+x,1/2+y,z
1/2+x,1/2-y,1/2+z
loop_
_atom_site_type_symbol
_atom_site_label
_atom_site_fract_x
_atom_site_fract_y
_atom_site_fract_z
Si Si1 0.148970 0.856302 0.285420
Si Si2 0.003378 0.590011 0.057160
Si Si3 0.387319 0.630800 0.147948
Si Si4 0.551827 0.249079 0.903414
Si Si5 0.832623 0.634691 0.195771
Si Si6 0.924079 0.691665 0.493735
Si Si7 0.190087 0.962995 0.514313
Si Si8 0.857711 0.725525 0.336272
O O1 0.315694 0.882589 0.419080
O O2 0.300524 0.801896 0.300595
O O3 0.978901 0.745385 0.230079
O O4 0.010693 0.988793 0.207250
O O5 0.028747 0.432026 0.075836
O O6 0.880330 0.614331 0.062774
O O7 0.236022 0.646276 0.138264
O O8 0.588905 0.730705 0.223689
O O9 0.208601 0.646301 0.011938
O O10 0.669169 0.272211 0.893722
O O11 0.600337 0.393178 0.954460
O O12 0.909041 0.643705 0.299864
O O13 0.575213 0.684882 0.078790
O O14 0.799857 0.521520 0.131275
O O15 0.948233 0.651016 0.436450
O O16 0.975749 0.867005 0.400433
#
# Coordination Sequence:
#
# PCOD9135492 Si02
#       8
#     4   4   4   4   4   4   4   4
#     4  11  22  41  68  98 130 176 228 283 335 411
#     4  10  20  40  68  95 128 171 234 273 326 416
#     4  11  22  39  71  97 131 176 226 287 334 406
#     4  10  24  43  67 102 138 173 230 284 341 415
#     4  11  22  42  66  97 131 179 222 283 347 398
#     4  10  20  40  70  91 131 179 218 276 337 407
#     4  10  24  43  69  96 139 179 224 292 340 405
#     4  11  22  40  69  96 134 181 224 274 354 406
#
# _framework density 23.862019
#
# number of rings (size 3 to 8) (size 9 to 14) (size 15 to 20)
#    0.000    1.500    5.000    0.000    0.000    2.000 
#    0.000    7.500    0.000    0.000    0.000    0.000 
#    0.000    0.000    0.000    0.000    0.000    0.000 
#
# Total GULP energy -89150.760690 kJ/mol
# GULP energy per Si atom -5571.922543 kJ/mol
# Density = 2.380771 g / cm^3
# Si number density = 23.862019 Si / 1000 Ang^3
#
#
#
# Elastic Constant Matrix: (Units=GPa)
#
#
# Indices 1 2 3 4 5 6 
#
# 1 151.6384 29.9930 45.5028 0.0000 9.6270 0.0000
# 2 29.9930 54.1619 31.1382 -0.0001 15.0679 0.0000
# 3 45.5028 31.1382 81.4951 -0.0009 17.1851 0.0001
# 4 0.0000 -0.0001 -0.0009 29.1552 0.0001 13.3258
# 5 9.6270 15.0679 17.1851 0.0001 43.0734 0.0000
# 6 0.0000 0.0000 0.0001 13.3258 0.0000 22.3753
#
#
#
# Elastic Compliance Matrix: (Units=1/GPa)
#
#
# Indices 1 2 3 4 5 6 
#
# 1 0.008176 -0.002548 -0.003706 0.000000 0.000543 0.000000
# 2 -0.002548 0.025527 -0.007171 0.000000 -0.005499 0.000000
# 3 -0.003706 -0.007171 0.017881 0.000001 -0.003797 0.000000
# 4 0.000000 0.000000 0.000001 0.047128 0.000000 -0.028068
# 5 0.000543 -0.005499 -0.003797 0.000000 0.026534 0.000000
# 6 0.000000 0.000000 0.000000 -0.028068 0.000000 0.061408
#
#
# Mechanical properties :
#
#
# Convention : Reuss Voigt Hill
#
# Bulk Modulus (GPa) = 40.43139 55.61816 48.02477
# Shear Modulus (GPa) = 22.54810 30.96486 26.75648
#
# Velocity S-wave (km/s) = 3.07732 3.60622 3.35221
# Velocity P-wave (km/s) = 5.44124 6.37954 5.92898
#
# Compressibility (1/GPa) = 0.02473326
#
# Stress axis : x y z
#
# Youngs Moduli (GPa) = 122.30522 39.17453 55.92647
#
# Poissons Ratio (x) = 0.09982 0.20727
# Poissons Ratio (y) = 0.31164 0.40106
# Poissons Ratio (z) = 0.45327 0.28093
#
# Static dielectric constant tensor:
#      x y z
#    x 2.043820 0.000000 -0.035570 
#    y 0.000000 1.922490 0.000000 
#    z -0.035570 0.000000 1.949980 
# 
# From -- ./inp_files/16401.got.cif
#   From: 2010.05.17/outbox.cif.g08.bks.cpg/sg9_9_cif.got.tgz:16401.got - 2010.06.03 20:04:27.
