data_PCOD9135434
_publ_section_title
;
Structure prediction by ZEFSAII (Michael W. Deem and Ramdas Pophale) SiO2 
 PCOD9135434
Probable space group: C C
;
_chemical_formula_sum "Si O2"
_cell_formula_units_Z 32
_cell_length_a 18.198095
_cell_length_b 9.831208
_cell_length_c 11.691970
_cell_angle_alpha 90.000000
_cell_angle_beta 138.160929
_cell_angle_gamma 90.000000
_cell_volume 1395.316782
_symmetry_space_group_name_H-M "C C"
_symmetry_group_IT_number 9
_symmetry_cell_setting 'monoclinic'
loop_
_space_group_symop_operation_xyz
x,y,z
x,-y,1/2+z
1/2+x,1/2+y,z
1/2+x,1/2-y,1/2+z
loop_
_atom_site_type_symbol
_atom_site_label
_atom_site_fract_x
_atom_site_fract_y
_atom_site_fract_z
Si Si1 0.033240 0.811755 0.219910
Si Si2 0.668714 0.855100 0.205826
Si Si3 0.958512 0.245837 0.220648
Si Si4 0.650250 0.293359 0.123165
Si Si5 0.732280 0.885692 0.530834
Si Si6 0.418275 0.559836 0.973118
Si Si7 0.118376 0.926104 0.538419
Si Si8 0.534584 0.046755 0.357668
O O1 0.103106 0.760428 0.192118
O O2 0.107241 0.903315 0.390637
O O3 0.992455 0.683208 0.247305
O O4 0.944392 0.917483 0.067353
O O5 0.669096 0.833850 0.342780
O O6 0.787663 0.921460 0.314755
O O7 0.669066 0.709695 0.147201
O O8 0.563415 0.931829 0.025944
O O9 0.854496 0.156527 0.141017
O O10 0.964139 0.188284 0.099118
O O11 0.053967 0.200200 0.416472
O O12 0.964251 0.410839 0.245999
O O13 0.723575 0.184589 0.144962
O O14 0.690834 0.447702 0.165854
O O15 0.661578 0.023753 0.460656
O O16 0.494977 0.560322 0.949493
#
# Coordination Sequence:
#
# PCOD9135434 Si02
#       8
#     4   4   4   4   4   4   4   4
#     4  10  22  39  66  98 129 164 219 274 324 380
#     4  10  23  40  65  97 126 171 217 268 332 388
#     4  10  21  43  66  91 129 176 217 256 338 392
#     4  10  21  39  66  90 128 172 216 265 326 382
#     4  10  23  40  66  90 131 173 214 262 331 397
#     4  10  21  41  71  92 129 174 215 262 341 398
#     4  10  20  40  63  94 129 167 215 274 321 385
#     4  10  23  40  67  98 129 165 221 279 319 386
#
# _framework density 22.933859999999999
#
# number of rings (size 3 to 8) (size 9 to 14) (size 15 to 20)
#    0.000    2.000    1.250    1.500    8.750    0.000 
#    4.500    3.750    0.000    0.000    0.000    0.000 
#    0.000    0.000    0.000    0.000    0.000    0.000 
#
# Total GULP energy -89067.899628 kJ/mol
# GULP energy per Si atom -5566.743727 kJ/mol
# Density = 2.288166 g / cm^3
# Si number density = 22.933860 Si / 1000 Ang^3
#
#
#
# Elastic Constant Matrix: (Units=GPa)
#
#
# Indices 1 2 3 4 5 6 
#
# 1 54.2190 18.8668 24.2358 0.0000 -19.3512 0.0000
# 2 18.8668 113.2999 22.0722 0.0000 1.2218 0.0000
# 3 24.2358 22.0722 79.0165 0.0000 -23.9970 0.0000
# 4 0.0000 0.0000 0.0000 31.2174 0.0000 -19.3635
# 5 -19.3512 1.2218 -23.9970 0.0000 33.5766 0.0000
# 6 0.0000 0.0000 0.0000 -19.3635 0.0000 5.2497
#
#
#
# Elastic Compliance Matrix: (Units=1/GPa)
#
#
# Indices 1 2 3 4 5 6 
#
# 1 0.025668 -0.003850 -0.002889 0.000000 0.012868 0.000000
# 2 -0.003850 0.010124 -0.003107 0.000000 -0.004808 0.000000
# 3 -0.002889 -0.003107 0.017802 0.000000 0.011171 0.000000
# 4 0.000000 0.000000 0.000000 -0.024872 0.000000 -0.091742
# 5 0.012868 -0.004808 0.011171 0.000000 0.045358 0.000000
# 6 0.000000 0.000000 0.000000 -0.091742 0.000000 -0.147904
#
#
# Mechanical properties :
#
#
# Convention : Reuss Voigt Hill
#
# Bulk Modulus (GPa) = 29.49765 41.87611 35.68688
# Shear Modulus (GPa) = -116.74182 26.09945 -45.32119
#
# Velocity S-wave (km/s) = -7.14242 3.37713 -4.45024
# Velocity P-wave (km/s) = 7.42489 5.78842 3.28809
#
# Compressibility (1/GPa) = 0.03390100
#
# Stress axis : x y z
#
# Youngs Moduli (GPa) = 38.95945 98.77041 56.17200
#
# Poissons Ratio (x) = 0.38028 0.16229
# Poissons Ratio (y) = 0.15000 0.17455
# Poissons Ratio (z) = 0.11256 0.30693
#
# Static dielectric constant tensor:
#      x y z
#    x 2.018980 0.000000 -0.005010 
#    y 0.000000 2.010910 0.000000 
#    z -0.005010 0.000000 1.877070 
# 
# From -- ./inp_files/20231.got.cif
#   From: 2010.05.17/outbox.cif.g08.bks.cpg/sg9_11_cif.got.tgz:20231.got - 2010.06.03 20:04:27.
