data_PCOD9135283
_publ_section_title
;
Structure prediction by ZEFSAII (Michael W. Deem and Ramdas Pophale) SiO2 
 PCOD9135283
Probable space group: C C
;
_chemical_formula_sum "Si O2"
_cell_formula_units_Z 32
_cell_length_a 19.299376
_cell_length_b 9.972351
_cell_length_c 14.245493
_cell_angle_alpha 90.000000
_cell_angle_beta 30.192374
_cell_angle_gamma 90.000000
_cell_volume 1378.809228
_symmetry_space_group_name_H-M "C C"
_symmetry_group_IT_number 9
_symmetry_cell_setting 'monoclinic'
loop_
_space_group_symop_operation_xyz
x,y,z
x,-y,1/2+z
1/2+x,1/2+y,z
1/2+x,1/2-y,1/2+z
loop_
_atom_site_type_symbol
_atom_site_label
_atom_site_fract_x
_atom_site_fract_y
_atom_site_fract_z
Si Si1 0.508890 0.885636 0.294070
Si Si2 0.837982 0.949373 0.464335
Si Si3 0.471015 0.793797 0.048162
Si Si4 0.648154 0.136865 0.034526
Si Si5 0.613423 0.063353 0.867124
Si Si6 0.748687 0.332057 0.154574
Si Si7 0.151505 0.949248 0.092081
Si Si8 0.278981 0.787855 0.429290
O O1 0.509681 0.886851 0.406906
O O2 0.377087 0.814831 0.403209
O O3 0.643852 0.798480 0.106625
O O4 0.535938 0.037216 0.218104
O O5 0.783409 0.932897 0.421581
O O6 0.811992 0.799252 0.531238
O O7 0.993989 0.992292 0.285481
O O8 0.745555 0.032748 0.646368
O O9 0.358990 0.848977 0.106231
O O10 0.381535 0.725710 0.232983
O O11 0.591941 0.700231 0.868294
O O12 0.556822 0.924277 0.977067
O O13 0.645256 0.293659 0.067683
O O14 0.639705 0.142203 0.931905
O O15 0.726911 0.446117 0.104245
O O16 0.231893 0.066106 0.944201
#
# Coordination Sequence:
#
# PCOD9135283 Si02
#       8
#     4   4   4   4   4   4   4   4
#     4  11  26  48  70 101 149 184 228 291 357 417
#     4   9  21  39  67 102 136 177 230 285 343 407
#     4  11  21  40  68 102 132 181 237 280 348 417
#     4  10  23  44  74  98 137 187 229 288 345 416
#     4  10  22  44  70  97 138 186 226 284 360 408
#     4  10  20  38  69 100 132 175 234 289 331 417
#     4  11  24  44  70 103 136 178 240 285 343 416
#     4  12  27  45  70 103 144 184 232 290 355 414
#
# _framework density 23.208431000000001
#
# number of rings (size 3 to 8) (size 9 to 14) (size 15 to 20)
#    0.000    1.500    2.500    2.250    8.750    0.000 
#    9.000    0.000    0.000    0.000    0.000    0.000 
#    0.000    0.000    0.000    0.000    0.000    0.000 
#
# Total GULP energy -89243.709812 kJ/mol
# GULP energy per Si atom -5577.731863 kJ/mol
# Density = 2.315561 g / cm^3
# Si number density = 23.208431 Si / 1000 Ang^3
#
#
#
# Elastic Constant Matrix: (Units=GPa)
#
#
# Indices 1 2 3 4 5 6 
#
# 1 118.1934 17.6173 42.0514 0.0000 0.8939 0.0000
# 2 17.6173 85.9120 32.7396 0.0000 -0.3297 0.0000
# 3 42.0514 32.7396 97.4700 0.0000 -15.6056 0.0000
# 4 0.0000 0.0000 0.0000 35.2007 0.0000 -10.8266
# 5 0.8939 -0.3297 -15.6056 0.0000 38.5524 0.0000
# 6 0.0000 0.0000 0.0000 -10.8266 0.0000 29.7124
#
#
#
# Elastic Compliance Matrix: (Units=1/GPa)
#
#
# Indices 1 2 3 4 5 6 
#
# 1 0.010167 -0.000336 -0.004611 0.000000 -0.002105 0.000000
# 2 -0.000336 0.013480 -0.004666 0.000000 -0.001766 0.000000
# 3 -0.004611 -0.004666 0.014785 0.000000 0.006052 0.000000
# 4 0.000000 0.000000 0.000000 0.031994 0.000000 0.011658
# 5 -0.002105 -0.001766 0.006052 0.000000 0.028422 0.000000
# 6 0.000000 0.000000 0.000000 0.011658 0.000000 0.037904
#
#
# Mechanical properties :
#
#
# Convention : Reuss Voigt Hill
#
# Bulk Modulus (GPa) = 52.06267 54.04355 53.05311
# Shear Modulus (GPa) = 30.79227 34.63757 32.71492
#
# Velocity S-wave (km/s) = 3.64644 3.86742 3.75856
# Velocity P-wave (km/s) = 6.34114 6.57870 6.46101
#
# Compressibility (1/GPa) = 0.01920762
#
# Stress axis : x y z
#
# Youngs Moduli (GPa) = 98.35685 74.18452 67.63733
#
# Poissons Ratio (x) = 0.02492 0.31184
# Poissons Ratio (y) = 0.03304 0.31557
# Poissons Ratio (z) = 0.45348 0.34611
#
# Static dielectric constant tensor:
#      x y z
#    x 1.969800 0.000000 0.002030 
#    y 0.000000 1.877950 0.000000 
#    z 0.002030 0.000000 1.852060 
# 
# From -- ./inp_files/25842.got.cif
#   From: 2010.05.17/outbox.cif.g08.bks.cpg/sg9_13_cif.got.tgz:25842.got - 2010.06.03 20:04:27.
