data_PCOD9135270
_publ_section_title
;
Structure prediction by ZEFSAII (Michael W. Deem and Ramdas Pophale) SiO2 
 PCOD9135270
Probable space group: C C
;
_chemical_formula_sum "Si O2"
_cell_formula_units_Z 28
_cell_length_a 14.155899
_cell_length_b 9.791239
_cell_length_c 19.256712
_cell_angle_alpha 90.000000
_cell_angle_beta 151.325892
_cell_angle_gamma 90.000000
_cell_volume 1280.684000
_symmetry_space_group_name_H-M "C C"
_symmetry_group_IT_number 9
_symmetry_cell_setting 'monoclinic'
loop_
_space_group_symop_operation_xyz
x,y,z
x,-y,1/2+z
1/2+x,1/2+y,z
1/2+x,1/2-y,1/2+z
loop_
_atom_site_type_symbol
_atom_site_label
_atom_site_fract_x
_atom_site_fract_y
_atom_site_fract_z
Si Si1 0.173030 0.216158 0.251760
Si Si2 0.086131 0.427507 0.451293
Si Si3 0.079921 0.603802 0.565929
Si Si4 0.583549 0.381376 0.984057
Si Si5 0.616677 0.433443 0.165308
Si Si6 0.507876 0.951948 0.238508
Si Si7 0.132871 0.370846 0.698735
O O1 0.194668 0.297714 0.192958
O O2 0.387162 0.186113 0.419835
O O3 0.063900 0.312380 0.235614
O O4 0.058396 0.073803 0.164679
O O5 0.180295 0.543920 0.561032
O O6 0.148667 0.276563 0.515947
O O7 0.079802 0.446890 0.364422
O O8 0.854369 0.436475 0.321442
O O9 0.018873 0.471927 0.573244
O O10 0.357160 0.382391 0.813315
O O11 0.565122 0.429405 0.051340
O O12 0.770577 0.466787 0.077936
O O13 0.559752 0.283807 0.154552
O O14 0.615176 0.067940 0.263768
#
# Coordination Sequence:
#
# PCOD9135270 Si02
#       7
#     4   4   4   4   4   4   4
#     4  10  23  38  68 100 136 173 231 283 340 400
#     4   9  19  38  63  91 133 174 230 273 328 407
#     4  10  21  41  64  99 132 184 222 274 340 408
#     4  10  20  38  67  93 130 177 229 267 337 409
#     4   9  19  38  65  89 127 180 219 272 338 406
#     4  10  23  38  68  99 134 174 234 288 330 408
#     4  10  21  39  69  97 130 186 223 277 345 408
#
# _framework density 21.863318
#
# number of rings (size 3 to 8) (size 9 to 14) (size 15 to 20)
#    0.000    2.286    1.429    0.000    8.000    0.000 
#    0.000    0.000   22.000    0.000    0.000    0.000 
#    0.000    0.000    0.000    0.000    0.000    0.000 
#
# Total GULP energy -78061.111914 kJ/mol
# GULP energy per Si atom -5575.793708 kJ/mol
# Density = 2.181356 g / cm^3
# Si number density = 21.863318 Si / 1000 Ang^3
#
#
#
# Elastic Constant Matrix: (Units=GPa)
#
#
# Indices 1 2 3 4 5 6 
#
# 1 87.1343 43.1312 24.8370 -0.0001 -17.4308 0.0000
# 2 43.1312 117.6541 10.4379 -0.0006 -17.0195 -0.0001
# 3 24.8370 10.4379 55.6016 -0.0014 -13.0632 -0.0003
# 4 -0.0001 -0.0006 -0.0014 29.4915 -0.0002 -4.7579
# 5 -17.4308 -17.0195 -13.0632 -0.0002 39.0276 0.0000
# 6 0.0000 -0.0001 -0.0003 -4.7579 0.0000 28.1251
#
#
#
# Elastic Compliance Matrix: (Units=1/GPa)
#
#
# Indices 1 2 3 4 5 6 
#
# 1 0.016152 -0.004968 -0.005531 0.000000 0.003196 0.000000
# 2 -0.004968 0.010636 0.000858 0.000000 0.002707 0.000000
# 3 -0.005531 0.000858 0.021493 0.000001 0.005098 0.000000
# 4 0.000000 0.000000 0.000001 0.034859 0.000001 0.005897
# 5 0.003196 0.002707 0.005098 0.000001 0.029937 0.000000
# 6 0.000000 0.000000 0.000000 0.005897 0.000000 0.036553
#
#
# Mechanical properties :
#
#
# Convention : Reuss Voigt Hill
#
# Bulk Modulus (GPa) = 34.48480 46.35580 40.42030
# Shear Modulus (GPa) = 27.99896 31.46109 29.73003
#
# Velocity S-wave (km/s) = 3.58248 3.79752 3.69156
# Velocity P-wave (km/s) = 5.73754 6.36213 6.05789
#
# Compressibility (1/GPa) = 0.02899828
#
# Stress axis : x y z
#
# Youngs Moduli (GPa) = 61.91292 94.01896 46.52785
#
# Poissons Ratio (x) = 0.46709 0.25737
# Poissons Ratio (y) = 0.30759 -0.03994
# Poissons Ratio (z) = 0.34247 -0.08071
#
# Static dielectric constant tensor:
#      x y z
#    x 1.801180 0.000000 0.006450 
#    y 0.000000 1.839380 0.000000 
#    z 0.006450 0.000000 1.881850 
# 
# From -- ./inp_files/33675.got.cif
#   From: 2010.05.17/outbox.cif.g08.bks.cpg/sg9_17_cif.got.tgz:33675.got - 2010.06.03 20:04:27.
