data_PCOD9135852
_publ_section_title
;
Structure prediction by ZEFSAII (Michael W. Deem and Ramdas Pophale) SiO2 
 PCOD9135852
Probable space group: C C
;
_chemical_formula_sum "Si O2"
_cell_formula_units_Z 28
_cell_length_a 19.015070
_cell_length_b 9.073367
_cell_length_c 16.754551
_cell_angle_alpha 90.000000
_cell_angle_beta 25.232359
_cell_angle_gamma 90.000000
_cell_volume 1232.266362
_symmetry_space_group_name_H-M "C C"
_symmetry_group_IT_number 9
_symmetry_cell_setting 'monoclinic'
loop_
_space_group_symop_operation_xyz
x,y,z
x,-y,1/2+z
1/2+x,1/2+y,z
1/2+x,1/2-y,1/2+z
loop_
_atom_site_type_symbol
_atom_site_label
_atom_site_fract_x
_atom_site_fract_y
_atom_site_fract_z
Si Si1 0.561030 0.945921 0.018090
Si Si2 0.699533 0.222111 0.244371
Si Si3 0.552727 0.952800 0.349897
Si Si4 0.383507 0.615795 0.722695
Si Si5 0.748101 0.430886 0.916991
Si Si6 0.728948 0.515240 0.118786
Si Si7 0.894115 0.068103 0.528360
O O1 0.387528 0.954887 0.241010
O O2 0.616404 0.794858 0.917073
O O3 0.537208 0.046890 0.962270
O O4 0.722451 0.008873 0.897792
O O5 0.583147 0.128792 0.302892
O O6 0.732215 0.383383 0.181256
O O7 0.855566 0.108379 0.083586
O O8 0.395813 0.898761 0.465817
O O9 0.729185 0.884312 0.152350
O O10 0.562429 0.564493 0.571416
O O11 0.328639 0.771514 0.815760
O O12 0.404208 0.633319 0.606047
O O13 0.732547 0.452435 0.027041
O O14 0.557467 0.591633 0.312279
#
# Coordination Sequence:
#
# PCOD9135852 Si02
#       7
#     4   4   4   4   4   4   4
#     4   8  19  39  45  72 111 152 169 211 261 324
#     4   7  18  31  50  69 110 136 170 205 258 309
#     4   7  18  31  51  65 111 138 175 198 258 311
#     4  10  21  35  48  75 113 148 171 210 268 326
#     4  12  23  29  57  83 115 131 172 226 277 306
#     4  12  19  31  55  91 105 131 169 229 269 309
#     4   8  20  34  48  71 113 144 174 205 261 323
#
# _framework density 22.722359000000001
#
# number of rings (size 3 to 8) (size 9 to 14) (size 15 to 20)
#    1.714    1.143    1.429    1.714    4.000    1.143 
#    0.000    0.000    0.000    0.000    0.000   10.000 
#    0.000    0.286    0.000    0.000    0.000    0.000 
#
# Total GULP energy -77973.142671 kJ/mol
# GULP energy per Si atom -5569.510191 kJ/mol
# Density = 2.267064 g / cm^3
# Si number density = 22.722359 Si / 1000 Ang^3
#
#
#
# Elastic Constant Matrix: (Units=GPa)
#
#
# Indices 1 2 3 4 5 6 
#
# 1 79.8210 29.0214 121.0538 0.0000 -0.6117 0.0000
# 2 29.0214 71.9826 33.1857 0.0000 -14.1239 0.0000
# 3 121.0538 33.1857 167.9432 0.0000 -60.7088 0.0000
# 4 0.0000 0.0000 0.0000 27.5868 0.0000 1.2176
# 5 -0.6117 -14.1239 -60.7088 0.0000 10.6972 0.0000
# 6 0.0000 0.0000 0.0000 1.2176 0.0000 34.1933
#
#
#
# Elastic Compliance Matrix: (Units=1/GPa)
#
#
# Indices 1 2 3 4 5 6 
#
# 1 0.006332 0.000294 0.004138 0.000000 0.024233 0.000000
# 2 0.000294 0.015205 -0.003848 0.000000 -0.001747 0.000000
# 3 0.004138 -0.003848 -0.001884 0.000000 -0.015538 0.000000
# 4 0.000000 0.000000 0.000000 0.036306 0.000000 -0.001293
# 5 0.024233 -0.001747 -0.015538 0.000000 0.004382 0.000000
# 6 0.000000 0.000000 0.000000 -0.001293 0.000000 0.029291
#
#
# Mechanical properties :
#
#
# Convention : Reuss Voigt Hill
#
# Bulk Modulus (GPa) = 48.03049 76.25205 62.14127
# Shear Modulus (GPa) = 52.40836 23.59453 38.00144
#
# Velocity S-wave (km/s) = 4.80778 3.22589 4.09397
# Velocity P-wave (km/s) = 7.21135 6.89247 7.05371
#
# Compressibility (1/GPa) = 0.02082011
#
# Stress axis : x y z
#
# Youngs Moduli (GPa) = 157.93495 65.76833 -530.72396
#
# Poissons Ratio (x) = -0.01937 2.19593
# Poissons Ratio (y) = -0.04650 -2.04233
# Poissons Ratio (z) = -0.65347 0.25309
#
# Static dielectric constant tensor:
#      x y z
#    x 1.802400 0.000000 -0.046920 
#    y 0.000000 1.919550 0.000000 
#    z -0.046920 0.000000 1.950590 
# 
# From -- ./inp_files/31284.got.cif
#   From: 2010.05.17/outbox.cif.g08.bks.cpg/sg9_16_cif.got.tgz:31284.got - 2010.06.03 20:04:27.
