data_PCOD9135861
_publ_section_title
;
Structure prediction by ZEFSAII (Michael W. Deem and Ramdas Pophale) SiO2 
 PCOD9135861
Probable space group: C C
;
_chemical_formula_sum "Si O2"
_cell_formula_units_Z 32
_cell_length_a 25.014056
_cell_length_b 8.655559
_cell_length_c 9.435207
_cell_angle_alpha 90.000000
_cell_angle_beta 51.622404
_cell_angle_gamma 90.000000
_cell_volume 1601.442816
_symmetry_space_group_name_H-M "C C"
_symmetry_group_IT_number 9
_symmetry_cell_setting 'monoclinic'
loop_
_space_group_symop_operation_xyz
x,y,z
x,-y,1/2+z
1/2+x,1/2+y,z
1/2+x,1/2-y,1/2+z
loop_
_atom_site_type_symbol
_atom_site_label
_atom_site_fract_x
_atom_site_fract_y
_atom_site_fract_z
Si Si1 0.160390 0.386187 0.517880
Si Si2 0.526514 0.908555 0.289451
Si Si3 0.126203 0.116958 0.751858
Si Si4 0.840890 0.602462 0.581040
Si Si5 0.730564 0.353212 0.686878
Si Si6 0.095635 0.118546 0.090992
Si Si7 0.237201 0.703061 0.384861
Si Si8 0.432745 0.013104 0.691651
O O1 0.085536 0.469855 0.642222
O O2 0.158869 0.280761 0.661258
O O3 0.186846 0.266634 0.353803
O O4 0.212466 0.528313 0.430898
O O5 0.558481 0.740167 0.249926
O O6 0.493345 0.948521 0.493838
O O7 0.469541 0.899065 0.260414
O O8 0.179922 0.985306 0.709412
O O9 0.094112 0.049081 0.661251
O O10 0.072516 0.126412 0.967012
O O11 0.791149 0.450340 0.661663
O O12 0.794120 0.752059 0.678324
O O13 0.887470 0.593990 0.644930
O O14 0.883513 0.598914 0.365105
O O15 0.758681 0.259465 0.506085
O O16 0.171932 0.188974 0.956828
#
# Coordination Sequence:
#
# PCOD9135861 Si02
#       8
#     4   4   4   4   4   4   4   4
#     4  11  24  36  66  98 135 156 204 279 343 377
#     4  10  23  41  61  99 125 167 222 259 314 386
#     4  11  20  37  58  98 125 167 190 255 345 389
#     4  11  20  42  65  91 123 173 230 255 310 397
#     4  11  21  37  62  98 129 162 206 263 330 389
#     4  10  21  35  62  91 129 155 210 258 326 382
#     4  10  22  35  60  96 127 159 202 273 326 369
#     4  10  23  39  66  87 125 185 224 256 300 381
#
# _framework density 19.981981000000001
#
# number of rings (size 3 to 8) (size 9 to 14) (size 15 to 20)
#    0.000    1.500    3.750    1.500    8.750    0.000 
#    0.000    0.000    0.000   15.000    0.000    0.000 
#    0.000    0.000    0.000    0.000    0.000    0.000 
#
# Total GULP energy -89134.443506 kJ/mol
# GULP energy per Si atom -5570.902719 kJ/mol
# Density = 1.993650 g / cm^3
# Si number density = 19.981981 Si / 1000 Ang^3
#
#
#
# Elastic Constant Matrix: (Units=GPa)
#
#
# Indices 1 2 3 4 5 6 
#
# 1 45.4568 18.7522 16.1880 0.0000 3.9071 0.0000
# 2 18.7522 97.9806 34.2899 0.0000 -4.3458 0.0000
# 3 16.1880 34.2899 119.4697 0.0000 -1.8436 0.0000
# 4 0.0000 0.0000 0.0000 35.0013 0.0000 0.4377
# 5 3.9071 -4.3458 -1.8436 0.0000 30.9855 0.0000
# 6 0.0000 0.0000 0.0000 0.4377 0.0000 10.5528
#
#
#
# Elastic Compliance Matrix: (Units=1/GPa)
#
#
# Indices 1 2 3 4 5 6 
#
# 1 0.024834 -0.004141 -0.002236 0.000000 -0.003845 0.000000
# 2 -0.004141 0.012097 -0.002879 0.000000 0.002047 0.000000
# 3 -0.002236 -0.002879 0.009507 0.000000 0.000444 0.000000
# 4 0.000000 0.000000 0.000000 0.028585 0.000000 -0.001186
# 5 -0.003845 0.002047 0.000444 0.000000 0.033072 0.000000
# 6 0.000000 0.000000 0.000000 -0.001186 0.000000 0.094811
#
#
# Mechanical properties :
#
#
# Convention : Reuss Voigt Hill
#
# Bulk Modulus (GPa) = 35.80986 44.59640 40.20313
# Shear Modulus (GPa) = 21.67075 28.21973 24.94524
#
# Velocity S-wave (km/s) = 3.29677 3.76208 3.53708
# Velocity P-wave (km/s) = 5.69663 6.42166 6.06998
#
# Compressibility (1/GPa) = 0.02792527
#
# Stress axis : x y z
#
# Youngs Moduli (GPa) = 40.26753 82.66416 105.19060
#
# Poissons Ratio (x) = 0.34231 0.23518
# Poissons Ratio (y) = 0.16675 0.30289
# Poissons Ratio (z) = 0.09003 0.23802
#
# Static dielectric constant tensor:
#      x y z
#    x 1.774150 0.000000 0.022190 
#    y 0.000000 1.687890 0.000000 
#    z 0.022190 0.000000 1.782300 
# 
# From -- ./inp_files/11230.got.cif
#   From: 2010.05.17/outbox.cif.g08.bks.cpg/sg9_6_cif.got.tgz:11230.got - 2010.06.03 20:04:27.
