data_PCOD9135109
_publ_section_title
;
Structure prediction by ZEFSAII (Michael W. Deem and Ramdas Pophale) SiO2 
 PCOD9135109
Probable space group: C C
;
_chemical_formula_sum "Si O2"
_cell_formula_units_Z 32
_cell_length_a 24.397901
_cell_length_b 13.523351
_cell_length_c 14.943988
_cell_angle_alpha 90.000000
_cell_angle_beta 16.310397
_cell_angle_gamma 90.000000
_cell_volume 1384.725241
_symmetry_space_group_name_H-M "C C"
_symmetry_group_IT_number 9
_symmetry_cell_setting 'monoclinic'
loop_
_space_group_symop_operation_xyz
x,y,z
x,-y,1/2+z
1/2+x,1/2+y,z
1/2+x,1/2-y,1/2+z
loop_
_atom_site_type_symbol
_atom_site_label
_atom_site_fract_x
_atom_site_fract_y
_atom_site_fract_z
Si Si1 0.562490 0.167007 0.487960
Si Si2 0.617956 0.192354 0.039320
Si Si3 0.437141 0.972755 0.919493
Si Si4 0.688343 0.394403 0.684311
Si Si5 0.903067 0.732658 0.219647
Si Si6 0.623168 0.044666 0.800740
Si Si7 0.958742 0.868014 0.880980
Si Si8 0.816755 0.278442 0.219359
O O1 0.748676 0.199328 0.253334
O O2 0.486958 0.237684 0.525612
O O3 0.590593 0.060625 0.398219
O O4 0.380554 0.156396 0.841616
O O5 0.434258 0.237322 0.276492
O O6 0.690922 0.245636 0.013662
O O7 0.795429 0.194552 0.690559
O O8 0.574357 0.078977 0.130907
O O9 0.566873 0.036276 0.784862
O O10 0.355866 0.880703 0.104389
O O11 0.267105 0.030139 0.134791
O O12 0.544429 0.315560 0.955501
O O13 0.567132 0.433493 0.787559
O O14 0.977518 0.626122 0.070615
O O15 0.840531 0.077675 0.487813
O O16 0.124969 0.800189 0.579550
#
# Coordination Sequence:
#
# PCOD9135109 Si02
#       8
#     4   4   4   4   4   4   4   4
#     4  10  21  39  60  86 119 156 195 241 292 346
#     4  10  21  37  59  88 118 153 195 238 289 346
#     4  11  24  39  58  90 124 153 190 241 297 348
#     4  10  20  37  62  88 116 153 197 241 287 346
#     4  10  20  38  62  88 116 154 197 241 288 346
#     4  10  21  38  59  88 120 153 193 243 292 345
#     4   9  20  38  59  86 114 151 200 239 282 346
#     4  10  23  40  59  86 119 155 197 238 291 349
#
# _framework density 23.109278
#
# number of rings (size 3 to 8) (size 9 to 14) (size 15 to 20)
#    0.000    2.000    0.000    3.750    0.000    8.000 
#    0.000    6.250    0.000    0.000    0.000    0.000 
#    0.000    0.000    0.000    0.000    0.000    0.000 
#
# Total GULP energy -89393.903627 kJ/mol
# GULP energy per Si atom -5587.118977 kJ/mol
# Density = 2.305668 g / cm^3
# Si number density = 23.109278 Si / 1000 Ang^3
#
#
#
# Elastic Constant Matrix: (Units=GPa)
#
#
# Indices 1 2 3 4 5 6 
#
# 1 127.9409 32.0542 15.7965 -0.0003 -37.3653 0.0002
# 2 32.0542 54.5544 1.8636 0.0022 -21.4715 -0.0004
# 3 15.7965 1.8636 64.6940 0.0030 -9.7094 -0.0005
# 4 -0.0003 0.0022 0.0030 16.8479 -0.0008 -7.5495
# 5 -37.3653 -21.4715 -9.7094 -0.0008 49.2539 0.0002
# 6 0.0002 -0.0004 -0.0005 -7.5495 0.0002 33.0674
#
#
#
# Elastic Compliance Matrix: (Units=1/GPa)
#
#
# Indices 1 2 3 4 5 6 
#
# 1 0.010784 -0.003845 -0.001593 0.000001 0.006191 0.000000
# 2 -0.003845 0.023542 0.001405 -0.000003 0.007622 0.000000
# 3 -0.001593 0.001405 0.016196 -0.000003 0.002596 0.000000
# 4 0.000001 -0.000003 -0.000003 0.066119 0.000000 0.015095
# 5 0.006191 0.007622 0.002596 0.000000 0.028834 0.000000
# 6 0.000000 0.000000 0.000000 0.015095 0.000000 0.033688
#
#
# Mechanical properties :
#
#
# Convention : Reuss Voigt Hill
#
# Bulk Modulus (GPa) = 23.55510 38.51311 31.03411
# Shear Modulus (GPa) = 24.82847 32.99884 28.91365
#
# Velocity S-wave (km/s) = 3.28135 3.78292 3.54103
# Velocity P-wave (km/s) = 4.95695 5.98184 5.49335
#
# Compressibility (1/GPa) = 0.04245364
#
# Stress axis : x y z
#
# Youngs Moduli (GPa) = 92.72739 42.47768 61.74506
#
# Poissons Ratio (x) = 0.16335 0.09838
# Poissons Ratio (y) = 0.35658 -0.08674
# Poissons Ratio (z) = 0.14775 -0.05967
#
# Static dielectric constant tensor:
#      x y z
#    x 1.955040 0.000000 0.004950 
#    y 0.000000 1.836450 0.000000 
#    z 0.004950 0.000000 1.883240 
# 
# From -- ./inp_files/24918.got.cif
#   From: 2010.05.17/outbox.cif.g08.bks.cpg/sg9_13_cif.got.tgz:24918.got - 2010.06.03 20:04:27.
