data_PCOD9135823
_publ_section_title
;
Structure prediction by ZEFSAII (Michael W. Deem and Ramdas Pophale) SiO2 
 PCOD9135823
Probable space group: C C
;
_chemical_formula_sum "Si O2"
_cell_formula_units_Z 24
_cell_length_a 26.865250
_cell_length_b 7.212560
_cell_length_c 14.202090
_cell_angle_alpha 90.000000
_cell_angle_beta 156.982245
_cell_angle_gamma 90.000000
_cell_volume 1076.037763
_symmetry_space_group_name_H-M "C C"
_symmetry_group_IT_number 9
_symmetry_cell_setting 'monoclinic'
loop_
_space_group_symop_operation_xyz
x,y,z
x,-y,1/2+z
1/2+x,1/2+y,z
1/2+x,1/2-y,1/2+z
loop_
_atom_site_type_symbol
_atom_site_label
_atom_site_fract_x
_atom_site_fract_y
_atom_site_fract_z
Si Si1 0.081040 0.508661 0.292430
Si Si2 0.847462 0.183551 0.273670
Si Si3 0.553406 0.867329 0.547719
Si Si4 0.665814 0.176791 0.636779
Si Si5 0.179809 0.903235 0.120526
Si Si6 0.948075 0.871704 0.574028
O O1 0.214651 0.404486 0.512230
O O2 0.074633 0.651535 0.195967
O O3 0.094836 0.610528 0.416745
O O4 0.975077 0.346400 0.101120
O O5 0.803557 0.322695 0.281846
O O6 0.909654 0.293543 0.295044
O O7 0.932585 0.010415 0.458800
O O8 0.637814 0.745428 0.625424
O O9 0.583492 0.078125 0.573524
O O10 0.683819 0.395481 0.672992
O O11 0.811004 0.103813 0.885224
O O12 0.066116 0.920030 0.846210
#
# Coordination Sequence:
#
# PCOD9135823 Si02
#       6
#     4   4   4   4   4   4
#     4  10  23  43  66  97 137 175 226 279 332 400
#     4  10  23  43  66  97 137 175 226 279 332 400
#     4  12  24  42  69 104 130 181 228 266 344 400
#     4  11  24  45  67  98 135 178 224 278 336 397
#     4  11  24  45  67  98 135 178 224 278 336 397
#     4  10  20  46  69  88 138 175 218 290 324 392
#
# _framework density 22.304048999999999
#
# number of rings (size 3 to 8) (size 9 to 14) (size 15 to 20)
#    0.000    1.333    5.000    2.000    4.667    0.000 
#    0.000    6.667    0.000    0.000    0.000    0.000 
#    0.000    0.000    0.000    0.000    0.000    0.000 
#
# Total GULP energy -66960.586148 kJ/mol
# GULP energy per Si atom -5580.048846 kJ/mol
# Density = 2.225328 g / cm^3
# Si number density = 22.304049 Si / 1000 Ang^3
#
#
#
# Elastic Constant Matrix: (Units=GPa)
#
#
# Indices 1 2 3 4 5 6 
#
# 1 83.4680 13.9563 11.3467 0.0000 15.5686 0.0000
# 2 13.9563 115.1116 19.6968 0.0000 19.0253 0.0000
# 3 11.3467 19.6968 49.5799 0.0000 -5.5262 0.0000
# 4 0.0000 0.0000 0.0000 34.6301 0.0000 -2.5311
# 5 15.5686 19.0253 -5.5262 0.0000 24.7310 0.0000
# 6 0.0000 0.0000 0.0000 -2.5311 0.0000 20.7758
#
#
#
# Elastic Compliance Matrix: (Units=1/GPa)
#
#
# Indices 1 2 3 4 5 6 
#
# 1 0.014536 0.000880 -0.004893 0.000000 -0.010921 0.000000
# 2 0.000880 0.011338 -0.005886 0.000000 -0.010592 0.000000
# 3 -0.004893 -0.005886 0.025101 0.000000 0.013218 0.000000
# 4 0.000000 0.000000 0.000000 0.029136 0.000000 0.003550
# 5 -0.010921 -0.010592 0.013218 0.000000 0.058412 0.000000
# 6 0.000000 0.000000 0.000000 0.003550 0.000000 0.048565
#
#
# Mechanical properties :
#
#
# Convention : Reuss Voigt Hill
#
# Bulk Modulus (GPa) = 32.07651 37.57325 34.82488
# Shear Modulus (GPa) = 23.01180 29.57134 26.29157
#
# Velocity S-wave (km/s) = 3.21554 3.64514 3.43706
# Velocity P-wave (km/s) = 5.31027 5.88206 5.60346
#
# Compressibility (1/GPa) = 0.03117546
#
# Stress axis : x y z
#
# Youngs Moduli (GPa) = 68.79615 88.19634 39.83885
#
# Poissons Ratio (x) = -0.07761 0.19495
# Poissons Ratio (y) = -0.06054 0.23451
# Poissons Ratio (z) = 0.33665 0.51916
#
# Static dielectric constant tensor:
#      x y z
#    x 1.799910 0.000000 -0.013320 
#    y 0.000000 1.890810 0.000000 
#    z -0.013320 0.000000 1.866440 
# 
# From -- ./inp_files/28257.got.cif
#   From: 2010.05.17/outbox.cif.g08.bks.cpg/sg9_15_cif.got.tgz:28257.got - 2010.06.03 20:04:27.
