data_PCOD9135862
_publ_section_title
;
Structure prediction by ZEFSAII (Michael W. Deem and Ramdas Pophale) SiO2 
 PCOD9135862
Probable space group: C C
;
_chemical_formula_sum "Si O2"
_cell_formula_units_Z 32
_cell_length_a 15.790369
_cell_length_b 18.324784
_cell_length_c 10.448801
_cell_angle_alpha 90.000000
_cell_angle_beta 155.801628
_cell_angle_gamma 90.000000
_cell_volume 1239.288628
_symmetry_space_group_name_H-M "C C"
_symmetry_group_IT_number 9
_symmetry_cell_setting 'monoclinic'
loop_
_space_group_symop_operation_xyz
x,y,z
x,-y,1/2+z
1/2+x,1/2+y,z
1/2+x,1/2-y,1/2+z
loop_
_atom_site_type_symbol
_atom_site_label
_atom_site_fract_x
_atom_site_fract_y
_atom_site_fract_z
Si Si1 0.751130 0.320102 0.651170
Si Si2 0.446685 0.475287 0.004045
Si Si3 0.373852 0.820103 0.239854
Si Si4 0.539668 0.627092 0.099943
Si Si5 0.178296 0.475288 0.886978
Si Si6 0.585314 0.127092 0.791081
Si Si7 0.535781 0.339207 0.975239
Si Si8 0.089200 0.339207 0.915785
O O1 0.589911 0.364453 0.517468
O O2 0.635242 0.245731 0.452925
O O3 0.881178 0.347483 0.709658
O O4 0.943259 0.316957 0.017204
O O5 0.595267 0.545477 0.223612
O O6 0.312491 0.470316 0.945513
O O7 0.312490 0.500000 0.695511
O O8 0.534370 0.396848 0.087969
O O9 0.181722 0.816958 0.873820
O O10 0.243803 0.847483 0.181366
O O11 0.535070 0.864453 0.373556
O O12 0.489740 0.745732 0.438099
O O13 0.296937 0.640499 0.781950
O O14 0.090610 0.396848 0.803054
O O15 0.029714 0.545477 0.667410
O O16 0.828044 0.140499 0.109073
#
# Coordination Sequence:
#
# PCOD9135862 Si02
#       8
#     4   4   4   4   4   4   4   4
#     4  11  21  34  63  97 127 170 216 272 316 387
#     4  10  22  43  67  93 130 179 215 265 326 389
#     4  11  21  34  63  97 127 170 216 272 316 387
#     4  10  21  35  62  94 131 168 222 267 320 376
#     4  10  22  43  67  93 130 179 215 265 326 389
#     4  10  21  35  62  94 131 168 222 267 320 376
#     4  11  21  36  60  90 133 163 215 265 329 375
#     4  11  21  36  60  90 133 163 215 265 329 375
#
# _framework density 25.821263999999999
#
# number of rings (size 3 to 8) (size 9 to 14) (size 15 to 20)
#    0.000    1.500    2.500    4.500    3.500    1.000 
#    0.000    3.750    0.000    0.000    0.000    0.000 
#    0.000    0.000    0.000    0.000    0.000    0.000 
#
# Total GULP energy -89384.666480 kJ/mol
# GULP energy per Si atom -5586.541655 kJ/mol
# Density = 2.576249 g / cm^3
# Si number density = 25.821264 Si / 1000 Ang^3
#
#
#
# Elastic Constant Matrix: (Units=GPa)
#
#
# Indices 1 2 3 4 5 6 
#
# 1 229.4519 101.4701 45.0571 0.0000 48.7827 0.0000
# 2 101.4701 172.1154 23.9427 0.0000 21.8484 0.0000
# 3 45.0571 23.9427 109.7381 0.0000 -2.0056 0.0000
# 4 0.0000 0.0000 0.0000 3.0092 0.0000 13.8918
# 5 48.7827 21.8484 -2.0056 0.0000 28.3577 0.0000
# 6 0.0000 0.0000 0.0000 13.8918 0.0000 33.4649
#
#
#
# Elastic Compliance Matrix: (Units=1/GPa)
#
#
# Indices 1 2 3 4 5 6 
#
# 1 0.009475 -0.003337 -0.003418 0.000000 -0.013971 0.000000
# 2 -0.003337 0.007871 -0.000353 0.000000 -0.000348 0.000000
# 3 -0.003418 -0.000353 0.010719 0.000000 0.006910 0.000000
# 4 0.000000 0.000000 0.000000 -0.362654 0.000000 0.150543
# 5 -0.013971 -0.000348 0.006910 0.000000 0.060054 0.000000
# 6 0.000000 0.000000 0.000000 0.150543 0.000000 -0.032610
#
#
# Mechanical properties :
#
#
# Convention : Reuss Voigt Hill
#
# Bulk Modulus (GPa) = 72.20836 94.69390 83.45113
# Shear Modulus (GPa) = -17.34231 35.68874 9.17321
#
# Velocity S-wave (km/s) = -2.59439 3.72175 1.88687
# Velocity P-wave (km/s) = 4.36473 7.43109 6.09393
#
# Compressibility (1/GPa) = 0.01384881
#
# Stress axis : x y z
#
# Youngs Moduli (GPa) = 105.53591 127.04993 93.29014
#
# Poissons Ratio (x) = 0.42401 0.31884
# Poissons Ratio (y) = 0.35221 0.03297
# Poissons Ratio (z) = 0.36069 0.04490
#
# Static dielectric constant tensor:
#      x y z
#    x 2.068890 0.000000 -0.042370 
#    y 0.000000 2.166150 0.000000 
#    z -0.042370 0.000000 2.038650 
# 
# From -- ./inp_files/18556.got.cif
#   From: 2010.05.17/outbox.cif.g08.bks.cpg/sg9_10_cif.got.tgz:18556.got - 2010.06.03 20:04:27.
