data_PCOD9135884
_publ_section_title
;
Structure prediction by ZEFSAII (Michael W. Deem and Ramdas Pophale) SiO2 
 PCOD9135884
Probable space group: C C
;
_chemical_formula_sum "Si O2"
_cell_formula_units_Z 32
_cell_length_a 7.035471
_cell_length_b 19.725410
_cell_length_c 12.402103
_cell_angle_alpha 90.000000
_cell_angle_beta 132.027808
_cell_angle_gamma 90.000000
_cell_volume 1278.492332
_symmetry_space_group_name_H-M "C C"
_symmetry_group_IT_number 9
_symmetry_cell_setting 'monoclinic'
loop_
_space_group_symop_operation_xyz
x,y,z
x,-y,1/2+z
1/2+x,1/2+y,z
1/2+x,1/2-y,1/2+z
loop_
_atom_site_type_symbol
_atom_site_label
_atom_site_fract_x
_atom_site_fract_y
_atom_site_fract_z
Si Si1 0.208160 0.323581 0.587050
Si Si2 0.650124 0.329707 0.437706
Si Si3 0.121938 0.313009 0.885973
Si Si4 0.605443 0.703142 0.410513
Si Si5 0.922260 0.894281 0.148354
Si Si6 0.689244 0.435084 0.025365
Si Si7 0.263977 0.929469 0.658631
Si Si8 0.873621 0.034344 0.194509
O O1 0.478289 0.306384 0.746155
O O2 0.202375 0.277430 0.478713
O O3 0.198115 0.404815 0.586065
O O4 0.949716 0.307073 0.556602
O O5 0.496503 0.259924 0.361338
O O6 0.612962 0.371314 0.313661
O O7 0.598776 0.380480 0.516727
O O8 0.350357 0.303115 0.887816
O O9 0.970895 0.377727 0.784206
O O10 0.238944 0.334289 0.044502
O O11 0.776843 0.638127 0.510188
O O12 0.064795 0.913686 0.091993
O O13 0.771768 0.959826 0.132994
O O14 0.840134 0.504298 0.116071
O O15 0.476816 0.456822 0.855114
O O16 0.115998 0.956929 0.706469
#
# Coordination Sequence:
#
# PCOD9135884 Si02
#       8
#     4   4   4   4   4   4   4   4
#     4  10  21  37  63  88 119 158 209 252 298 357
#     4  11  21  38  68  90 118 160 206 253 303 358
#     4  10  21  36  60  95 118 155 208 256 296 360
#     4   9  19  36  61  88 116 156 207 260 285 354
#     4  10  21  38  64  89 121 157 209 257 296 354
#     4   9  20  38  61  84 121 161 198 246 302 355
#     4  11  21  40  63  87 125 165 195 251 315 356
#     4  10  22  41  60  87 130 162 196 253 305 366
#
# _framework density 25.029482000000002
#
# number of rings (size 3 to 8) (size 9 to 14) (size 15 to 20)
#    0.000    2.000    2.500    0.750    8.750    2.000 
#    4.500    0.000    2.750    0.000    0.000    0.000 
#    0.000    0.000    0.000    0.000    0.000    0.000 
#
# Total GULP energy -89271.717117 kJ/mol
# GULP energy per Si atom -5579.482320 kJ/mol
# Density = 2.497251 g / cm^3
# Si number density = 25.029482 Si / 1000 Ang^3
#
#
#
# Elastic Constant Matrix: (Units=GPa)
#
#
# Indices 1 2 3 4 5 6 
#
# 1 58.6930 5.3438 9.9889 0.0000 -7.8065 0.0000
# 2 5.3438 144.6062 45.7097 0.0000 15.2360 0.0000
# 3 9.9889 45.7097 125.0884 0.0000 -14.7093 0.0000
# 4 0.0000 0.0000 0.0000 38.4605 0.0000 -29.8156
# 5 -7.8065 15.2360 -14.7093 0.0000 10.0425 0.0000
# 6 0.0000 0.0000 0.0000 -29.8156 0.0000 -120.7150
#
#
#
# Elastic Compliance Matrix: (Units=1/GPa)
#
#
# Indices 1 2 3 4 5 6 
#
# 1 0.020695 -0.004887 0.003500 0.000000 0.028628 0.000000
# 2 -0.004887 0.014175 -0.009381 0.000000 -0.039046 0.000000
# 3 0.003500 -0.009381 0.015870 0.000000 0.040198 0.000000
# 4 0.000000 0.000000 0.000000 0.021822 0.000000 -0.005390
# 5 0.028628 -0.039046 0.040198 0.000000 0.239948 0.000000
# 6 0.000000 0.000000 0.000000 -0.005390 0.000000 -0.006953
#
#
# Mechanical properties :
#
#
# Convention : Reuss Voigt Hill
#
# Bulk Modulus (GPa) = 34.24354 50.05248 42.14801
# Shear Modulus (GPa) = 14.84433 3.38063 9.11248
#
# Velocity S-wave (km/s) = 2.43795 1.16344 1.91013
# Velocity P-wave (km/s) = 4.65143 4.67393 4.66269
#
# Compressibility (1/GPa) = 0.02920259
#
# Stress axis : x y z
#
# Youngs Moduli (GPa) = 48.32119 70.54561 63.01274
#
# Poissons Ratio (x) = 0.34478 -0.22053
# Poissons Ratio (y) = 0.23616 0.59113
# Poissons Ratio (z) = -0.16911 0.66179
#
# Static dielectric constant tensor:
#      x y z
#    x 2.047870 0.000000 0.008980 
#    y 0.000000 2.050370 0.000000 
#    z 0.008980 0.000000 1.950250 
# 
# From -- ./inp_files/15483.got.cif
#   From: 2010.05.17/outbox.cif.g08.bks.cpg/sg9_8_cif.got.tgz:15483.got - 2010.06.03 20:04:27.
