data_PCOD9135093
_publ_section_title
;
Structure prediction by ZEFSAII (Michael W. Deem and Ramdas Pophale) SiO2 
 PCOD9135093
Probable space group: C C
;
_chemical_formula_sum "Si O2"
_cell_formula_units_Z 32
_cell_length_a 12.207153
_cell_length_b 21.761769
_cell_length_c 5.447768
_cell_angle_alpha 90.000000
_cell_angle_beta 74.601309
_cell_angle_gamma 90.000000
_cell_volume 1395.243261
_symmetry_space_group_name_H-M "C C"
_symmetry_group_IT_number 9
_symmetry_cell_setting 'monoclinic'
loop_
_space_group_symop_operation_xyz
x,y,z
x,-y,1/2+z
1/2+x,1/2+y,z
1/2+x,1/2-y,1/2+z
loop_
_atom_site_type_symbol
_atom_site_label
_atom_site_fract_x
_atom_site_fract_y
_atom_site_fract_z
Si Si1 0.815390 0.224069 0.139610
Si Si2 0.720108 0.352447 0.329047
Si Si3 0.703008 0.823386 0.212039
Si Si4 0.542098 0.714653 0.270104
Si Si5 0.144206 0.464872 0.225038
Si Si6 0.543746 0.498646 0.834228
Si Si7 0.869941 0.465251 0.394474
Si Si8 0.506190 0.611923 0.638531
O O1 0.781334 0.295456 0.161052
O O2 0.755024 0.196213 0.418231
O O3 0.948408 0.216529 0.113059
O O4 0.773946 0.193740 0.913448
O O5 0.647001 0.324573 0.598900
O O6 0.809979 0.400944 0.372843
O O7 0.630312 0.381138 0.190746
O O8 0.588342 0.782259 0.303532
O O9 0.689624 0.895991 0.216025
O O10 0.489762 0.679091 0.534915
O O11 0.177707 0.503195 0.448061
O O12 0.460769 0.442185 0.352272
O O13 0.006989 0.459290 0.306484
O O14 0.610482 0.493175 0.544224
O O15 0.491242 0.431723 0.908015
O O16 0.842110 0.489942 0.682279
#
# Coordination Sequence:
#
# PCOD9135093 Si02
#       8
#     4   4   4   4   4   4   4   4
#     4  11  26  44  68  99 132 171 234 274 321 405
#     4  11  24  40  63  97 133 176 213 270 342 390
#     4  11  24  46  71 101 128 177 220 282 333 391
#     4  11  25  43  69  95 136 179 218 279 336 392
#     4  10  21  44  75  98 131 173 218 278 340 382
#     4   8  18  32  53  81 119 162 210 243 300 389
#     4  10  24  38  63 104 135 170 218 271 330 411
#     4  10  20  37  60  91 124 180 205 263 320 388
#
# _framework density 22.93507
#
# number of rings (size 3 to 8) (size 9 to 14) (size 15 to 20)
#    0.750    1.000    1.250    2.250    5.250    0.000 
#    0.000    2.500    8.250    0.000    0.000    0.000 
#    0.000    0.000    0.000    0.000    0.000    0.000 
#
# Total GULP energy -89183.375332 kJ/mol
# GULP energy per Si atom -5573.960958 kJ/mol
# Density = 2.288287 g / cm^3
# Si number density = 22.935070 Si / 1000 Ang^3
#
#
#
# Elastic Constant Matrix: (Units=GPa)
#
#
# Indices 1 2 3 4 5 6 
#
# 1 42.8205 33.6248 38.2680 0.0000 20.9522 0.0000
# 2 33.6248 168.4943 55.0633 0.0000 18.7884 0.0000
# 3 38.2680 55.0633 164.2880 0.0000 31.6695 0.0000
# 4 0.0000 0.0000 0.0000 33.0940 0.0000 26.6106
# 5 20.9522 18.7884 31.6695 0.0000 27.7654 0.0000
# 6 0.0000 0.0000 0.0000 26.6106 0.0000 -2.2872
#
#
#
# Elastic Compliance Matrix: (Units=1/GPa)
#
#
# Indices 1 2 3 4 5 6 
#
# 1 0.042147 -0.004496 -0.003546 0.000000 -0.024718 0.000000
# 2 -0.004496 0.007284 -0.001407 0.000000 0.000069 0.000000
# 3 -0.003546 -0.001407 0.008569 0.000000 -0.006146 0.000000
# 4 0.000000 0.000000 0.000000 0.002918 0.000000 0.033950
# 5 -0.024718 0.000069 -0.006146 0.000000 0.061633 0.000000
# 6 0.000000 0.000000 0.000000 0.033950 0.000000 -0.042222
#
#
# Mechanical properties :
#
#
# Convention : Reuss Voigt Hill
#
# Bulk Modulus (GPa) = 25.57363 69.94614 47.75988
# Shear Modulus (GPa) = 44.53847 28.29090 36.41469
#
# Velocity S-wave (km/s) = 4.41152 3.51596 3.98896
# Velocity P-wave (km/s) = 6.09289 6.85903 6.48728
#
# Compressibility (1/GPa) = 0.03910278
#
# Stress axis : x y z
#
# Youngs Moduli (GPa) = 23.72636 137.27944 116.69567
#
# Poissons Ratio (x) = 0.61720 0.41376
# Poissons Ratio (y) = 0.10667 0.16425
# Poissons Ratio (z) = 0.08413 0.19322
#
# Static dielectric constant tensor:
#      x y z
#    x 1.900570 0.000000 -0.047630 
#    y 0.000000 1.926430 0.000000 
#    z -0.047630 0.000000 1.869440 
# 
# From -- ./inp_files/1788.got.cif
#   From: 2010.05.17/outbox.cif.g08.bks.cpg/sg9_1_cif.got.tgz:1788.got - 2010.06.03 20:04:27.
