data_PCOD9135369
_publ_section_title
;
Structure prediction by ZEFSAII (Michael W. Deem and Ramdas Pophale) SiO2 
 PCOD9135369
Probable space group: C C
;
_chemical_formula_sum "Si O2"
_cell_formula_units_Z 32
_cell_length_a 11.445684
_cell_length_b 7.981348
_cell_length_c 15.541386
_cell_angle_alpha 90.000000
_cell_angle_beta 121.446641
_cell_angle_gamma 90.000000
_cell_volume 1211.214673
_symmetry_space_group_name_H-M "C C"
_symmetry_group_IT_number 9
_symmetry_cell_setting 'monoclinic'
loop_
_space_group_symop_operation_xyz
x,y,z
x,-y,1/2+z
1/2+x,1/2+y,z
1/2+x,1/2-y,1/2+z
loop_
_atom_site_type_symbol
_atom_site_label
_atom_site_fract_x
_atom_site_fract_y
_atom_site_fract_z
Si Si1 0.241390 0.863422 0.977520
Si Si2 0.262550 0.554428 0.179532
Si Si3 0.263904 0.481665 0.971928
Si Si4 0.049983 0.016854 0.264649
Si Si5 0.533094 0.262677 0.035139
Si Si6 0.478918 0.109517 0.480528
Si Si7 0.974876 0.657531 0.291186
Si Si8 0.688548 0.691234 0.160521
O O1 0.175226 0.971797 0.877526
O O2 0.263144 0.676573 0.947951
O O3 0.137674 0.865451 0.015423
O O4 0.399421 0.910979 0.041267
O O5 0.265070 0.505029 0.077481
O O6 0.417392 0.615184 0.253010
O O7 0.141130 0.686699 0.146911
O O8 0.226182 0.379311 0.210373
O O9 0.396264 0.367114 0.001898
O O10 0.126169 0.414934 0.871771
O O11 0.097216 0.087648 0.191911
O O12 0.001205 0.827268 0.249836
O O13 0.499295 0.090105 0.971271
O O14 0.419984 0.172896 0.368322
O O15 0.594115 0.249443 0.544999
O O16 0.830988 0.596567 0.193434
#
# Coordination Sequence:
#
# PCOD9135369 Si02
#       8
#     4   4   4   4   4   4   4   4
#     4  11  23  40  66  98 132 177 224 277 346 410
#     4   9  21  43  62  96 138 174 230 285 346 408
#     4  11  22  42  69  97 135 179 228 287 345 414
#     4  11  23  39  67 102 138 181 234 286 344 419
#     4  10  22  42  68  98 131 176 226 284 341 416
#     4  11  21  45  70  94 141 182 224 287 355 407
#     4  11  22  40  69 100 133 185 228 282 347 408
#     4  10  20  39  67  95 134 176 226 288 338 410
#
# _framework density 26.419758999999999
#
# number of rings (size 3 to 8) (size 9 to 14) (size 15 to 20)
#    0.000    1.500    5.000    2.250    1.750    0.000 
#    0.000   11.250    0.000    0.000    0.000    0.000 
#    0.000    0.000    0.000    0.000    0.000    0.000 
#
# Total GULP energy -89095.241094 kJ/mol
# GULP energy per Si atom -5568.452568 kJ/mol
# Density = 2.635963 g / cm^3
# Si number density = 26.419759 Si / 1000 Ang^3
#
#
#
# Elastic Constant Matrix: (Units=GPa)
#
#
# Indices 1 2 3 4 5 6 
#
# 1 158.1873 56.4856 21.0627 0.0000 25.4693 0.0000
# 2 56.4856 63.9307 7.7910 0.0000 -5.1968 0.0000
# 3 21.0627 7.7910 52.7893 0.0000 12.7958 0.0000
# 4 0.0000 0.0000 0.0000 27.9088 0.0000 2.4445
# 5 25.4693 -5.1968 12.7958 0.0000 47.4824 0.0000
# 6 0.0000 0.0000 0.0000 2.4445 0.0000 53.8636
#
#
#
# Elastic Compliance Matrix: (Units=1/GPa)
#
#
# Indices 1 2 3 4 5 6 
#
# 1 0.011309 -0.010388 -0.001319 0.000000 -0.006848 0.000000
# 2 -0.010388 0.025762 -0.001810 0.000000 0.008879 0.000000
# 3 -0.001319 -0.001810 0.020984 0.000000 -0.005145 0.000000
# 4 0.000000 0.000000 0.000000 0.035974 0.000000 -0.001633
# 5 -0.006848 0.008879 -0.005145 0.000000 0.027092 0.000000
# 6 0.000000 0.000000 0.000000 -0.001633 0.000000 0.018639
#
#
# Mechanical properties :
#
#
# Convention : Reuss Voigt Hill
#
# Bulk Modulus (GPa) = 32.23582 49.50954 40.87268
# Shear Modulus (GPa) = 28.22702 38.48883 33.35793
#
# Velocity S-wave (km/s) = 3.27219 3.82097 3.55718
# Velocity P-wave (km/s) = 5.14823 6.18439 5.68994
#
# Compressibility (1/GPa) = 0.03102139
#
# Stress axis : x y z
#
# Youngs Moduli (GPa) = 88.42426 38.81620 47.65556
#
# Poissons Ratio (x) = 0.40322 0.06288
# Poissons Ratio (y) = 0.91854 0.08624
# Poissons Ratio (z) = 0.11667 0.07025
#
# Static dielectric constant tensor:
#      x y z
#    x 2.356650 0.000000 0.109060 
#    y 0.000000 2.128320 0.000000 
#    z 0.109060 0.000000 2.059820 
# 
# From -- ./inp_files/29922.got.cif
#   From: 2010.05.17/outbox.cif.g08.bks.cpg/sg9_15_cif.got.tgz:29922.got - 2010.06.03 20:04:27.
