data_PCOD9135134
_publ_section_title
;
Structure prediction by ZEFSAII (Michael W. Deem and Ramdas Pophale) SiO2 
 PCOD9135134
Probable space group: C C
;
_chemical_formula_sum "Si O2"
_cell_formula_units_Z 32
_cell_length_a 9.011976
_cell_length_b 21.974715
_cell_length_c 8.713332
_cell_angle_alpha 90.000000
_cell_angle_beta 100.113711
_cell_angle_gamma 90.000000
_cell_volume 1698.736967
_symmetry_space_group_name_H-M "C C"
_symmetry_group_IT_number 9
_symmetry_cell_setting 'monoclinic'
loop_
_space_group_symop_operation_xyz
x,y,z
x,-y,1/2+z
1/2+x,1/2+y,z
1/2+x,1/2-y,1/2+z
loop_
_atom_site_type_symbol
_atom_site_label
_atom_site_fract_x
_atom_site_fract_y
_atom_site_fract_z
Si Si1 0.885610 0.308756 0.847910
Si Si2 0.960176 0.425471 0.018256
Si Si3 0.611240 0.868944 0.653456
Si Si4 0.869523 0.463419 0.657446
Si Si5 0.834054 0.170724 0.933789
Si Si6 0.108222 0.116253 0.175430
Si Si7 0.383216 0.558822 0.364907
Si Si8 0.302112 0.565850 0.686945
O O1 0.866053 0.239787 0.893157
O O2 0.727466 0.333758 0.754013
O O3 0.012418 0.323046 0.740675
O O4 0.928664 0.353969 0.996209
O O5 0.866557 0.466129 0.118357
O O6 0.131433 0.438473 0.094672
O O7 0.918065 0.451434 0.842300
O O8 0.497266 0.924378 0.589969
O O9 0.690679 0.838821 0.520966
O O10 0.744612 0.898563 0.780587
O O11 0.708967 0.432409 0.602567
O O12 0.815556 0.127969 0.782809
O O13 0.977500 0.145298 0.051926
O O14 0.029947 0.082285 0.303224
O O15 0.399372 0.562785 0.549905
O O16 0.341742 0.490717 0.303698
#
# Coordination Sequence:
#
# PCOD9135134 Si02
#       8
#     4   4   4   4   4   4   4   4
#     4  10  23  42  62  85 126 163 205 253 295 364
#     4  10  20  37  64  90 121 157 203 248 300 366
#     4   9  19  40  61  86 120 160 202 252 299 358
#     4  10  20  38  63  88 122 155 195 259 310 352
#     4  11  25  38  65  88 119 170 209 245 305 361
#     4   9  23  42  58  90 129 157 199 262 305 358
#     4  11  20  37  64  93 126 152 202 259 310 356
#     4  12  22  36  65  94 121 162 207 250 302 377
#
# _framework density 18.837526
#
# number of rings (size 3 to 8) (size 9 to 14) (size 15 to 20)
#    0.000    2.000    3.750    1.500    3.500    5.000 
#    0.000    5.000    0.000    0.000    0.000    0.000 
#    0.000    0.000    0.000    0.000    0.000    0.000 
#
# Total GULP energy -89294.417055 kJ/mol
# GULP energy per Si atom -5580.901066 kJ/mol
# Density = 1.879465 g / cm^3
# Si number density = 18.837526 Si / 1000 Ang^3
#
#
#
# Elastic Constant Matrix: (Units=GPa)
#
#
# Indices 1 2 3 4 5 6 
#
# 1 102.5415 42.5647 23.9875 0.0000 -7.6445 0.0000
# 2 42.5647 149.2734 66.6686 0.0000 -23.4992 0.0000
# 3 23.9875 66.6686 62.2695 0.0000 -13.7349 0.0000
# 4 0.0000 0.0000 0.0000 23.4302 0.0000 -5.4018
# 5 -7.6445 -23.4992 -13.7349 0.0000 16.5347 0.0000
# 6 0.0000 0.0000 0.0000 -5.4018 0.0000 21.9347
#
#
#
# Elastic Compliance Matrix: (Units=1/GPa)
#
#
# Indices 1 2 3 4 5 6 
#
# 1 0.011157 -0.002373 -0.001669 0.000000 0.000399 0.000000
# 2 -0.002373 0.014361 -0.012490 0.000000 0.008938 0.000000
# 3 -0.001669 -0.012490 0.031819 0.000000 0.007908 0.000000
# 4 0.000000 0.000000 0.000000 0.045249 0.000000 0.011143
# 5 0.000399 0.008938 0.007908 0.000000 0.079935 0.000000
# 6 0.000000 0.000000 0.000000 0.011143 0.000000 0.048334
#
#
# Mechanical properties :
#
#
# Convention : Reuss Voigt Hill
#
# Bulk Modulus (GPa) = 41.19850 64.50288 52.85069
# Shear Modulus (GPa) = 18.38155 24.43751 21.40953
#
# Velocity S-wave (km/s) = 3.12716 3.60568 3.37491
# Velocity P-wave (km/s) = 5.91242 7.18684 6.58055
#
# Compressibility (1/GPa) = 0.02427273
#
# Stress axis : x y z
#
# Youngs Moduli (GPa) = 89.62594 69.63211 31.42767
#
# Poissons Ratio (x) = 0.16525 0.05246
# Poissons Ratio (y) = 0.21270 0.39254
# Poissons Ratio (z) = 0.14961 0.86971
#
# Static dielectric constant tensor:
#      x y z
#    x 1.677040 0.000000 -0.017310 
#    y 0.000000 1.645720 0.000000 
#    z -0.017310 0.000000 1.656490 
# 
# From -- ./inp_files/5812.got.cif
#   From: 2010.05.17/outbox.cif.g08.bks.cpg/sg9_3_cif.got.tgz:5812.got - 2010.06.03 20:04:27.
