data_PCOD9135399
_publ_section_title
;
Structure prediction by ZEFSAII (Michael W. Deem and Ramdas Pophale) SiO2 
 PCOD9135399
Probable space group: C C
;
_chemical_formula_sum "Si O2"
_cell_formula_units_Z 32
_cell_length_a 9.391628
_cell_length_b 10.645177
_cell_length_c 30.373121
_cell_angle_alpha 90.000000
_cell_angle_beta 150.343728
_cell_angle_gamma 90.000000
_cell_volume 1502.481062
_symmetry_space_group_name_H-M "C C"
_symmetry_group_IT_number 9
_symmetry_cell_setting 'monoclinic'
loop_
_space_group_symop_operation_xyz
x,y,z
x,-y,1/2+z
1/2+x,1/2+y,z
1/2+x,1/2-y,1/2+z
loop_
_atom_site_type_symbol
_atom_site_label
_atom_site_fract_x
_atom_site_fract_y
_atom_site_fract_z
Si Si1 0.803150 0.187190 0.031490
Si Si2 0.774481 0.748420 0.093011
Si Si3 0.789675 0.862733 0.867964
Si Si4 0.108553 0.543024 0.229936
Si Si5 0.587944 0.624366 0.956618
Si Si6 0.800584 0.232187 0.791307
Si Si7 0.009080 0.936236 0.093238
Si Si8 0.204543 0.686501 0.106250
O O1 0.824707 0.180226 0.089657
O O2 0.073855 0.254037 0.081473
O O3 0.800543 0.040835 0.017726
O O4 0.520040 0.258496 0.942374
O O5 0.918321 0.876361 0.115220
O O6 0.005461 0.637170 0.164134
O O7 0.584183 0.704081 0.000376
O O8 0.777586 0.878624 0.811929
O O9 0.499549 0.817605 0.813839
O O10 0.908636 0.997669 0.915326
O O11 0.248257 0.408172 0.256102
O O12 0.818105 0.501756 0.177768
O O13 0.452982 0.698299 0.878683
O O14 0.930071 0.595904 0.039617
O O15 0.489193 0.300226 0.712870
O O16 0.046689 0.820427 0.070563
#
# Coordination Sequence:
#
# PCOD9135399 Si02
#       8
#     4   4   4   4   4   4   4   4
#     4  11  23  37  66  94 129 173 218 269 334 396
#     4  10  22  42  67  96 130 172 220 280 331 398
#     4  11  23  40  66  98 137 174 225 280 331 401
#     4   9  21  41  60  94 132 172 221 280 327 391
#     4  10  23  41  69 101 132 179 223 279 339 397
#     4  10  20  39  70  95 135 180 223 277 333 403
#     4   9  21  41  65  92 127 168 220 273 327 397
#     4  10  21  43  69  92 130 180 222 272 338 391
#
# _framework density 21.298107000000002
#
# number of rings (size 3 to 8) (size 9 to 14) (size 15 to 20)
#    0.000    2.000    1.250    1.500    7.000    0.000 
#    9.000    0.000   11.000    0.000    0.000    0.000 
#    0.000    0.000    0.000    0.000    0.000    0.000 
#
# Total GULP energy -89223.704786 kJ/mol
# GULP energy per Si atom -5576.481549 kJ/mol
# Density = 2.124963 g / cm^3
# Si number density = 21.298107 Si / 1000 Ang^3
#
#
#
# Elastic Constant Matrix: (Units=GPa)
#
#
# Indices 1 2 3 4 5 6 
#
# 1 78.1131 24.0288 8.3401 0.0000 17.1578 0.0000
# 2 24.0288 69.6839 33.1090 0.0000 10.0733 0.0000
# 3 8.3401 33.1090 95.8708 0.0001 5.3031 0.0000
# 4 0.0000 0.0000 0.0001 28.4024 0.0001 3.6626
# 5 17.1578 10.0733 5.3031 0.0001 26.4236 0.0000
# 6 0.0000 0.0000 0.0000 3.6626 0.0000 36.1570
#
#
#
# Elastic Compliance Matrix: (Units=1/GPa)
#
#
# Indices 1 2 3 4 5 6 
#
# 1 0.016081 -0.004589 0.000674 0.000000 -0.008828 0.000000
# 2 -0.004589 0.019279 -0.006085 0.000000 -0.003148 0.000000
# 3 0.000674 -0.006085 0.012508 0.000000 -0.000629 0.000000
# 4 0.000000 0.000000 0.000000 0.035674 0.000000 -0.003614
# 5 -0.008828 -0.003148 -0.000629 0.000000 0.044903 0.000000
# 6 0.000000 0.000000 0.000000 -0.003614 0.000000 0.028023
#
#
# Mechanical properties :
#
#
# Convention : Reuss Voigt Hill
#
# Bulk Modulus (GPa) = 35.88263 41.62483 38.75373
# Shear Modulus (GPa) = 26.91676 30.07593 28.49634
#
# Velocity S-wave (km/s) = 3.55887 3.76192 3.66180
# Velocity P-wave (km/s) = 5.81135 6.20127 6.00947
#
# Compressibility (1/GPa) = 0.02786864
#
# Stress axis : x y z
#
# Youngs Moduli (GPa) = 62.18640 51.86941 79.94793
#
# Poissons Ratio (x) = 0.23805 -0.05391
# Poissons Ratio (y) = 0.28539 0.48646
# Poissons Ratio (z) = -0.04193 0.31561
#
# Static dielectric constant tensor:
#      x y z
#    x 1.798450 0.000000 0.014530 
#    y 0.000000 1.797590 0.000000 
#    z 0.014530 0.000000 1.832010 
# 
# From -- ./inp_files/35017.got.cif
#   From: 2010.05.17/outbox.cif.g08.bks.cpg/sg9_18_cif.got.tgz:35017.got - 2010.06.03 20:04:27.
