data_PCOD9135455
_publ_section_title
;
Structure prediction by ZEFSAII (Michael W. Deem and Ramdas Pophale) SiO2 
 PCOD9135455
Probable space group: C C
;
_chemical_formula_sum "Si O2"
_cell_formula_units_Z 32
_cell_length_a 11.152119
_cell_length_b 11.507831
_cell_length_c 12.694535
_cell_angle_alpha 90.000000
_cell_angle_beta 112.960711
_cell_angle_gamma 90.000000
_cell_volume 1500.099412
_symmetry_space_group_name_H-M "C C"
_symmetry_group_IT_number 9
_symmetry_cell_setting 'monoclinic'
loop_
_space_group_symop_operation_xyz
x,y,z
x,-y,1/2+z
1/2+x,1/2+y,z
1/2+x,1/2-y,1/2+z
loop_
_atom_site_type_symbol
_atom_site_label
_atom_site_fract_x
_atom_site_fract_y
_atom_site_fract_z
Si Si1 0.607550 0.868134 0.306560
Si Si2 0.540700 0.823657 0.057845
Si Si3 0.680920 0.572404 0.862175
Si Si4 0.744895 0.913919 0.958616
Si Si5 0.285707 0.158278 0.335189
Si Si6 0.413236 0.228685 0.909789
Si Si7 0.515373 0.372200 0.124884
Si Si8 0.165910 0.910770 0.602388
O O1 0.547260 0.891639 0.170614
O O2 0.731979 0.787274 0.326370
O O3 0.510553 0.792391 0.346825
O O4 0.660680 0.981426 0.383893
O O5 0.558815 0.687628 0.094245
O O6 0.657514 0.850975 0.016729
O O7 0.411588 0.850589 0.949290
O O8 0.678709 0.435228 0.839039
O O9 0.822554 0.616058 0.875626
O O10 0.566710 0.639386 0.760945
O O11 0.678745 0.595982 0.983461
O O12 0.804948 0.832750 0.884823
O O13 0.879018 0.940764 0.066991
O O14 0.292128 0.124832 0.213931
O O15 0.494885 0.258751 0.044697
O O16 0.622721 0.458680 0.113118
#
# Coordination Sequence:
#
# PCOD9135455 Si02
#       8
#     4   4   4   4   4   4   4   4
#     4  11  24  46  69  98 143 182 237 287 348 421
#     4  11  23  43  66  99 133 180 230 284 348 422
#     4  11  21  41  66  94 132 179 228 282 343 420
#     4  10  23  46  64 103 135 181 224 288 352 406
#     4  10  24  40  65  98 130 180 224 284 351 408
#     4  10  23  44  64 101 137 177 227 285 351 405
#     4   9  22  40  63  98 132 178 231 274 350 413
#     4  10  20  40  65  91 130 175 223 278 337 419
#
# _framework density 21.331918999999999
#
# number of rings (size 3 to 8) (size 9 to 14) (size 15 to 20)
#    0.750    1.000    1.250    2.250    0.000    8.000 
#   11.250    0.000    0.000    0.000    0.000    0.000 
#    0.000    0.000    0.000    0.000    0.000    0.000 
#
# Total GULP energy -89114.351342 kJ/mol
# GULP energy per Si atom -5569.646959 kJ/mol
# Density = 2.128337 g / cm^3
# Si number density = 21.331919 Si / 1000 Ang^3
#
#
#
# Elastic Constant Matrix: (Units=GPa)
#
#
# Indices 1 2 3 4 5 6 
#
# 1 59.1111 5.0140 48.7399 0.0000 1.0283 0.0000
# 2 5.0140 68.4619 34.1827 0.0000 2.0257 0.0000
# 3 48.7399 34.1827 188.3996 0.0000 14.1274 0.0000
# 4 0.0000 0.0000 0.0000 26.0075 0.0000 4.9254
# 5 1.0283 2.0257 14.1274 0.0000 32.1099 0.0000
# 6 0.0000 0.0000 0.0000 4.9254 0.0000 9.7570
#
#
#
# Elastic Compliance Matrix: (Units=1/GPa)
#
#
# Indices 1 2 3 4 5 6 
#
# 1 0.021721 0.001352 -0.006004 0.000000 0.001861 0.000000
# 2 0.001352 0.016148 -0.003309 0.000000 0.000394 0.000000
# 3 -0.006004 -0.003309 0.007685 0.000000 -0.002980 0.000000
# 4 0.000000 0.000000 0.000000 0.042515 0.000000 -0.021462
# 5 0.001861 0.000394 -0.002980 0.000000 0.032370 0.000000
# 6 0.000000 0.000000 0.000000 -0.021462 0.000000 0.113324
#
#
# Mechanical properties :
#
#
# Convention : Reuss Voigt Hill
#
# Bulk Modulus (GPa) = 33.74786 54.64955 44.19870
# Shear Modulus (GPa) = 19.26314 28.77729 24.02021
#
# Velocity S-wave (km/s) = 3.00829 3.67689 3.35927
# Velocity P-wave (km/s) = 5.28404 6.61062 5.98421
#
# Compressibility (1/GPa) = 0.02963151
#
# Stress axis : x y z
#
# Youngs Moduli (GPa) = 46.03851 61.92623 130.12280
#
# Poissons Ratio (x) = -0.08372 0.78128
# Poissons Ratio (y) = -0.06224 0.43060
# Poissons Ratio (z) = 0.27642 0.20493
#
# Static dielectric constant tensor:
#      x y z
#    x 1.756720 0.000000 -0.020300 
#    y 0.000000 1.793460 0.000000 
#    z -0.020300 0.000000 1.825840 
# 
# From -- ./inp_files/16506.got.cif
#   From: 2010.05.17/outbox.cif.g08.bks.cpg/sg9_9_cif.got.tgz:16506.got - 2010.06.03 20:04:27.
