data_PCOD9135163
_publ_section_title
;
Structure prediction by ZEFSAII (Michael W. Deem and Ramdas Pophale) SiO2 
 PCOD9135163
Probable space group: C C
;
_chemical_formula_sum "Si O2"
_cell_formula_units_Z 32
_cell_length_a 11.130813
_cell_length_b 20.137036
_cell_length_c 11.105094
_cell_angle_alpha 90.000000
_cell_angle_beta 39.946964
_cell_angle_gamma 90.000000
_cell_volume 1598.205519
_symmetry_space_group_name_H-M "C C"
_symmetry_group_IT_number 9
_symmetry_cell_setting 'monoclinic'
loop_
_space_group_symop_operation_xyz
x,y,z
x,-y,1/2+z
1/2+x,1/2+y,z
1/2+x,1/2-y,1/2+z
loop_
_atom_site_type_symbol
_atom_site_label
_atom_site_fract_x
_atom_site_fract_y
_atom_site_fract_z
Si Si1 0.602280 0.882953 0.895060
Si Si2 0.479977 0.668692 0.757391
Si Si3 0.518130 0.175403 0.809599
Si Si4 0.048701 0.306305 0.564209
Si Si5 0.510516 0.631762 0.009066
Si Si6 0.172966 0.254774 0.994373
Si Si7 0.887756 0.445407 0.277956
Si Si8 0.818143 0.597081 0.396336
O O1 0.807183 0.900401 0.686136
O O2 0.447675 0.884033 0.910463
O O3 0.622212 0.808602 0.932664
O O4 0.528286 0.929648 0.059622
O O5 0.536086 0.738307 0.650569
O O6 0.604343 0.612986 0.595315
O O7 0.256122 0.663338 0.920266
O O8 0.525455 0.662830 0.864055
O O9 0.695177 0.201755 0.599720
O O10 0.470144 0.098365 0.825821
O O11 0.520513 0.199547 0.943202
O O12 0.364443 0.213060 0.846043
O O13 0.889127 0.354784 0.736503
O O14 0.533543 0.692269 0.084948
O O15 0.683962 0.582839 0.897567
O O16 0.861887 0.521645 0.329602
#
# Coordination Sequence:
#
# PCOD9135163 Si02
#       8
#     4   4   4   4   4   4   4   4
#     4  11  22  43  70  98 129 172 230 279 335 401
#     4  12  25  42  67 103 132 176 226 281 345 394
#     4  10  22  41  63  94 138 172 216 272 339 403
#     4  12  25  41  67 102 139 179 221 278 346 402
#     4  11  22  41  69  98 132 169 229 279 331 405
#     4  10  20  37  67  99 127 166 219 282 332 389
#     4  10  26  45  65  97 133 181 222 278 343 403
#     4  12  26  44  68  97 140 175 225 287 337 409
#
# _framework density 20.022455000000001
#
# number of rings (size 3 to 8) (size 9 to 14) (size 15 to 20)
#    0.000    1.000    5.000    1.500    1.750    1.000 
#    0.000    0.000    0.000    0.000    0.000    0.000 
#    0.000    0.000    0.000    0.000    0.000    0.000 
#
# Total GULP energy -89247.411133 kJ/mol
# GULP energy per Si atom -5577.963196 kJ/mol
# Density = 1.997688 g / cm^3
# Si number density = 20.022455 Si / 1000 Ang^3
#
#
#
# Elastic Constant Matrix: (Units=GPa)
#
#
# Indices 1 2 3 4 5 6 
#
# 1 52.0719 -3.9308 3.4805 0.0000 8.2803 -0.0001
# 2 -3.9308 92.8223 18.2579 0.0000 8.7541 0.0000
# 3 3.4805 18.2579 92.6535 0.0000 -3.2990 0.0000
# 4 0.0000 0.0000 0.0000 14.3390 -0.0001 -4.9640
# 5 8.2803 8.7541 -3.2990 -0.0001 28.4194 0.0001
# 6 -0.0001 0.0000 0.0000 -4.9640 0.0001 2.4302
#
#
#
# Elastic Compliance Matrix: (Units=1/GPa)
#
#
# Indices 1 2 3 4 5 6 
#
# 1 0.020488 0.001763 -0.001355 0.000001 -0.006670 0.000003
# 2 0.001763 0.011766 -0.002543 0.000000 -0.004433 0.000001
# 3 -0.001355 -0.002543 0.011434 0.000000 0.002505 -0.000001
# 4 0.000001 0.000000 0.000000 0.238119 -0.000002 0.486380
# 5 -0.006670 -0.004433 0.002505 -0.000002 0.038787 -0.000006
# 6 0.000003 0.000001 -0.000001 0.486380 -0.000006 1.404960
#
#
# Mechanical properties :
#
#
# Convention : Reuss Voigt Hill
#
# Bulk Modulus (GPa) = 25.36753 30.35142 27.85948
# Shear Modulus (GPa) = 2.86868 23.68706 13.27787
#
# Velocity S-wave (km/s) = 1.19827 3.44324 2.57796
# Velocity P-wave (km/s) = 3.82250 5.56772 4.77551
#
# Compressibility (1/GPa) = 0.03942047
#
# Stress axis : x y z
#
# Youngs Moduli (GPa) = 48.80791 84.98945 87.45821
#
# Poissons Ratio (x) = -0.14985 0.11847
# Poissons Ratio (y) = -0.08605 0.22238
# Poissons Ratio (z) = 0.06611 0.21610
#
# Static dielectric constant tensor:
#      x y z
#    x 1.711490 0.000000 -0.033470 
#    y 0.000000 1.705350 0.000000 
#    z -0.033470 0.000000 1.839880 
# 
# From -- ./inp_files/17034.got.cif
#   From: 2010.05.17/outbox.cif.g08.bks.cpg/sg9_9_cif.got.tgz:17034.got - 2010.06.03 20:04:27.
