data_PCOD9135137
_publ_section_title
;
Structure prediction by ZEFSAII (Michael W. Deem and Ramdas Pophale) SiO2 
 PCOD9135137
Probable space group: C C
;
_chemical_formula_sum "Si O2"
_cell_formula_units_Z 28
_cell_length_a 5.102365
_cell_length_b 19.161982
_cell_length_c 14.168173
_cell_angle_alpha 90.000000
_cell_angle_beta 110.257263
_cell_angle_gamma 90.000000
_cell_volume 1299.561707
_symmetry_space_group_name_H-M "C C"
_symmetry_group_IT_number 9
_symmetry_cell_setting 'monoclinic'
loop_
_space_group_symop_operation_xyz
x,y,z
x,-y,1/2+z
1/2+x,1/2+y,z
1/2+x,1/2-y,1/2+z
loop_
_atom_site_type_symbol
_atom_site_label
_atom_site_fract_x
_atom_site_fract_y
_atom_site_fract_z
Si Si1 0.923090 0.991537 0.579080
Si Si2 0.418516 0.996451 0.250195
Si Si3 0.664954 0.880286 0.157297
Si Si4 0.958201 0.664482 0.437977
Si Si5 0.895504 0.823514 0.373161
Si Si6 0.923258 0.926856 0.892245
Si Si7 0.941028 0.409022 0.433796
O O1 0.646400 0.944899 0.534662
O O2 0.179456 0.959605 0.668983
O O3 0.843802 0.061630 0.625149
O O4 0.002448 0.016333 0.482913
O O5 0.717870 0.034166 0.293969
O O6 0.452504 0.927237 0.191193
O O7 0.352119 0.969238 0.347495
O O8 0.840391 0.837457 0.255421
O O9 0.517006 0.836010 0.057703
O O10 0.917694 0.742305 0.397107
O O11 0.689561 0.615014 0.389080
O O12 0.219322 0.628585 0.418629
O O13 0.640524 0.856953 0.399472
O O14 0.175003 0.866108 0.434842
#
# Coordination Sequence:
#
# PCOD9135137 Si02
#       7
#     4   4   4   4   4   4   4
#     4  10  20  37  64  94 130 157 213 266 330 382
#     4  10  20  37  64  94 130 157 213 266 330 382
#     4  10  22  38  66  88 126 172 206 260 340 368
#     4  11  23  43  62  90 130 171 215 254 308 392
#     4  11  23  43  62  90 130 171 215 254 308 392
#     4  10  23  38  64  93 124 165 210 268 317 367
#     4  10  23  38  64  93 124 165 210 268 317 367
#
# _framework density 21.545725999999998
#
# number of rings (size 3 to 8) (size 9 to 14) (size 15 to 20)
#    0.000    1.714    2.857    0.857    4.000    3.429 
#    2.571    0.000    0.000    0.000    0.000    0.000 
#    0.000    0.000    0.000    0.000    0.000    0.000 
#
# Total GULP energy -78315.520295 kJ/mol
# GULP energy per Si atom -5593.965735 kJ/mol
# Density = 2.149669 g / cm^3
# Si number density = 21.545726 Si / 1000 Ang^3
#
#
#
# Elastic Constant Matrix: (Units=GPa)
#
#
# Indices 1 2 3 4 5 6 
#
# 1 69.1616 13.2061 -0.8637 0.0000 5.6535 0.0000
# 2 13.2061 83.4672 3.6896 0.0000 -6.9126 0.0000
# 3 -0.8637 3.6896 78.1198 0.0000 7.7757 0.0000
# 4 0.0000 0.0000 0.0000 32.1018 0.0000 -4.2094
# 5 5.6535 -6.9126 7.7757 0.0000 32.2200 0.0000
# 6 0.0000 0.0000 0.0000 -4.2094 0.0000 26.8353
#
#
#
# Elastic Compliance Matrix: (Units=1/GPa)
#
#
# Indices 1 2 3 4 5 6 
#
# 1 0.015267 -0.002727 0.000638 0.000000 -0.003418 0.000000
# 2 -0.002727 0.012741 -0.000975 0.000000 0.003447 0.000000
# 3 0.000638 -0.000975 0.013203 0.000000 -0.003507 0.000000
# 4 0.000000 0.000000 0.000000 0.031805 0.000000 0.004989
# 5 -0.003418 0.003447 -0.003507 0.000000 0.033222 0.000000
# 6 0.000000 0.000000 0.000000 0.004989 0.000000 0.038047
#
#
# Mechanical properties :
#
#
# Convention : Reuss Voigt Hill
#
# Bulk Modulus (GPa) = 28.50406 29.20139 28.85273
# Shear Modulus (GPa) = 30.84378 32.54587 31.69482
#
# Velocity S-wave (km/s) = 3.78769 3.89079 3.83959
# Velocity P-wave (km/s) = 5.69096 5.81094 5.75126
#
# Compressibility (1/GPa) = 0.03508272
#
# Stress axis : x y z
#
# Youngs Moduli (GPa) = 65.50125 78.48816 75.73997
#
# Poissons Ratio (x) = 0.21402 -0.04830
# Poissons Ratio (y) = 0.17861 0.07385
# Poissons Ratio (z) = -0.04177 0.07653
#
# Static dielectric constant tensor:
#      x y z
#    x 1.844420 0.000000 0.008550 
#    y 0.000000 1.739540 0.000000 
#    z 0.008550 0.000000 1.836850 
# 
# From -- ./inp_files/13119.got.cif
#   From: 2010.05.17/outbox.cif.g08.bks.cpg/sg9_7_cif.got.tgz:13119.got - 2010.06.03 20:04:27.
