data_PCOD9135799
_publ_section_title
;
Structure prediction by ZEFSAII (Michael W. Deem and Ramdas Pophale) SiO2 
 PCOD9135799
Probable space group: C C
;
_chemical_formula_sum "Si O2"
_cell_formula_units_Z 28
_cell_length_a 19.579390
_cell_length_b 7.138740
_cell_length_c 19.025093
_cell_angle_alpha 90.000000
_cell_angle_beta 156.231595
_cell_angle_gamma 90.000000
_cell_volume 1071.757193
_symmetry_space_group_name_H-M "C C"
_symmetry_group_IT_number 9
_symmetry_cell_setting 'monoclinic'
loop_
_space_group_symop_operation_xyz
x,y,z
x,-y,1/2+z
1/2+x,1/2+y,z
1/2+x,1/2-y,1/2+z
loop_
_atom_site_type_symbol
_atom_site_label
_atom_site_fract_x
_atom_site_fract_y
_atom_site_fract_z
Si Si1 0.201290 0.406623 0.240670
Si Si2 0.063622 0.954748 0.563377
Si Si3 0.576276 0.124915 0.474420
Si Si4 0.488305 0.400631 0.770388
Si Si5 0.191374 0.227395 0.939327
Si Si6 0.773665 0.656353 0.653514
Si Si7 0.999342 0.533676 0.684701
O O1 0.385518 0.487783 0.433649
O O2 0.053091 0.454434 0.154796
O O3 0.191260 0.177737 0.227381
O O4 0.154110 0.467037 0.117499
O O5 0.005567 0.814842 0.444879
O O6 0.015487 0.105155 0.764531
O O7 0.433941 0.985412 0.310170
O O8 0.690690 0.208785 0.520268
O O9 0.346224 0.352527 0.694306
O O10 0.484314 0.236124 0.708475
O O11 0.654189 0.389727 0.975667
O O12 0.332620 0.090098 0.040870
O O13 0.155630 0.421839 0.866698
O O14 0.665774 0.620215 0.622331
#
# Coordination Sequence:
#
# PCOD9135799 Si02
#       7
#     4   4   4   4   4   4   4
#     4  10  24  43  80 108 156 211 256 315 407 465
#     4  10  20  44  78 107 153 204 250 323 391 460
#     4  10  20  47  80 111 145 202 258 323 386 459
#     4  12  25  44  74 117 152 194 261 319 392 464
#     4  12  26  48  80 110 159 199 271 322 391 465
#     4  12  24  44  73 121 145 198 260 327 386 454
#     4  12  29  50  75 114 154 218 252 325 403 471
#
# _framework density 26.125322000000001
#
# number of rings (size 3 to 8) (size 9 to 14) (size 15 to 20)
#    0.857    0.000    5.714    0.000    6.000    1.143 
#    0.000    4.286    3.143    0.000    0.000    0.000 
#    0.000    0.000    0.000    0.000    0.000    0.000 
#
# Total GULP energy -78228.358262 kJ/mol
# GULP energy per Si atom -5587.739876 kJ/mol
# Density = 2.606586 g / cm^3
# Si number density = 26.125322 Si / 1000 Ang^3
#
#
#
# Elastic Constant Matrix: (Units=GPa)
#
#
# Indices 1 2 3 4 5 6 
#
# 1 219.6070 51.3125 33.8591 0.0001 21.7693 0.0000
# 2 51.3125 137.9176 2.0258 0.0001 7.5160 0.0000
# 3 33.8591 2.0258 45.5597 0.0001 13.1678 0.0001
# 4 0.0001 0.0001 0.0001 41.3668 0.0001 9.7740
# 5 21.7693 7.5160 13.1678 0.0001 33.2294 0.0000
# 6 0.0000 0.0000 0.0001 9.7740 0.0000 29.7326
#
#
#
# Elastic Compliance Matrix: (Units=1/GPa)
#
#
# Indices 1 2 3 4 5 6 
#
# 1 0.005769 -0.001990 -0.003655 0.000000 -0.001881 0.000000
# 2 -0.001990 0.008029 0.001434 0.000000 -0.001081 0.000000
# 3 -0.003655 0.001434 0.027108 0.000000 -0.008672 0.000000
# 4 0.000000 0.000000 0.000000 0.026210 0.000000 -0.008616
# 5 -0.001881 -0.001081 -0.008672 0.000000 0.035007 0.000000
# 6 0.000000 0.000000 0.000000 -0.008616 0.000000 0.036465
#
#
# Mechanical properties :
#
#
# Convention : Reuss Voigt Hill
#
# Bulk Modulus (GPa) = 30.78426 64.16435 47.47431
# Shear Modulus (GPa) = 31.67821 41.92488 36.80154
#
# Velocity S-wave (km/s) = 3.48594 4.01029 3.75728
# Velocity P-wave (km/s) = 5.29257 6.78652 6.08556
#
# Compressibility (1/GPa) = 0.03248414
#
# Stress axis : x y z
#
# Youngs Moduli (GPa) = 173.35457 124.54974 36.88914
#
# Poissons Ratio (x) = 0.24786 0.13483
# Poissons Ratio (y) = 0.34498 -0.05291
# Poissons Ratio (z) = 0.63362 -0.17864
#
# Static dielectric constant tensor:
#      x y z
#    x 2.067580 0.000000 0.052400 
#    y 0.000000 2.238550 0.000000 
#    z 0.052400 0.000000 2.075750 
# 
# From -- ./inp_files/31210.got.cif
#   From: 2010.05.17/outbox.cif.g08.bks.cpg/sg9_16_cif.got.tgz:31210.got - 2010.06.03 20:04:27.
