data_PCOD9135181
_publ_section_title
;
Structure prediction by ZEFSAII (Michael W. Deem and Ramdas Pophale) SiO2 
 PCOD9135181
Probable space group: C C
;
_chemical_formula_sum "Si O2"
_cell_formula_units_Z 24
_cell_length_a 7.894959
_cell_length_b 21.436981
_cell_length_c 5.475171
_cell_angle_alpha 90.000000
_cell_angle_beta 93.502045
_cell_angle_gamma 90.000000
_cell_volume 924.909921
_symmetry_space_group_name_H-M "C C"
_symmetry_group_IT_number 9
_symmetry_cell_setting 'monoclinic'
loop_
_space_group_symop_operation_xyz
x,y,z
x,-y,1/2+z
1/2+x,1/2+y,z
1/2+x,1/2-y,1/2+z
loop_
_atom_site_type_symbol
_atom_site_label
_atom_site_fract_x
_atom_site_fract_y
_atom_site_fract_z
Si Si1 0.285120 0.526869 0.554500
Si Si2 0.403562 0.055201 0.410001
Si Si3 0.924825 0.144839 0.831689
Si Si4 0.382131 0.766452 0.076401
Si Si5 0.280765 0.920406 0.399899
Si Si6 0.770476 0.749688 0.077552
O O1 0.350703 0.519845 0.278157
O O2 0.312619 0.591671 0.698345
O O3 0.084588 0.524191 0.483412
O O4 0.358463 0.095525 0.642394
O O5 0.274100 0.996569 0.382635
O O6 0.394943 0.089398 0.150122
O O7 0.919584 0.199353 0.626727
O O8 0.098873 0.111149 0.910774
O O9 0.861378 0.189401 0.046846
O O10 0.310484 0.783786 0.331008
O O11 0.582317 0.778105 0.061396
O O12 0.282886 0.788748 0.828863
#
# Coordination Sequence:
#
# PCOD9135181 Si02
#       6
#     4   4   4   4   4   4
#     4  12  24  42  61  94 136 181 218 273 322 394
#     4  10  20  40  57  83 128 174 219 259 314 375
#     4  10  28  38  69  99 135 171 231 270 344 393
#     4  10  23  47  69 100 133 176 223 287 345 407
#     4  10  20  38  58  87 121 170 215 262 312 384
#     4  10  23  47  70  97 137 172 226 285 349 401
#
# _framework density 25.948471999999999
#
# number of rings (size 3 to 8) (size 9 to 14) (size 15 to 20)
#    1.000    0.667    3.333    1.000    9.333    0.000 
#    6.000    0.000    0.000    0.000    0.000    0.000 
#    0.000    0.000    0.000    0.000    0.000    0.000 
#
# Total GULP energy -66909.218329 kJ/mol
# GULP energy per Si atom -5575.768194 kJ/mol
# Density = 2.588941 g / cm^3
# Si number density = 25.948472 Si / 1000 Ang^3
#
#
#
# Elastic Constant Matrix: (Units=GPa)
#
#
# Indices 1 2 3 4 5 6 
#
# 1 79.9186 4.2330 52.2437 0.0000 10.8354 0.0000
# 2 4.2330 65.8560 3.4849 0.0000 12.1595 0.0000
# 3 52.2437 3.4849 227.4090 0.0000 -12.2393 0.0000
# 4 0.0000 0.0000 0.0000 37.2029 0.0000 12.5926
# 5 10.8354 12.1595 -12.2393 0.0000 42.1518 0.0000
# 6 0.0000 0.0000 0.0000 12.5926 0.0000 37.0967
#
#
#
# Elastic Compliance Matrix: (Units=1/GPa)
#
#
# Indices 1 2 3 4 5 6 
#
# 1 0.015768 0.000160 -0.003906 0.000000 -0.005233 0.000000
# 2 0.000160 0.016097 -0.000544 0.000000 -0.004843 0.000000
# 3 -0.003906 -0.000544 0.005451 0.000000 0.002744 0.000000
# 4 0.000000 0.000000 0.000000 0.030369 0.000000 -0.010309
# 5 -0.005233 -0.004843 0.002744 0.000000 0.027263 0.000000
# 6 0.000000 0.000000 0.000000 -0.010309 0.000000 0.030456
#
#
# Mechanical properties :
#
#
# Convention : Reuss Voigt Hill
#
# Bulk Modulus (GPa) = 34.80214 54.78963 44.79589
# Shear Modulus (GPa) = 34.82790 44.17174 39.49982
#
# Velocity S-wave (km/s) = 3.66757 4.13035 3.90582
# Velocity P-wave (km/s) = 5.60142 6.62624 6.13527
#
# Compressibility (1/GPa) = 0.02873386
#
# Stress axis : x y z
#
# Youngs Moduli (GPa) = 63.42143 62.12227 183.45852
#
# Poissons Ratio (x) = -0.00991 0.71667
# Poissons Ratio (y) = -0.01012 0.09979
# Poissons Ratio (z) = 0.24775 0.03379
#
# Static dielectric constant tensor:
#      x y z
#    x 2.008360 0.000000 -0.033760 
#    y 0.000000 2.128560 0.000000 
#    z -0.033760 0.000000 2.111010 
# 
# From -- ./inp_files/778.got.cif
#   From: 2010.05.17/outbox.cif.g08.bks.cpg/sg9_1_cif.got.tgz:778.got - 2010.06.03 20:04:27.
