data_PCOD9135403
_publ_section_title
;
Structure prediction by ZEFSAII (Michael W. Deem and Ramdas Pophale) SiO2 
 PCOD9135403
Probable space group: C C
;
_chemical_formula_sum "Si O2"
_cell_formula_units_Z 32
_cell_length_a 7.625674
_cell_length_b 17.770496
_cell_length_c 12.301670
_cell_angle_alpha 90.000000
_cell_angle_beta 127.305538
_cell_angle_gamma 90.000000
_cell_volume 1325.975751
_symmetry_space_group_name_H-M "C C"
_symmetry_group_IT_number 9
_symmetry_cell_setting 'monoclinic'
loop_
_space_group_symop_operation_xyz
x,y,z
x,-y,1/2+z
1/2+x,1/2+y,z
1/2+x,1/2-y,1/2+z
loop_
_atom_site_type_symbol
_atom_site_label
_atom_site_fract_x
_atom_site_fract_y
_atom_site_fract_z
Si Si1 0.547290 0.727030 0.882550
Si Si2 0.665965 0.421307 0.516955
Si Si3 0.648939 0.114446 0.148616
Si Si4 0.943258 0.225094 0.374413
Si Si5 0.720700 0.848026 0.085229
Si Si6 0.568931 0.879485 0.367467
Si Si7 0.306129 0.537480 0.769353
Si Si8 0.107721 0.091503 0.579960
O O1 0.566940 0.663635 0.984761
O O2 0.785028 0.735258 0.907613
O O3 0.359063 0.705226 0.723286
O O4 0.541909 0.804993 0.946476
O O5 0.561107 0.437367 0.357422
O O6 0.619834 0.502308 0.555185
O O7 0.921254 0.403516 0.622672
O O8 0.763050 0.191918 0.222958
O O9 0.804313 0.049280 0.250386
O O10 0.609811 0.102663 0.007775
O O11 0.089893 0.288667 0.372545
O O12 0.084262 0.156349 0.477633
O O13 0.642845 0.917791 0.128797
O O14 0.892826 0.887802 0.069202
O O15 0.724861 0.932925 0.355058
O O16 0.325196 0.893027 0.231191
#
# Coordination Sequence:
#
# PCOD9135403 Si02
#       8
#     4   4   4   4   4   4   4   4
#     4  10  20  39  71  91 129 176 227 273 332 415
#     4  11  22  44  64 101 137 179 234 280 337 411
#     4  12  24  44  75  98 136 190 234 276 351 421
#     4  11  22  43  74 102 129 187 234 274 344 426
#     4  10  22  43  66  98 133 181 226 286 339 408
#     4  12  24  43  69 103 135 180 231 290 345 409
#     4  11  26  45  66 102 146 173 230 299 345 405
#     4  11  22  41  73  97 141 180 230 284 341 419
#
# _framework density 24.13317
#
# number of rings (size 3 to 8) (size 9 to 14) (size 15 to 20)
#    0.000    1.000    5.000    2.250    1.750    0.000 
#   11.250    0.000    0.000    0.000    0.000    0.000 
#    0.000    0.000    0.000    0.000    0.000    0.000 
#
# Total GULP energy -89187.614827 kJ/mol
# GULP energy per Si atom -5574.225927 kJ/mol
# Density = 2.407824 g / cm^3
# Si number density = 24.133170 Si / 1000 Ang^3
#
#
#
# Elastic Constant Matrix: (Units=GPa)
#
#
# Indices 1 2 3 4 5 6 
#
# 1 29.1306 28.9016 23.5621 0.0000 3.8773 0.0000
# 2 28.9016 139.4914 49.6059 0.0000 -9.7795 0.0000
# 3 23.5621 49.6059 83.9016 0.0000 -5.6832 0.0000
# 4 0.0000 0.0000 0.0000 47.4877 0.0000 5.2580
# 5 3.8773 -9.7795 -5.6832 0.0000 28.7411 0.0000
# 6 0.0000 0.0000 0.0000 5.2580 0.0000 31.6086
#
#
#
# Elastic Compliance Matrix: (Units=1/GPa)
#
#
# Indices 1 2 3 4 5 6 
#
# 1 0.052521 -0.007831 -0.010926 0.000000 -0.011910 0.000000
# 2 -0.007831 0.010367 -0.003668 0.000000 0.003858 0.000000
# 3 -0.010926 -0.003668 0.017404 0.000000 0.003667 0.000000
# 4 0.000000 0.000000 0.000000 0.021453 0.000000 -0.003569
# 5 -0.011910 0.003858 0.003667 0.000000 0.038438 0.000000
# 6 0.000000 0.000000 0.000000 -0.003569 0.000000 0.032231
#
#
# Mechanical properties :
#
#
# Convention : Reuss Voigt Hill
#
# Bulk Modulus (GPa) = 28.21673 50.74033 39.47853
# Shear Modulus (GPa) = 21.82659 31.59774 26.71216
#
# Velocity S-wave (km/s) = 3.01062 3.62236 3.33057
# Velocity P-wave (km/s) = 4.87879 6.21016 5.58430
#
# Compressibility (1/GPa) = 0.03543997
#
# Stress axis : x y z
#
# Youngs Moduli (GPa) = 19.04017 96.46355 57.45685
#
# Poissons Ratio (x) = 0.75545 0.62776
# Poissons Ratio (y) = 0.14911 0.21078
# Poissons Ratio (z) = 0.20803 0.35387
#
# Static dielectric constant tensor:
#      x y z
#    x 2.030030 0.000000 -0.001820 
#    y 0.000000 2.022050 0.000000 
#    z -0.001820 0.000000 1.959840 
# 
# From -- ./inp_files/15186.got.cif
#   From: 2010.05.17/outbox.cif.g08.bks.cpg/sg9_8_cif.got.tgz:15186.got - 2010.06.03 20:04:27.
