data_PCOD9135898
_publ_section_title
;
Structure prediction by ZEFSAII (Michael W. Deem and Ramdas Pophale) SiO2 
 PCOD9135898
Probable space group: C C
;
_chemical_formula_sum "Si O2"
_cell_formula_units_Z 28
_cell_length_a 5.334764
_cell_length_b 30.428171
_cell_length_c 9.536630
_cell_angle_alpha 90.000000
_cell_angle_beta 123.299744
_cell_angle_gamma 90.000000
_cell_volume 1293.878391
_symmetry_space_group_name_H-M "C C"
_symmetry_group_IT_number 9
_symmetry_cell_setting 'monoclinic'
loop_
_space_group_symop_operation_xyz
x,y,z
x,-y,1/2+z
1/2+x,1/2+y,z
1/2+x,1/2-y,1/2+z
loop_
_atom_site_type_symbol
_atom_site_label
_atom_site_fract_x
_atom_site_fract_y
_atom_site_fract_z
Si Si1 0.653110 0.974177 0.252000
Si Si2 0.936336 0.351402 0.478426
Si Si3 0.750821 0.274751 0.609781
Si Si4 0.638573 0.700377 0.663596
Si Si5 0.665482 0.731361 0.377393
Si Si6 0.248563 0.971274 0.847942
Si Si7 0.998290 0.096691 0.048180
O O1 0.798502 0.933985 0.383595
O O2 0.441082 0.999162 0.298563
O O3 0.453226 0.963758 0.050863
O O4 0.939642 0.004060 0.296168
O O5 0.920506 0.304472 0.551805
O O6 0.262280 0.368668 0.539933
O O7 0.747334 0.342063 0.278535
O O8 0.755596 0.382825 0.528512
O O9 0.842507 0.223302 0.633037
O O10 0.402209 0.270720 0.472076
O O11 0.780269 0.292570 0.774167
O O12 0.621349 0.698584 0.491804
O O13 0.867293 0.740862 0.760545
O O14 0.147191 0.929701 0.722838
#
# Coordination Sequence:
#
# PCOD9135898 Si02
#       7
#     4   4   4   4   4   4   4
#     4  12  23  46  81 110 140 189 237 281 338 450
#     4  12  26  44  68  96 152 182 225 321 368 396
#     4  11  21  40  64  93 124 187 241 290 342 425
#     4  11  21  40  64  93 124 187 241 290 342 425
#     4  10  21  36  66  90 119 164 266 279 332 412
#     4  12  23  46  81 110 140 189 237 281 338 450
#     4  12  27  46  70 112 151 180 233 300 378 410
#
# _framework density 21.640364999999999
#
# number of rings (size 3 to 8) (size 9 to 14) (size 15 to 20)
#    0.000    0.571    5.714    2.571    4.000    0.000 
#    2.571    0.000    0.000    0.000    0.000    0.000 
#    0.000    0.000    0.000    0.000    0.000    0.000 
#
# Total GULP energy -78174.347420 kJ/mol
# GULP energy per Si atom -5583.881959 kJ/mol
# Density = 2.159111 g / cm^3
# Si number density = 21.640365 Si / 1000 Ang^3
#
#
#
# Elastic Constant Matrix: (Units=GPa)
#
#
# Indices 1 2 3 4 5 6 
#
# 1 92.7852 10.9416 24.7074 0.0000 -11.2728 0.0000
# 2 10.9416 31.5693 5.0490 0.0000 5.1835 0.0000
# 3 24.7074 5.0490 135.8976 0.0000 -10.6848 0.0000
# 4 0.0000 0.0000 0.0000 46.5932 0.0000 -3.3335
# 5 -11.2728 5.1835 -10.6848 0.0000 49.1530 0.0000
# 6 0.0000 0.0000 0.0000 -3.3335 0.0000 48.3605
#
#
#
# Elastic Compliance Matrix: (Units=1/GPa)
#
#
# Indices 1 2 3 4 5 6 
#
# 1 0.012124 -0.004379 -0.001818 0.000000 0.002847 0.000000
# 2 -0.004379 0.034115 -0.000848 0.000000 -0.004786 0.000000
# 3 -0.001818 -0.000848 0.007829 0.000000 0.001374 0.000000
# 4 0.000000 0.000000 0.000000 0.021569 0.000000 0.001487
# 5 0.002847 -0.004786 0.001374 0.000000 0.021801 0.000000
# 6 0.000000 0.000000 0.000000 0.001487 0.000000 0.020781
#
#
# Mechanical properties :
#
#
# Convention : Reuss Voigt Hill
#
# Bulk Modulus (GPa) = 25.01285 37.96088 31.48686
# Shear Modulus (GPa) = 34.33290 43.45828 38.89559
#
# Velocity S-wave (km/s) = 3.98744 4.48616 4.24413
# Velocity P-wave (km/s) = 5.72565 6.66438 6.21277
#
# Compressibility (1/GPa) = 0.03997946
#
# Stress axis : x y z
#
# Youngs Moduli (GPa) = 82.48188 29.31228 127.73838
#
# Poissons Ratio (x) = 0.12835 0.23219
# Poissons Ratio (y) = 0.36117 0.10828
# Poissons Ratio (z) = 0.14993 0.02485
#
# Static dielectric constant tensor:
#      x y z
#    x 1.787120 0.000000 0.006300 
#    y 0.000000 1.783960 0.000000 
#    z 0.006300 0.000000 1.872940 
# 
# From -- ./inp_files/4163.got.cif
#   From: 2010.05.17/outbox.cif.g08.bks.cpg/sg9_3_cif.got.tgz:4163.got - 2010.06.03 20:04:27.
