data_PCOD9135480
_publ_section_title
;
Structure prediction by ZEFSAII (Michael W. Deem and Ramdas Pophale) SiO2 
 PCOD9135480
Probable space group: C C
;
_chemical_formula_sum "Si O2"
_cell_formula_units_Z 28
_cell_length_a 18.356731
_cell_length_b 7.472165
_cell_length_c 16.304507
_cell_angle_alpha 90.000000
_cell_angle_beta 148.461489
_cell_angle_gamma 90.000000
_cell_volume 1169.797160
_symmetry_space_group_name_H-M "C C"
_symmetry_group_IT_number 9
_symmetry_cell_setting 'monoclinic'
loop_
_space_group_symop_operation_xyz
x,y,z
x,-y,1/2+z
1/2+x,1/2+y,z
1/2+x,1/2-y,1/2+z
loop_
_atom_site_type_symbol
_atom_site_label
_atom_site_fract_x
_atom_site_fract_y
_atom_site_fract_z
Si Si1 0.578560 0.350197 0.193080
Si Si2 0.103467 0.211598 0.442433
Si Si3 0.662173 0.421678 0.636326
Si Si4 0.198990 0.412082 0.082562
Si Si5 0.459197 0.738535 0.747107
Si Si6 0.866514 0.373299 0.107235
Si Si7 0.882560 0.543937 0.960586
O O1 0.564775 0.514011 0.117008
O O2 0.502982 0.366733 0.207378
O O3 0.746202 0.342198 0.361647
O O4 0.512595 0.175190 0.087650
O O5 0.118913 0.039750 0.515966
O O6 0.157015 0.382581 0.545698
O O7 0.960312 0.261737 0.260721
O O8 0.210935 0.191659 0.470706
O O9 0.663270 0.210598 0.625672
O O10 0.820605 0.476621 0.814928
O O11 0.357061 0.373225 0.207170
O O12 0.100354 0.319123 0.919927
O O13 0.378553 0.920652 0.647253
O O14 0.904638 0.386767 0.048120
#
# Coordination Sequence:
#
# PCOD9135480 Si02
#       7
#     4   4   4   4   4   4   4
#     4   9  20  37  70  96 137 191 220 286 366 411
#     4  11  25  40  73  98 132 187 236 289 352 419
#     4  10  24  41  69  97 147 178 225 296 360 421
#     4  11  24  40  69 101 137 176 242 286 353 419
#     4  10  20  40  67  97 132 179 234 285 337 431
#     4  10  22  43  65  99 132 181 239 285 341 428
#     4   9  21  41  69 100 143 186 230 293 357 439
#
# _framework density 23.935776000000001
#
# number of rings (size 3 to 8) (size 9 to 14) (size 15 to 20)
#    0.857    1.143    1.429    1.714    4.000    0.000 
#    0.000    5.714    0.000    0.000    0.000    0.000 
#    0.000    0.000    0.000    0.000    0.000    0.000 
#
# Total GULP energy -78187.722305 kJ/mol
# GULP energy per Si atom -5584.837308 kJ/mol
# Density = 2.388130 g / cm^3
# Si number density = 23.935776 Si / 1000 Ang^3
#
#
#
# Elastic Constant Matrix: (Units=GPa)
#
#
# Indices 1 2 3 4 5 6 
#
# 1 68.1773 17.3294 1.6844 0.0000 6.8455 0.0000
# 2 17.3294 105.0906 20.0178 0.0000 0.8187 0.0000
# 3 1.6844 20.0178 95.0507 0.0000 -9.8397 0.0000
# 4 0.0000 0.0000 0.0000 14.5356 0.0000 2.4699
# 5 6.8455 0.8187 -9.8397 0.0000 27.2442 0.0000
# 6 0.0000 0.0000 0.0000 2.4699 0.0000 42.9309
#
#
#
# Elastic Compliance Matrix: (Units=1/GPa)
#
#
# Indices 1 2 3 4 5 6 
#
# 1 0.015709 -0.002531 -0.000152 0.000000 -0.003926 0.000000
# 2 -0.002531 0.010352 -0.002183 0.000000 -0.000464 0.000000
# 3 -0.000152 -0.002183 0.011421 0.000000 0.004229 0.000000
# 4 0.000000 0.000000 0.000000 0.069476 0.000000 -0.003997
# 5 -0.003926 -0.000464 0.004229 0.000000 0.039233 0.000000
# 6 0.000000 0.000000 0.000000 -0.003997 0.000000 0.023523
#
#
# Mechanical properties :
#
#
# Convention : Reuss Voigt Hill
#
# Bulk Modulus (GPa) = 36.03584 38.48688 37.26136
# Shear Modulus (GPa) = 26.49760 32.22793 29.36276
#
# Velocity S-wave (km/s) = 3.33081 3.67336 3.50627
# Velocity P-wave (km/s) = 5.46629 5.84000 5.65623
#
# Compressibility (1/GPa) = 0.02775015
#
# Stress axis : x y z
#
# Youngs Moduli (GPa) = 63.65830 96.59544 87.55827
#
# Poissons Ratio (x) = 0.24447 0.01329
# Poissons Ratio (y) = 0.16111 0.19117
# Poissons Ratio (z) = 0.00966 0.21091
#
# Static dielectric constant tensor:
#      x y z
#    x 1.941670 0.000000 -0.040580 
#    y 0.000000 1.895060 0.000000 
#    z -0.040580 0.000000 1.927870 
# 
# From -- ./inp_files/30961.got.cif
#   From: 2010.05.17/outbox.cif.g08.bks.cpg/sg9_16_cif.got.tgz:30961.got - 2010.06.03 20:04:27.
