data_PCOD9135258
_publ_section_title
;
Structure prediction by ZEFSAII (Michael W. Deem and Ramdas Pophale) SiO2 
 PCOD9135258
Probable space group: C C
;
_chemical_formula_sum "Si O2"
_cell_formula_units_Z 28
_cell_length_a 18.156459
_cell_length_b 5.067318
_cell_length_c 19.917618
_cell_angle_alpha 90.000000
_cell_angle_beta 132.994978
_cell_angle_gamma 90.000000
_cell_volume 1340.323615
_symmetry_space_group_name_H-M "C C"
_symmetry_group_IT_number 9
_symmetry_cell_setting 'monoclinic'
loop_
_space_group_symop_operation_xyz
x,y,z
x,-y,1/2+z
1/2+x,1/2+y,z
1/2+x,1/2-y,1/2+z
loop_
_atom_site_type_symbol
_atom_site_label
_atom_site_fract_x
_atom_site_fract_y
_atom_site_fract_z
Si Si1 0.170060 0.798495 0.491390
Si Si2 0.483621 0.342418 0.730420
Si Si3 0.677692 0.179954 0.906998
Si Si4 0.170087 0.926087 0.766585
Si Si5 0.250134 0.439717 0.746560
Si Si6 0.444795 0.282621 0.332894
Si Si7 0.304636 0.914512 0.168527
O O1 0.212706 0.579677 0.466694
O O2 0.238493 0.851936 0.597938
O O3 0.053128 0.732402 0.432985
O O4 0.171705 0.080753 0.455232
O O5 0.562471 0.130117 0.810613
O O6 0.551966 0.454556 0.713039
O O7 0.465968 0.562034 0.776278
O O8 0.376441 0.205862 0.655319
O O9 0.722478 0.298980 0.866023
O O10 0.185334 0.701429 0.720312
O O11 0.215991 0.205881 0.775070
O O12 0.366131 0.536208 0.824974
O O13 0.241278 0.308018 0.667283
O O14 0.380120 0.028005 0.272013
#
# Coordination Sequence:
#
# PCOD9135258 Si02
#       7
#     4   4   4   4   4   4   4
#     4  11  22  37  65  89 124 154 213 266 289 357
#     4   8  20  35  65  86 117 151 214 247 296 364
#     4   9  20  37  60  91 112 157 200 255 307 339
#     4  10  20  38  66  85 121 160 200 245 313 368
#     4  11  22  36  63  90 119 165 193 248 311 375
#     4  10  20  41  59  94 118 163 210 248 307 362
#     4  11  22  38  64  95 121 162 212 249 311 359
#
# _framework density 20.89048
#
# number of rings (size 3 to 8) (size 9 to 14) (size 15 to 20)
#    0.857    1.143    2.857    0.857    6.000    0.000 
#    0.000    0.000    9.429    0.000    0.000    0.000 
#    0.000    0.000    0.000    0.000    0.000    0.000 
#
# Total GULP energy -77969.730339 kJ/mol
# GULP energy per Si atom -5569.266453 kJ/mol
# Density = 2.084293 g / cm^3
# Si number density = 20.890480 Si / 1000 Ang^3
#
#
#
# Elastic Constant Matrix: (Units=GPa)
#
#
# Indices 1 2 3 4 5 6 
#
# 1 119.9612 33.7347 10.3399 0.0000 20.1557 0.0004
# 2 33.7347 85.1932 7.1078 -0.0002 13.7701 0.0023
# 3 10.3399 7.1078 40.9522 -0.0002 10.5763 0.0001
# 4 0.0000 -0.0002 -0.0002 20.5031 0.0000 1.5767
# 5 20.1557 13.7701 10.5763 0.0000 15.8024 -0.0003
# 6 0.0004 0.0023 0.0001 1.5767 -0.0003 40.7671
#
#
#
# Elastic Compliance Matrix: (Units=1/GPa)
#
#
# Indices 1 2 3 4 5 6 
#
# 1 0.011054 -0.002417 0.000877 0.000000 -0.012580 0.000000
# 2 -0.002417 0.014215 0.000660 0.000000 -0.009746 -0.000001
# 3 0.000877 0.000660 0.029644 0.000000 -0.021535 0.000000
# 4 0.000000 0.000000 0.000000 0.048919 0.000000 -0.001892
# 5 -0.012580 -0.009746 -0.021535 0.000000 0.102233 0.000002
# 6 0.000000 -0.000001 0.000000 -0.001892 0.000002 0.024603
#
#
# Mechanical properties :
#
#
# Convention : Reuss Voigt Hill
#
# Bulk Modulus (GPa) = 18.81316 38.71904 28.76610
# Shear Modulus (GPa) = 19.98849 28.40948 24.19898
#
# Velocity S-wave (km/s) = 3.09661 3.69172 3.40718
# Velocity P-wave (km/s) = 4.67017 6.06187 5.41095
#
# Compressibility (1/GPa) = 0.05315429
#
# Stress axis : x y z
#
# Youngs Moduli (GPa) = 90.46715 70.34676 33.73353
#
# Poissons Ratio (x) = 0.17002 -0.02960
# Poissons Ratio (y) = 0.21865 -0.02226
# Poissons Ratio (z) = -0.07938 -0.04643
#
# Static dielectric constant tensor:
#      x y z
#    x 1.815830 0.000000 -0.009720 
#    y 0.000000 1.777610 0.000000 
#    z -0.009720 0.000000 1.797430 
# 
# From -- ./inp_files/26256.got.cif
#   From: 2010.05.17/outbox.cif.g08.bks.cpg/sg9_14_cif.got.tgz:26256.got - 2010.06.03 20:04:27.
