data_PCOD9135611
_publ_section_title
;
Structure prediction by ZEFSAII (Michael W. Deem and Ramdas Pophale) SiO2 
 PCOD9135611
Probable space group: C C
;
_chemical_formula_sum "Si O2"
_cell_formula_units_Z 32
_cell_length_a 14.384881
_cell_length_b 9.983681
_cell_length_c 14.365398
_cell_angle_alpha 90.000000
_cell_angle_beta 39.390830
_cell_angle_gamma 90.000000
_cell_volume 1309.240331
_symmetry_space_group_name_H-M "C C"
_symmetry_group_IT_number 9
_symmetry_cell_setting 'monoclinic'
loop_
_space_group_symop_operation_xyz
x,y,z
x,-y,1/2+z
1/2+x,1/2+y,z
1/2+x,1/2-y,1/2+z
loop_
_atom_site_type_symbol
_atom_site_label
_atom_site_fract_x
_atom_site_fract_y
_atom_site_fract_z
Si Si1 0.633940 0.929572 0.577360
Si Si2 0.578216 0.514573 0.079618
Si Si3 0.381583 0.966215 0.408044
Si Si4 0.860175 0.897472 0.127597
Si Si5 0.047841 0.343661 0.435904
Si Si6 0.341456 0.694647 0.052339
Si Si7 0.328000 0.671713 0.366957
Si Si8 0.663233 0.687403 0.839662
O O1 0.578857 0.886763 0.518000
O O2 0.734697 0.818508 0.548284
O O3 0.495562 0.967015 0.748701
O O4 0.745108 0.057036 0.487639
O O5 0.449441 0.411448 0.155619
O O6 0.486027 0.628445 0.204498
O O7 0.719890 0.472241 0.026457
O O8 0.636257 0.564853 0.932457
O O9 0.454850 0.952946 0.451512
O O10 0.350692 0.813373 0.398455
O O11 0.703943 0.832681 0.265294
O O12 0.835608 0.046687 0.106662
O O13 0.962581 0.796513 0.992539
O O14 0.288702 0.806473 0.166032
O O15 0.512597 0.714655 0.902775
O O16 0.214866 0.696866 0.369906
#
# Coordination Sequence:
#
# PCOD9135611 Si02
#       8
#     4   4   4   4   4   4   4   4
#     4  12  26  46  71 103 149 189 234 298 359 429
#     4  10  22  43  72 106 139 182 241 298 354 414
#     4  11  25  43  73 110 134 186 248 292 359 425
#     4  11  24  48  70 103 147 190 232 292 356 435
#     4  12  27  47  73 101 150 193 235 292 361 431
#     4  11  23  46  69 106 145 184 238 293 358 420
#     4  11  21  44  74 102 136 184 241 306 345 414
#     4  10  20  41  74 103 136 180 237 297 348 412
#
# _framework density 24.441655000000001
#
# number of rings (size 3 to 8) (size 9 to 14) (size 15 to 20)
#    0.000    1.000    5.000    2.250    5.250    1.000 
#    0.000    0.000    0.000    0.000    0.000    0.000 
#    0.000    0.000    0.000    0.000    0.000    0.000 
#
# Total GULP energy -89486.134674 kJ/mol
# GULP energy per Si atom -5592.883417 kJ/mol
# Density = 2.438602 g / cm^3
# Si number density = 24.441655 Si / 1000 Ang^3
#
#
#
# Elastic Constant Matrix: (Units=GPa)
#
#
# Indices 1 2 3 4 5 6 
#
# 1 161.0370 16.0591 41.0363 0.0000 -22.3985 0.0000
# 2 16.0591 96.8402 49.8172 0.0000 -9.2114 0.0000
# 3 41.0363 49.8172 74.5402 0.0000 -33.9679 0.0000
# 4 0.0000 0.0000 0.0000 19.8362 0.0000 -1.9259
# 5 -22.3985 -9.2114 -33.9679 0.0000 40.8660 0.0000
# 6 0.0000 0.0000 0.0000 -1.9259 0.0000 27.1113
#
#
#
# Elastic Compliance Matrix: (Units=1/GPa)
#
#
# Indices 1 2 3 4 5 6 
#
# 1 0.007335 0.001223 -0.004665 0.000000 0.000419 0.000000
# 2 0.001223 0.017942 -0.016928 0.000000 -0.009356 0.000000
# 3 -0.004665 -0.016928 0.039266 0.000000 0.026266 0.000000
# 4 0.000000 0.000000 0.000000 0.050763 0.000000 0.003606
# 5 0.000419 -0.009356 0.026266 0.000000 0.044423 0.000000
# 6 0.000000 0.000000 0.000000 0.003606 0.000000 0.037141
#
#
# Mechanical properties :
#
#
# Convention : Reuss Voigt Hill
#
# Bulk Modulus (GPa) = 42.00966 60.69363 51.35165
# Shear Modulus (GPa) = 20.36311 32.59637 26.47974
#
# Velocity S-wave (km/s) = 2.88953 3.65587 3.29505
# Velocity P-wave (km/s) = 5.32518 6.53502 5.96087
#
# Compressibility (1/GPa) = 0.02380405
#
# Stress axis : x y z
#
# Youngs Moduli (GPa) = 136.33893 55.73653 25.46731
#
# Poissons Ratio (x) = -0.06817 0.11880
# Poissons Ratio (y) = -0.16676 0.43110
# Poissons Ratio (z) = 0.63597 0.94348
#
# Static dielectric constant tensor:
#      x y z
#    x 1.977810 0.000000 0.039850 
#    y 0.000000 2.010380 0.000000 
#    z 0.039850 0.000000 1.908650 
# 
# From -- ./inp_files/25908.got.cif
#   From: 2010.05.17/outbox.cif.g08.bks.cpg/sg9_13_cif.got.tgz:25908.got - 2010.06.03 20:04:27.
