data_PCOD9135083
_publ_section_title
;
Structure prediction by ZEFSAII (Michael W. Deem and Ramdas Pophale) SiO2 
 PCOD9135083
Probable space group: C C
;
_chemical_formula_sum "Si O2"
_cell_formula_units_Z 32
_cell_length_a 14.687832
_cell_length_b 8.217318
_cell_length_c 22.112361
_cell_angle_alpha 90.000000
_cell_angle_beta 31.349255
_cell_angle_gamma 90.000000
_cell_volume 1388.474436
_symmetry_space_group_name_H-M "C C"
_symmetry_group_IT_number 9
_symmetry_cell_setting 'monoclinic'
loop_
_space_group_symop_operation_xyz
x,y,z
x,-y,1/2+z
1/2+x,1/2+y,z
1/2+x,1/2-y,1/2+z
loop_
_atom_site_type_symbol
_atom_site_label
_atom_site_fract_x
_atom_site_fract_y
_atom_site_fract_z
Si Si1 0.530240 0.171309 0.338240
Si Si2 0.074288 0.814690 0.963211
Si Si3 0.348126 0.904433 0.510743
Si Si4 0.387584 0.388674 0.609746
Si Si5 0.935378 0.518138 0.264131
Si Si6 0.069079 0.562880 0.061666
Si Si7 0.756267 0.252358 0.437687
Si Si8 0.728752 0.558139 0.687460
O O1 0.721377 0.098131 0.248228
O O2 0.498314 0.111437 0.287992
O O3 0.562044 0.365366 0.316563
O O4 0.391243 0.079034 0.456921
O O5 0.255003 0.899041 0.844382
O O6 0.100483 0.738685 0.015408
O O7 0.010185 0.672141 0.955865
O O8 0.921910 0.949950 0.052542
O O9 0.315067 0.788385 0.472679
O O10 0.204820 0.939560 0.644408
O O11 0.571158 0.348025 0.536447
O O12 0.328837 0.224065 0.608965
O O13 0.884297 0.337931 0.316755
O O14 0.067809 0.537087 0.133944
O O15 0.206506 0.434441 0.956143
O O16 0.872693 0.517070 0.150420
#
# Coordination Sequence:
#
# PCOD9135083 Si02
#       8
#     4   4   4   4   4   4   4   4
#     4   9  20  36  57  82 112 148 190 227 289 346
#     4  10  22  37  57  88 117 147 199 237 290 347
#     4  10  20  37  60  85 117 148 191 247 287 343
#     4   8  18  38  55  79 116 149 189 237 279 347
#     4  10  22  38  59  83 115 153 191 237 293 346
#     4  10  21  39  60  82 118 153 190 241 292 344
#     4   9  20  40  57  85 112 152 198 235 289 355
#     4   8  19  37  57  82 109 152 186 231 289 348
#
# _framework density 23.046876999999999
#
# number of rings (size 3 to 8) (size 9 to 14) (size 15 to 20)
#    0.750    2.000    0.000    0.000    3.500    7.000 
#    0.000    1.250    0.000    0.000    0.000    0.000 
#    0.000    0.000    0.000    0.000    0.000    0.000 
#
# Total GULP energy -89141.590031 kJ/mol
# GULP energy per Si atom -5571.349377 kJ/mol
# Density = 2.299442 g / cm^3
# Si number density = 23.046877 Si / 1000 Ang^3
#
#
#
# Elastic Constant Matrix: (Units=GPa)
#
#
# Indices 1 2 3 4 5 6 
#
# 1 58.2523 8.9157 15.5784 0.0000 16.1172 0.0000
# 2 8.9157 63.0242 20.8130 0.0001 8.7301 0.0000
# 3 15.5784 20.8130 32.8113 0.0004 11.0099 0.0000
# 4 0.0000 0.0001 0.0004 35.5774 0.0000 -7.1895
# 5 16.1172 8.7301 11.0099 0.0000 28.5961 0.0000
# 6 0.0000 0.0000 0.0000 -7.1895 0.0000 18.3528
#
#
#
# Elastic Compliance Matrix: (Units=1/GPa)
#
#
# Indices 1 2 3 4 5 6 
#
# 1 0.021723 0.000756 -0.007588 0.000000 -0.009553 0.000000
# 2 0.000756 0.020147 -0.012554 0.000000 -0.001743 0.000000
# 3 -0.007588 -0.012554 0.045156 -0.000001 -0.009276 0.000000
# 4 0.000000 0.000000 -0.000001 0.030524 0.000000 0.011957
# 5 -0.009553 -0.001743 -0.009276 0.000000 0.044458 0.000000
# 6 0.000000 0.000000 0.000000 0.011957 0.000000 0.059172
#
#
# Mechanical properties :
#
#
# Convention : Reuss Voigt Hill
#
# Bulk Modulus (GPa) = 20.72328 27.18911 23.95619
# Shear Modulus (GPa) = 18.11352 23.75730 20.93541
#
# Velocity S-wave (km/s) = 2.80651 3.21413 3.01721
# Velocity P-wave (km/s) = 4.41739 5.05936 4.74923
#
# Compressibility (1/GPa) = 0.04825492
#
# Stress axis : x y z
#
# Youngs Moduli (GPa) = 46.03340 49.63458 22.14547
#
# Poissons Ratio (x) = -0.03753 0.16804
# Poissons Ratio (y) = -0.03480 0.27801
# Poissons Ratio (z) = 0.34930 0.62310
#
# Static dielectric constant tensor:
#      x y z
#    x 1.855330 0.000000 -0.026250 
#    y 0.000000 1.860560 0.000000 
#    z -0.026250 0.000000 1.887590 
# 
# From -- ./inp_files/21422.got.cif
#   From: 2010.05.17/outbox.cif.g08.bks.cpg/sg9_11_cif.got.tgz:21422.got - 2010.06.03 20:04:27.
