data_PCOD9135557
_publ_section_title
;
Structure prediction by ZEFSAII (Michael W. Deem and Ramdas Pophale) SiO2 
 PCOD9135557
Probable space group: C C
;
_chemical_formula_sum "Si O2"
_cell_formula_units_Z 28
_cell_length_a 9.273909
_cell_length_b 10.395853
_cell_length_c 13.766667
_cell_angle_alpha 90.000000
_cell_angle_beta 114.561929
_cell_angle_gamma 90.000000
_cell_volume 1207.147795
_symmetry_space_group_name_H-M "C C"
_symmetry_group_IT_number 9
_symmetry_cell_setting 'monoclinic'
loop_
_space_group_symop_operation_xyz
x,y,z
x,-y,1/2+z
1/2+x,1/2+y,z
1/2+x,1/2-y,1/2+z
loop_
_atom_site_type_symbol
_atom_site_label
_atom_site_fract_x
_atom_site_fract_y
_atom_site_fract_z
Si Si1 0.277260 0.893962 0.300690
Si Si2 0.113365 0.158977 0.012645
Si Si3 0.136288 0.347236 0.413197
Si Si4 0.674561 0.327483 0.741192
Si Si5 0.326617 0.589464 0.547786
Si Si6 0.680297 0.613269 0.560329
Si Si7 0.457697 0.325754 0.277836
O O1 0.452081 0.874138 0.388518
O O2 0.280417 0.875671 0.185952
O O3 0.138124 0.800441 0.297365
O O4 0.199114 0.034641 0.297637
O O5 0.067983 0.164119 0.114320
O O6 0.211941 0.286425 0.016342
O O7 0.213129 0.028294 0.027865
O O8 0.972933 0.141317 0.895742
O O9 0.135844 0.287875 0.303601
O O10 0.232891 0.473603 0.471150
O O11 0.203020 0.228726 0.494167
O O12 0.847757 0.298392 0.744539
O O13 0.493970 0.613183 0.540619
O O14 0.377320 0.577675 0.677030
#
# Coordination Sequence:
#
# PCOD9135557 Si02
#       7
#     4   4   4   4   4   4   4
#     4  10  23  41  62  95 132 170 221 270 325 393
#     4  10  20  41  65  87 126 174 215 261 324 390
#     4  12  24  40  68 101 130 169 223 278 327 389
#     4  10  23  40  62  94 130 173 219 269 329 392
#     4  10  23  41  63  97 131 167 220 273 329 390
#     4  10  23  40  62  93 132 174 216 269 330 390
#     4  10  20  41  66  87 127 173 210 266 326 384
#
# _framework density 23.195170999999998
#
# number of rings (size 3 to 8) (size 9 to 14) (size 15 to 20)
#    0.000    1.714    0.000    3.429    0.000    5.714 
#    0.000   22.857    0.000    0.000    0.000    0.000 
#    0.000    0.000    0.000    0.000    0.000    0.000 
#
# Total GULP energy -78136.978302 kJ/mol
# GULP energy per Si atom -5581.212736 kJ/mol
# Density = 2.314238 g / cm^3
# Si number density = 23.195171 Si / 1000 Ang^3
#
#
#
# Elastic Constant Matrix: (Units=GPa)
#
#
# Indices 1 2 3 4 5 6 
#
# 1 73.1137 33.3285 22.5364 0.0000 17.8026 0.0000
# 2 33.3285 124.5723 46.5987 0.0000 -8.5828 0.0000
# 3 22.5364 46.5987 158.4116 0.0000 -11.0666 0.0000
# 4 0.0000 0.0000 0.0000 36.5198 0.0000 -9.6767
# 5 17.8026 -8.5828 -11.0666 0.0000 37.4650 0.0000
# 6 0.0000 0.0000 0.0000 -9.6767 0.0000 23.9850
#
#
#
# Elastic Compliance Matrix: (Units=1/GPa)
#
#
# Indices 1 2 3 4 5 6 
#
# 1 0.019319 -0.005179 -0.001990 0.000000 -0.010954 0.000000
# 2 -0.005179 0.010472 -0.002046 0.000000 0.004255 0.000000
# 3 -0.001990 -0.002046 0.007383 0.000000 0.002658 0.000000
# 4 0.000000 0.000000 0.000000 0.030660 0.000000 0.012370
# 5 -0.010954 0.004255 0.002658 0.000000 0.033657 0.000000
# 6 0.000000 0.000000 0.000000 0.012370 0.000000 0.046683
#
#
# Mechanical properties :
#
#
# Convention : Reuss Voigt Hill
#
# Bulk Modulus (GPa) = 53.35292 62.33609 57.84451
# Shear Modulus (GPa) = 28.92638 36.50288 32.71463
#
# Velocity S-wave (km/s) = 3.53524 3.97133 3.75961
# Velocity P-wave (km/s) = 6.30203 6.92543 6.62107
#
# Compressibility (1/GPa) = 0.01874312
#
# Stress axis : x y z
#
# Youngs Moduli (GPa) = 51.76304 95.49555 135.43820
#
# Poissons Ratio (x) = 0.49456 0.26955
# Poissons Ratio (y) = 0.26807 0.27715
# Poissons Ratio (z) = 0.10302 0.19541
#
# Static dielectric constant tensor:
#      x y z
#    x 1.911190 0.000000 -0.036510 
#    y 0.000000 1.849500 0.000000 
#    z -0.036510 0.000000 1.961330 
# 
# From -- ./inp_files/22831.got.cif
#   From: 2010.05.17/outbox.cif.g08.bks.cpg/sg9_12_cif.got.tgz:22831.got - 2010.06.03 20:04:27.
