data_PCOD9135631
_publ_section_title
;
Structure prediction by ZEFSAII (Michael W. Deem and Ramdas Pophale) SiO2 
 PCOD9135631
Probable space group: C C
;
_chemical_formula_sum "Si O2"
_cell_formula_units_Z 32
_cell_length_a 11.361830
_cell_length_b 11.085630
_cell_length_c 9.219121
_cell_angle_alpha 90.000000
_cell_angle_beta 103.047383
_cell_angle_gamma 90.000000
_cell_volume 1131.199071
_symmetry_space_group_name_H-M "C C"
_symmetry_group_IT_number 9
_symmetry_cell_setting 'monoclinic'
loop_
_space_group_symop_operation_xyz
x,y,z
x,-y,1/2+z
1/2+x,1/2+y,z
1/2+x,1/2-y,1/2+z
loop_
_atom_site_type_symbol
_atom_site_label
_atom_site_fract_x
_atom_site_fract_y
_atom_site_fract_z
Si Si1 0.271760 0.196548 0.173220
Si Si2 0.056382 0.068157 0.532893
Si Si3 0.861929 0.552864 0.663498
Si Si4 0.251566 0.457962 0.630361
Si Si5 0.019211 0.502169 0.948584
Si Si6 0.166826 0.726113 0.922764
Si Si7 0.967991 0.877593 0.305224
Si Si8 0.320221 0.721416 0.364644
O O1 0.172253 0.252293 0.253841
O O2 0.398191 0.250564 0.277020
O O3 0.266192 0.051691 0.172958
O O4 0.274924 0.228035 0.004409
O O5 0.063752 0.104168 0.702707
O O6 0.938928 0.141198 0.434899
O O7 0.166775 0.140342 0.488460
O O8 0.027421 0.934132 0.465921
O O9 0.844886 0.674111 0.752259
O O10 0.983762 0.494879 0.772967
O O11 0.908183 0.545282 0.511818
O O12 0.145311 0.544369 0.545786
O O13 0.274266 0.363999 0.503645
O O14 0.363538 0.535869 0.709463
O O15 0.228845 0.370688 0.760206
O O16 0.060013 0.645442 0.965168
#
# Coordination Sequence:
#
# PCOD9135631 Si02
#       8
#     4   4   4   4   4   4   4   4
#     4  11  24  40  66  97 131 177 217 275 331 409
#     4  10  20  42  64  91 125 167 214 271 317 390
#     4  12  22  45  66  95 133 178 224 269 349 396
#     4   9  22  40  69  97 125 174 216 285 322 396
#     4  10  24  39  66  98 128 170 221 284 327 388
#     4  10  22  43  61  96 130 167 221 273 330 379
#     4  10  21  40  67  91 127 168 218 258 332 386
#     4  10  21  43  69  93 129 173 223 269 338 396
#
# _framework density 28.288567
#
# number of rings (size 3 to 8) (size 9 to 14) (size 15 to 20)
#    0.750    1.000    2.500    1.500    3.500    2.000 
#    4.500    0.000    0.000    0.000    0.000    0.000 
#    0.000    0.000    0.000    0.000    0.000    0.000 
#
# Total GULP energy -89354.490789 kJ/mol
# GULP energy per Si atom -5584.655674 kJ/mol
# Density = 2.822418 g / cm^3
# Si number density = 28.288567 Si / 1000 Ang^3
#
#
#
# Elastic Constant Matrix: (Units=GPa)
#
#
# Indices 1 2 3 4 5 6 
#
# 1 61.6407 -1.0480 -6.6795 0.0000 -13.5533 0.0000
# 2 -1.0480 133.5040 18.9490 0.0000 -24.0099 0.0000
# 3 -6.6795 18.9490 106.7773 0.0000 -28.1384 0.0000
# 4 0.0000 0.0000 0.0000 47.6470 0.0000 -0.0297
# 5 -13.5533 -24.0099 -28.1384 0.0000 47.2338 0.0000
# 6 0.0000 0.0000 0.0000 -0.0297 0.0000 30.2780
#
#
#
# Elastic Compliance Matrix: (Units=1/GPa)
#
#
# Indices 1 2 3 4 5 6 
#
# 1 0.018212 0.001080 0.002929 0.000000 0.007520 0.000000
# 2 0.001080 0.008324 -0.000253 0.000000 0.004391 0.000000
# 3 0.002929 -0.000253 0.011602 0.000000 0.007624 0.000000
# 4 0.000000 0.000000 0.000000 0.020988 0.000000 0.000021
# 5 0.007520 0.004391 0.007624 0.000000 0.030103 0.000000
# 6 0.000000 0.000000 0.000000 0.000021 0.000000 0.033027
#
#
# Mechanical properties :
#
#
# Convention : Reuss Voigt Hill
#
# Bulk Modulus (GPa) = 21.90509 36.04053 28.97281
# Shear Modulus (GPa) = 38.47294 44.41182 41.44238
#
# Velocity S-wave (km/s) = 3.69184 3.96657 3.83167
# Velocity P-wave (km/s) = 5.09246 5.80915 5.46257
#
# Compressibility (1/GPa) = 0.04565150
#
# Stress axis : x y z
#
# Youngs Moduli (GPa) = 54.90816 120.12893 86.18843
#
# Poissons Ratio (x) = -0.12969 -0.25247
# Poissons Ratio (y) = -0.05928 0.02178
# Poissons Ratio (z) = -0.16084 0.03035
#
# Static dielectric constant tensor:
#      x y z
#    x 2.478560 0.000000 0.105130 
#    y 0.000000 2.226320 0.000000 
#    z 0.105130 0.000000 2.210000 
# 
# From -- ./inp_files/9280.got.cif
#   From: 2010.05.17/outbox.cif.g08.bks.cpg/sg9_5_cif.got.tgz:9280.got - 2010.06.03 20:04:27.
