data_PCOD9135733
_publ_section_title
;
Structure prediction by ZEFSAII (Michael W. Deem and Ramdas Pophale) SiO2 
 PCOD9135733
Probable space group: C C
;
_chemical_formula_sum "Si O2"
_cell_formula_units_Z 32
_cell_length_a 26.896063
_cell_length_b 5.839407
_cell_length_c 9.059620
_cell_angle_alpha 90.000000
_cell_angle_beta 115.177009
_cell_angle_gamma 90.000000
_cell_volume 1287.700843
_symmetry_space_group_name_H-M "C C"
_symmetry_group_IT_number 9
_symmetry_cell_setting 'monoclinic'
loop_
_space_group_symop_operation_xyz
x,y,z
x,-y,1/2+z
1/2+x,1/2+y,z
1/2+x,1/2-y,1/2+z
loop_
_atom_site_type_symbol
_atom_site_label
_atom_site_fract_x
_atom_site_fract_y
_atom_site_fract_z
Si Si1 0.339010 0.346082 0.490230
Si Si2 0.265728 0.458011 0.154462
Si Si3 0.652994 0.044600 0.373323
Si Si4 0.680322 0.289298 0.123958
Si Si5 0.594692 0.652215 0.018954
Si Si6 0.026786 0.836098 0.718059
Si Si7 0.431933 0.953835 0.249446
Si Si8 0.933616 0.820174 0.043709
O O1 0.292510 0.295060 0.310248
O O2 0.308495 0.474238 0.583994
O O3 0.376754 0.148004 0.605092
O O4 0.380927 0.519542 0.463803
O O5 0.243014 0.697281 0.199868
O O6 0.211523 0.355289 0.008626
O O7 0.652340 0.111241 0.203554
O O8 0.604808 0.160837 0.404631
O O9 0.660889 0.784778 0.435636
O O10 0.653341 0.529705 0.128279
O O11 0.564447 0.740474 0.127685
O O12 0.559829 0.454859 0.892709
O O13 0.985255 0.654056 0.736880
O O14 0.987634 0.029891 0.598200
O O15 0.432364 0.876664 0.418923
O O16 0.433168 0.218466 0.208918
#
# Coordination Sequence:
#
# PCOD9135733 Si02
#       8
#     4   4   4   4   4   4   4   4
#     4  11  22  44  68  92 137 170 210 262 334 378
#     4  10  20  43  66  94 133 175 205 272 318 372
#     4  10  23  41  63  93 131 170 218 264 308 377
#     4  10  23  41  63  94 131 168 221 260 309 380
#     4  12  24  43  66  97 130 176 213 267 323 381
#     4  11  26  44  66  93 135 170 212 269 331 379
#     4  11  26  44  67 100 126 167 221 269 321 403
#     4  11  26  44  67 101 127 164 222 269 322 402
#
# _framework density 24.850491000000002
#
# number of rings (size 3 to 8) (size 9 to 14) (size 15 to 20)
#    0.750    0.500    5.000    0.000    5.250    2.000 
#    4.500    0.000    0.000    0.000    0.000    0.000 
#    0.000    0.000    0.000    0.000    0.000    0.000 
#
# Total GULP energy -89407.833411 kJ/mol
# GULP energy per Si atom -5587.989588 kJ/mol
# Density = 2.479393 g / cm^3
# Si number density = 24.850491 Si / 1000 Ang^3
#
#
#
# Elastic Constant Matrix: (Units=GPa)
#
#
# Indices 1 2 3 4 5 6 
#
# 1 106.3663 1.9149 30.0610 0.0000 -8.9598 0.0000
# 2 1.9149 15.4222 -0.2298 0.0000 -0.5503 0.0000
# 3 30.0610 -0.2298 98.0251 0.0000 -7.4654 0.0000
# 4 0.0000 0.0000 0.0000 37.9795 0.0000 -8.7497
# 5 -8.9598 -0.5503 -7.4654 0.0000 46.4590 0.0000
# 6 0.0000 0.0000 0.0000 -8.7497 0.0000 23.1134
#
#
#
# Elastic Compliance Matrix: (Units=1/GPa)
#
#
# Indices 1 2 3 4 5 6 
#
# 1 0.010423 -0.001287 -0.003085 0.000000 0.001499 0.000000
# 2 -0.001287 0.065032 0.000594 0.000000 0.000618 0.000000
# 3 -0.003085 0.000594 0.011242 0.000000 0.001218 0.000000
# 4 0.000000 0.000000 0.000000 0.028846 0.000000 0.010920
# 5 0.001499 0.000618 0.001218 0.000000 0.022017 0.000000
# 6 0.000000 0.000000 0.000000 0.010920 0.000000 0.047399
#
#
# Mechanical properties :
#
#
# Convention : Reuss Voigt Hill
#
# Bulk Modulus (GPa) = 12.63564 31.47843 22.05703
# Shear Modulus (GPa) = 22.84216 34.04821 28.44518
#
# Velocity S-wave (km/s) = 3.03509 3.70553 3.38694
# Velocity P-wave (km/s) = 4.16870 5.56800 4.91837
#
# Compressibility (1/GPa) = 0.07914121
#
# Stress axis : x y z
#
# Youngs Moduli (GPa) = 95.94315 15.37703 88.95383
#
# Poissons Ratio (x) = 0.01978 0.27444
# Poissons Ratio (y) = 0.12344 -0.05284
# Poissons Ratio (z) = 0.29600 -0.00913
#
# Static dielectric constant tensor:
#      x y z
#    x 1.972310 0.000000 0.063060 
#    y 0.000000 1.968420 0.000000 
#    z 0.063060 0.000000 1.974300 
# 
# From -- ./inp_files/12579.got.cif
#   From: 2010.05.17/outbox.cif.g08.bks.cpg/sg9_7_cif.got.tgz:12579.got - 2010.06.03 20:04:27.
