data_PCOD9135316
_publ_section_title
;
Structure prediction by ZEFSAII (Michael W. Deem and Ramdas Pophale) SiO2 
 PCOD9135316
Probable space group: C C
;
_chemical_formula_sum "Si O2"
_cell_formula_units_Z 28
_cell_length_a 17.478489
_cell_length_b 16.621908
_cell_length_c 12.085990
_cell_angle_alpha 90.000000
_cell_angle_beta 160.580043
_cell_angle_gamma 90.000000
_cell_volume 1167.468367
_symmetry_space_group_name_H-M "C C"
_symmetry_group_IT_number 9
_symmetry_cell_setting 'monoclinic'
loop_
_space_group_symop_operation_xyz
x,y,z
x,-y,1/2+z
1/2+x,1/2+y,z
1/2+x,1/2-y,1/2+z
loop_
_atom_site_type_symbol
_atom_site_label
_atom_site_fract_x
_atom_site_fract_y
_atom_site_fract_z
Si Si1 0.130510 0.880275 0.207190
Si Si2 0.941973 0.477723 0.234126
Si Si3 0.585548 0.808777 0.826261
Si Si4 0.731371 0.918983 0.818352
Si Si5 0.490989 0.803416 0.933551
Si Si6 0.246377 0.864201 0.798441
Si Si7 0.425328 0.504963 0.266829
O O1 0.310336 0.808416 0.433330
O O2 0.274862 0.949246 0.470998
O O3 0.895162 0.872478 0.955121
O O4 0.061611 0.917706 0.995231
O O5 0.016304 0.457954 0.460562
O O6 0.180466 0.491637 0.494027
O O7 0.832186 0.398414 0.030487
O O8 0.672342 0.862455 0.842662
O O9 0.607502 0.841213 0.983949
O O10 0.736464 0.728085 0.047077
O O11 0.875963 0.991716 0.071006
O O12 0.449218 0.855874 0.984156
O O13 0.630254 0.722677 0.150309
O O14 0.069142 0.928299 0.505893
#
# Coordination Sequence:
#
# PCOD9135316 Si02
#       7
#     4   4   4   4   4   4   4
#     4  10  22  37  63  93 131 164 204 265 323 383
#     4  10  22  39  62  96 133 162 204 273 325 379
#     4  11  22  40  63  97 122 168 220 264 311 375
#     4  11  22  37  60  94 130 163 207 251 331 379
#     4  10  22  39  70  89 126 175 225 259 300 394
#     4  10  20  41  66  93 124 172 220 259 317 379
#     4  10  20  39  62  96 128 160 212 257 325 391
#
# _framework density 23.983519999999999
#
# number of rings (size 3 to 8) (size 9 to 14) (size 15 to 20)
#    0.000    1.714    2.857    0.857    4.000    1.143 
#    0.000    1.429    0.000    0.000    0.000    0.000 
#    0.000    0.000    0.000    0.000    0.000    0.000 
#
# Total GULP energy -78198.844541 kJ/mol
# GULP energy per Si atom -5585.631753 kJ/mol
# Density = 2.392893 g / cm^3
# Si number density = 23.983520 Si / 1000 Ang^3
#
#
#
# Elastic Constant Matrix: (Units=GPa)
#
#
# Indices 1 2 3 4 5 6 
#
# 1 92.7837 15.6046 30.0359 0.0000 -2.8506 0.0000
# 2 15.6046 69.1301 28.2282 -0.0001 -11.2828 -0.0001
# 3 30.0359 28.2282 85.5731 -0.0004 -27.2463 -0.0002
# 4 0.0000 -0.0001 -0.0004 47.7778 -0.0001 -2.7489
# 5 -2.8506 -11.2828 -27.2463 -0.0001 54.0357 0.0000
# 6 0.0000 -0.0001 -0.0002 -2.7489 0.0000 18.6255
#
#
#
# Elastic Compliance Matrix: (Units=1/GPa)
#
#
# Indices 1 2 3 4 5 6 
#
# 1 0.012401 -0.001254 -0.004544 0.000000 -0.001899 0.000000
# 2 -0.001254 0.016877 -0.004796 0.000000 0.001039 0.000000
# 3 -0.004544 -0.004796 0.017235 0.000000 0.007449 0.000000
# 4 0.000000 0.000000 0.000000 0.021109 0.000000 0.003116
# 5 -0.001899 0.001039 0.007449 0.000000 0.022379 0.000000
# 6 0.000000 0.000000 0.000000 0.003116 0.000000 0.054150
#
#
# Mechanical properties :
#
#
# Convention : Reuss Voigt Hill
#
# Bulk Modulus (GPa) = 39.48650 43.91382 41.70016
# Shear Modulus (GPa) = 28.77210 35.66234 32.21722
#
# Velocity S-wave (km/s) = 3.46737 3.86029 3.66909
# Velocity P-wave (km/s) = 5.70350 6.18214 5.94764
#
# Compressibility (1/GPa) = 0.02532511
#
# Stress axis : x y z
#
# Youngs Moduli (GPa) = 80.63753 59.25379 58.02291
#
# Poissons Ratio (x) = 0.07429 0.26364
# Poissons Ratio (y) = 0.10111 0.27828
# Poissons Ratio (z) = 0.36639 0.28419
#
# Static dielectric constant tensor:
#      x y z
#    x 1.961420 0.000000 0.034830 
#    y 0.000000 1.982980 0.000000 
#    z 0.034830 0.000000 1.940950 
# 
# From -- ./inp_files/15468.got.cif
#   From: 2010.05.17/outbox.cif.g08.bks.cpg/sg9_8_cif.got.tgz:15468.got - 2010.06.03 20:04:27.
