data_PCOD9135275
_publ_section_title
;
Structure prediction by ZEFSAII (Michael W. Deem and Ramdas Pophale) SiO2 
 PCOD9135275
Probable space group: C C
;
_chemical_formula_sum "Si O2"
_cell_formula_units_Z 28
_cell_length_a 5.432376
_cell_length_b 19.279446
_cell_length_c 10.498666
_cell_angle_alpha 90.000000
_cell_angle_beta 113.085622
_cell_angle_gamma 90.000000
_cell_volume 1011.506123
_symmetry_space_group_name_H-M "C C"
_symmetry_group_IT_number 9
_symmetry_cell_setting 'monoclinic'
loop_
_space_group_symop_operation_xyz
x,y,z
x,-y,1/2+z
1/2+x,1/2+y,z
1/2+x,1/2-y,1/2+z
loop_
_atom_site_type_symbol
_atom_site_label
_atom_site_fract_x
_atom_site_fract_y
_atom_site_fract_z
Si Si1 0.957420 0.600899 0.831750
Si Si2 0.287989 0.803993 0.507746
Si Si3 0.683968 0.872302 0.032602
Si Si4 0.781789 0.219971 0.793946
Si Si5 0.907836 0.830890 0.669527
Si Si6 0.336538 0.519234 0.060247
Si Si7 0.162192 0.082385 0.506427
O O1 0.775366 0.633975 0.902371
O O2 0.806870 0.601335 0.668776
O O3 0.206856 0.652557 0.861828
O O4 0.087465 0.532666 0.915566
O O5 0.608407 0.798056 0.591342
O O6 0.071797 0.752681 0.394954
O O7 0.142712 0.824720 0.608621
O O8 0.755628 0.810337 0.144394
O O9 0.371715 0.888497 0.948155
O O10 0.879628 0.877525 0.951382
O O11 0.774156 0.946781 0.118380
O O12 0.550865 0.273557 0.786683
O O13 0.866747 0.914682 0.658552
O O14 0.582302 0.497453 0.016857
#
# Coordination Sequence:
#
# PCOD9135275 Si02
#       7
#     4   4   4   4   4   4   4
#     4  10  20  38  68  85 119 168 220 238 327 384
#     4  11  21  41  59  95 116 175 212 262 307 401
#     4   9  20  34  63  80 124 146 211 245 317 354
#     4  11  22  43  63  96 125 176 208 273 313 399
#     4  11  26  34  68  91 131 160 226 257 326 374
#     4   9  20  38  59  90 115 160 202 262 296 387
#     4   9  19  34  56  93 110 151 201 263 288 371
#
# _framework density 27.681495000000002
#
# number of rings (size 3 to 8) (size 9 to 14) (size 15 to 20)
#    0.857    1.143    4.286    0.000    6.000    0.000 
#    0.000    1.429    0.000    1.714    0.000    0.000 
#    0.000    0.000    0.000    0.000    0.000    0.000 
#
# Total GULP energy -78017.417120 kJ/mol
# GULP energy per Si atom -5572.672651 kJ/mol
# Density = 2.761849 g / cm^3
# Si number density = 27.681495 Si / 1000 Ang^3
#
#
#
# Elastic Constant Matrix: (Units=GPa)
#
#
# Indices 1 2 3 4 5 6 
#
# 1 190.6638 21.1851 16.9532 0.0000 35.4529 0.0000
# 2 21.1851 112.0637 16.1535 0.0000 21.5491 0.0000
# 3 16.9532 16.1535 56.1475 0.0000 22.3394 0.0000
# 4 0.0000 0.0000 0.0000 40.2632 0.0000 9.4187
# 5 35.4529 21.5491 22.3394 0.0000 47.6684 0.0000
# 6 0.0000 0.0000 0.0000 9.4187 0.0000 61.6445
#
#
#
# Elastic Compliance Matrix: (Units=1/GPa)
#
#
# Indices 1 2 3 4 5 6 
#
# 1 0.006096 -0.000307 -0.000004 0.000000 -0.004393 0.000000
# 2 -0.000307 0.009866 -0.001305 0.000000 -0.003620 0.000000
# 3 -0.000004 -0.001305 0.022065 0.000000 -0.009747 0.000000
# 4 0.000000 0.000000 0.000000 0.025757 0.000000 -0.003935
# 5 -0.004393 -0.003620 -0.009747 0.000000 0.030450 0.000000
# 6 0.000000 0.000000 0.000000 -0.003935 0.000000 0.016823
#
#
# Mechanical properties :
#
#
# Convention : Reuss Voigt Hill
#
# Bulk Modulus (GPa) = 28.74109 51.93984 40.34046
# Shear Modulus (GPa) = 39.71736 50.22076 44.96906
#
# Velocity S-wave (km/s) = 3.79198 4.26401 4.03490
# Velocity P-wave (km/s) = 5.43852 6.56098 6.02594
#
# Compressibility (1/GPa) = 0.03479339
#
# Stress axis : x y z
#
# Youngs Moduli (GPa) = 164.03606 101.36039 45.32001
#
# Poissons Ratio (x) = 0.03112 0.00020
# Poissons Ratio (y) = 0.05037 0.05916
# Poissons Ratio (z) = 0.00073 0.13232
#
# Static dielectric constant tensor:
#      x y z
#    x 2.243210 0.000000 0.004560 
#    y 0.000000 2.213240 0.000000 
#    z 0.004560 0.000000 2.340690 
# 
# From -- ./inp_files/22270.got.cif
#   From: 2010.05.17/outbox.cif.g08.bks.cpg/sg9_12_cif.got.tgz:22270.got - 2010.06.03 20:04:27.
