data_PCOD9135339
_publ_section_title
;
Structure prediction by ZEFSAII (Michael W. Deem and Ramdas Pophale) SiO2 
 PCOD9135339
Probable space group: C C
;
_chemical_formula_sum "Si O2"
_cell_formula_units_Z 32
_cell_length_a 11.494130
_cell_length_b 10.980102
_cell_length_c 12.815818
_cell_angle_alpha 90.000000
_cell_angle_beta 121.575600
_cell_angle_gamma 90.000000
_cell_volume 1377.980014
_symmetry_space_group_name_H-M "C C"
_symmetry_group_IT_number 9
_symmetry_cell_setting 'monoclinic'
loop_
_space_group_symop_operation_xyz
x,y,z
x,-y,1/2+z
1/2+x,1/2+y,z
1/2+x,1/2-y,1/2+z
loop_
_atom_site_type_symbol
_atom_site_label
_atom_site_fract_x
_atom_site_fract_y
_atom_site_fract_z
Si Si1 0.274730 0.273506 0.596540
Si Si2 0.871186 0.992640 0.024527
Si Si3 0.484345 0.131016 0.968596
Si Si4 0.608053 0.635008 0.030645
Si Si5 0.954075 0.629956 0.531904
Si Si6 0.260105 0.688983 0.325111
Si Si7 0.807850 0.461530 0.775834
Si Si8 0.064855 0.876167 0.264172
O O1 0.310845 0.385378 0.540587
O O2 0.110505 0.277498 0.516475
O O3 0.358119 0.162400 0.585301
O O4 0.315933 0.309080 0.733784
O O5 0.921917 0.914024 0.147175
O O6 0.769185 0.930348 0.896735
O O7 0.004406 0.031778 0.023205
O O8 0.355540 0.215919 0.934012
O O9 0.431545 0.059189 0.839089
O O10 0.506841 0.010728 0.051933
O O11 0.565945 0.764588 0.063782
O O12 0.754985 0.595125 0.144385
O O13 0.583583 0.631469 0.896283
O O14 0.857138 0.637321 0.383329
O O15 0.109875 0.743413 0.246709
O O16 0.678954 0.531320 0.769624
#
# Coordination Sequence:
#
# PCOD9135339 Si02
#       8
#     4   4   4   4   4   4   4   4
#     4  11  23  43  70  94 139 183 225 289 345 420
#     4  10  23  41  61  96 129 174 229 278 350 407
#     4   9  22  45  61  97 135 172 227 284 335 409
#     4  10  20  39  64  92 129 175 221 281 341 415
#     4   9  22  42  62 100 132 176 228 272 354 401
#     4  11  23  42  64  99 128 175 234 277 354 414
#     4   8  20  40  58  92 130 168 229 268 338 400
#     4  10  21  38  64  88 126 171 213 281 335 404
#
# _framework density 23.222397000000001
#
# number of rings (size 3 to 8) (size 9 to 14) (size 15 to 20)
#    0.750    1.500    0.000    1.500    1.750    8.000 
#    6.750    0.000    0.000    0.000    0.000    0.000 
#    0.000    0.000    0.000    0.000    0.000    0.000 
#
# Total GULP energy -89170.077283 kJ/mol
# GULP energy per Si atom -5573.129830 kJ/mol
# Density = 2.316954 g / cm^3
# Si number density = 23.222397 Si / 1000 Ang^3
#
#
#
# Elastic Constant Matrix: (Units=GPa)
#
#
# Indices 1 2 3 4 5 6 
#
# 1 32.0480 1.8139 6.0219 0.0000 -7.9479 0.0000
# 2 1.8139 71.8226 7.5466 0.0000 -9.7030 0.0000
# 3 6.0219 7.5466 90.0423 0.0000 -26.0309 0.0000
# 4 0.0000 0.0000 0.0000 34.3396 0.0000 -5.2474
# 5 -7.9479 -9.7030 -26.0309 0.0000 28.5017 0.0000
# 6 0.0000 0.0000 0.0000 -5.2474 0.0000 -4.9614
#
#
#
# Elastic Compliance Matrix: (Units=1/GPa)
#
#
# Indices 1 2 3 4 5 6 
#
# 1 0.033561 0.000449 0.000635 0.000000 0.010092 0.000000
# 2 0.000449 0.014606 0.000298 0.000000 0.005370 0.000000
# 3 0.000635 0.000298 0.015108 0.000000 0.014077 0.000000
# 4 0.000000 0.000000 0.000000 0.025069 0.000000 -0.026515
# 5 0.010092 0.005370 0.014077 0.000000 0.052585 0.000000
# 6 0.000000 0.000000 0.000000 -0.026515 0.000000 -0.173514
#
#
# Mechanical properties :
#
#
# Convention : Reuss Voigt Hill
#
# Bulk Modulus (GPa) = 15.14223 24.96419 20.05321
# Shear Modulus (GPa) = -374.90020 23.47802 -175.71109
#
# Velocity S-wave (km/s) = -12.71965 3.18308 -8.70797
# Velocity P-wave (km/s) = 14.46322 4.92775 9.61514
#
# Compressibility (1/GPa) = 0.06604045
#
# Stress axis : x y z
#
# Youngs Moduli (GPa) = 29.79635 68.46509 66.19008
#
# Poissons Ratio (x) = -0.03074 -0.04205
# Poissons Ratio (y) = -0.01338 -0.01974
# Poissons Ratio (z) = -0.01893 -0.02042
#
# Static dielectric constant tensor:
#      x y z
#    x 2.060650 0.000000 -0.022540 
#    y 0.000000 1.935060 0.000000 
#    z -0.022540 0.000000 1.915060 
# 
# From -- ./inp_files/16579.got.cif
#   From: 2010.05.17/outbox.cif.g08.bks.cpg/sg9_9_cif.got.tgz:16579.got - 2010.06.03 20:04:27.
