data_PCOD9135201
_publ_section_title
;
Structure prediction by ZEFSAII (Michael W. Deem and Ramdas Pophale) SiO2 
 PCOD9135201
Probable space group: C C
;
_chemical_formula_sum "Si O2"
_cell_formula_units_Z 32
_cell_length_a 16.309618
_cell_length_b 19.197877
_cell_length_c 8.537977
_cell_angle_alpha 90.000000
_cell_angle_beta 150.907582
_cell_angle_gamma 90.000000
_cell_volume 1299.824054
_symmetry_space_group_name_H-M "C C"
_symmetry_group_IT_number 9
_symmetry_cell_setting 'monoclinic'
loop_
_space_group_symop_operation_xyz
x,y,z
x,-y,1/2+z
1/2+x,1/2+y,z
1/2+x,1/2-y,1/2+z
loop_
_atom_site_type_symbol
_atom_site_label
_atom_site_fract_x
_atom_site_fract_y
_atom_site_fract_z
Si Si1 0.026880 0.052463 0.834490
Si Si2 0.645662 0.424182 0.888371
Si Si3 0.059084 0.599212 0.715773
Si Si4 0.812559 0.314465 0.981536
Si Si5 0.663804 0.169725 0.408852
Si Si6 0.981485 0.793022 0.246288
Si Si7 0.369630 0.335104 0.578308
Si Si8 0.139891 0.468555 0.678166
O O1 0.017417 0.129016 0.740502
O O2 0.841943 0.018952 0.506493
O O3 0.164882 0.000477 0.994074
O O4 0.058694 0.062879 0.072777
O O5 0.793761 0.371834 0.085036
O O6 0.531027 0.382558 0.820483
O O7 0.232000 0.640398 0.973425
O O8 0.049072 0.540070 0.568730
O O9 0.901473 0.649734 0.480225
O O10 0.081890 0.558820 0.915465
O O11 0.623001 0.290223 0.621231
O O12 0.914157 0.244921 0.186045
O O13 0.519830 0.225709 0.207419
O O14 0.771266 0.161564 0.747636
O O15 0.619684 0.093268 0.271486
O O16 0.794967 0.202879 0.503785
#
# Coordination Sequence:
#
# PCOD9135201 Si02
#       8
#     4   4   4   4   4   4   4   4
#     4  10  20  38  61  90 115 156 206 247 297 364
#     4  11  20  39  63  87 117 154 204 249 306 357
#     4  12  25  38  64  88 128 161 211 247 308 361
#     4  10  23  39  57  93 122 157 202 250 309 356
#     4  10  20  41  67  90 121 156 217 244 313 358
#     4   9  20  38  65  91 118 160 203 259 293 377
#     4  11  20  39  65  89 111 166 202 258 288 374
#     4  11  22  42  60  94 120 166 205 256 300 371
#
# _framework density 24.618718000000001
#
# number of rings (size 3 to 8) (size 9 to 14) (size 15 to 20)
#    0.000    1.500    5.000    2.250    5.250    2.000 
#    6.750    1.250    0.000    0.000    0.000    0.000 
#    0.000    0.000    0.000    0.000    0.000    0.000 
#
# Total GULP energy -89497.831505 kJ/mol
# GULP energy per Si atom -5593.614469 kJ/mol
# Density = 2.456269 g / cm^3
# Si number density = 24.618718 Si / 1000 Ang^3
#
#
#
# Elastic Constant Matrix: (Units=GPa)
#
#
# Indices 1 2 3 4 5 6 
#
# 1 70.4763 44.6541 -8.3514 0.0000 11.5461 0.0000
# 2 44.6541 128.4361 -24.3845 0.0000 17.8736 0.0000
# 3 -8.3514 -24.3845 37.5614 0.0000 0.9815 0.0000
# 4 0.0000 0.0000 0.0000 8.3657 0.0000 6.5844
# 5 11.5461 17.8736 0.9815 0.0000 36.8017 0.0000
# 6 0.0000 0.0000 0.0000 6.5844 0.0000 60.5862
#
#
#
# Elastic Compliance Matrix: (Units=1/GPa)
#
#
# Indices 1 2 3 4 5 6 
#
# 1 0.018480 -0.005960 0.000316 0.000000 -0.002912 0.000000
# 2 -0.005960 0.011604 0.006311 0.000000 -0.003934 0.000000
# 3 0.000316 0.006311 0.030894 0.000000 -0.003988 0.000000
# 4 0.000000 0.000000 0.000000 0.130718 0.000000 -0.014206
# 5 -0.002912 -0.003934 -0.003988 0.000000 0.030103 0.000000
# 6 0.000000 0.000000 0.000000 -0.014206 0.000000 0.018049
#
#
# Mechanical properties :
#
#
# Convention : Reuss Voigt Hill
#
# Bulk Modulus (GPa) = 16.04847 28.92334 22.48590
# Shear Modulus (GPa) = 19.28381 36.12109 27.70245
#
# Velocity S-wave (km/s) = 2.80178 3.83459 3.35813
# Velocity P-wave (km/s) = 4.12306 5.60173 4.91828
#
# Compressibility (1/GPa) = 0.06231124
#
# Stress axis : x y z
#
# Youngs Moduli (GPa) = 54.11325 86.17980 32.36837
#
# Poissons Ratio (x) = 0.51361 -0.01022
# Poissons Ratio (y) = 0.32250 -0.20427
# Poissons Ratio (z) = -0.01709 -0.54385
#
# Static dielectric constant tensor:
#      x y z
#    x 1.938300 0.000000 0.000920 
#    y 0.000000 1.995980 0.000000 
#    z 0.000920 0.000000 1.969740 
# 
# From -- ./inp_files/10023.got.cif
#   From: 2010.05.17/outbox.cif.g08.bks.cpg/sg9_6_cif.got.tgz:10023.got - 2010.06.03 20:04:27.
