data_PCOD9135987
_publ_section_title
;
Structure prediction by ZEFSAII (Michael W. Deem and Ramdas Pophale) SiO2 
 PCOD9135987
Probable space group: C C
;
_chemical_formula_sum "Si O2"
_cell_formula_units_Z 28
_cell_length_a 7.762892
_cell_length_b 27.853184
_cell_length_c 8.629406
_cell_angle_alpha 90.000000
_cell_angle_beta 128.219263
_cell_angle_gamma 90.000000
_cell_volume 1465.911738
_symmetry_space_group_name_H-M "C C"
_symmetry_group_IT_number 9
_symmetry_cell_setting 'monoclinic'
loop_
_space_group_symop_operation_xyz
x,y,z
x,-y,1/2+z
1/2+x,1/2+y,z
1/2+x,1/2-y,1/2+z
loop_
_atom_site_type_symbol
_atom_site_label
_atom_site_fract_x
_atom_site_fract_y
_atom_site_fract_z
Si Si1 0.662900 0.197228 0.652500
Si Si2 0.130694 0.557343 0.004990
Si Si3 0.114997 0.816770 0.302506
Si Si4 0.390448 0.979356 0.668393
Si Si5 0.151230 0.940319 0.830369
Si Si6 0.424545 0.784264 0.719321
Si Si7 0.352398 0.864332 0.168537
O O1 0.557656 0.189240 0.425017
O O2 0.495144 0.180026 0.686247
O O3 0.896644 0.170175 0.777650
O O4 0.726042 0.253756 0.689506
O O5 0.063380 0.511290 0.862730
O O6 0.018694 0.601422 0.853681
O O7 0.015888 0.550604 0.107647
O O8 0.390112 0.561642 0.169366
O O9 0.323902 0.816449 0.530585
O O10 0.069026 0.760461 0.236015
O O11 0.162983 0.847514 0.179449
O O12 0.257333 0.949197 0.721131
O O13 0.228866 0.015608 0.485037
O O14 0.249949 0.893485 0.968584
#
# Coordination Sequence:
#
# PCOD9135987 Si02
#       7
#     4   4   4   4   4   4   4
#     4   9  19  38  54  78 106 142 180 228 259 317
#     4  10  21  38  56  84 107 143 175 221 263 319
#     4   9  19  38  54  78 106 142 180 228 259 317
#     4   9  20  39  62  76 106 142 188 210 256 323
#     4  10  21  38  56  84 107 143 175 221 263 319
#     4   8  18  39  58  73 102 146 192 213 266 309
#     4  11  24  32  52  87 114 134 180 215 280 318
#
# _framework density 19.100742
#
# number of rings (size 3 to 8) (size 9 to 14) (size 15 to 20)
#    0.857    1.714    0.000    0.857    0.000    6.857 
#    0.000    2.857    0.000    0.000    0.000    0.000 
#    0.000    0.000    0.000    0.000    0.000    0.000 
#
# Total GULP energy -78005.169912 kJ/mol
# GULP energy per Si atom -5571.797851 kJ/mol
# Density = 1.905727 g / cm^3
# Si number density = 19.100742 Si / 1000 Ang^3
#
#
#
# Elastic Constant Matrix: (Units=GPa)
#
#
# Indices 1 2 3 4 5 6 
#
# 1 60.1099 9.1062 25.0111 0.0000 5.0416 0.0000
# 2 9.1062 24.2403 6.2097 0.0000 -2.2182 0.0000
# 3 25.0111 6.2097 97.4722 0.0000 10.0961 0.0000
# 4 0.0000 0.0000 0.0000 6.2051 0.0000 -4.0046
# 5 5.0416 -2.2182 10.0961 0.0000 26.4700 0.0000
# 6 0.0000 0.0000 0.0000 -4.0046 0.0000 7.7496
#
#
#
# Elastic Compliance Matrix: (Units=1/GPa)
#
#
# Indices 1 2 3 4 5 6 
#
# 1 0.019655 -0.006508 -0.004357 0.000000 -0.002627 0.000000
# 2 -0.006508 0.044667 -0.001761 0.000000 0.005655 0.000000
# 3 -0.004357 -0.001761 0.011888 0.000000 -0.003852 0.000000
# 4 0.000000 0.000000 0.000000 0.241796 0.000000 0.124948
# 5 -0.002627 0.005655 -0.003852 0.000000 0.040222 0.000000
# 6 0.000000 0.000000 0.000000 0.124948 0.000000 0.193605
#
#
# Mechanical properties :
#
#
# Convention : Reuss Voigt Hill
#
# Bulk Modulus (GPa) = 19.62381 29.16404 24.39392
# Shear Modulus (GPa) = 8.41648 17.51797 12.96722
#
# Velocity S-wave (km/s) = 2.10141 3.03171 2.60837
# Velocity P-wave (km/s) = 4.02294 5.24945 4.67658
#
# Compressibility (1/GPa) = 0.05095851
#
# Stress axis : x y z
#
# Youngs Moduli (GPa) = 50.87685 22.38777 84.11495
#
# Poissons Ratio (x) = 0.14570 0.36647
# Poissons Ratio (y) = 0.33112 0.14816
# Poissons Ratio (z) = 0.22166 0.03943
#
# Static dielectric constant tensor:
#      x y z
#    x 1.635860 0.000000 0.008160 
#    y 0.000000 1.676800 0.000000 
#    z 0.008160 0.000000 1.663890 
# 
# From -- ./inp_files/4425.got.cif
#   From: 2010.05.17/outbox.cif.g08.bks.cpg/sg9_3_cif.got.tgz:4425.got - 2010.06.03 20:04:27.
