data_PCOD9135721
_publ_section_title
;
Structure prediction by ZEFSAII (Michael W. Deem and Ramdas Pophale) SiO2 
 PCOD9135721
Probable space group: C C
;
_chemical_formula_sum "Si O2"
_cell_formula_units_Z 32
_cell_length_a 5.299739
_cell_length_b 27.199845
_cell_length_c 8.620786
_cell_angle_alpha 90.000000
_cell_angle_beta 92.320312
_cell_angle_gamma 90.000000
_cell_volume 1241.685341
_symmetry_space_group_name_H-M "C C"
_symmetry_group_IT_number 9
_symmetry_cell_setting 'monoclinic'
loop_
_space_group_symop_operation_xyz
x,y,z
x,-y,1/2+z
1/2+x,1/2+y,z
1/2+x,1/2-y,1/2+z
loop_
_atom_site_type_symbol
_atom_site_label
_atom_site_fract_x
_atom_site_fract_y
_atom_site_fract_z
Si Si1 0.253670 0.372302 0.068910
Si Si2 0.546524 0.695308 0.371079
Si Si3 0.245020 0.931617 0.025334
Si Si4 0.776023 0.234952 0.101157
Si Si5 0.971582 0.503961 0.793899
Si Si6 0.493850 0.643581 0.910987
Si Si7 0.716487 0.064433 0.077036
Si Si8 0.891518 0.656791 0.131838
O O1 0.459326 0.412848 0.017516
O O2 0.365609 0.360123 0.241754
O O3 0.967822 0.391168 0.057158
O O4 0.308856 0.327726 0.953583
O O5 0.728676 0.716422 0.505706
O O6 0.453619 0.738272 0.254284
O O7 0.679508 0.656437 0.260100
O O8 0.292803 0.968066 0.169960
O O9 0.316696 0.961434 0.874536
O O10 0.516217 0.210255 0.151882
O O11 0.878563 0.191342 0.993610
O O12 0.201266 0.478821 0.702997
O O13 0.071483 0.540991 0.926575
O O14 0.787618 0.652737 0.952591
O O15 0.450653 0.592197 0.003277
O O16 0.575879 0.111009 0.151651
#
# Coordination Sequence:
#
# PCOD9135721 Si02
#       8
#     4   4   4   4   4   4   4   4
#     4  12  27  45  74 106 149 189 249 301 379 443
#     4  11  27  44  73 105 140 194 241 309 366 451
#     4  11  26  46  68 108 142 195 243 307 370 442
#     4  10  26  46  69 103 141 187 247 302 370 443
#     4  10  22  43  68  99 142 186 246 299 364 440
#     4  10  23  43  68  98 140 193 233 302 368 438
#     4  10  20  43  63  96 137 183 233 298 359 434
#     4  10  23  44  69  95 141 187 238 300 372 433
#
# _framework density 25.771425000000001
#
# number of rings (size 3 to 8) (size 9 to 14) (size 15 to 20)
#    0.000    1.500    1.250    1.500   12.250    2.000 
#    9.000    0.000    0.000    0.000    0.000    0.000 
#    0.000    0.000    0.000    0.000    0.000    0.000 
#
# Total GULP energy -89549.056933 kJ/mol
# GULP energy per Si atom -5596.816058 kJ/mol
# Density = 2.571277 g / cm^3
# Si number density = 25.771425 Si / 1000 Ang^3
#
#
#
# Elastic Constant Matrix: (Units=GPa)
#
#
# Indices 1 2 3 4 5 6 
#
# 1 56.8496 16.3119 11.3615 0.0000 8.3317 0.0000
# 2 16.3119 81.2577 35.8280 0.0000 4.6207 0.0000
# 3 11.3615 35.8280 119.9167 0.0000 5.1438 0.0000
# 4 0.0000 0.0000 0.0000 42.0788 0.0000 5.4204
# 5 8.3317 4.6207 5.1438 0.0000 28.0002 0.0000
# 6 0.0000 0.0000 0.0000 5.4204 0.0000 25.3231
#
#
#
# Elastic Compliance Matrix: (Units=1/GPa)
#
#
# Indices 1 2 3 4 5 6 
#
# 1 0.019421 -0.003332 -0.000625 0.000000 -0.005114 0.000000
# 2 -0.003332 0.014815 -0.004080 0.000000 -0.000704 0.000000
# 3 -0.000625 -0.004080 0.009657 0.000000 -0.000915 0.000000
# 4 0.000000 0.000000 0.000000 0.024439 0.000000 -0.005231
# 5 -0.005114 -0.000704 -0.000915 0.000000 0.037520 0.000000
# 6 0.000000 0.000000 0.000000 -0.005231 0.000000 0.040609
#
#
# Mechanical properties :
#
#
# Convention : Reuss Voigt Hill
#
# Bulk Modulus (GPa) = 35.94939 42.78076 39.36508
# Shear Modulus (GPa) = 29.10235 32.04860 30.57547
#
# Velocity S-wave (km/s) = 3.36408 3.53026 3.44817
# Velocity P-wave (km/s) = 5.39156 5.76655 5.58220
#
# Compressibility (1/GPa) = 0.02781688
#
# Stress axis : x y z
#
# Youngs Moduli (GPa) = 51.49122 67.50132 103.55536
#
# Poissons Ratio (x) = 0.22492 0.06473
# Poissons Ratio (y) = 0.17158 0.42254
# Poissons Ratio (z) = 0.03219 0.27543
#
# Static dielectric constant tensor:
#      x y z
#    x 2.111410 0.000000 -0.009880 
#    y 0.000000 2.024090 0.000000 
#    z -0.009880 0.000000 2.014740 
# 
# From -- ./inp_files/4380.got.cif
#   From: 2010.05.17/outbox.cif.g08.bks.cpg/sg9_3_cif.got.tgz:4380.got - 2010.06.03 20:04:27.
