data_PCOD9135325
_publ_section_title
;
Structure prediction by ZEFSAII (Michael W. Deem and Ramdas Pophale) SiO2 
 PCOD9135325
Probable space group: C C
;
_chemical_formula_sum "Si O2"
_cell_formula_units_Z 32
_cell_length_a 23.092613
_cell_length_b 6.637388
_cell_length_c 9.804188
_cell_angle_alpha 90.000000
_cell_angle_beta 106.301411
_cell_angle_gamma 90.000000
_cell_volume 1442.320998
_symmetry_space_group_name_H-M "C C"
_symmetry_group_IT_number 9
_symmetry_cell_setting 'monoclinic'
loop_
_space_group_symop_operation_xyz
x,y,z
x,-y,1/2+z
1/2+x,1/2+y,z
1/2+x,1/2-y,1/2+z
loop_
_atom_site_type_symbol
_atom_site_label
_atom_site_fract_x
_atom_site_fract_y
_atom_site_fract_z
Si Si1 0.600100 0.501138 0.533430
Si Si2 0.125170 0.595365 0.387816
Si Si3 0.830681 0.910024 0.718356
Si Si4 0.018895 0.668922 0.831985
Si Si5 0.691376 0.814815 0.654236
Si Si6 0.481838 0.512614 0.109953
Si Si7 0.417964 0.858626 0.467191
Si Si8 0.375229 0.295717 0.449682
O O1 0.607128 0.300572 0.451660
O O2 0.564995 0.673876 0.428949
O O3 0.664668 0.590778 0.615232
O O4 0.552937 0.481859 0.626559
O O5 0.062890 0.492908 0.293874
O O6 0.158961 0.458950 0.522238
O O7 0.168671 0.624099 0.288882
O O8 0.762250 0.835590 0.684363
O O9 0.871935 0.767690 0.842268
O O10 0.850071 0.898691 0.572320
O O11 0.836867 0.130491 0.794178
O O12 0.975513 0.572554 0.915355
O O13 0.975877 0.815543 0.718681
O O14 0.450389 0.293059 0.098011
O O15 0.442085 0.612906 0.963800
O O16 0.382860 0.059696 0.485611
#
# Coordination Sequence:
#
# PCOD9135325 Si02
#       8
#     4   4   4   4   4   4   4   4
#     4  10  22  38  62  98 134 178 218 272 337 408
#     4  11  23  41  68 100 134 182 224 285 338 411
#     4  11  25  46  66  97 135 184 233 285 338 413
#     4  10  20  39  63  98 134 171 220 276 343 410
#     4  11  25  43  66  98 136 180 231 278 342 399
#     4  10  20  39  64  97 139 170 221 279 342 414
#     4  10  23  40  64 101 130 183 225 280 350 411
#     4  11  24  44  69  97 134 184 230 287 346 410
#
# _framework density 22.186461999999999
#
# number of rings (size 3 to 8) (size 9 to 14) (size 15 to 20)
#    0.000    1.500    1.250    3.000    0.000    8.000 
#    2.250    0.000    0.000    0.000    0.000    0.000 
#    0.000    0.000    0.000    0.000    0.000    0.000 
#
# Total GULP energy -89250.826320 kJ/mol
# GULP energy per Si atom -5578.176645 kJ/mol
# Density = 2.213596 g / cm^3
# Si number density = 22.186462 Si / 1000 Ang^3
#
#
#
# Elastic Constant Matrix: (Units=GPa)
#
#
# Indices 1 2 3 4 5 6 
#
# 1 134.1813 37.1615 34.7674 0.0000 6.9036 0.0000
# 2 37.1615 83.1513 36.3088 0.0000 -14.1086 0.0000
# 3 34.7674 36.3088 79.9929 0.0000 -8.3486 0.0000
# 4 0.0000 0.0000 0.0000 32.8042 0.0000 6.0967
# 5 6.9036 -14.1086 -8.3486 0.0000 35.8345 0.0000
# 6 0.0000 0.0000 0.0000 6.0967 0.0000 24.7241
#
#
#
# Elastic Compliance Matrix: (Units=1/GPa)
#
#
# Indices 1 2 3 4 5 6 
#
# 1 0.009392 -0.003615 -0.002848 0.000000 -0.003896 0.000000
# 2 -0.003615 0.017108 -0.005554 0.000000 0.006138 0.000000
# 3 -0.002848 -0.005554 0.016490 0.000000 0.002204 0.000000
# 4 0.000000 0.000000 0.000000 0.031948 0.000000 -0.007878
# 5 -0.003896 0.006138 0.002204 0.000000 0.031587 0.000000
# 6 0.000000 0.000000 0.000000 -0.007878 0.000000 0.042389
#
#
# Mechanical properties :
#
#
# Convention : Reuss Voigt Hill
#
# Bulk Modulus (GPa) = 52.75059 57.08900 54.91979
# Shear Modulus (GPa) = 27.89142 31.27841 29.58492
#
# Velocity S-wave (km/s) = 3.54946 3.75880 3.65563
# Velocity P-wave (km/s) = 6.37384 6.68023 6.52883
#
# Compressibility (1/GPa) = 0.01895713
#
# Stress axis : x y z
#
# Youngs Moduli (GPa) = 106.47195 58.45053 60.64383
#
# Poissons Ratio (x) = 0.21130 0.17271
# Poissons Ratio (y) = 0.38490 0.33680
# Poissons Ratio (z) = 0.30322 0.32462
#
# Static dielectric constant tensor:
#      x y z
#    x 1.862890 0.000000 -0.020230 
#    y 0.000000 1.872270 0.000000 
#    z -0.020230 0.000000 1.909840 
# 
# From -- ./inp_files/20657.got.cif
#   From: 2010.05.17/outbox.cif.g08.bks.cpg/sg9_11_cif.got.tgz:20657.got - 2010.06.03 20:04:27.
