data_PCOD9135725
_publ_section_title
;
Structure prediction by ZEFSAII (Michael W. Deem and Ramdas Pophale) SiO2 
 PCOD9135725
Probable space group: C C
;
_chemical_formula_sum "Si O2"
_cell_formula_units_Z 32
_cell_length_a 7.291477
_cell_length_b 11.234553
_cell_length_c 17.163379
_cell_angle_alpha 90.000000
_cell_angle_beta 96.353709
_cell_angle_gamma 90.000000
_cell_volume 1397.327760
_symmetry_space_group_name_H-M "C C"
_symmetry_group_IT_number 9
_symmetry_cell_setting 'monoclinic'
loop_
_space_group_symop_operation_xyz
x,y,z
x,-y,1/2+z
1/2+x,1/2+y,z
1/2+x,1/2-y,1/2+z
loop_
_atom_site_type_symbol
_atom_site_label
_atom_site_fract_x
_atom_site_fract_y
_atom_site_fract_z
Si Si1 0.462680 0.108322 0.057360
Si Si2 0.568957 0.825771 0.811178
Si Si3 0.801276 0.567083 0.426341
Si Si4 0.948094 0.817733 0.160441
Si Si5 0.016826 0.109120 0.899780
Si Si6 0.210592 0.558568 0.768820
Si Si7 0.873852 0.610919 0.665863
Si Si8 0.354058 0.291760 0.539791
O O1 0.396438 0.239903 0.082259
O O2 0.415821 0.009386 0.120100
O O3 0.383943 0.046585 0.976431
O O4 0.680954 0.128692 0.056142
O O5 0.465423 0.778303 0.730494
O O6 0.635104 0.711958 0.863269
O O7 0.433687 0.894461 0.863335
O O8 0.714822 0.919141 0.786792
O O9 0.605236 0.518537 0.389878
O O10 0.788103 0.678988 0.483979
O O11 0.153603 0.873174 0.163545
O O12 0.808591 0.911663 0.191130
O O13 0.821583 0.117200 0.845283
O O14 0.987310 0.134955 0.989356
O O15 0.000112 0.601598 0.748212
O O16 0.936628 0.726743 0.619049
#
# Coordination Sequence:
#
# PCOD9135725 Si02
#       8
#     4   4   4   4   4   4   4   4
#     4  10  20  43  65  90 132 166 211 270 315 379
#     4  10  22  42  60  93 130 162 212 269 310 377
#     4  10  22  40  67  91 131 168 207 272 315 376
#     4  10  23  42  61  95 128 166 222 259 319 388
#     4  10  23  41  63  97 127 165 221 255 321 391
#     4  11  23  40  64  94 127 170 212 264 322 379
#     4  10  22  43  64  91 133 165 212 273 312 378
#     4   9  21  43  62  93 126 166 217 260 318 386
#
# _framework density 22.900853999999999
#
# number of rings (size 3 to 8) (size 9 to 14) (size 15 to 20)
#    0.000    2.000    1.250    0.750    5.250    1.000 
#   15.750    0.000    0.000    0.000    0.000    0.000 
#    0.000    0.000    0.000    0.000    0.000    0.000 
#
# Total GULP energy -89335.045103 kJ/mol
# GULP energy per Si atom -5583.440319 kJ/mol
# Density = 2.284873 g / cm^3
# Si number density = 22.900854 Si / 1000 Ang^3
#
#
#
# Elastic Constant Matrix: (Units=GPa)
#
#
# Indices 1 2 3 4 5 6 
#
# 1 65.3056 39.0523 19.2622 0.0000 1.9370 0.0000
# 2 39.0523 83.4268 28.4531 0.0000 -4.1314 0.0000
# 3 19.2622 28.4531 64.6012 0.0000 -4.6670 0.0000
# 4 0.0000 0.0000 0.0000 18.9202 0.0000 -2.7471
# 5 1.9370 -4.1314 -4.6670 0.0000 29.5800 0.0000
# 6 0.0000 0.0000 0.0000 -2.7471 0.0000 44.4949
#
#
#
# Elastic Compliance Matrix: (Units=1/GPa)
#
#
# Indices 1 2 3 4 5 6 
#
# 1 0.021848 -0.009513 -0.002553 0.000000 -0.003162 0.000000
# 2 -0.009513 0.018277 -0.005041 0.000000 0.002380 0.000000
# 3 -0.002553 -0.005041 0.018635 0.000000 0.002403 0.000000
# 4 0.000000 0.000000 0.000000 0.053332 0.000000 0.003293
# 5 -0.003162 0.002380 0.002403 0.000000 0.034725 0.000000
# 6 0.000000 0.000000 0.000000 0.003293 0.000000 0.022678
#
#
# Mechanical properties :
#
#
# Convention : Reuss Voigt Hill
#
# Bulk Modulus (GPa) = 40.74152 42.98544 41.86348
# Shear Modulus (GPa) = 23.59699 27.03676 25.31688
#
# Velocity S-wave (km/s) = 3.21346 3.43971 3.32851
# Velocity P-wave (km/s) = 5.62116 5.88103 5.75256
#
# Compressibility (1/GPa) = 0.02454498
#
# Stress axis : x y z
#
# Youngs Moduli (GPa) = 45.77035 54.71373 53.66275
#
# Poissons Ratio (x) = 0.52050 0.13700
# Poissons Ratio (y) = 0.43542 0.27054
# Poissons Ratio (z) = 0.11685 0.27584
#
# Static dielectric constant tensor:
#      x y z
#    x 1.915470 0.000000 0.029240 
#    y 0.000000 1.889110 0.000000 
#    z 0.029240 0.000000 1.885260 
# 
# From -- ./inp_files/32013.got.cif
#   From: 2010.05.17/outbox.cif.g08.bks.cpg/sg9_17_cif.got.tgz:32013.got - 2010.06.03 20:04:27.
