data_PCOD9135043
_publ_section_title
;
Structure prediction by ZEFSAII (Michael W. Deem and Ramdas Pophale) SiO2 
 PCOD9135043
Probable space group: C C
;
_chemical_formula_sum "Si O2"
_cell_formula_units_Z 32
_cell_length_a 18.520476
_cell_length_b 13.203251
_cell_length_c 11.320230
_cell_angle_alpha 90.000000
_cell_angle_beta 24.277549
_cell_angle_gamma 90.000000
_cell_volume 1138.141276
_symmetry_space_group_name_H-M "C C"
_symmetry_group_IT_number 9
_symmetry_cell_setting 'monoclinic'
loop_
_space_group_symop_operation_xyz
x,y,z
x,-y,1/2+z
1/2+x,1/2+y,z
1/2+x,1/2-y,1/2+z
loop_
_atom_site_type_symbol
_atom_site_label
_atom_site_fract_x
_atom_site_fract_y
_atom_site_fract_z
Si Si1 0.435110 0.180552 0.544120
Si Si2 0.539338 0.284555 0.713104
Si Si3 0.385746 0.231260 0.247413
Si Si4 0.187473 0.635589 0.652700
Si Si5 0.141252 0.548260 0.386606
Si Si6 0.995626 0.975488 0.926795
Si Si7 0.046900 0.153067 0.687115
Si Si8 0.840720 0.549568 0.485051
O O1 0.475643 0.278003 0.403023
O O2 0.437418 0.079602 0.459607
O O3 0.583603 0.157234 0.421049
O O4 0.233578 0.183670 0.884723
O O5 0.573754 0.170117 0.708148
O O6 0.490540 0.358595 0.897185
O O7 0.379053 0.310969 0.864881
O O8 0.231876 0.208018 0.384964
O O9 0.421909 0.335997 0.259908
O O10 0.321116 0.157578 0.449755
O O11 0.568693 0.188879 0.929827
O O12 0.199795 0.524185 0.689194
O O13 0.963464 0.510080 0.711947
O O14 0.304661 0.525225 0.231635
O O15 0.061828 0.040067 0.712904
O O16 0.152405 0.997817 0.783416
#
# Coordination Sequence:
#
# PCOD9135043 Si02
#       8
#     4   4   4   4   4   4   4   4
#     4  11  23  42  66  96 132 173 216 273 333 392
#     4  11  24  43  63  95 134 171 220 270 336 390
#     4   9  18  36  62  88 120 162 218 258 317 379
#     4  10  23  41  65  94 130 173 214 275 325 389
#     4  10  21  43  66  92 133 171 224 267 323 395
#     4  10  21  41  61  92 130 170 216 270 324 389
#     4  10  20  36  64  93 125 167 215 269 321 380
#     4   9  20  40  61  90 126 169 211 270 317 384
#
# _framework density 28.116019000000001
#
# number of rings (size 3 to 8) (size 9 to 14) (size 15 to 20)
#    0.000    2.000    1.250    1.500    0.000    6.000 
#    9.000    0.000    0.000    0.000    0.000    0.000 
#    0.000    0.000    0.000    0.000    0.000    0.000 
#
# Total GULP energy -89481.107410 kJ/mol
# GULP energy per Si atom -5592.569213 kJ/mol
# Density = 2.805203 g / cm^3
# Si number density = 28.116019 Si / 1000 Ang^3
#
#
#
# Elastic Constant Matrix: (Units=GPa)
#
#
# Indices 1 2 3 4 5 6 
#
# 1 78.0847 6.4033 12.8188 -0.0005 -32.6639 0.0002
# 2 6.4033 94.9438 27.8120 -0.0008 -6.3784 0.0004
# 3 12.8188 27.8120 168.8331 -0.0013 -31.4069 0.0008
# 4 -0.0005 -0.0008 -0.0013 45.7950 0.0006 -10.0614
# 5 -32.6639 -6.3784 -31.4069 0.0006 40.6048 -0.0003
# 6 0.0002 0.0004 0.0008 -10.0614 -0.0003 38.3540
#
#
#
# Elastic Compliance Matrix: (Units=1/GPa)
#
#
# Indices 1 2 3 4 5 6 
#
# 1 0.019755 -0.000709 0.001813 0.000000 0.017183 0.000000
# 2 -0.000709 0.011097 -0.001818 0.000000 -0.000233 0.000000
# 3 0.001813 -0.001818 0.007362 0.000000 0.006868 0.000000
# 4 0.000000 0.000000 0.000000 0.023172 0.000000 0.006079
# 5 0.017183 -0.000233 0.006868 0.000000 0.043725 0.000000
# 6 0.000000 0.000000 0.000000 0.006079 0.000000 0.027668
#
#
# Mechanical properties :
#
#
# Convention : Reuss Voigt Hill
#
# Bulk Modulus (GPa) = 27.18322 48.43665 37.80993
# Shear Modulus (GPa) = 34.13705 44.60592 39.37148
#
# Velocity S-wave (km/s) = 3.48824 3.98740 3.74615
# Velocity P-wave (km/s) = 5.09048 6.20194 5.67349
#
# Compressibility (1/GPa) = 0.03678740
#
# Stress axis : x y z
#
# Youngs Moduli (GPa) = 50.62057 90.11335 135.82708
#
# Poissons Ratio (x) = 0.06390 -0.24629
# Poissons Ratio (y) = 0.03590 0.24687
# Poissons Ratio (z) = -0.09179 0.16379
#
# Static dielectric constant tensor:
#      x y z
#    x 2.319630 0.000000 -0.039250 
#    y 0.000000 2.123680 0.000000 
#    z -0.039250 0.000000 2.161110 
# 
# From -- ./inp_files/27813.got.cif
#   From: 2010.05.17/outbox.cif.g08.bks.cpg/sg9_14_cif.got.tgz:27813.got - 2010.06.03 20:04:27.
