data_PCOD9135728
_publ_section_title
;
Structure prediction by ZEFSAII (Michael W. Deem and Ramdas Pophale) SiO2 
 PCOD9135728
Probable space group: C C
;
_chemical_formula_sum "Si O2"
_cell_formula_units_Z 28
_cell_length_a 22.675024
_cell_length_b 8.131393
_cell_length_c 11.583583
_cell_angle_alpha 90.000000
_cell_angle_beta 32.060955
_cell_angle_gamma 90.000000
_cell_volume 1133.714913
_symmetry_space_group_name_H-M "C C"
_symmetry_group_IT_number 9
_symmetry_cell_setting 'monoclinic'
loop_
_space_group_symop_operation_xyz
x,y,z
x,-y,1/2+z
1/2+x,1/2+y,z
1/2+x,1/2-y,1/2+z
loop_
_atom_site_type_symbol
_atom_site_label
_atom_site_fract_x
_atom_site_fract_y
_atom_site_fract_z
Si Si1 0.426830 0.048156 0.957640
Si Si2 0.078738 0.879742 0.680146
Si Si3 0.740408 0.336823 0.203071
Si Si4 0.258998 0.298541 0.022223
Si Si5 0.274625 0.278614 0.268972
Si Si6 0.126840 0.363657 0.694318
Si Si7 0.895950 0.101797 0.095075
O O1 0.498487 0.907546 0.899890
O O2 0.504169 0.206893 0.796346
O O3 0.343245 0.960296 0.006011
O O4 0.337512 0.113980 0.197826
O O5 0.145424 0.902400 0.449257
O O6 0.174661 0.838781 0.614176
O O7 0.005663 0.036039 0.844755
O O8 0.674688 0.265841 0.204113
O O9 0.805847 0.188712 0.160319
O O10 0.277900 0.287409 0.126440
O O11 0.188811 0.466310 0.120422
O O12 0.371954 0.310976 0.758971
O O13 0.155707 0.307454 0.517391
O O14 0.347440 0.421176 0.202262
#
# Coordination Sequence:
#
# PCOD9135728 Si02
#       7
#     4   4   4   4   4   4   4
#     4  10  24  43  65  98 132 176 219 271 338 389
#     4   9  21  43  67  97 132 173 221 275 336 394
#     4  11  22  44  67  97 134 172 224 274 329 404
#     4   9  18  39  69  92 130 175 218 277 329 395
#     4  10  20  43  65  97 135 170 224 275 327 403
#     4  10  22  42  68  97 135 178 219 274 338 401
#     4   9  19  40  67  94 126 174 221 270 337 392
#
# _framework density 24.697565000000001
#
# number of rings (size 3 to 8) (size 9 to 14) (size 15 to 20)
#    0.000    2.286    1.429    0.857    0.000    2.286 
#   25.714    0.000    0.000    0.000    0.000    0.000 
#    0.000    0.000    0.000    0.000    0.000    0.000 
#
# Total GULP energy -78041.051285 kJ/mol
# GULP energy per Si atom -5574.360806 kJ/mol
# Density = 2.464135 g / cm^3
# Si number density = 24.697565 Si / 1000 Ang^3
#
#
#
# Elastic Constant Matrix: (Units=GPa)
#
#
# Indices 1 2 3 4 5 6 
#
# 1 104.9852 24.7311 62.0814 0.0000 2.7007 0.0000
# 2 24.7311 73.0664 64.0611 0.0000 -6.9112 0.0000
# 3 62.0814 64.0611 149.1756 0.0000 -1.9578 0.0000
# 4 0.0000 0.0000 0.0000 52.7911 0.0000 -19.3417
# 5 2.7007 -6.9112 -1.9578 0.0000 36.8856 0.0000
# 6 0.0000 0.0000 0.0000 -19.3417 0.0000 30.0599
#
#
#
# Elastic Compliance Matrix: (Units=1/GPa)
#
#
# Indices 1 2 3 4 5 6 
#
# 1 0.012695 0.000385 -0.005463 0.000000 -0.001147 0.000000
# 2 0.000385 0.022455 -0.009755 0.000000 0.003661 0.000000
# 3 -0.005463 -0.009755 0.013157 0.000000 -0.000729 0.000000
# 4 0.000000 0.000000 0.000000 0.024786 0.000000 0.015948
# 5 -0.001147 0.003661 -0.000729 0.000000 0.027842 0.000000
# 6 0.000000 0.000000 0.000000 0.015948 0.000000 0.043529
#
#
# Mechanical properties :
#
#
# Convention : Reuss Voigt Hill
#
# Bulk Modulus (GPa) = 53.65068 69.88604 61.76836
# Shear Modulus (GPa) = 27.72494 35.70424 31.71459
#
# Velocity S-wave (km/s) = 3.35412 3.80631 3.58735
# Velocity P-wave (km/s) = 6.06386 6.90474 6.49792
#
# Compressibility (1/GPa) = 0.01863909
#
# Stress axis : x y z
#
# Youngs Moduli (GPa) = 78.77311 44.53346 76.00715
#
# Poissons Ratio (x) = -0.01713 0.41525
# Poissons Ratio (y) = -0.03030 0.74145
# Poissons Ratio (z) = 0.43036 0.43442
#
# Static dielectric constant tensor:
#      x y z
#    x 1.933580 0.000000 -0.036200 
#    y 0.000000 2.084230 0.000000 
#    z -0.036200 0.000000 2.026610 
# 
# From -- ./inp_files/20800.got.cif
#   From: 2010.05.17/outbox.cif.g08.bks.cpg/sg9_11_cif.got.tgz:20800.got - 2010.06.03 20:04:27.
