data_PCOD9135865
_publ_section_title
;
Structure prediction by ZEFSAII (Michael W. Deem and Ramdas Pophale) SiO2 
 PCOD9135865
Probable space group: C C
;
_chemical_formula_sum "Si O2"
_cell_formula_units_Z 32
_cell_length_a 16.110490
_cell_length_b 9.245918
_cell_length_c 18.863262
_cell_angle_alpha 90.000000
_cell_angle_beta 148.980129
_cell_angle_gamma 90.000000
_cell_volume 1447.989774
_symmetry_space_group_name_H-M "C C"
_symmetry_group_IT_number 9
_symmetry_cell_setting 'monoclinic'
loop_
_space_group_symop_operation_xyz
x,y,z
x,-y,1/2+z
1/2+x,1/2+y,z
1/2+x,1/2-y,1/2+z
loop_
_atom_site_type_symbol
_atom_site_label
_atom_site_fract_x
_atom_site_fract_y
_atom_site_fract_z
Si Si1 0.046750 0.049828 0.635490
Si Si2 0.576971 0.126010 0.000153
Si Si3 0.789215 0.427627 0.043378
Si Si4 0.073412 0.810789 0.772012
Si Si5 0.983147 0.623095 0.081797
Si Si6 0.184549 0.386620 0.164450
Si Si7 0.387659 0.670475 0.930030
Si Si8 0.791374 0.404914 0.195143
O O1 0.201904 0.032366 0.698113
O O2 0.025985 0.217535 0.638158
O O3 0.040449 0.950632 0.699710
O O4 0.913434 0.984747 0.484720
O O5 0.473340 0.120681 0.853629
O O6 0.449350 0.136845 0.972655
O O7 0.696842 0.258147 0.103397
O O8 0.676247 0.978451 0.086426
O O9 0.852734 0.544574 0.033865
O O10 0.773008 0.495335 0.109754
O O11 0.926544 0.302263 0.155120
O O12 0.629183 0.360290 0.891118
O O13 0.235284 0.742986 0.856671
O O14 0.129542 0.509092 0.181798
O O15 0.349187 0.331596 0.318163
O O16 0.045038 0.267256 0.060531
#
# Coordination Sequence:
#
# PCOD9135865 Si02
#       8
#     4   4   4   4   4   4   4   4
#     4  11  23  37  72  89 126 164 223 259 316 378
#     4   9  21  40  60  94 122 165 215 257 300 386
#     4  12  23  40  65  93 132 163 212 264 318 373
#     4  12  20  41  65  94 119 174 217 253 303 392
#     4   9  20  37  62  93 120 162 207 266 300 376
#     4  10  21  35  63  91 124 155 225 259 303 370
#     4  12  19  37  63  99 114 169 217 268 304 372
#     4  11  23  39  64  95 129 168 202 268 324 373
#
# _framework density 22.099603999999999
#
# number of rings (size 3 to 8) (size 9 to 14) (size 15 to 20)
#    0.750    0.500    5.000    2.250    3.500    1.000 
#    0.000    0.000    8.250    0.000    0.000    0.000 
#    0.000    0.000    0.000    0.000    0.000    0.000 
#
# Total GULP energy -89210.288997 kJ/mol
# GULP energy per Si atom -5575.643062 kJ/mol
# Density = 2.204930 g / cm^3
# Si number density = 22.099604 Si / 1000 Ang^3
#
#
#
# Elastic Constant Matrix: (Units=GPa)
#
#
# Indices 1 2 3 4 5 6 
#
# 1 48.0206 7.2416 12.4657 0.0000 -12.2500 0.0000
# 2 7.2416 87.1113 24.3940 0.0000 8.5827 0.0000
# 3 12.4657 24.3940 149.7486 0.0000 -27.8610 0.0000
# 4 0.0000 0.0000 0.0000 1.0270 0.0000 1.4811
# 5 -12.2500 8.5827 -27.8610 0.0000 21.3922 0.0000
# 6 0.0000 0.0000 0.0000 1.4811 0.0000 23.0991
#
#
#
# Elastic Compliance Matrix: (Units=1/GPa)
#
#
# Indices 1 2 3 4 5 6 
#
# 1 0.025989 -0.004749 0.002288 0.000000 0.019767 0.000000
# 2 -0.004749 0.014658 -0.004741 0.000000 -0.014775 0.000000
# 3 0.002288 -0.004741 0.010370 0.000000 0.016719 0.000000
# 4 0.000000 0.000000 0.000000 1.072936 -0.000001 -0.068795
# 5 0.019767 -0.014775 0.016719 -0.000001 0.085768 0.000000
# 6 0.000000 0.000000 0.000000 -0.068795 0.000000 0.047703
#
#
# Mechanical properties :
#
#
# Convention : Reuss Voigt Hill
#
# Bulk Modulus (GPa) = 27.31290 41.45368 34.38329
# Shear Modulus (GPa) = 3.89398 25.15560 14.52479
#
# Velocity S-wave (km/s) = 1.32885 3.37751 2.56645
# Velocity P-wave (km/s) = 3.83931 5.83167 4.93704
#
# Compressibility (1/GPa) = 0.03661274
#
# Stress axis : x y z
#
# Youngs Moduli (GPa) = 38.47748 68.22291 96.42914
#
# Poissons Ratio (x) = 0.32398 -0.22062
# Poissons Ratio (y) = 0.18272 0.45721
# Poissons Ratio (z) = -0.08803 0.32347
#
# Static dielectric constant tensor:
#      x y z
#    x 1.879220 0.000000 -0.013550 
#    y 0.000000 1.847850 0.000000 
#    z -0.013550 0.000000 1.872190 
# 
# From -- ./inp_files/34066.got.cif
#   From: 2010.05.17/outbox.cif.g08.bks.cpg/sg9_18_cif.got.tgz:34066.got - 2010.06.03 20:04:27.
