data_PCOD9135191
_publ_section_title
;
Structure prediction by ZEFSAII (Michael W. Deem and Ramdas Pophale) SiO2 
 PCOD9135191
Probable space group: C C
;
_chemical_formula_sum "Si O2"
_cell_formula_units_Z 32
_cell_length_a 11.835409
_cell_length_b 24.754006
_cell_length_c 8.519620
_cell_angle_alpha 90.000000
_cell_angle_beta 34.437805
_cell_angle_gamma 90.000000
_cell_volume 1411.530545
_symmetry_space_group_name_H-M "C C"
_symmetry_group_IT_number 9
_symmetry_cell_setting 'monoclinic'
loop_
_space_group_symop_operation_xyz
x,y,z
x,-y,1/2+z
1/2+x,1/2+y,z
1/2+x,1/2-y,1/2+z
loop_
_atom_site_type_symbol
_atom_site_label
_atom_site_fract_x
_atom_site_fract_y
_atom_site_fract_z
Si Si1 0.063800 0.436538 0.260600
Si Si2 0.580590 0.395684 0.221819
Si Si3 0.351527 0.353936 0.066208
Si Si4 0.021570 0.716703 0.419304
Si Si5 0.289050 0.530079 0.192146
Si Si6 0.392480 0.704580 0.824074
Si Si7 0.140654 0.829063 0.448549
Si Si8 0.632122 0.550847 0.372263
O O1 0.158640 0.484613 0.256720
O O2 0.825655 0.443825 0.541094
O O3 0.146643 0.380170 0.237695
O O4 0.163599 0.444025 0.976168
O O5 0.368214 0.426148 0.477462
O O6 0.571218 0.337039 0.150468
O O7 0.634197 0.379477 0.336997
O O8 0.704473 0.435058 0.966679
O O9 0.496601 0.337517 0.758482
O O10 0.473200 0.402714 0.009006
O O11 0.329770 0.305717 0.217399
O O12 0.940180 0.736751 0.340873
O O13 0.068651 0.772937 0.451202
O O14 0.875207 0.683026 0.696256
O O15 0.219777 0.686034 0.143085
O O16 0.497487 0.502715 0.014586
#
# Coordination Sequence:
#
# PCOD9135191 Si02
#       8
#     4   4   4   4   4   4   4   4
#     4  11  24  39  61  89 121 160 198 239 301 341
#     4  10  20  39  59  80 121 152 192 248 285 347
#     4  10  22  40  59  90 124 150 197 249 282 356
#     4   9  20  38  60  85 113 154 195 238 303 357
#     4  11  22  41  58  86 125 154 197 248 282 353
#     4   9  20  38  59  84 115 151 193 241 297 353
#     4  10  20  38  60  86 117 150 195 245 294 350
#     4  10  24  41  58  88 122 159 197 240 298 347
#
# _framework density 22.670428000000001
#
# number of rings (size 3 to 8) (size 9 to 14) (size 15 to 20)
#    0.000    2.000    2.500    0.000    3.500    2.000 
#    4.500    0.000    0.000    0.000    0.000    0.000 
#    0.000    0.000    0.000    0.000    0.000    0.000 
#
# Total GULP energy -89187.677877 kJ/mol
# GULP energy per Si atom -5574.229867 kJ/mol
# Density = 2.261883 g / cm^3
# Si number density = 22.670428 Si / 1000 Ang^3
#
#
#
# Elastic Constant Matrix: (Units=GPa)
#
#
# Indices 1 2 3 4 5 6 
#
# 1 17.2573 1.1142 4.2837 0.0000 4.9647 0.0000
# 2 1.1142 51.9479 1.6887 0.0000 2.6039 0.0000
# 3 4.2837 1.6887 109.9712 0.0000 4.0225 0.0000
# 4 0.0000 0.0000 0.0000 30.6977 0.0000 6.3358
# 5 4.9647 2.6039 4.0225 0.0000 39.7725 0.0000
# 6 0.0000 0.0000 0.0000 6.3358 0.0000 18.2253
#
#
#
# Elastic Compliance Matrix: (Units=1/GPa)
#
#
# Indices 1 2 3 4 5 6 
#
# 1 0.060619 -0.000867 -0.002081 0.000000 -0.007300 0.000000
# 2 -0.000867 0.019333 -0.000222 0.000000 -0.001135 0.000000
# 3 -0.002081 -0.000222 0.009202 0.000000 -0.000656 0.000000
# 4 0.000000 0.000000 0.000000 0.035094 0.000000 -0.012200
# 5 -0.007300 -0.001135 -0.000656 0.000000 0.026195 0.000000
# 6 0.000000 0.000000 0.000000 -0.012200 0.000000 0.059110
#
#
# Mechanical properties :
#
#
# Convention : Reuss Voigt Hill
#
# Bulk Modulus (GPa) = 12.07508 21.48328 16.77918
# Shear Modulus (GPa) = 20.53427 29.21177 24.87302
#
# Velocity S-wave (km/s) = 3.01287 3.59352 3.31593
# Velocity P-wave (km/s) = 4.17626 5.16863 4.69872
#
# Compressibility (1/GPa) = 0.08281517
#
# Stress axis : x y z
#
# Youngs Moduli (GPa) = 16.49650 51.72572 108.67483
#
# Poissons Ratio (x) = 0.04482 0.22615
# Poissons Ratio (y) = 0.01430 0.02408
# Poissons Ratio (z) = 0.03433 0.01146
#
# Static dielectric constant tensor:
#      x y z
#    x 1.983520 0.000000 -0.010750 
#    y 0.000000 1.876330 0.000000 
#    z -0.010750 0.000000 1.824980 
# 
# From -- ./inp_files/6096.got.cif
#   From: 2010.05.17/outbox.cif.g08.bks.cpg/sg9_4_cif.got.tgz:6096.got - 2010.06.03 20:04:27.
