data_PCOD9135768
_publ_section_title
;
Structure prediction by ZEFSAII (Michael W. Deem and Ramdas Pophale) SiO2 
 PCOD9135768
Probable space group: C C
;
_chemical_formula_sum "Si O2"
_cell_formula_units_Z 28
_cell_length_a 20.996640
_cell_length_b 14.119015
_cell_length_c 11.857495
_cell_angle_alpha 90.000000
_cell_angle_beta 160.625346
_cell_angle_gamma 90.000000
_cell_volume 1166.138210
_symmetry_space_group_name_H-M "C C"
_symmetry_group_IT_number 9
_symmetry_cell_setting 'monoclinic'
loop_
_space_group_symop_operation_xyz
x,y,z
x,-y,1/2+z
1/2+x,1/2+y,z
1/2+x,1/2-y,1/2+z
loop_
_atom_site_type_symbol
_atom_site_label
_atom_site_fract_x
_atom_site_fract_y
_atom_site_fract_z
Si Si1 0.002010 0.155212 0.463050
Si Si2 0.137733 0.045089 0.293543
Si Si3 0.790707 0.786828 0.818093
Si Si4 0.157152 0.377654 0.214370
Si Si5 0.543312 0.672317 0.951086
Si Si6 0.824865 0.470559 0.800709
Si Si7 0.553244 0.032205 0.883878
O O1 0.163903 0.201008 0.653500
O O2 0.944464 0.224248 0.472819
O O3 0.070159 0.056483 0.632599
O O4 0.821309 0.134410 0.080859
O O5 0.361902 0.057368 0.634177
O O6 0.168387 0.036115 0.478179
O O7 0.013118 0.125999 0.024734
O O8 0.657457 0.868598 0.542212
O O9 0.881582 0.827309 0.085591
O O10 0.118470 0.277980 0.091403
O O11 0.190058 0.460502 0.178716
O O12 0.957566 0.410498 0.938118
O O13 0.705261 0.605288 0.170410
O O14 0.974846 0.515808 0.138734
#
# Coordination Sequence:
#
# PCOD9135768 Si02
#       7
#     4   4   4   4   4   4   4
#     4  12  25  48  75 109 150 192 246 304 365 441
#     4  10  22  45  70 101 144 187 238 298 361 434
#     4  12  25  48  75 109 150 192 246 304 365 441
#     4  11  24  45  70 104 147 188 245 296 372 435
#     4  11  24  45  70 104 147 188 245 296 372 435
#     4  10  20  44  68 104 140 186 240 298 358 444
#     4  10  22  45  70 101 144 187 238 298 361 434
#
# _framework density 24.010876
#
# number of rings (size 3 to 8) (size 9 to 14) (size 15 to 20)
#    0.000    1.143    2.857    4.286    0.000    0.000 
#   25.714    0.000    0.000    0.000    0.000    0.000 
#    0.000    0.000    0.000    0.000    0.000    0.000 
#
# Total GULP energy -78235.228612 kJ/mol
# GULP energy per Si atom -5588.230615 kJ/mol
# Density = 2.395623 g / cm^3
# Si number density = 24.010876 Si / 1000 Ang^3
#
#
#
# Elastic Constant Matrix: (Units=GPa)
#
#
# Indices 1 2 3 4 5 6 
#
# 1 58.6184 28.9655 12.9480 0.0000 -14.6441 0.0000
# 2 28.9655 57.2255 12.2846 0.0000 -12.2535 0.0000
# 3 12.9480 12.2846 100.8250 0.0000 -33.6828 0.0000
# 4 0.0000 0.0000 0.0000 31.5903 0.0000 -4.0579
# 5 -14.6441 -12.2535 -33.6828 0.0000 49.6445 0.0000
# 6 0.0000 0.0000 0.0000 -4.0579 0.0000 41.0146
#
#
#
# Elastic Compliance Matrix: (Units=1/GPa)
#
#
# Indices 1 2 3 4 5 6 
#
# 1 0.023571 -0.010999 -0.000350 0.000000 0.004000 0.000000
# 2 -0.010999 0.023651 -0.000780 0.000000 0.002064 0.000000
# 3 -0.000350 -0.000780 0.012878 0.000000 0.008442 0.000000
# 4 0.000000 0.000000 0.000000 0.032063 0.000000 0.003172
# 5 0.004000 0.002064 0.008442 0.000000 0.027560 0.000000
# 6 0.000000 0.000000 0.000000 0.003172 0.000000 0.024695
#
#
# Mechanical properties :
#
#
# Convention : Reuss Voigt Hill
#
# Bulk Modulus (GPa) = 27.89954 36.11833 32.00894
# Shear Modulus (GPa) = 27.68154 35.28128 31.48141
#
# Velocity S-wave (km/s) = 3.39908 3.83742 3.62488
# Velocity P-wave (km/s) = 5.20094 5.89148 5.55695
#
# Compressibility (1/GPa) = 0.03584289
#
# Stress axis : x y z
#
# Youngs Moduli (GPa) = 42.42434 42.28065 77.64950
#
# Poissons Ratio (x) = 0.46505 0.02722
# Poissons Ratio (y) = 0.46663 0.06053
# Poissons Ratio (z) = 0.01487 0.03296
#
# Static dielectric constant tensor:
#      x y z
#    x 2.091680 0.000000 -0.046590 
#    y 0.000000 1.881260 0.000000 
#    z -0.046590 0.000000 1.933730 
# 
# From -- ./inp_files/14496.got.cif
#   From: 2010.05.17/outbox.cif.g08.bks.cpg/sg9_8_cif.got.tgz:14496.got - 2010.06.03 20:04:27.
