data_PCOD9135366
_publ_section_title
;
Structure prediction by ZEFSAII (Michael W. Deem and Ramdas Pophale) SiO2 
 PCOD9135366
Probable space group: C C
;
_chemical_formula_sum "Si O2"
_cell_formula_units_Z 28
_cell_length_a 16.348036
_cell_length_b 7.767625
_cell_length_c 9.746489
_cell_angle_alpha 90.000000
_cell_angle_beta 104.694989
_cell_angle_gamma 90.000000
_cell_volume 1197.177939
_symmetry_space_group_name_H-M "C C"
_symmetry_group_IT_number 9
_symmetry_cell_setting 'monoclinic'
loop_
_space_group_symop_operation_xyz
x,y,z
x,-y,1/2+z
1/2+x,1/2+y,z
1/2+x,1/2-y,1/2+z
loop_
_atom_site_type_symbol
_atom_site_label
_atom_site_fract_x
_atom_site_fract_y
_atom_site_fract_z
Si Si1 0.154990 0.412513 0.448530
Si Si2 0.932172 0.872869 0.792794
Si Si3 0.200757 0.046734 0.553145
Si Si4 0.840292 0.021193 0.519367
Si Si5 0.613678 0.391905 0.757668
Si Si6 0.475868 0.991638 0.455765
Si Si7 0.881190 0.616004 0.176504
O O1 0.179016 0.249763 0.557291
O O2 0.239964 0.514757 0.458515
O O3 0.127522 0.309096 0.299096
O O4 0.075446 0.512732 0.474575
O O5 0.951910 0.689977 0.871529
O O6 0.021615 0.941119 0.773851
O O7 0.871790 0.871729 0.634783
O O8 0.887717 0.978738 0.894971
O O9 0.183679 0.015935 0.384465
O O10 0.421081 0.123713 0.343961
O O11 0.292904 0.986567 0.636344
O O12 0.863665 0.196485 0.607978
O O13 0.632152 0.444357 0.612439
O O14 0.446603 0.974948 0.599339
#
# Coordination Sequence:
#
# PCOD9135366 Si02
#       7
#     4   4   4   4   4   4   4
#     4   9  23  43  65  92 136 166 210 274 324 370
#     4  10  22  41  66  90 131 168 214 266 322 382
#     4  10  20  39  67  91 126 172 215 258 321 384
#     4  11  24  40  66  98 129 169 217 268 324 383
#     4   9  20  38  67  91 124 170 212 261 315 380
#     4  10  23  46  62  92 131 172 212 269 323 381
#     4  11  24  41  67  94 127 173 220 260 327 388
#
# _framework density 23.388337
#
# number of rings (size 3 to 8) (size 9 to 14) (size 15 to 20)
#    0.857    1.143    0.000    2.571    4.000    3.429 
#    5.143    0.000    0.000    0.000    0.000    0.000 
#    0.000    0.000    0.000    0.000    0.000    0.000 
#
# Total GULP energy -78256.026635 kJ/mol
# GULP energy per Si atom -5589.716188 kJ/mol
# Density = 2.333510 g / cm^3
# Si number density = 23.388337 Si / 1000 Ang^3
#
#
#
# Elastic Constant Matrix: (Units=GPa)
#
#
# Indices 1 2 3 4 5 6 
#
# 1 100.0276 20.5120 11.1143 0.0000 19.8483 0.0000
# 2 20.5120 50.8926 9.7325 0.0000 -2.3819 0.0000
# 3 11.1143 9.7325 63.5893 0.0000 -9.5837 0.0000
# 4 0.0000 0.0000 0.0000 26.9023 0.0000 0.8862
# 5 19.8483 -2.3819 -9.5837 0.0000 31.1234 0.0000
# 6 0.0000 0.0000 0.0000 0.8862 0.0000 24.5609
#
#
#
# Elastic Compliance Matrix: (Units=1/GPa)
#
#
# Indices 1 2 3 4 5 6 
#
# 1 0.013370 -0.005273 -0.003016 0.000000 -0.009858 0.000000
# 2 -0.005273 0.022333 -0.001816 0.000000 0.004513 0.000000
# 3 -0.003016 -0.001816 0.017617 0.000000 0.007209 0.000000
# 4 0.000000 0.000000 0.000000 0.037216 0.000000 -0.001343
# 5 -0.009858 0.004513 0.007209 0.000000 0.040982 0.000000
# 6 0.000000 0.000000 0.000000 -0.001343 0.000000 0.040764
#
#
# Mechanical properties :
#
#
# Convention : Reuss Voigt Hill
#
# Bulk Modulus (GPa) = 30.20225 33.02522 31.61374
# Shear Modulus (GPa) = 24.56647 28.06069 26.31358
#
# Velocity S-wave (km/s) = 3.24446 3.46753 3.35785
# Velocity P-wave (km/s) = 5.19392 5.49388 5.34600
#
# Compressibility (1/GPa) = 0.03311011
#
# Stress axis : x y z
#
# Youngs Moduli (GPa) = 74.79500 44.77645 56.76193
#
# Poissons Ratio (x) = 0.23612 0.17117
# Poissons Ratio (y) = 0.39442 0.10310
# Poissons Ratio (z) = 0.22555 0.08133
#
# Static dielectric constant tensor:
#      x y z
#    x 1.837600 0.000000 0.036140 
#    y 0.000000 1.930030 0.000000 
#    z 0.036140 0.000000 1.858690 
# 
# From -- ./inp_files/16246.got.cif
#   From: 2010.05.17/outbox.cif.g08.bks.cpg/sg9_9_cif.got.tgz:16246.got - 2010.06.03 20:04:27.
