data_PCOD9135992
_publ_section_title
;
Structure prediction by ZEFSAII (Michael W. Deem and Ramdas Pophale) SiO2 
 PCOD9135992
Probable space group: C C
;
_chemical_formula_sum "Si O2"
_cell_formula_units_Z 28
_cell_length_a 4.981728
_cell_length_b 23.841466
_cell_length_c 9.845598
_cell_angle_alpha 90.000000
_cell_angle_beta 78.055387
_cell_angle_gamma 90.000000
_cell_volume 1144.059169
_symmetry_space_group_name_H-M "C C"
_symmetry_group_IT_number 9
_symmetry_cell_setting 'monoclinic'
loop_
_space_group_symop_operation_xyz
x,y,z
x,-y,1/2+z
1/2+x,1/2+y,z
1/2+x,1/2-y,1/2+z
loop_
_atom_site_type_symbol
_atom_site_label
_atom_site_fract_x
_atom_site_fract_y
_atom_site_fract_z
Si Si1 0.130940 0.428335 0.078890
Si Si2 0.068267 0.688405 0.662801
Si Si3 0.496933 0.164255 0.085454
Si Si4 0.360169 0.042108 0.098968
Si Si5 0.140632 0.782686 0.004451
Si Si6 0.419734 0.304209 0.750712
Si Si7 0.204370 0.047310 0.414366
O O1 0.037874 0.377817 0.185607
O O2 0.052210 0.491028 0.132171
O O3 0.450863 0.425664 0.019439
O O4 0.977712 0.425439 0.949028
O O5 0.934878 0.698808 0.527439
O O6 0.897470 0.736338 0.756182
O O7 0.388348 0.704733 0.634564
O O8 0.512453 0.099365 0.044852
O O9 0.649605 0.170456 0.214437
O O10 0.174610 0.179023 0.126697
O O11 0.639671 0.214940 0.988145
O O12 0.181511 0.052333 0.254660
O O13 0.219125 0.015544 0.979708
O O14 0.038714 0.816347 0.885056
#
# Coordination Sequence:
#
# PCOD9135992 Si02
#       7
#     4   4   4   4   4   4   4
#     4  10  24  41  65  92 123 173 209 276 310 394
#     4  10  21  39  58  89 120 157 214 251 315 377
#     4  10  23  38  62  90 125 161 209 260 317 385
#     4  10  26  42  66  97 130 173 215 270 325 388
#     4  10  21  38  59  90 120 163 204 262 313 379
#     4  10  22  36  61  87 123 162 205 255 321 378
#     4  10  25  40  65  95 129 165 224 252 335 373
#
# _framework density 24.474259
#
# number of rings (size 3 to 8) (size 9 to 14) (size 15 to 20)
#    0.857    1.143    0.000    1.714   10.000    1.143 
#    0.000    0.000    0.000    0.000    0.000    0.000 
#    0.000    0.000    0.000    0.000    0.000    0.000 
#
# Total GULP energy -78020.247772 kJ/mol
# GULP energy per Si atom -5572.874841 kJ/mol
# Density = 2.441855 g / cm^3
# Si number density = 24.474259 Si / 1000 Ang^3
#
#
#
# Elastic Constant Matrix: (Units=GPa)
#
#
# Indices 1 2 3 4 5 6 
#
# 1 98.8422 9.4688 1.1447 0.0000 23.6890 0.0000
# 2 9.4688 187.9706 -8.8349 0.0000 -4.1087 0.0000
# 3 1.1447 -8.8349 37.7365 0.0000 11.3651 0.0000
# 4 0.0000 0.0000 0.0000 20.5113 0.0000 -0.4934
# 5 23.6890 -4.1087 11.3651 0.0000 21.8223 0.0000
# 6 0.0000 0.0000 0.0000 -0.4934 0.0000 16.7238
#
#
#
# Elastic Compliance Matrix: (Units=1/GPa)
#
#
# Indices 1 2 3 4 5 6 
#
# 1 0.014605 -0.000910 0.004946 0.000000 -0.018602 0.000000
# 2 -0.000910 0.005439 0.000824 0.000000 0.001582 0.000000
# 3 0.004946 0.000824 0.033343 0.000000 -0.022579 0.000000
# 4 0.000000 0.000000 0.000000 0.048788 0.000000 0.001439
# 5 -0.018602 0.001582 -0.022579 0.000000 0.078075 0.000000
# 6 0.000000 0.000000 0.000000 0.001439 0.000000 0.059837
#
#
# Mechanical properties :
#
#
# Convention : Reuss Voigt Hill
#
# Bulk Modulus (GPa) = 15.84565 36.45631 26.15098
# Shear Modulus (GPa) = 19.88846 33.32955 26.60900
#
# Velocity S-wave (km/s) = 2.85376 3.69429 3.30089
# Velocity P-wave (km/s) = 4.16498 5.75544 5.02355
#
# Compressibility (1/GPa) = 0.06310881
#
# Stress axis : x y z
#
# Youngs Moduli (GPa) = 68.46863 183.85223 29.99162
#
# Poissons Ratio (x) = 0.16728 -0.14835
# Poissons Ratio (y) = 0.06230 -0.02473
# Poissons Ratio (z) = -0.33867 -0.15158
#
# Static dielectric constant tensor:
#      x y z
#    x 1.874490 0.000000 -0.008750 
#    y 0.000000 2.018670 0.000000 
#    z -0.008750 0.000000 2.068430 
# 
# From -- ./inp_files/13444.got.cif
#   From: 2010.05.17/outbox.cif.g08.bks.cpg/sg9_7_cif.got.tgz:13444.got - 2010.06.03 20:04:27.
