data_PCOD9135812
_publ_section_title
;
Structure prediction by ZEFSAII (Michael W. Deem and Ramdas Pophale) SiO2 
 PCOD9135812
Probable space group: C C
;
_chemical_formula_sum "Si O2"
_cell_formula_units_Z 20
_cell_length_a 18.463430
_cell_length_b 6.916755
_cell_length_c 14.070694
_cell_angle_alpha 90.000000
_cell_angle_beta 22.090370
_cell_angle_gamma 90.000000
_cell_volume 675.767482
_symmetry_space_group_name_H-M "C C"
_symmetry_group_IT_number 9
_symmetry_cell_setting 'monoclinic'
loop_
_space_group_symop_operation_xyz
x,y,z
x,-y,1/2+z
1/2+x,1/2+y,z
1/2+x,1/2-y,1/2+z
loop_
_atom_site_type_symbol
_atom_site_label
_atom_site_fract_x
_atom_site_fract_y
_atom_site_fract_z
Si Si1 0.583520 0.405059 0.483180
Si Si2 0.260510 0.849705 0.455145
Si Si3 0.814016 0.743826 0.199404
Si Si4 0.663998 0.055252 0.262276
Si Si5 0.613308 0.042673 0.124212
O O1 0.385002 0.290868 0.733960
O O2 0.619982 0.447978 0.551457
O O3 0.630273 0.611573 0.383192
O O4 0.695819 0.241225 0.290374
O O5 0.157159 0.666231 0.627031
O O6 0.407124 0.986020 0.330885
O O7 0.830257 0.908624 0.098622
O O8 0.734172 0.854494 0.392221
O O9 0.965908 0.566256 0.026521
O O10 0.640715 0.156984 0.187615
#
# Coordination Sequence:
#
# PCOD9135812 Si02
#       5
#     4   4   4   4   4
#     4  11  22  45  69 103 150 187 242 311 363 441
#     4  10  20  45  70  98 145 189 241 305 366 433
#     4  12  24  47  77 103 155 201 243 312 383 445
#     4  12  26  47  72 115 147 195 257 305 379 452
#     4  11  24  46  76 111 145 202 249 309 381 449
#
# _framework density 29.595980999999998
#
# number of rings (size 3 to 8) (size 9 to 14) (size 15 to 20)
#    0.000    0.800    6.000    2.400    0.000    0.000 
#   18.000    0.000    0.000    0.000    0.000    0.000 
#    0.000    0.000    0.000    0.000    0.000    0.000 
#
# Total GULP energy -55681.595551 kJ/mol
# GULP energy per Si atom -5568.159555 kJ/mol
# Density = 2.952862 g / cm^3
# Si number density = 29.595981 Si / 1000 Ang^3
#
#
#
# Elastic Constant Matrix: (Units=GPa)
#
#
# Indices 1 2 3 4 5 6 
#
# 1 223.6741 31.0374 23.9730 -0.0002 13.1991 0.0001
# 2 31.0374 174.9043 29.9827 0.0002 12.2564 0.0010
# 3 23.9730 29.9827 47.2158 -0.0007 15.1183 -0.0002
# 4 -0.0002 0.0002 -0.0007 -56.7172 0.0003 -110.6999
# 5 13.1991 12.2564 15.1183 0.0003 19.3294 0.0001
# 6 0.0001 0.0010 -0.0002 -110.6999 0.0001 -162.6319
#
#
#
# Elastic Compliance Matrix: (Units=1/GPa)
#
#
# Indices 1 2 3 4 5 6 
#
# 1 0.004808 -0.000458 -0.001590 0.000000 -0.001749 0.000000
# 2 -0.000458 0.006480 -0.003558 0.000000 -0.001013 0.000000
# 3 -0.001590 -0.003558 0.030919 0.000001 -0.020841 -0.000001
# 4 0.000000 0.000000 0.000001 0.053666 -0.000002 -0.036529
# 5 -0.001749 -0.001013 -0.020841 -0.000002 0.069872 0.000001
# 6 0.000000 0.000000 -0.000001 -0.036529 0.000001 0.018716
#
#
# Mechanical properties :
#
#
# Convention : Reuss Voigt Hill
#
# Bulk Modulus (GPa) = 32.26347 68.42005 50.34176
# Shear Modulus (GPa) = 24.27131 -15.95052 4.16040
#
# Velocity S-wave (km/s) = 2.86682 -2.32403 1.18692
# Velocity P-wave (km/s) = 4.67795 3.99584 4.35028
#
# Compressibility (1/GPa) = 0.03099480
#
# Stress axis : x y z
#
# Youngs Moduli (GPa) = 207.98686 154.33166 32.34231
#
# Poissons Ratio (x) = 0.07069 0.05144
# Poissons Ratio (y) = 0.09526 0.11506
# Poissons Ratio (z) = 0.33077 0.54905
#
# Static dielectric constant tensor:
#      x y z
#    x 2.503970 0.000010 0.283920 
#    y 0.000010 12.944110 0.000010 
#    z 0.283920 0.000010 3.816490 
# 
# From -- ./inp_files/10459.got.cif
#   From: 2010.05.17/outbox.cif.g08.bks.cpg/sg9_6_cif.got.tgz:10459.got - 2010.06.03 20:04:27.
