data_PCOD9135271
_publ_section_title
;
Structure prediction by ZEFSAII (Michael W. Deem and Ramdas Pophale) SiO2 
 PCOD9135271
Probable space group: C C
;
_chemical_formula_sum "Si O2"
_cell_formula_units_Z 24
_cell_length_a 16.709741
_cell_length_b 11.200850
_cell_length_c 8.640625
_cell_angle_alpha 90.000000
_cell_angle_beta 32.263939
_cell_angle_gamma 90.000000
_cell_volume 863.298331
_symmetry_space_group_name_H-M "C C"
_symmetry_group_IT_number 9
_symmetry_cell_setting 'monoclinic'
loop_
_space_group_symop_operation_xyz
x,y,z
x,-y,1/2+z
1/2+x,1/2+y,z
1/2+x,1/2-y,1/2+z
loop_
_atom_site_type_symbol
_atom_site_label
_atom_site_fract_x
_atom_site_fract_y
_atom_site_fract_z
Si Si1 0.015620 0.355542 0.745440
Si Si2 0.872309 0.937129 0.782747
Si Si3 0.775939 0.721218 0.344994
Si Si4 0.287766 0.343058 0.624781
Si Si5 0.537707 0.366575 0.808708
Si Si6 0.846533 0.476238 0.279893
O O1 0.181203 0.324575 0.415733
O O2 0.949448 0.221661 0.869330
O O3 0.925694 0.446908 0.783538
O O4 0.977548 0.413207 0.972408
O O5 0.755957 0.871915 0.855745
O O6 0.976497 0.865094 0.732168
O O7 0.793374 0.036095 0.018552
O O8 0.976368 0.015527 0.497477
O O9 0.721139 0.746569 0.612041
O O10 0.762536 0.583775 0.323842
O O11 0.949103 0.758679 0.036018
O O12 0.716402 0.380977 0.526306
#
# Coordination Sequence:
#
# PCOD9135271 Si02
#       6
#     4   4   4   4   4   4
#     4  11  25  44  68 101 142 181 230 288 342 408
#     4   9  17  34  63  95 123 167 220 268 326 397
#     4  10  23  45  68  97 137 182 229 282 341 409
#     4   9  20  38  63  97 136 175 224 282 339 402
#     4  10  20  38  67  94 128 176 222 271 340 405
#     4  11  25  45  67 100 142 179 225 289 344 403
#
# _framework density 27.800356000000001
#
# number of rings (size 3 to 8) (size 9 to 14) (size 15 to 20)
#    0.000    2.000    0.000    3.000    0.000   10.667 
#    0.000    6.667    0.000    0.000    0.000    0.000 
#    0.000    0.000    0.000    0.000    0.000    0.000 
#
# Total GULP energy -67004.698027 kJ/mol
# GULP energy per Si atom -5583.724836 kJ/mol
# Density = 2.773708 g / cm^3
# Si number density = 27.800356 Si / 1000 Ang^3
#
#
#
# Elastic Constant Matrix: (Units=GPa)
#
#
# Indices 1 2 3 4 5 6 
#
# 1 110.4792 7.2420 42.7428 0.0000 15.5764 0.0000
# 2 7.2420 108.2928 66.1124 0.0000 7.8497 0.0000
# 3 42.7428 66.1124 132.3852 0.0000 -16.8447 0.0000
# 4 0.0000 0.0000 0.0000 52.2788 0.0000 3.0644
# 5 15.5764 7.8497 -16.8447 0.0000 45.3450 0.0000
# 6 0.0000 0.0000 0.0000 3.0644 0.0000 31.1066
#
#
#
# Elastic Compliance Matrix: (Units=1/GPa)
#
#
# Indices 1 2 3 4 5 6 
#
# 1 0.012587 0.004007 -0.007036 0.000000 -0.007631 0.000000
# 2 0.004007 0.015736 -0.010154 0.000000 -0.007872 0.000000
# 3 -0.007036 -0.010154 0.016192 0.000000 0.010190 0.000000
# 4 0.000000 0.000000 0.000000 0.019239 0.000000 -0.001895
# 5 -0.007631 -0.007872 0.010190 0.000000 0.029822 0.000000
# 6 0.000000 0.000000 0.000000 -0.001895 0.000000 0.032334
#
#
# Mechanical properties :
#
#
# Convention : Reuss Voigt Hill
#
# Bulk Modulus (GPa) = 55.09745 64.81685 59.95715
# Shear Modulus (GPa) = 31.58044 41.41674 36.49859
#
# Velocity S-wave (km/s) = 3.37408 3.86397 3.62730
# Velocity P-wave (km/s) = 5.91956 6.57820 6.25755
#
# Compressibility (1/GPa) = 0.01814966
#
# Stress axis : x y z
#
# Youngs Moduli (GPa) = 79.44876 63.55009 61.75710
#
# Poissons Ratio (x) = -0.25462 0.43450
# Poissons Ratio (y) = -0.31833 0.62705
# Poissons Ratio (z) = 0.55898 0.64526
#
# Static dielectric constant tensor:
#      x y z
#    x 2.493530 0.000000 -0.092200 
#    y 0.000000 2.113860 0.000000 
#    z -0.092200 0.000000 2.131550 
# 
# From -- ./inp_files/10872.got.cif
#   From: 2010.05.17/outbox.cif.g08.bks.cpg/sg9_6_cif.got.tgz:10872.got - 2010.06.03 20:04:27.
