data_PCOD9135084
_publ_section_title
;
Structure prediction by ZEFSAII (Michael W. Deem and Ramdas Pophale) SiO2 
 PCOD9135084
Probable space group: C C
;
_chemical_formula_sum "Si O2"
_cell_formula_units_Z 32
_cell_length_a 9.676800
_cell_length_b 19.037828
_cell_length_c 7.898082
_cell_angle_alpha 90.000000
_cell_angle_beta 93.173461
_cell_angle_gamma 90.000000
_cell_volume 1452.794899
_symmetry_space_group_name_H-M "C C"
_symmetry_group_IT_number 9
_symmetry_cell_setting 'monoclinic'
loop_
_space_group_symop_operation_xyz
x,y,z
x,-y,1/2+z
1/2+x,1/2+y,z
1/2+x,1/2-y,1/2+z
loop_
_atom_site_type_symbol
_atom_site_label
_atom_site_fract_x
_atom_site_fract_y
_atom_site_fract_z
Si Si1 0.726160 0.459340 0.813030
Si Si2 0.712194 0.843242 0.897811
Si Si3 0.528474 0.655699 0.404095
Si Si4 0.725301 0.390758 0.442871
Si Si5 0.530875 0.278027 0.277336
Si Si6 0.519677 0.041495 0.516757
Si Si7 0.526527 0.107507 0.891556
Si Si8 0.715274 0.776422 0.275078
O O1 0.603052 0.419288 0.899888
O O2 0.727081 0.427185 0.625856
O O3 0.707356 0.543144 0.815222
O O4 0.872739 0.445687 0.915019
O O5 0.616407 0.793741 0.778359
O O6 0.639893 0.917609 0.926068
O O7 0.868093 0.848349 0.842629
O O8 0.711597 0.804831 0.082404
O O9 0.530480 0.686355 0.593586
O O10 0.620047 0.708793 0.297956
O O11 0.609032 0.333478 0.402924
O O12 0.877767 0.357992 0.422319
O O13 0.375183 0.262628 0.326322
O O14 0.513647 0.071976 0.704914
O O15 0.545855 0.958177 0.517120
O O16 0.648936 0.162615 0.885690
#
# Coordination Sequence:
#
# PCOD9135084 Si02
#       8
#     4   4   4   4   4   4   4   4
#     4  11  22  38  60  86 116 150 190 232 281 338
#     4  10  23  40  58  84 116 151 191 235 283 337
#     4  11  23  39  59  84 115 150 190 236 285 336
#     4  11  22  38  60  86 116 150 190 232 281 338
#     4  11  23  39  59  84 115 150 190 236 285 336
#     4  10  20  37  60  86 117 151 190 233 281 335
#     4  10  20  37  60  86 117 151 190 233 281 335
#     4  10  23  40  58  84 116 151 191 235 283 337
#
# _framework density 22.026508
#
# number of rings (size 3 to 8) (size 9 to 14) (size 15 to 20)
#    0.000    1.500    0.000    6.750    0.000    9.000 
#    0.000    2.500    0.000    0.000    0.000    0.000 
#    0.000    0.000    0.000    0.000    0.000    0.000 
#
# Total GULP energy -89570.430471 kJ/mol
# GULP energy per Si atom -5598.151904 kJ/mol
# Density = 2.197637 g / cm^3
# Si number density = 22.026508 Si / 1000 Ang^3
#
#
#
# Elastic Constant Matrix: (Units=GPa)
#
#
# Indices 1 2 3 4 5 6 
#
# 1 186.7130 54.4456 9.2369 0.0000 -6.6262 0.0000
# 2 54.4456 61.0110 -8.8535 0.0000 -0.2406 0.0000
# 3 9.2369 -8.8535 59.9707 0.0000 -8.1645 0.0000
# 4 0.0000 0.0000 0.0000 30.7768 0.0000 -10.6060
# 5 -6.6262 -0.2406 -8.1645 0.0000 20.8321 0.0000
# 6 0.0000 0.0000 0.0000 -10.6060 0.0000 40.4121
#
#
#
# Elastic Compliance Matrix: (Units=1/GPa)
#
#
# Indices 1 2 3 4 5 6 
#
# 1 0.007558 -0.007028 -0.001992 0.000000 0.001542 0.000000
# 2 -0.007028 0.023314 0.004497 0.000000 -0.000204 0.000000
# 3 -0.001992 0.004497 0.018556 0.000000 0.006691 0.000000
# 4 0.000000 0.000000 0.000000 0.035723 0.000000 0.009375
# 5 0.001542 -0.000204 0.006691 0.000000 0.051113 0.000000
# 6 0.000000 0.000000 0.000000 0.009375 0.000000 0.027206
#
#
# Mechanical properties :
#
#
# Convention : Reuss Voigt Hill
#
# Bulk Modulus (GPa) = 24.76331 46.37251 35.56791
# Shear Modulus (GPa) = 26.88495 35.26193 31.07344
#
# Velocity S-wave (km/s) = 3.49746 4.00545 3.76004
# Velocity P-wave (km/s) = 5.25134 6.51845 5.91890
#
# Compressibility (1/GPa) = 0.04038232
#
# Stress axis : x y z
#
# Youngs Moduli (GPa) = 132.30204 42.89278 53.88992
#
# Poissons Ratio (x) = 0.30145 0.10734
# Poissons Ratio (y) = 0.92982 -0.24232
# Poissons Ratio (z) = 0.26351 -0.19287
#
# Static dielectric constant tensor:
#      x y z
#    x 1.772500 0.000000 -0.011950 
#    y 0.000000 1.797610 0.000000 
#    z -0.011950 0.000000 1.854440 
# 
# From -- ./inp_files/5776.got.cif
#   From: 2010.05.17/outbox.cif.g08.bks.cpg/sg9_3_cif.got.tgz:5776.got - 2010.06.03 20:04:27.
