data_PCOD9135375
_publ_section_title
;
Structure prediction by ZEFSAII (Michael W. Deem and Ramdas Pophale) SiO2 
 PCOD9135375
Probable space group: C C
;
_chemical_formula_sum "Si O2"
_cell_formula_units_Z 32
_cell_length_a 4.967950
_cell_length_b 14.143980
_cell_length_c 17.988346
_cell_angle_alpha 90.000000
_cell_angle_beta 78.658081
_cell_angle_gamma 90.000000
_cell_volume 1239.295439
_symmetry_space_group_name_H-M "C C"
_symmetry_group_IT_number 9
_symmetry_cell_setting 'monoclinic'
loop_
_space_group_symop_operation_xyz
x,y,z
x,-y,1/2+z
1/2+x,1/2+y,z
1/2+x,1/2-y,1/2+z
loop_
_atom_site_type_symbol
_atom_site_label
_atom_site_fract_x
_atom_site_fract_y
_atom_site_fract_z
Si Si1 0.918920 0.819578 0.583930
Si Si2 0.100607 0.661434 0.382479
Si Si3 0.783186 0.855114 0.427477
Si Si4 0.255700 0.010276 0.084644
Si Si5 0.820609 0.264546 0.238225
Si Si6 0.280128 0.020060 0.912156
Si Si7 0.384911 0.626747 0.682558
Si Si8 0.715246 0.130662 0.540260
O O1 0.781316 0.861143 0.517855
O O2 0.785439 0.808277 0.671146
O O3 0.997849 0.714568 0.557701
O O4 0.195547 0.879173 0.584688
O O5 0.314336 0.703434 0.312362
O O6 0.258434 0.630261 0.449813
O O7 0.887945 0.749362 0.404856
O O8 0.933145 0.568177 0.366710
O O9 0.496987 0.893669 0.411978
O O10 0.015074 0.931590 0.391811
O O11 0.551558 0.961711 0.079886
O O12 0.036809 0.972925 0.157637
O O13 0.200772 0.983385 0.000153
O O14 0.555135 0.328252 0.239568
O O15 0.077778 0.336145 0.216240
O O16 0.422511 0.661394 0.594011
#
# Coordination Sequence:
#
# PCOD9135375 Si02
#       8
#     4   4   4   4   4   4   4   4
#     4   9  20  39  64  95 129 166 225 275 329 393
#     4  10  24  47  70  98 142 188 216 292 352 395
#     4  10  23  43  67 102 130 176 231 289 329 409
#     4  10  20  39  67  98 126 168 222 288 326 387
#     4  11  25  45  62 100 141 182 221 272 349 424
#     4  10  24  41  71 104 129 167 244 278 341 406
#     4  11  22  43  66  92 137 172 224 277 331 404
#     4   9  20  43  67  99 124 175 229 281 329 398
#
# _framework density 25.821124999999999
#
# number of rings (size 3 to 8) (size 9 to 14) (size 15 to 20)
#    0.000    2.000    2.500    0.000    7.000    8.000 
#    6.750    0.000    0.000    0.000    0.000    0.000 
#    0.000    0.000    0.000    0.000    0.000    0.000 
#
# Total GULP energy -89226.145146 kJ/mol
# GULP energy per Si atom -5576.634072 kJ/mol
# Density = 2.576235 g / cm^3
# Si number density = 25.821125 Si / 1000 Ang^3
#
#
#
# Elastic Constant Matrix: (Units=GPa)
#
#
# Indices 1 2 3 4 5 6 
#
# 1 79.4558 3.4977 9.0934 0.0000 5.1921 0.0000
# 2 3.4977 96.3063 13.8293 0.0000 -8.5967 0.0000
# 3 9.0934 13.8293 89.2977 0.0000 6.7006 0.0000
# 4 0.0000 0.0000 0.0000 33.3902 0.0000 -9.6348
# 5 5.1921 -8.5967 6.7006 0.0000 14.4558 0.0000
# 6 0.0000 0.0000 0.0000 -9.6348 0.0000 25.5142
#
#
#
# Elastic Compliance Matrix: (Units=1/GPa)
#
#
# Indices 1 2 3 4 5 6 
#
# 1 0.013027 -0.000775 -0.000851 0.000000 -0.004745 0.000000
# 2 -0.000775 0.011473 -0.002311 0.000000 0.008172 0.000000
# 3 -0.000851 -0.002311 0.012146 0.000000 -0.006699 0.000000
# 4 0.000000 0.000000 0.000000 0.033611 0.000000 0.012692
# 5 -0.004745 0.008172 -0.006699 0.000000 0.078846 0.000000
# 6 0.000000 0.000000 0.000000 0.012692 0.000000 0.043987
#
#
# Mechanical properties :
#
#
# Convention : Reuss Voigt Hill
#
# Bulk Modulus (GPa) = 34.75443 35.32227 35.03835
# Shear Modulus (GPa) = 23.74695 30.58134 27.16415
#
# Velocity S-wave (km/s) = 3.03590 3.44518 3.24699
# Velocity P-wave (km/s) = 5.07719 5.43461 5.25893
#
# Compressibility (1/GPa) = 0.02877331
#
# Stress axis : x y z
#
# Youngs Moduli (GPa) = 76.76284 87.16088 82.33383
#
# Poissons Ratio (x) = 0.06751 0.07003
# Poissons Ratio (y) = 0.05946 0.19029
# Poissons Ratio (z) = 0.06529 0.20144
#
# Static dielectric constant tensor:
#      x y z
#    x 2.126420 0.000000 -0.056440 
#    y 0.000000 2.120550 0.000000 
#    z -0.056440 0.000000 2.120970 
# 
# From -- ./inp_files/32126.got.cif
#   From: 2010.05.17/outbox.cif.g08.bks.cpg/sg9_17_cif.got.tgz:32126.got - 2010.06.03 20:04:27.
