data_PCOD9135010
_publ_section_title
;
Structure prediction by ZEFSAII (Michael W. Deem and Ramdas Pophale) SiO2 
 PCOD9135010
Probable space group: C C
;
_chemical_formula_sum "Si O2"
_cell_formula_units_Z 32
_cell_length_a 9.481217
_cell_length_b 21.902701
_cell_length_c 13.900249
_cell_angle_alpha 90.000000
_cell_angle_beta 31.159027
_cell_angle_gamma 90.000000
_cell_volume 1493.562906
_symmetry_space_group_name_H-M "C C"
_symmetry_group_IT_number 9
_symmetry_cell_setting 'monoclinic'
loop_
_space_group_symop_operation_xyz
x,y,z
x,-y,1/2+z
1/2+x,1/2+y,z
1/2+x,1/2-y,1/2+z
loop_
_atom_site_type_symbol
_atom_site_label
_atom_site_fract_x
_atom_site_fract_y
_atom_site_fract_z
Si Si1 0.907120 0.612445 0.166190
Si Si2 0.277596 0.322850 0.579640
Si Si3 0.897765 0.438577 0.340697
Si Si4 0.240736 0.903228 0.228740
Si Si5 0.539790 0.619723 0.196898
Si Si6 0.358015 0.493904 0.386341
Si Si7 0.492758 0.541544 0.521043
Si Si8 0.556988 0.192258 0.417215
O O1 0.739363 0.625408 0.169489
O O2 0.685884 0.597081 0.378030
O O3 0.080844 0.669051 0.103091
O O4 0.099642 0.552326 0.034080
O O5 0.483940 0.378129 0.439339
O O6 0.447035 0.260618 0.482803
O O7 0.110464 0.328246 0.776109
O O8 0.934030 0.424752 0.204622
O O9 0.722536 0.387278 0.495845
O O10 0.696252 0.497036 0.458823
O O11 0.182703 0.444781 0.233267
O O12 0.131268 0.952548 0.215523
O O13 0.354646 0.849027 0.097704
O O14 0.372943 0.555428 0.313381
O O15 0.343560 0.677161 0.300672
O O16 0.416181 0.511084 0.463365
#
# Coordination Sequence:
#
# PCOD9135010 Si02
#       8
#     4   4   4   4   4   4   4   4
#     4  10  22  44  62  96 147 183 234 286 353 417
#     4  11  24  46  71  99 130 185 248 296 345 422
#     4  11  22  37  62 105 147 187 227 284 348 434
#     4  10  21  41  70  97 142 180 236 286 350 416
#     4  11  25  37  67 105 142 181 233 288 366 414
#     4   9  20  38  62  97 141 182 217 283 347 427
#     4  10  20  36  60  92 141 189 221 277 341 420
#     4  12  24  45  76 101 128 185 240 300 354 414
#
# _framework density 21.425277999999999
#
# number of rings (size 3 to 8) (size 9 to 14) (size 15 to 20)
#    0.000    1.500    3.750    1.500    5.250    1.000 
#    2.250    1.250    0.000    0.000    0.000    0.000 
#    0.000    0.000    0.000    0.000    0.000    0.000 
#
# Total GULP energy -89178.267806 kJ/mol
# GULP energy per Si atom -5573.641738 kJ/mol
# Density = 2.137651 g / cm^3
# Si number density = 21.425278 Si / 1000 Ang^3
#
#
#
# Elastic Constant Matrix: (Units=GPa)
#
#
# Indices 1 2 3 4 5 6 
#
# 1 83.1304 38.5412 31.8769 -0.0011 -12.3011 0.0005
# 2 38.5412 90.0944 27.0051 -0.0001 -18.7595 -0.0001
# 3 31.8769 27.0051 83.3511 -0.0020 -6.9306 0.0010
# 4 -0.0011 -0.0001 -0.0020 29.0824 0.0009 -9.4094
# 5 -12.3011 -18.7595 -6.9306 0.0009 46.5659 -0.0003
# 6 0.0005 -0.0001 0.0010 -9.4094 -0.0003 28.5839
#
#
#
# Elastic Compliance Matrix: (Units=1/GPa)
#
#
# Indices 1 2 3 4 5 6 
#
# 1 0.016449 -0.005398 -0.004416 0.000000 0.001513 0.000000
# 2 -0.005398 0.015031 -0.002451 0.000000 0.004265 0.000000
# 3 -0.004416 -0.002451 0.014481 0.000001 0.000001 0.000000
# 4 0.000000 0.000000 0.000001 0.038484 -0.000001 0.012668
# 5 0.001513 0.004265 0.000001 -0.000001 0.023593 0.000000
# 6 0.000000 0.000000 0.000000 0.012668 0.000000 0.039155
#
#
# Mechanical properties :
#
#
# Convention : Reuss Voigt Hill
#
# Bulk Modulus (GPa) = 46.66154 50.15803 48.40979
# Shear Modulus (GPa) = 27.95378 31.45662 29.70520
#
# Velocity S-wave (km/s) = 3.61600 3.83587 3.72755
# Velocity P-wave (km/s) = 6.26577 6.56354 6.41638
#
# Compressibility (1/GPa) = 0.02143093
#
# Stress axis : x y z
#
# Youngs Moduli (GPa) = 60.79303 66.52778 69.05803
#
# Poissons Ratio (x) = 0.35911 0.30497
# Poissons Ratio (y) = 0.32816 0.16926
# Poissons Ratio (z) = 0.26847 0.16306
#
# Static dielectric constant tensor:
#      x y z
#    x 1.809000 0.000000 -0.038330 
#    y 0.000000 1.786730 0.000000 
#    z -0.038330 0.000000 1.910620 
# 
# From -- ./inp_files/23786.got.cif
#   From: 2010.05.17/outbox.cif.g08.bks.cpg/sg9_12_cif.got.tgz:23786.got - 2010.06.03 20:04:27.
