data_PCOD9135246
_publ_section_title
;
Structure prediction by ZEFSAII (Michael W. Deem and Ramdas Pophale) SiO2 
 PCOD9135246
Probable space group: C C
;
_chemical_formula_sum "Si O2"
_cell_formula_units_Z 28
_cell_length_a 7.225123
_cell_length_b 24.154179
_cell_length_c 8.266038
_cell_angle_alpha 90.000000
_cell_angle_beta 102.033502
_cell_angle_gamma 90.000000
_cell_volume 1410.864358
_symmetry_space_group_name_H-M "C C"
_symmetry_group_IT_number 9
_symmetry_cell_setting 'monoclinic'
loop_
_space_group_symop_operation_xyz
x,y,z
x,-y,1/2+z
1/2+x,1/2+y,z
1/2+x,1/2-y,1/2+z
loop_
_atom_site_type_symbol
_atom_site_label
_atom_site_fract_x
_atom_site_fract_y
_atom_site_fract_z
Si Si1 0.060510 0.006554 0.412640
Si Si2 0.751807 0.573916 0.693932
Si Si3 0.755227 0.666521 0.161682
Si Si4 0.053069 0.640091 0.938106
Si Si5 0.681605 0.683234 0.500427
Si Si6 0.922900 0.919892 0.620160
Si Si7 0.994420 0.747126 0.729955
O O1 0.241040 0.033013 0.538155
O O2 0.952235 0.056300 0.304509
O O3 0.132349 0.960325 0.301869
O O4 0.925597 0.974322 0.510076
O O5 0.659543 0.631284 0.613608
O O6 0.945354 0.593013 0.813258
O O7 0.806854 0.666483 0.363522
O O8 0.608961 0.616038 0.114460
O O9 0.632932 0.723156 0.126965
O O10 0.915509 0.660169 0.057916
O O11 0.242517 0.616809 0.050385
O O12 0.081261 0.691342 0.821230
O O13 0.795478 0.730222 0.618239
O O14 0.497964 0.708508 0.378290
#
# Coordination Sequence:
#
# PCOD9135246 Si02
#       7
#     4   4   4   4   4   4   4
#     4  10  21  40  65  89 127 169 203 261 322 350
#     4  10  20  38  65  89 124 169 202 254 318 361
#     4  10  21  43  63  89 129 164 199 266 312 365
#     4  11  23  41  65  95 123 164 213 257 310 378
#     4   9  19  39  61  91 122 162 207 250 305 380
#     4  11  22  42  63  93 123 163 214 261 303 386
#     4   9  20  39  60  90 124 157 208 249 310 378
#
# _framework density 19.845991000000001
#
# number of rings (size 3 to 8) (size 9 to 14) (size 15 to 20)
#    0.857    1.143    2.857    0.857    0.000    1.143 
#   10.286    5.714    0.000    0.000    0.000    0.000 
#    0.000    0.000    0.000    0.000    0.000    0.000 
#
# Total GULP energy -77938.440261 kJ/mol
# GULP energy per Si atom -5567.031447 kJ/mol
# Density = 1.980082 g / cm^3
# Si number density = 19.845991 Si / 1000 Ang^3
#
#
#
# Elastic Constant Matrix: (Units=GPa)
#
#
# Indices 1 2 3 4 5 6 
#
# 1 21.1425 18.1770 11.2428 0.0000 3.8515 0.0000
# 2 18.1770 66.1898 24.9178 0.0000 -1.4397 0.0000
# 3 11.2428 24.9178 85.1643 0.0000 14.3336 0.0000
# 4 0.0000 0.0000 0.0000 51.3273 0.0000 9.6066
# 5 3.8515 -1.4397 14.3336 0.0000 18.3022 0.0000
# 6 0.0000 0.0000 0.0000 9.6066 0.0000 28.8129
#
#
#
# Elastic Compliance Matrix: (Units=1/GPa)
#
#
# Indices 1 2 3 4 5 6 
#
# 1 0.066008 -0.018076 -0.000977 0.000000 -0.014547 0.000000
# 2 -0.018076 0.022524 -0.005923 0.000000 0.010214 0.000000
# 3 -0.000977 -0.005923 0.015720 0.000000 -0.012572 0.000000
# 4 0.000000 0.000000 0.000000 0.020779 0.000000 -0.006928
# 5 -0.014547 0.010214 -0.012572 0.000000 0.068349 0.000000
# 6 0.000000 0.000000 0.000000 -0.006928 0.000000 0.037017
#
#
# Mechanical properties :
#
#
# Convention : Reuss Voigt Hill
#
# Bulk Modulus (GPa) = 18.41605 31.24133 24.82869
# Shear Modulus (GPa) = 16.75333 27.56576 22.15954
#
# Velocity S-wave (km/s) = 2.90861 3.73095 3.34514
# Velocity P-wave (km/s) = 4.53648 5.85970 5.24002
#
# Compressibility (1/GPa) = 0.05430047
#
# Stress axis : x y z
#
# Youngs Moduli (GPa) = 15.14967 44.39700 63.61387
#
# Poissons Ratio (x) = 0.80251 0.06214
# Poissons Ratio (y) = 0.27384 0.37679
# Poissons Ratio (z) = 0.01480 0.26297
#
# Static dielectric constant tensor:
#      x y z
#    x 1.663640 0.000000 0.005050 
#    y 0.000000 1.726280 0.000000 
#    z 0.005050 0.000000 1.760400 
# 
# From -- ./inp_files/5947.got.cif
#   From: 2010.05.17/outbox.cif.g08.bks.cpg/sg9_3_cif.got.tgz:5947.got - 2010.06.03 20:04:27.
