data_PCOD9135311
_publ_section_title
;
Structure prediction by ZEFSAII (Michael W. Deem and Ramdas Pophale) SiO2 
 PCOD9135311
Probable space group: C C
;
_chemical_formula_sum "Si O2"
_cell_formula_units_Z 32
_cell_length_a 29.856572
_cell_length_b 9.920872
_cell_length_c 14.328206
_cell_angle_alpha 90.000000
_cell_angle_beta 160.258624
_cell_angle_gamma 90.000000
_cell_volume 1433.537882
_symmetry_space_group_name_H-M "C C"
_symmetry_group_IT_number 9
_symmetry_cell_setting 'monoclinic'
loop_
_space_group_symop_operation_xyz
x,y,z
x,-y,1/2+z
1/2+x,1/2+y,z
1/2+x,1/2-y,1/2+z
loop_
_atom_site_type_symbol
_atom_site_label
_atom_site_fract_x
_atom_site_fract_y
_atom_site_fract_z
Si Si1 0.251880 0.764448 0.114220
Si Si2 0.436374 0.522514 0.106243
Si Si3 0.542948 0.267864 0.964469
Si Si4 0.254882 0.857782 0.924500
Si Si5 0.470455 0.454065 0.972042
Si Si6 0.475053 0.309245 0.333592
Si Si7 0.639720 0.939780 0.523514
Si Si8 0.359535 0.919062 0.506884
O O1 0.354200 0.651944 0.272665
O O2 0.305600 0.843631 0.309892
O O3 0.230462 0.869317 0.987798
O O4 0.140084 0.664449 0.936865
O O5 0.499859 0.519112 0.129220
O O6 0.274862 0.527305 0.783971
O O7 0.501422 0.635213 0.297901
O O8 0.464770 0.382650 0.213907
O O9 0.403863 0.194358 0.710776
O O10 0.571134 0.360049 0.110068
O O11 0.642598 0.155150 0.122019
O O12 0.127952 0.767612 0.649314
O O13 0.258170 0.973577 0.852222
O O14 0.437121 0.576913 0.835576
O O15 0.387441 0.178522 0.149572
O O16 0.502157 0.018894 0.258588
#
# Coordination Sequence:
#
# PCOD9135311 Si02
#       8
#     4   4   4   4   4   4   4   4
#     4  10  22  45  63  91 135 169 216 263 324 388
#     4  10  20  39  62  87 127 166 207 257 321 378
#     4   9  20  38  61  84 122 163 208 255 319 377
#     4  10  24  40  62  97 128 166 216 272 315 379
#     4   9  20  37  60  88 122 167 202 260 316 375
#     4  11  22  37  66  94 129 163 220 264 314 390
#     4  10  21  39  68  88 124 171 201 264 322 370
#     4  11  23  43  68  97 129 171 216 267 321 387
#
# _framework density 22.322396000000001
#
# number of rings (size 3 to 8) (size 9 to 14) (size 15 to 20)
#    0.000    2.000    2.500    0.750    5.250    1.000 
#    2.250   16.250    0.000    0.000    0.000    0.000 
#    0.000    0.000    0.000    0.000    0.000    0.000 
#
# Total GULP energy -89143.867372 kJ/mol
# GULP energy per Si atom -5571.491711 kJ/mol
# Density = 2.227159 g / cm^3
# Si number density = 22.322396 Si / 1000 Ang^3
#
#
#
# Elastic Constant Matrix: (Units=GPa)
#
#
# Indices 1 2 3 4 5 6 
#
# 1 150.8032 35.0442 26.1975 0.0000 -2.8690 0.0000
# 2 35.0442 46.0035 4.7969 0.0000 5.8460 0.0000
# 3 26.1975 4.7969 73.2483 0.0000 14.0009 0.0000
# 4 0.0000 0.0000 0.0000 25.1742 0.0000 6.0304
# 5 -2.8690 5.8460 14.0009 0.0000 32.3070 0.0000
# 6 0.0000 0.0000 0.0000 6.0304 0.0000 21.7486
#
#
#
# Elastic Compliance Matrix: (Units=1/GPa)
#
#
# Indices 1 2 3 4 5 6 
#
# 1 0.008881 -0.006856 -0.003397 0.000000 0.003501 0.000000
# 2 -0.006856 0.027580 0.001871 0.000000 -0.006410 0.000000
# 3 -0.003397 0.001871 0.016210 0.000000 -0.007665 0.000000
# 4 0.000000 0.000000 0.000000 0.042549 0.000000 -0.011798
# 5 0.003501 -0.006410 -0.007665 0.000000 0.035746 0.000000
# 6 0.000000 0.000000 0.000000 -0.011798 0.000000 0.049251
#
#
# Mechanical properties :
#
#
# Convention : Reuss Voigt Hill
#
# Bulk Modulus (GPa) = 27.84931 44.68135 36.26533
# Shear Modulus (GPa) = 23.92928 29.44705 26.68816
#
# Velocity S-wave (km/s) = 3.27767 3.63598 3.46146
# Velocity P-wave (km/s) = 5.17950 6.13897 5.67953
#
# Compressibility (1/GPa) = 0.03590753
#
# Stress axis : x y z
#
# Youngs Moduli (GPa) = 112.59896 36.25843 61.69194
#
# Poissons Ratio (x) = 0.24859 0.20954
# Poissons Ratio (y) = 0.77199 -0.11544
# Poissons Ratio (z) = 0.38245 -0.06785
#
# Static dielectric constant tensor:
#      x y z
#    x 1.826420 0.000000 -0.002720 
#    y 0.000000 1.960460 0.000000 
#    z -0.002720 0.000000 1.862470 
# 
# From -- ./inp_files/28318.got.cif
#   From: 2010.05.17/outbox.cif.g08.bks.cpg/sg9_15_cif.got.tgz:28318.got - 2010.06.03 20:04:27.
