data_PCOD9135107
_publ_section_title
;
Structure prediction by ZEFSAII (Michael W. Deem and Ramdas Pophale) SiO2 
 PCOD9135107
Probable space group: C C
;
_chemical_formula_sum "Si O2"
_cell_formula_units_Z 32
_cell_length_a 13.021089
_cell_length_b 16.524914
_cell_length_c 9.005762
_cell_angle_alpha 90.000000
_cell_angle_beta 53.109564
_cell_angle_gamma 90.000000
_cell_volume 1549.816091
_symmetry_space_group_name_H-M "C C"
_symmetry_group_IT_number 9
_symmetry_cell_setting 'monoclinic'
loop_
_space_group_symop_operation_xyz
x,y,z
x,-y,1/2+z
1/2+x,1/2+y,z
1/2+x,1/2-y,1/2+z
loop_
_atom_site_type_symbol
_atom_site_label
_atom_site_fract_x
_atom_site_fract_y
_atom_site_fract_z
Si Si1 0.919070 0.387234 0.570810
Si Si2 0.088179 0.011663 0.068253
Si Si3 0.265765 0.052025 0.673653
Si Si4 0.615832 0.810312 0.986832
Si Si5 0.922964 0.918640 0.971115
Si Si6 0.378426 0.751075 0.387550
Si Si7 0.134484 0.458577 0.182663
Si Si8 0.496456 0.131075 0.319428
O O1 0.836115 0.468455 0.660279
O O2 0.852582 0.330033 0.508509
O O3 0.053806 0.412511 0.379509
O O4 0.943658 0.343929 0.705571
O O5 0.182832 0.966020 0.099179
O O6 0.987910 0.057271 0.258948
O O7 0.013405 0.951121 0.023261
O O8 0.171235 0.070837 0.891033
O O9 0.376952 0.113201 0.532808
O O10 0.501914 0.767252 0.177262
O O11 0.619934 0.903120 0.047617
O O12 0.753016 0.773049 0.905205
O O13 0.587186 0.811914 0.837001
O O14 0.905796 0.822626 0.977016
O O15 0.783153 0.959957 0.097815
O O16 0.069749 0.546075 0.224330
#
# Coordination Sequence:
#
# PCOD9135107 Si02
#       8
#     4   4   4   4   4   4   4   4
#     4  10  21  38  65  86 122 163 203 250 293 370
#     4  10  22  36  61  93 120 156 195 253 308 352
#     4  10  20  37  61  97 117 153 205 254 304 345
#     4  10  23  40  64  91 117 168 202 250 305 361
#     4  10  23  40  61  88 123 161 196 248 308 364
#     4  10  24  43  61  84 125 172 202 235 309 378
#     4   9  20  38  62  92 121 155 205 252 304 354
#     4  11  21  36  65  93 119 150 212 264 291 340
#
# _framework density 20.64761
#
# number of rings (size 3 to 8) (size 9 to 14) (size 15 to 20)
#    0.000    2.000    1.250    1.500   12.250    0.000 
#    0.000    7.500    0.000    0.000    0.000    0.000 
#    0.000    0.000    0.000    0.000    0.000    0.000 
#
# Total GULP energy -89419.371280 kJ/mol
# GULP energy per Si atom -5588.710705 kJ/mol
# Density = 2.060062 g / cm^3
# Si number density = 20.647610 Si / 1000 Ang^3
#
#
#
# Elastic Constant Matrix: (Units=GPa)
#
#
# Indices 1 2 3 4 5 6 
#
# 1 125.1583 8.9244 41.1997 0.0000 6.4987 0.0000
# 2 8.9244 24.0883 6.8810 0.0000 -4.9510 0.0000
# 3 41.1997 6.8810 78.3910 0.0000 -1.2456 0.0000
# 4 0.0000 0.0000 0.0000 6.0194 0.0000 -3.2153
# 5 6.4987 -4.9510 -1.2456 0.0000 40.5063 0.0000
# 6 0.0000 0.0000 0.0000 -3.2153 0.0000 22.8447
#
#
#
# Elastic Compliance Matrix: (Units=1/GPa)
#
#
# Indices 1 2 3 4 5 6 
#
# 1 0.009942 -0.002675 -0.005023 0.000000 -0.002077 0.000000
# 2 -0.002675 0.044378 -0.002398 0.000000 0.005780 0.000000
# 3 -0.005023 -0.002398 0.015623 0.000000 0.000993 0.000000
# 4 0.000000 0.000000 0.000000 0.179635 0.000000 0.025283
# 5 -0.002077 0.005780 0.000993 0.000000 0.025758 0.000000
# 6 0.000000 0.000000 0.000000 0.025283 0.000000 0.047332
#
#
# Mechanical properties :
#
#
# Convention : Reuss Voigt Hill
#
# Bulk Modulus (GPa) = 20.10028 37.96086 29.03057
# Shear Modulus (GPa) = 13.91038 25.24958 19.57998
#
# Velocity S-wave (km/s) = 2.59840 3.50077 3.08278
# Velocity P-wave (km/s) = 4.33108 5.89623 5.17319
#
# Compressibility (1/GPa) = 0.04975054
#
# Stress axis : x y z
#
# Youngs Moduli (GPa) = 100.58279 22.53375 64.00854
#
# Poissons Ratio (x) = 0.06028 0.32154
# Poissons Ratio (y) = 0.26908 0.15346
# Poissons Ratio (z) = 0.50527 0.05403
#
# Static dielectric constant tensor:
#      x y z
#    x 1.736240 0.000000 0.000540 
#    y 0.000000 1.757860 0.000000 
#    z 0.000540 0.000000 1.730850 
# 
# From -- ./inp_files/8040.got.cif
#   From: 2010.05.17/outbox.cif.g08.bks.cpg/sg9_5_cif.got.tgz:8040.got - 2010.06.03 20:04:27.
