data_PCOD9135323
_publ_section_title
;
Structure prediction by ZEFSAII (Michael W. Deem and Ramdas Pophale) SiO2 
 PCOD9135323
Probable space group: C C
;
_chemical_formula_sum "Si O2"
_cell_formula_units_Z 32
_cell_length_a 14.841560
_cell_length_b 11.585545
_cell_length_c 17.417428
_cell_angle_alpha 90.000000
_cell_angle_beta 26.648768
_cell_angle_gamma 90.000000
_cell_volume 1343.265479
_symmetry_space_group_name_H-M "C C"
_symmetry_group_IT_number 9
_symmetry_cell_setting 'monoclinic'
loop_
_space_group_symop_operation_xyz
x,y,z
x,-y,1/2+z
1/2+x,1/2+y,z
1/2+x,1/2-y,1/2+z
loop_
_atom_site_type_symbol
_atom_site_label
_atom_site_fract_x
_atom_site_fract_y
_atom_site_fract_z
Si Si1 0.800170 0.522116 0.164950
Si Si2 0.918814 0.668041 0.279988
Si Si3 0.410036 0.430663 0.886761
Si Si4 0.098411 0.276408 0.059401
Si Si5 0.735182 0.442098 0.388163
Si Si6 0.707870 0.904342 0.423617
Si Si7 0.040038 0.665855 0.428787
Si Si8 0.776617 0.123046 0.107697
O O1 0.636687 0.592350 0.241462
O O2 0.712456 0.491211 0.317326
O O3 0.032344 0.566222 0.995721
O O4 0.836850 0.407561 0.087180
O O5 0.774847 0.559233 0.405429
O O6 0.817259 0.783390 0.326983
O O7 0.076028 0.685523 0.228065
O O8 0.061116 0.620501 0.106043
O O9 0.290488 0.313256 0.962330
O O10 0.363473 0.505798 0.844779
O O11 0.317302 0.509107 0.026811
O O12 0.087515 0.140511 0.049392
O O13 0.107431 0.325653 0.965685
O O14 0.920028 0.351472 0.233794
O O15 0.209637 0.610585 0.246647
O O16 0.967444 0.792916 0.459743
#
# Coordination Sequence:
#
# PCOD9135323 Si02
#       8
#     4   4   4   4   4   4   4   4
#     4  10  21  40  65  98 134 180 222 273 341 408
#     4  10  20  39  63  94 133 171 223 281 329 402
#     4  11  21  41  66  95 136 177 217 285 342 387
#     4  11  21  42  63  93 137 170 214 288 336 398
#     4  10  21  42  64  93 133 176 223 274 338 397
#     4  10  20  41  65  93 136 171 223 280 336 393
#     4  11  20  36  64 100 132 165 229 277 336 395
#     4  11  20  35  66 102 129 172 225 290 330 396
#
# _framework density 23.822544000000001
#
# number of rings (size 3 to 8) (size 9 to 14) (size 15 to 20)
#    0.000    1.500    5.000    5.250    0.000    0.000 
#    4.500    5.000    2.750    0.000    0.000    0.000 
#    0.000    0.000    0.000    0.000    0.000    0.000 
#
# Total GULP energy -89132.353023 kJ/mol
# GULP energy per Si atom -5570.772064 kJ/mol
# Density = 2.376832 g / cm^3
# Si number density = 23.822544 Si / 1000 Ang^3
#
#
#
# Elastic Constant Matrix: (Units=GPa)
#
#
# Indices 1 2 3 4 5 6 
#
# 1 114.8923 37.7212 42.9666 0.0014 -34.6926 -0.0008
# 2 37.7212 56.2688 22.2677 -0.0171 -5.3400 0.0057
# 3 42.9666 22.2677 55.6000 -0.0184 2.2069 0.0096
# 4 0.0014 -0.0171 -0.0184 50.9687 0.0048 -3.0975
# 5 -34.6926 -5.3400 2.2069 0.0048 43.3777 -0.0015
# 6 -0.0008 0.0057 0.0096 -3.0975 -0.0015 34.7717
#
#
#
# Elastic Compliance Matrix: (Units=1/GPa)
#
#
# Indices 1 2 3 4 5 6 
#
# 1 0.021711 -0.007141 -0.014602 -0.000010 0.017228 0.000006
# 2 -0.007141 0.023875 -0.003941 0.000007 -0.002572 -0.000002
# 3 -0.014602 -0.003941 0.031394 0.000011 -0.013760 -0.000008
# 4 -0.000010 0.000007 0.000011 0.019727 -0.000009 0.001757
# 5 0.017228 -0.002572 -0.013760 -0.000009 0.037215 0.000005
# 6 0.000006 -0.000002 -0.000008 0.001757 0.000005 0.028916
#
#
# Mechanical properties :
#
#
# Convention : Reuss Voigt Hill
#
# Bulk Modulus (GPa) = 39.04436 48.07468 43.55952
# Shear Modulus (GPa) = 22.44742 34.07733 28.26238
#
# Velocity S-wave (km/s) = 3.07298 3.78625 3.44811
# Velocity P-wave (km/s) = 5.38667 6.27204 5.84614
#
# Compressibility (1/GPa) = 0.02561189
#
# Stress axis : x y z
#
# Youngs Moduli (GPa) = 46.05937 41.88530 31.85315
#
# Poissons Ratio (x) = 0.29911 0.46511
# Poissons Ratio (y) = 0.32892 0.12554
# Poissons Ratio (z) = 0.67254 0.16508
#
# Static dielectric constant tensor:
#      x y z
#    x 2.043760 0.000000 -0.060250 
#    y 0.000000 1.751540 0.000010 
#    z -0.060250 0.000010 2.046730 
# 
# From -- ./inp_files/12183.got.cif
#   From: 2010.05.17/outbox.cif.g08.bks.cpg/sg9_7_cif.got.tgz:12183.got - 2010.06.03 20:04:27.
