data_PCOD9135511
_publ_section_title
;
Structure prediction by ZEFSAII (Michael W. Deem and Ramdas Pophale) SiO2 
 PCOD9135511
Probable space group: C C
;
_chemical_formula_sum "Si O2"
_cell_formula_units_Z 28
_cell_length_a 15.040769
_cell_length_b 13.719125
_cell_length_c 8.719200
_cell_angle_alpha 90.000000
_cell_angle_beta 140.197754
_cell_angle_gamma 90.000000
_cell_volume 1151.722721
_symmetry_space_group_name_H-M "C C"
_symmetry_group_IT_number 9
_symmetry_cell_setting 'monoclinic'
loop_
_space_group_symop_operation_xyz
x,y,z
x,-y,1/2+z
1/2+x,1/2+y,z
1/2+x,1/2-y,1/2+z
loop_
_atom_site_type_symbol
_atom_site_label
_atom_site_fract_x
_atom_site_fract_y
_atom_site_fract_z
Si Si1 0.055690 0.089690 0.604630
Si Si2 0.996607 0.384932 0.299067
Si Si3 0.710300 0.553787 0.518060
Si Si4 0.823914 0.943382 0.303821
Si Si5 0.633625 0.039039 0.277124
Si Si6 0.731711 0.664806 0.098468
Si Si7 0.510579 0.740594 0.042799
O O1 0.112325 0.105300 0.510770
O O2 0.129786 0.993186 0.770571
O O3 0.120145 0.167333 0.809089
O O4 0.897707 0.050794 0.391731
O O5 0.035899 0.301975 0.230537
O O6 0.023751 0.486997 0.244002
O O7 0.075306 0.392171 0.566354
O O8 0.836012 0.380648 0.131401
O O9 0.646735 0.716550 0.123078
O O10 0.759717 0.451023 0.659612
O O11 0.710235 0.953443 0.284295
O O12 0.931882 0.859193 0.479086
O O13 0.749357 0.918953 0.044622
O O14 0.886656 0.705671 0.283462
#
# Coordination Sequence:
#
# PCOD9135511 Si02
#       7
#     4   4   4   4   4   4   4
#     4  10  20  40  70 100 130 190 247 277 335 447
#     4  11  23  41  70 105 143 183 241 297 365 423
#     4  10  20  40  70 100 129 185 251 284 324 452
#     4  11  21  42  71  96 142 187 240 289 362 428
#     4  10  23  42  67 101 138 190 236 289 355 450
#     4  10  24  40  70 103 143 188 241 291 367 426
#     4  12  23  43  68 107 143 187 230 309 372 412
#
# _framework density 24.311408
#
# number of rings (size 3 to 8) (size 9 to 14) (size 15 to 20)
#    0.857    0.571    1.429    5.143    0.000    1.143 
#    0.000    2.857    3.143    0.000    0.000    0.000 
#    0.000    0.000    0.000    0.000    0.000    0.000 
#
# Total GULP energy -78122.199920 kJ/mol
# GULP energy per Si atom -5580.157137 kJ/mol
# Density = 2.425607 g / cm^3
# Si number density = 24.311408 Si / 1000 Ang^3
#
#
#
# Elastic Constant Matrix: (Units=GPa)
#
#
# Indices 1 2 3 4 5 6 
#
# 1 120.7750 8.1011 30.2472 0.0000 -15.6697 0.0000
# 2 8.1011 62.4465 30.5389 0.0000 -9.3508 0.0000
# 3 30.2472 30.5389 149.1977 0.0000 -19.9859 0.0000
# 4 0.0000 0.0000 0.0000 40.3952 0.0000 -4.0977
# 5 -15.6697 -9.3508 -19.9859 0.0000 35.5904 0.0000
# 6 0.0000 0.0000 0.0000 -4.0977 0.0000 29.2597
#
#
#
# Elastic Compliance Matrix: (Units=1/GPa)
#
#
# Indices 1 2 3 4 5 6 
#
# 1 0.009046 -0.000009 -0.001405 0.000000 0.003192 0.000000
# 2 -0.000009 0.018065 -0.003310 0.000000 0.002884 0.000000
# 3 -0.001405 -0.003310 0.008073 0.000000 0.003045 0.000000
# 4 0.000000 0.000000 0.000000 0.025112 0.000000 0.003517
# 5 0.003192 0.002884 0.003045 0.000000 0.031971 0.000000
# 6 0.000000 0.000000 0.000000 0.003517 0.000000 0.034669
#
#
# Mechanical properties :
#
#
# Convention : Reuss Voigt Hill
#
# Bulk Modulus (GPa) = 38.85261 52.24372 45.54817
# Shear Modulus (GPa) = 34.49191 38.61786 36.55488
#
# Velocity S-wave (km/s) = 3.77072 3.98988 3.88185
# Velocity P-wave (km/s) = 5.91386 6.53923 6.23439
#
# Compressibility (1/GPa) = 0.02573829
#
# Stress axis : x y z
#
# Youngs Moduli (GPa) = 110.54190 55.35493 123.87507
#
# Poissons Ratio (x) = 0.00048 0.17400
# Poissons Ratio (y) = 0.00096 0.40998
# Poissons Ratio (z) = 0.15527 0.18320
#
# Static dielectric constant tensor:
#      x y z
#    x 1.872710 0.000000 -0.005220 
#    y 0.000000 2.038450 0.000000 
#    z -0.005220 0.000000 1.997430 
# 
# From -- ./inp_files/10905.got.cif
#   From: 2010.05.17/outbox.cif.g08.bks.cpg/sg9_6_cif.got.tgz:10905.got - 2010.06.03 20:04:27.
