data_PCOD9135782
_publ_section_title
;
Structure prediction by ZEFSAII (Michael W. Deem and Ramdas Pophale) SiO2 
 PCOD9135782
Probable space group: C C
;
_chemical_formula_sum "Si O2"
_cell_formula_units_Z 32
_cell_length_a 15.845458
_cell_length_b 8.512994
_cell_length_c 13.719771
_cell_angle_alpha 90.000000
_cell_angle_beta 56.008691
_cell_angle_gamma 90.000000
_cell_volume 1534.449596
_symmetry_space_group_name_H-M "C C"
_symmetry_group_IT_number 9
_symmetry_cell_setting 'monoclinic'
loop_
_space_group_symop_operation_xyz
x,y,z
x,-y,1/2+z
1/2+x,1/2+y,z
1/2+x,1/2-y,1/2+z
loop_
_atom_site_type_symbol
_atom_site_label
_atom_site_fract_x
_atom_site_fract_y
_atom_site_fract_z
Si Si1 0.286820 0.969842 0.822810
Si Si2 0.569226 0.582562 0.019117
Si Si3 0.237692 0.861381 0.157404
Si Si4 0.413853 0.642638 0.504930
Si Si5 0.722397 0.830007 0.255687
Si Si6 0.060840 0.110041 0.246259
Si Si7 0.619418 0.128785 0.342810
Si Si8 0.909150 0.507718 0.925082
O O1 0.281892 0.791400 0.787448
O O2 0.374818 0.029828 0.836357
O O3 0.179838 0.001110 0.945967
O O4 0.285766 0.071211 0.725613
O O5 0.490446 0.452686 0.027846
O O6 0.587277 0.733540 0.937778
O O7 0.542486 0.639970 0.144620
O O8 0.196538 0.692987 0.211623
O O9 0.135982 0.961335 0.202521
O O10 0.322613 0.891875 0.023061
O O11 0.302149 0.618228 0.620912
O O12 0.456701 0.584046 0.372759
O O13 0.414601 0.832544 0.485625
O O14 0.628776 0.739425 0.261437
O O15 0.675639 0.974129 0.346358
O O16 0.516726 0.072964 0.359958
#
# Coordination Sequence:
#
# PCOD9135782 Si02
#       8
#     4   4   4   4   4   4   4   4
#     4  10  20  44  70  94 128 183 225 273 344 409
#     4  11  23  44  70  98 136 182 226 288 347 407
#     4  10  22  43  65  93 142 167 224 282 338 407
#     4  12  23  45  71  98 137 184 231 280 347 404
#     4  11  23  46  67 101 141 181 228 284 341 419
#     4  11  21  46  70  95 136 186 223 280 345 413
#     4  11  25  43  64 103 141 173 226 294 338 407
#     4  12  23  43  71  98 133 184 227 285 348 402
#
# _framework density 20.854384
#
# number of rings (size 3 to 8) (size 9 to 14) (size 15 to 20)
#    0.000    1.000    8.750    0.000    1.750    2.000 
#    6.750    0.000    0.000    0.000    0.000    0.000 
#    0.000    0.000    0.000    0.000    0.000    0.000 
#
# Total GULP energy -89192.272025 kJ/mol
# GULP energy per Si atom -5574.517002 kJ/mol
# Density = 2.080692 g / cm^3
# Si number density = 20.854384 Si / 1000 Ang^3
#
#
#
# Elastic Constant Matrix: (Units=GPa)
#
#
# Indices 1 2 3 4 5 6 
#
# 1 68.4914 45.2168 15.8030 0.0000 6.8346 0.0000
# 2 45.2168 103.6138 8.2165 0.0000 -2.9089 0.0000
# 3 15.8030 8.2165 58.3281 0.0000 6.8577 0.0000
# 4 0.0000 0.0000 0.0000 25.5228 0.0000 -13.1410
# 5 6.8346 -2.9089 6.8577 0.0000 24.8157 0.0000
# 6 0.0000 0.0000 0.0000 -13.1410 0.0000 3.1217
#
#
#
# Elastic Compliance Matrix: (Units=1/GPa)
#
#
# Indices 1 2 3 4 5 6 
#
# 1 0.022551 -0.009698 -0.004010 0.000000 -0.006240 0.000000
# 2 -0.009698 0.013991 0.000155 0.000000 0.004268 0.000000
# 3 -0.004010 0.000155 0.018684 0.000000 -0.004041 0.000000
# 4 0.000000 0.000000 0.000000 -0.033563 0.000000 -0.141285
# 5 -0.006240 0.004268 -0.004041 0.000000 0.043632 0.000000
# 6 0.000000 0.000000 0.000000 -0.141285 0.000000 -0.274408
#
#
# Mechanical properties :
#
#
# Convention : Reuss Voigt Hill
#
# Bulk Modulus (GPa) = 35.56296 40.98955 38.27626
# Shear Modulus (GPa) = -28.96337 21.43852 -3.76242
#
# Velocity S-wave (km/s) = -3.73076 3.20974 -1.34464
# Velocity P-wave (km/s) = 1.21163 5.78224 3.99789
#
# Compressibility (1/GPa) = 0.02811915
#
# Stress axis : x y z
#
# Youngs Moduli (GPa) = 44.34411 71.47395 53.52152
#
# Poissons Ratio (x) = 0.69318 0.21462
# Poissons Ratio (y) = 0.43006 -0.00829
# Poissons Ratio (z) = 0.17782 -0.01107
#
# Static dielectric constant tensor:
#      x y z
#    x 1.734150 0.000000 0.004950 
#    y 0.000000 1.807950 0.000000 
#    z 0.004950 0.000000 1.759860 
# 
# From -- ./inp_files/25622.got.cif
#   From: 2010.05.17/outbox.cif.g08.bks.cpg/sg9_13_cif.got.tgz:25622.got - 2010.06.03 20:04:27.
