data_PCOD9135467
_publ_section_title
;
Structure prediction by ZEFSAII (Michael W. Deem and Ramdas Pophale) SiO2 
 PCOD9135467
Probable space group: C C
;
_chemical_formula_sum "Si O2"
_cell_formula_units_Z 28
_cell_length_a 7.256870
_cell_length_b 21.812508
_cell_length_c 9.614263
_cell_angle_alpha 90.000000
_cell_angle_beta 52.118040
_cell_angle_gamma 90.000000
_cell_volume 1201.159400
_symmetry_space_group_name_H-M "C C"
_symmetry_group_IT_number 9
_symmetry_cell_setting 'monoclinic'
loop_
_space_group_symop_operation_xyz
x,y,z
x,-y,1/2+z
1/2+x,1/2+y,z
1/2+x,1/2-y,1/2+z
loop_
_atom_site_type_symbol
_atom_site_label
_atom_site_fract_x
_atom_site_fract_y
_atom_site_fract_z
Si Si1 0.854640 0.814908 0.350230
Si Si2 0.679552 0.917721 0.629261
Si Si3 0.734089 0.550010 0.483548
Si Si4 0.360493 0.222779 0.579050
Si Si5 0.849305 0.164799 0.278228
Si Si6 0.322934 0.367287 0.089723
Si Si7 0.446815 0.960109 0.190657
O O1 0.742900 0.874569 0.472463
O O2 0.774426 0.758129 0.480532
O O3 0.794980 0.814273 0.215984
O O4 0.136732 0.814236 0.235743
O O5 0.418241 0.908406 0.811296
O O6 0.842028 0.894594 0.681299
O O7 0.655287 0.988384 0.595323
O O8 0.487404 0.582291 0.587235
O O9 0.763471 0.485696 0.388453
O O10 0.828525 0.542632 0.595397
O O11 0.582107 0.183956 0.434619
O O12 0.437143 0.276544 0.650701
O O13 0.941574 0.150873 0.388708
O O14 0.073926 0.398166 0.174591
#
# Coordination Sequence:
#
# PCOD9135467 Si02
#       7
#     4   4   4   4   4   4   4
#     4  10  21  37  68  91 125 167 211 261 321 373
#     4   9  20  41  62  91 129 170 201 256 310 380
#     4  10  23  40  62  90 133 169 210 253 308 370
#     4   9  21  42  63  93 126 166 212 270 321 371
#     4  10  20  40  66  92 128 163 214 267 315 386
#     4  12  23  39  67  97 125 172 212 258 321 377
#     4  10  22  41  62  96 138 161 214 261 296 395
#
# _framework density 23.31081
#
# number of rings (size 3 to 8) (size 9 to 14) (size 15 to 20)
#    0.857    1.143    1.429    1.714    0.000    4.571 
#    0.000    5.714    0.000    0.000    0.000    0.000 
#    0.000    0.000    0.000    0.000    0.000    0.000 
#
# Total GULP energy -78146.834014 kJ/mol
# GULP energy per Si atom -5581.916715 kJ/mol
# Density = 2.325775 g / cm^3
# Si number density = 23.310810 Si / 1000 Ang^3
#
#
#
# Elastic Constant Matrix: (Units=GPa)
#
#
# Indices 1 2 3 4 5 6 
#
# 1 87.9527 36.1440 52.9474 0.0000 43.5999 0.0000
# 2 36.1440 64.4069 19.8272 0.0000 12.4368 0.0000
# 3 52.9474 19.8272 88.9829 0.0000 23.1679 0.0000
# 4 0.0000 0.0000 0.0000 40.5626 0.0000 1.3117
# 5 43.5999 12.4368 23.1679 0.0000 46.9148 0.0000
# 6 0.0000 0.0000 0.0000 1.3117 0.0000 11.2842
#
#
#
# Elastic Compliance Matrix: (Units=1/GPa)
#
#
# Indices 1 2 3 4 5 6 
#
# 1 0.035054 -0.011372 -0.012195 0.000000 -0.023540 0.000000
# 2 -0.011372 0.020727 0.000949 0.000000 0.004605 0.000000
# 3 -0.012195 0.000949 0.017670 0.000000 0.002356 0.000000
# 4 0.000000 0.000000 0.000000 0.024746 0.000000 -0.002877
# 5 -0.023540 0.004605 0.002356 0.000000 0.040808 0.000000
# 6 0.000000 0.000000 0.000000 -0.002877 0.000000 0.088953
#
#
# Mechanical properties :
#
#
# Convention : Reuss Voigt Hill
#
# Bulk Modulus (GPa) = 35.44287 51.01998 43.23142
# Shear Modulus (GPa) = 17.69304 28.58060 23.13682
#
# Velocity S-wave (km/s) = 2.75799 3.50532 3.15387
# Velocity P-wave (km/s) = 5.03781 6.19010 5.64344
#
# Compressibility (1/GPa) = 0.02821442
#
# Stress axis : x y z
#
# Youngs Moduli (GPa) = 28.52780 48.24738 56.59434
#
# Poissons Ratio (x) = 0.54866 0.69017
# Poissons Ratio (y) = 0.32441 -0.05372
# Poissons Ratio (z) = 0.34790 -0.04580
#
# Static dielectric constant tensor:
#      x y z
#    x 1.874310 0.000000 0.049560 
#    y 0.000000 1.932980 0.000000 
#    z 0.049560 0.000000 1.885230 
# 
# From -- ./inp_files/4441.got.cif
#   From: 2010.05.17/outbox.cif.g08.bks.cpg/sg9_3_cif.got.tgz:4441.got - 2010.06.03 20:04:27.
