data_PCOD9135891
_publ_section_title
;
Structure prediction by ZEFSAII (Michael W. Deem and Ramdas Pophale) SiO2 
 PCOD9135891
Probable space group: C C
;
_chemical_formula_sum "Si O2"
_cell_formula_units_Z 28
_cell_length_a 15.654072
_cell_length_b 17.588516
_cell_length_c 8.779080
_cell_angle_alpha 90.000000
_cell_angle_beta 146.386045
_cell_angle_gamma 90.000000
_cell_volume 1338.126649
_symmetry_space_group_name_H-M "C C"
_symmetry_group_IT_number 9
_symmetry_cell_setting 'monoclinic'
loop_
_space_group_symop_operation_xyz
x,y,z
x,-y,1/2+z
1/2+x,1/2+y,z
1/2+x,1/2-y,1/2+z
loop_
_atom_site_type_symbol
_atom_site_label
_atom_site_fract_x
_atom_site_fract_y
_atom_site_fract_z
Si Si1 0.525320 0.569228 0.612630
Si Si2 0.425599 0.867641 0.073373
Si Si3 0.885835 0.799243 0.380473
Si Si4 0.900482 0.290592 0.324305
Si Si5 0.766193 0.863481 0.507493
Si Si6 0.599813 0.419025 0.552285
Si Si7 0.221351 0.219502 0.856404
O O1 0.386072 0.591741 0.293129
O O2 0.587459 0.489311 0.647386
O O3 0.495417 0.565084 0.748438
O O4 0.647166 0.638230 0.783892
O O5 0.387616 0.863748 0.197571
O O6 0.595360 0.895241 0.282402
O O7 0.428217 0.779391 0.025473
O O8 0.279705 0.907699 0.780446
O O9 0.809844 0.855308 0.393519
O O10 0.032352 0.842866 0.528524
O O11 0.779632 0.769758 0.084139
O O12 0.789160 0.223463 0.099205
O O13 0.855887 0.295749 0.434602
O O14 0.076836 0.264235 0.570598
#
# Coordination Sequence:
#
# PCOD9135891 Si02
#       7
#     4   4   4   4   4   4   4
#     4  11  26  46  68  99 142 194 229 285 365 438
#     4  11  23  40  68 101 135 174 234 297 341 410
#     4  11  22  40  71 105 134 181 232 301 342 415
#     4  10  21  36  63  97 135 176 224 295 341 400
#     4  10  22  42  66  99 139 174 238 284 358 410
#     4  12  26  45  72  98 144 186 237 284 366 421
#     4  11  22  39  66 101 137 177 236 288 351 412
#
# _framework density 20.924775
#
# number of rings (size 3 to 8) (size 9 to 14) (size 15 to 20)
#    0.000    1.143    2.857    4.286    8.000    0.000 
#    0.000    4.286    0.000    0.000    0.000    0.000 
#    0.000    0.000    0.000    0.000    0.000    0.000 
#
# Total GULP energy -78125.999762 kJ/mol
# GULP energy per Si atom -5580.428554 kJ/mol
# Density = 2.087715 g / cm^3
# Si number density = 20.924775 Si / 1000 Ang^3
#
#
#
# Elastic Constant Matrix: (Units=GPa)
#
#
# Indices 1 2 3 4 5 6 
#
# 1 95.6145 -7.5155 52.1154 0.0000 -7.3769 0.0000
# 2 -7.5155 43.5415 24.6115 0.0000 -1.2389 0.0000
# 3 52.1154 24.6115 109.1613 0.0000 5.6889 0.0000
# 4 0.0000 0.0000 0.0000 13.2043 0.0000 -8.6427
# 5 -7.3769 -1.2389 5.6889 0.0000 37.7137 0.0000
# 6 0.0000 0.0000 0.0000 -8.6427 0.0000 16.6392
#
#
#
# Elastic Compliance Matrix: (Units=1/GPa)
#
#
# Indices 1 2 3 4 5 6 
#
# 1 0.017393 0.009172 -0.010649 0.000000 0.005310 0.000000
# 2 0.009172 0.031276 -0.011669 0.000000 0.004582 0.000000
# 3 -0.010649 -0.011669 0.017139 0.000000 -0.005052 0.000000
# 4 0.000000 0.000000 0.000000 0.114743 0.000000 0.059600
# 5 0.005310 0.004582 -0.005052 0.000000 0.028467 0.000000
# 6 0.000000 0.000000 0.000000 0.059600 0.000000 0.091056
#
#
# Mechanical properties :
#
#
# Convention : Reuss Voigt Hill
#
# Bulk Modulus (GPa) = 25.30548 42.97113 34.13831
# Shear Modulus (GPa) = 14.72590 25.45183 20.08887
#
# Velocity S-wave (km/s) = 2.65571 3.49140 3.10183
# Velocity P-wave (km/s) = 4.63935 6.06908 5.40173
#
# Compressibility (1/GPa) = 0.03951713
#
# Stress axis : x y z
#
# Youngs Moduli (GPa) = 57.49315 31.97323 58.34714
#
# Poissons Ratio (x) = -0.29327 0.62132
# Poissons Ratio (y) = -0.52735 0.68087
# Poissons Ratio (z) = 0.61222 0.37311
#
# Static dielectric constant tensor:
#      x y z
#    x 1.834200 0.000000 -0.050680 
#    y 0.000000 1.714460 0.000000 
#    z -0.050680 0.000000 1.784140 
# 
# From -- ./inp_files/5541.got.cif
#   From: 2010.05.17/outbox.cif.g08.bks.cpg/sg9_3_cif.got.tgz:5541.got - 2010.06.03 20:04:27.
