data_PCOD9135359
_publ_section_title
;
Structure prediction by ZEFSAII (Michael W. Deem and Ramdas Pophale) SiO2 
 PCOD9135359
Probable space group: C C
;
_chemical_formula_sum "Si O2"
_cell_formula_units_Z 24
_cell_length_a 7.116722
_cell_length_b 22.461752
_cell_length_c 12.094766
_cell_angle_alpha 90.000000
_cell_angle_beta 36.538470
_cell_angle_gamma 90.000000
_cell_volume 1151.072006
_symmetry_space_group_name_H-M "C C"
_symmetry_group_IT_number 9
_symmetry_cell_setting 'monoclinic'
loop_
_space_group_symop_operation_xyz
x,y,z
x,-y,1/2+z
1/2+x,1/2+y,z
1/2+x,1/2-y,1/2+z
loop_
_atom_site_type_symbol
_atom_site_label
_atom_site_fract_x
_atom_site_fract_y
_atom_site_fract_z
Si Si1 0.171210 0.429554 0.365450
Si Si2 0.737360 0.416714 0.766774
Si Si3 0.670361 0.184835 0.154897
Si Si4 0.250817 0.983702 0.974852
Si Si5 0.174894 0.380914 0.871743
Si Si6 0.045071 0.820937 0.256225
O O1 0.291926 0.361774 0.309470
O O2 0.020287 0.441681 0.556585
O O3 0.892958 0.450473 0.415126
O O4 0.475203 0.468327 0.190736
O O5 0.644569 0.463880 0.903999
O O6 0.452316 0.398247 0.822902
O O7 0.879707 0.358177 0.758760
O O8 0.779297 0.163528 0.224347
O O9 0.560342 0.252982 0.210619
O O10 0.933213 0.177369 0.936082
O O11 0.530306 0.938776 0.879266
O O12 0.884628 0.350287 0.073755
#
# Coordination Sequence:
#
# PCOD9135359 Si02
#       6
#     4   4   4   4   4   4
#     4  10  22  40  65  93 126 172 210 262 326 376
#     4  10  23  41  64  93 125 170 215 262 319 379
#     4  10  20  40  62  90 133 167 207 266 314 377
#     4  10  22  40  63  89 130 165 214 266 313 380
#     4  10  21  40  62  92 123 170 214 259 321 375
#     4  10  20  39  66  93 133 170 210 267 319 375
#
# _framework density 20.85013
#
# number of rings (size 3 to 8) (size 9 to 14) (size 15 to 20)
#    0.000    2.000    1.667    1.000    0.000    4.000 
#    6.000    5.000    0.000    0.000    0.000    0.000 
#    0.000    0.000    0.000    0.000    0.000    0.000 
#
# Total GULP energy -67011.296233 kJ/mol
# GULP energy per Si atom -5584.274686 kJ/mol
# Density = 2.080267 g / cm^3
# Si number density = 20.850130 Si / 1000 Ang^3
#
#
#
# Elastic Constant Matrix: (Units=GPa)
#
#
# Indices 1 2 3 4 5 6 
#
# 1 132.1313 63.5771 47.6721 0.0000 3.0910 0.0000
# 2 63.5771 109.7863 62.1003 0.0000 8.3771 0.0000
# 3 47.6721 62.1003 104.0840 0.0000 16.7101 0.0000
# 4 0.0000 0.0000 0.0000 23.2125 0.0000 -2.6254
# 5 3.0910 8.3771 16.7101 0.0000 16.9200 0.0000
# 6 0.0000 0.0000 0.0000 -2.6254 0.0000 30.7859
#
#
#
# Elastic Compliance Matrix: (Units=1/GPa)
#
#
# Indices 1 2 3 4 5 6 
#
# 1 0.010833 -0.005169 -0.002342 0.000000 0.002893 0.000000
# 2 -0.005169 0.016249 -0.007353 0.000000 0.000161 0.000000
# 3 -0.002342 -0.007353 0.017130 0.000000 -0.012849 0.000000
# 4 0.000000 0.000000 0.000000 0.043500 0.000000 0.003710
# 5 0.002893 0.000161 -0.012849 0.000000 0.071183 0.000000
# 6 0.000000 0.000000 0.000000 0.003710 0.000000 0.032799
#
#
# Mechanical properties :
#
#
# Convention : Reuss Voigt Hill
#
# Bulk Modulus (GPa) = 69.04351 76.96673 73.00512
# Shear Modulus (GPa) = 22.09941 25.69381 23.89661
#
# Velocity S-wave (km/s) = 3.25917 3.51423 3.38910
# Velocity P-wave (km/s) = 6.88106 7.31169 7.09964
#
# Compressibility (1/GPa) = 0.01448362
#
# Stress axis : x y z
#
# Youngs Moduli (GPa) = 92.31231 61.54194 58.37640
#
# Poissons Ratio (x) = 0.31813 0.13671
# Poissons Ratio (y) = 0.47720 0.42924
# Poissons Ratio (z) = 0.21618 0.45252
#
# Static dielectric constant tensor:
#      x y z
#    x 1.736270 0.000000 0.011260 
#    y 0.000000 1.764570 0.000000 
#    z 0.011260 0.000000 1.764570 
# 
# From -- ./inp_files/3868.got.cif
#   From: 2010.05.17/outbox.cif.g08.bks.cpg/sg9_2_cif.got.tgz:3868.got - 2010.06.03 20:04:27.
