data_PCOD9135281
_publ_section_title
;
Structure prediction by ZEFSAII (Michael W. Deem and Ramdas Pophale) SiO2 
 PCOD9135281
Probable space group: C C
;
_chemical_formula_sum "Si O2"
_cell_formula_units_Z 28
_cell_length_a 20.116042
_cell_length_b 9.392174
_cell_length_c 8.861690
_cell_angle_alpha 90.000000
_cell_angle_beta 142.318128
_cell_angle_gamma 90.000000
_cell_volume 1023.441537
_symmetry_space_group_name_H-M "C C"
_symmetry_group_IT_number 9
_symmetry_cell_setting 'monoclinic'
loop_
_space_group_symop_operation_xyz
x,y,z
x,-y,1/2+z
1/2+x,1/2+y,z
1/2+x,1/2-y,1/2+z
loop_
_atom_site_type_symbol
_atom_site_label
_atom_site_fract_x
_atom_site_fract_y
_atom_site_fract_z
Si Si1 0.544200 0.962329 0.000000
Si Si2 0.754705 0.638082 0.923299
Si Si3 0.694646 0.345154 0.976419
Si Si4 0.375326 0.622810 0.495180
Si Si5 0.385792 0.369115 0.713074
Si Si6 0.978766 0.689613 0.629734
Si Si7 0.694936 0.101978 0.527407
O O1 0.611694 0.860663 0.011025
O O2 0.509633 0.086820 0.824452
O O3 0.445778 0.908592 0.929652
O O4 0.628738 0.024010 0.274521
O O5 0.730438 0.486826 0.954748
O O6 0.683435 0.635126 0.638800
O O7 0.855531 0.716069 0.015984
O O8 0.733553 0.755758 0.014740
O O9 0.577996 0.276098 0.734961
O O10 0.785564 0.229806 0.089838
O O11 0.394320 0.533702 0.680293
O O12 0.454795 0.634409 0.493551
O O13 0.276294 0.518502 0.246892
O O14 0.406523 0.299771 0.587579
#
# Coordination Sequence:
#
# PCOD9135281 Si02
#       7
#     4   4   4   4   4   4   4
#     4  10  20  38  68  94 130 177 226 273 340 401
#     4  11  23  39  67  99 136 174 224 278 344 398
#     4  11  26  42  65 103 135 177 224 285 343 401
#     4  11  21  42  69  98 127 187 227 279 338 414
#     4  11  25  44  68  96 141 175 239 275 340 415
#     4  11  24  44  66 102 139 178 234 284 338 414
#     4  11  17  39  71  96 122 176 228 272 329 417
#
# _framework density 27.358668000000002
#
# number of rings (size 3 to 8) (size 9 to 14) (size 15 to 20)
#    0.000    1.143    4.286    3.429    4.000    3.429 
#    0.000    1.429    0.000    0.000    0.000    0.000 
#    0.000    0.000    0.000    0.000    0.000    0.000 
#
# Total GULP energy -78011.027796 kJ/mol
# GULP energy per Si atom -5572.216271 kJ/mol
# Density = 2.729640 g / cm^3
# Si number density = 27.358668 Si / 1000 Ang^3
#
#
#
# Elastic Constant Matrix: (Units=GPa)
#
#
# Indices 1 2 3 4 5 6 
#
# 1 159.7322 69.2223 35.2857 0.0000 -42.5457 0.0000
# 2 69.2223 144.6203 18.7391 0.0000 -15.6239 0.0000
# 3 35.2857 18.7391 70.0990 0.0000 -40.7745 0.0000
# 4 0.0000 0.0000 0.0000 39.0337 0.0000 -17.3463
# 5 -42.5457 -15.6239 -40.7745 0.0000 46.6727 0.0000
# 6 0.0000 0.0000 0.0000 -17.3463 0.0000 62.6742
#
#
#
# Elastic Compliance Matrix: (Units=1/GPa)
#
#
# Indices 1 2 3 4 5 6 
#
# 1 0.010119 -0.004033 0.001148 0.000000 0.008877 0.000000
# 2 -0.004033 0.008821 -0.001522 0.000000 -0.002054 0.000000
# 3 0.001148 -0.001522 0.029292 0.000000 0.026127 0.000000
# 4 0.000000 0.000000 0.000000 0.029212 0.000000 0.008085
# 5 0.008877 -0.002054 0.026127 0.000000 0.051656 0.000000
# 6 0.000000 0.000000 0.000000 0.008085 0.000000 0.018193
#
#
# Mechanical properties :
#
#
# Convention : Reuss Voigt Hill
#
# Bulk Modulus (GPa) = 25.37001 68.99398 47.18200
# Shear Modulus (GPa) = 29.54268 46.42310 37.98289
#
# Velocity S-wave (km/s) = 3.28964 4.12373 3.73007
# Velocity P-wave (km/s) = 4.87055 6.92435 5.98619
#
# Compressibility (1/GPa) = 0.03941661
#
# Stress axis : x y z
#
# Youngs Moduli (GPa) = 98.82128 113.37154 34.13910
#
# Poissons Ratio (x) = 0.45726 -0.03920
# Poissons Ratio (y) = 0.39858 0.05197
# Poissons Ratio (z) = -0.11346 0.17260
#
# Static dielectric constant tensor:
#      x y z
#    x 2.289250 0.000000 0.161280 
#    y 0.000000 2.246760 0.000000 
#    z 0.161280 0.000000 2.435850 
# 
# From -- ./inp_files/11201.got.cif
#   From: 2010.05.17/outbox.cif.g08.bks.cpg/sg9_6_cif.got.tgz:11201.got - 2010.06.03 20:04:27.
