data_PCOD9135312
_publ_section_title
;
Structure prediction by ZEFSAII (Michael W. Deem and Ramdas Pophale) SiO2 
 PCOD9135312
Probable space group: C C
;
_chemical_formula_sum "Si O2"
_cell_formula_units_Z 20
_cell_length_a 6.990071
_cell_length_b 12.298826
_cell_length_c 12.931185
_cell_angle_alpha 90.000000
_cell_angle_beta 55.944982
_cell_angle_gamma 90.000000
_cell_volume 921.035143
_symmetry_space_group_name_H-M "C C"
_symmetry_group_IT_number 9
_symmetry_cell_setting 'monoclinic'
loop_
_space_group_symop_operation_xyz
x,y,z
x,-y,1/2+z
1/2+x,1/2+y,z
1/2+x,1/2-y,1/2+z
loop_
_atom_site_type_symbol
_atom_site_label
_atom_site_fract_x
_atom_site_fract_y
_atom_site_fract_z
Si Si1 0.273520 0.122839 0.403280
Si Si2 0.342410 0.648112 0.815467
Si Si3 0.874063 0.305966 0.095889
Si Si4 0.504757 0.928710 0.249200
Si Si5 0.016480 0.086297 0.977550
O O1 0.210710 0.238110 0.374805
O O2 0.407171 0.151328 0.468681
O O3 0.426692 0.054684 0.274857
O O4 0.069392 0.037824 0.492050
O O5 0.604561 0.673948 0.702702
O O6 0.209543 0.585325 0.767111
O O7 0.364183 0.589040 0.919543
O O8 0.023813 0.373817 0.132337
O O9 0.923632 0.177119 0.082929
O O10 0.774955 0.626168 0.868675
#
# Coordination Sequence:
#
# PCOD9135312 Si02
#       5
#     4   4   4   4   4
#     4   9  21  42  57  86 123 154 196 236 296 353
#     4  10  20  40  58  86 119 151 200 244 281 347
#     4  10  20  39  62  88 121 151 198 247 282 346
#     4   9  21  40  57  88 119 157 192 239 296 344
#     4   8  20  41  54  86 122 149 196 242 285 348
#
# _framework density 21.714697999999999
#
# number of rings (size 3 to 8) (size 9 to 14) (size 15 to 20)
#    1.200    1.600    0.000    0.000    0.000    6.400 
#   21.600    0.000    0.000    0.000    0.000    0.000 
#    0.000    0.000    0.000    0.000    0.000    0.000 
#
# Total GULP energy -55704.910002 kJ/mol
# GULP energy per Si atom -5570.491000 kJ/mol
# Density = 2.166527 g / cm^3
# Si number density = 21.714698 Si / 1000 Ang^3
#
#
#
# Elastic Constant Matrix: (Units=GPa)
#
#
# Indices 1 2 3 4 5 6 
#
# 1 72.9557 17.6147 -1.9133 0.0000 8.1086 0.0000
# 2 17.6147 82.7213 2.0139 0.0000 4.1662 0.0000
# 3 -1.9133 2.0139 34.9750 0.0000 2.8062 0.0000
# 4 0.0000 0.0000 0.0000 30.4470 0.0000 -8.5230
# 5 8.1086 4.1662 2.8062 0.0000 19.2368 0.0000
# 6 0.0000 0.0000 0.0000 -8.5230 0.0000 25.5342
#
#
#
# Elastic Compliance Matrix: (Units=1/GPa)
#
#
# Indices 1 2 3 4 5 6 
#
# 1 0.015120 -0.002956 0.001475 0.000000 -0.005948 0.000000
# 2 -0.002956 0.012809 -0.000786 0.000000 -0.001413 0.000000
# 3 0.001475 -0.000786 0.029095 0.000000 -0.004696 0.000000
# 4 0.000000 0.000000 0.000000 0.036229 0.000000 0.012093
# 5 -0.005948 -0.001413 -0.004696 0.000000 0.055482 0.000000
# 6 0.000000 0.000000 0.000000 0.012093 0.000000 0.043200
#
#
# Mechanical properties :
#
#
# Convention : Reuss Voigt Hill
#
# Bulk Modulus (GPa) = 19.05157 25.12027 22.08592
# Shear Modulus (GPa) = 23.36826 26.57271 24.97049
#
# Velocity S-wave (km/s) = 3.28403 3.50197 3.39475
# Velocity P-wave (km/s) = 4.81378 5.28632 5.05557
#
# Compressibility (1/GPa) = 0.05248912
#
# Stress axis : x y z
#
# Youngs Moduli (GPa) = 66.13541 78.07275 34.37069
#
# Poissons Ratio (x) = 0.23079 -0.05069
# Poissons Ratio (y) = 0.19550 0.02701
# Poissons Ratio (z) = -0.09753 0.06135
#
# Static dielectric constant tensor:
#      x y z
#    x 1.779600 0.000000 -0.061320 
#    y 0.000000 1.795060 0.000000 
#    z -0.061320 0.000000 1.839850 
# 
# From -- ./inp_files/14075.got.cif
#   From: 2010.05.17/outbox.cif.g08.bks.cpg/sg9_8_cif.got.tgz:14075.got - 2010.06.03 20:04:27.
