data_PCOD9135241
_publ_section_title
;
Structure prediction by ZEFSAII (Michael W. Deem and Ramdas Pophale) SiO2 
 PCOD9135241
Probable space group: C C
;
_chemical_formula_sum "Si O2"
_cell_formula_units_Z 32
_cell_length_a 9.621464
_cell_length_b 11.331218
_cell_length_c 13.668697
_cell_angle_alpha 90.000000
_cell_angle_beta 114.371692
_cell_angle_gamma 90.000000
_cell_volume 1357.405752
_symmetry_space_group_name_H-M "C C"
_symmetry_group_IT_number 9
_symmetry_cell_setting 'monoclinic'
loop_
_space_group_symop_operation_xyz
x,y,z
x,-y,1/2+z
1/2+x,1/2+y,z
1/2+x,1/2-y,1/2+z
loop_
_atom_site_type_symbol
_atom_site_label
_atom_site_fract_x
_atom_site_fract_y
_atom_site_fract_z
Si Si1 0.259530 0.039477 0.802420
Si Si2 0.927393 0.415123 0.540143
Si Si3 0.353302 0.133643 0.644995
Si Si4 0.949183 0.959736 0.513570
Si Si5 0.034571 0.898593 0.864070
Si Si6 0.785896 0.105137 0.140458
Si Si7 0.255994 0.176812 0.164378
Si Si8 0.681387 0.832367 0.315421
O O1 0.234433 0.118204 0.699684
O O2 0.312809 0.919205 0.762208
O O3 0.116532 0.003353 0.827272
O O4 0.373254 0.097972 0.913083
O O5 0.856091 0.539625 0.558595
O O6 0.862004 0.323319 0.600390
O O7 0.108361 0.415511 0.594528
O O8 0.331597 0.267677 0.606989
O O9 0.517306 0.109903 0.745159
O O10 0.867601 0.986957 0.592082
O O11 0.815416 0.901809 0.408068
O O12 0.092238 0.873587 0.579477
O O13 0.015659 0.067947 0.470598
O O14 0.867779 0.889067 0.768195
O O15 0.130214 0.782682 0.863491
O O16 0.236146 0.292262 0.223334
#
# Coordination Sequence:
#
# PCOD9135241 Si02
#       8
#     4   4   4   4   4   4   4   4
#     4  10  20  38  64  93 127 178 213 266 350 386
#     4  11  23  41  68  94 134 178 217 282 343 398
#     4  10  22  41  66  93 138 172 217 291 331 397
#     4  12  21  40  72  92 128 181 218 271 342 400
#     4  10  22  41  65  93 135 172 217 279 331 403
#     4  11  24  42  66 102 127 172 238 267 338 422
#     4  10  22  40  61  95 130 169 221 269 334 400
#     4  10  22  39  64  96 129 170 223 273 329 402
#
# _framework density 23.574380000000001
#
# number of rings (size 3 to 8) (size 9 to 14) (size 15 to 20)
#    0.000    1.500    5.000    1.500    3.500    2.000 
#    0.000    0.000   16.500    0.000    0.000    0.000 
#    0.000    0.000    0.000    0.000    0.000    0.000 
#
# Total GULP energy -89395.248460 kJ/mol
# GULP energy per Si atom -5587.203029 kJ/mol
# Density = 2.352072 g / cm^3
# Si number density = 23.574380 Si / 1000 Ang^3
#
#
#
# Elastic Constant Matrix: (Units=GPa)
#
#
# Indices 1 2 3 4 5 6 
#
# 1 129.4183 9.8593 41.0169 0.0000 -1.9148 0.0000
# 2 9.8593 36.6859 13.3924 0.0000 -8.6972 0.0000
# 3 41.0169 13.3924 150.9343 0.0000 -3.3618 0.0000
# 4 0.0000 0.0000 0.0000 34.3923 0.0000 -1.0826
# 5 -1.9148 -8.6972 -3.3618 0.0000 47.8580 0.0000
# 6 0.0000 0.0000 0.0000 -1.0826 0.0000 21.8339
#
#
#
# Elastic Compliance Matrix: (Units=1/GPa)
#
#
# Indices 1 2 3 4 5 6 
#
# 1 0.008534 -0.001516 -0.002187 0.000000 -0.000088 0.000000
# 2 -0.001516 0.029663 -0.002105 0.000000 0.005182 0.000000
# 3 -0.002187 -0.002105 0.007407 0.000000 0.000050 0.000000
# 4 0.000000 0.000000 0.000000 0.029122 0.000000 0.001444
# 5 -0.000088 0.005182 0.000050 0.000000 0.021837 0.000000
# 6 0.000000 0.000000 0.000000 0.001444 0.000000 0.045872
#
#
# Mechanical properties :
#
#
# Convention : Reuss Voigt Hill
#
# Bulk Modulus (GPa) = 29.42063 49.50844 39.46453
# Shear Modulus (GPa) = 30.23354 37.66816 33.95085
#
# Velocity S-wave (km/s) = 3.58505 4.00164 3.79906
# Velocity P-wave (km/s) = 5.44461 6.51133 6.00171
#
# Compressibility (1/GPa) = 0.03398976
#
# Stress axis : x y z
#
# Youngs Moduli (GPa) = 117.17709 33.71241 134.99876
#
# Poissons Ratio (x) = 0.05111 0.29519
# Poissons Ratio (y) = 0.17765 0.28411
# Poissons Ratio (z) = 0.25622 0.07095
#
# Static dielectric constant tensor:
#      x y z
#    x 1.921660 0.000000 0.011030 
#    y 0.000000 1.977450 0.000000 
#    z 0.011030 0.000000 1.893880 
# 
# From -- ./inp_files/14652.got.cif
#   From: 2010.05.17/outbox.cif.g08.bks.cpg/sg9_8_cif.got.tgz:14652.got - 2010.06.03 20:04:27.
