data_PCOD9135639
_publ_section_title
;
Structure prediction by ZEFSAII (Michael W. Deem and Ramdas Pophale) SiO2 
 PCOD9135639
Probable space group: C C
;
_chemical_formula_sum "Si O2"
_cell_formula_units_Z 28
_cell_length_a 16.978242
_cell_length_b 5.099143
_cell_length_c 16.790801
_cell_angle_alpha 90.000000
_cell_angle_beta 115.114280
_cell_angle_gamma 90.000000
_cell_volume 1316.230821
_symmetry_space_group_name_H-M "C C"
_symmetry_group_IT_number 9
_symmetry_cell_setting 'monoclinic'
loop_
_space_group_symop_operation_xyz
x,y,z
x,-y,1/2+z
1/2+x,1/2+y,z
1/2+x,1/2-y,1/2+z
loop_
_atom_site_type_symbol
_atom_site_label
_atom_site_fract_x
_atom_site_fract_y
_atom_site_fract_z
Si Si1 0.829470 0.931294 0.494250
Si Si2 0.480137 0.788382 0.567134
Si Si3 0.118474 0.103756 0.102836
Si Si4 0.951783 0.318720 0.931302
Si Si5 0.222823 0.929631 0.497478
Si Si6 0.052144 0.639098 0.722001
Si Si7 0.550821 0.639283 0.826219
O O1 0.866157 0.829580 0.425147
O O2 0.783336 0.681400 0.512797
O O3 0.917550 0.056330 0.568455
O O4 0.764777 0.175085 0.474741
O O5 0.578704 0.685036 0.601553
O O6 0.446716 0.889349 0.466696
O O7 0.478974 0.012277 0.633072
O O8 0.200634 0.112961 0.080890
O O9 0.122583 0.248224 0.189121
O O10 0.038475 0.226085 0.017053
O O11 0.976171 0.256689 0.851740
O O12 0.130732 0.967517 0.413642
O O13 0.080452 0.390411 0.786949
O O14 0.024435 0.887765 0.762740
#
# Coordination Sequence:
#
# PCOD9135639 Si02
#       7
#     4   4   4   4   4   4   4
#     4  11  22  39  64  92 125 154 209 260 306 359
#     4  10  20  42  65  93 118 163 209 267 296 358
#     4   9  21  38  65  91 117 157 213 257 296 360
#     4   9  21  38  66  90 117 157 214 255 295 361
#     4  11  24  38  65  92 124 162 208 254 311 366
#     4  11  22  39  64  93 126 157 212 259 309 363
#     4  11  24  38  65  93 123 166 207 252 317 367
#
# _framework density 21.272863000000001
#
# number of rings (size 3 to 8) (size 9 to 14) (size 15 to 20)
#    0.000    1.714    2.857    0.857   12.000    0.000 
#    0.000    0.000   12.571    1.714    0.000    0.000 
#    0.000    0.000    0.000    0.000    0.000    0.000 
#
# Total GULP energy -77994.434408 kJ/mol
# GULP energy per Si atom -5571.031029 kJ/mol
# Density = 2.122445 g / cm^3
# Si number density = 21.272863 Si / 1000 Ang^3
#
#
#
# Elastic Constant Matrix: (Units=GPa)
#
#
# Indices 1 2 3 4 5 6 
#
# 1 101.8791 40.8066 26.9473 0.0000 -33.5401 0.0000
# 2 40.8066 150.6908 39.0869 0.0000 -23.0729 0.0001
# 3 26.9473 39.0869 77.5079 -0.0001 -31.9361 0.0001
# 4 0.0000 0.0000 -0.0001 29.2900 0.0000 6.7696
# 5 -33.5401 -23.0729 -31.9361 0.0000 28.3579 0.0000
# 6 0.0000 0.0001 0.0001 6.7696 0.0000 28.9448
#
#
#
# Elastic Compliance Matrix: (Units=1/GPa)
#
#
# Indices 1 2 3 4 5 6 
#
# 1 0.017499 -0.002319 0.005291 0.000000 0.024769 0.000000
# 2 -0.002319 0.008133 -0.003169 0.000000 0.000306 0.000000
# 3 0.005291 -0.003169 0.026450 0.000000 0.033467 0.000000
# 4 0.000000 0.000000 0.000000 0.036092 0.000000 -0.008441
# 5 0.024769 0.000306 0.033467 0.000000 0.102497 0.000000
# 6 0.000000 0.000000 0.000000 -0.008441 0.000000 0.036523
#
#
# Mechanical properties :
#
#
# Convention : Reuss Voigt Hill
#
# Bulk Modulus (GPa) = 19.34668 60.41773 39.88220
# Shear Modulus (GPa) = 20.42336 32.20102 26.31219
#
# Velocity S-wave (km/s) = 3.10186 3.89487 3.52076
# Velocity P-wave (km/s) = 4.68433 6.97780 5.94275
#
# Compressibility (1/GPa) = 0.05168845
#
# Stress axis : x y z
#
# Youngs Moduli (GPa) = 57.14590 122.95814 37.80683
#
# Poissons Ratio (x) = 0.28509 -0.20004
# Poissons Ratio (y) = 0.13250 0.11982
# Poissons Ratio (z) = -0.30236 0.38969
#
# Static dielectric constant tensor:
#      x y z
#    x 1.790380 0.000000 0.002340 
#    y 0.000000 1.880690 0.000000 
#    z 0.002340 0.000000 1.829730 
# 
# From -- ./inp_files/26277.got.cif
#   From: 2010.05.17/outbox.cif.g08.bks.cpg/sg9_14_cif.got.tgz:26277.got - 2010.06.03 20:04:27.
