data_PCOD9135370
_publ_section_title
;
Structure prediction by ZEFSAII (Michael W. Deem and Ramdas Pophale) SiO2 
 PCOD9135370
Probable space group: C C
;
_chemical_formula_sum "Si O2"
_cell_formula_units_Z 28
_cell_length_a 16.450712
_cell_length_b 6.786279
_cell_length_c 25.340055
_cell_angle_alpha 90.000000
_cell_angle_beta 155.685148
_cell_angle_gamma 90.000000
_cell_volume 1164.818337
_symmetry_space_group_name_H-M "C C"
_symmetry_group_IT_number 9
_symmetry_cell_setting 'monoclinic'
loop_
_space_group_symop_operation_xyz
x,y,z
x,-y,1/2+z
1/2+x,1/2+y,z
1/2+x,1/2-y,1/2+z
loop_
_atom_site_type_symbol
_atom_site_label
_atom_site_fract_x
_atom_site_fract_y
_atom_site_fract_z
Si Si1 0.579280 0.029078 0.766510
Si Si2 0.981777 0.078035 0.547054
Si Si3 0.629111 0.771033 0.006307
Si Si4 0.671790 0.309642 0.009814
Si Si5 0.952734 0.449066 0.470368
Si Si6 0.518325 0.382508 0.186770
Si Si7 0.444333 0.020110 0.805117
O O1 0.564840 0.853467 0.715258
O O2 0.413484 0.192100 0.653017
O O3 0.507380 0.966335 0.783191
O O4 0.814152 0.039105 0.915542
O O5 0.951363 0.041802 0.590733
O O6 0.209840 0.046091 0.668259
O O7 0.952734 0.314332 0.521652
O O8 0.562307 0.847787 0.023901
O O9 0.495674 0.861111 0.880367
O O10 0.633639 0.540398 0.997794
O O11 0.837630 0.879572 0.119805
O O12 0.560632 0.193892 0.991229
O O13 0.564365 0.216948 0.894931
O O14 0.723738 0.481326 0.322530
#
# Coordination Sequence:
#
# PCOD9135370 Si02
#       7
#     4   4   4   4   4   4   4
#     4  10  22  40  67  97 137 179 228 283 346 408
#     4  11  20  39  70  98 133 186 224 283 351 405
#     4  10  21  40  65  95 135 175 224 285 342 407
#     4  10  21  41  66  96 131 175 231 282 333 420
#     4  10  21  40  66  91 134 184 223 279 356 405
#     4  10  20  39  67  96 135 176 227 288 338 401
#     4  11  21  41  69  93 135 185 221 280 360 404
#
# _framework density 24.038084999999999
#
# number of rings (size 3 to 8) (size 9 to 14) (size 15 to 20)
#    0.000    1.714    5.714    0.000    0.000    0.000 
#    5.143   12.857   12.571    0.000    0.000    0.000 
#    0.000    0.000    0.000    0.000    0.000    0.000 
#
# Total GULP energy -78101.837593 kJ/mol
# GULP energy per Si atom -5578.702685 kJ/mol
# Density = 2.398337 g / cm^3
# Si number density = 24.038085 Si / 1000 Ang^3
#
#
#
# Elastic Constant Matrix: (Units=GPa)
#
#
# Indices 1 2 3 4 5 6 
#
# 1 52.1912 15.3551 29.9537 -0.0005 22.9587 -0.0001
# 2 15.3551 102.4227 47.1142 0.0000 12.4598 0.0001
# 3 29.9537 47.1142 190.7207 0.0037 36.3136 -0.0002
# 4 -0.0005 0.0000 0.0037 40.2229 0.0003 7.9966
# 5 22.9587 12.4598 36.3136 0.0003 45.4532 -0.0002
# 6 -0.0001 0.0001 -0.0002 7.9966 -0.0002 41.5263
#
#
#
# Elastic Compliance Matrix: (Units=1/GPa)
#
#
# Indices 1 2 3 4 5 6 
#
# 1 0.025439 -0.001798 -0.001414 0.000001 -0.011227 0.000000
# 2 -0.001798 0.011181 -0.002440 0.000000 -0.000207 0.000000
# 3 -0.001414 -0.002440 0.006846 -0.000001 -0.004087 0.000000
# 4 0.000001 0.000000 -0.000001 0.025851 0.000000 -0.004978
# 5 -0.011227 -0.000207 -0.004087 0.000000 0.030994 0.000000
# 6 0.000000 0.000000 0.000000 -0.004978 0.000000 0.025040
#
#
# Mechanical properties :
#
#
# Convention : Reuss Voigt Hill
#
# Bulk Modulus (GPa) = 31.09133 58.90896 45.00015
# Shear Modulus (GPa) = 33.92710 42.30125 38.11418
#
# Velocity S-wave (km/s) = 3.76092 4.19950 3.98625
# Velocity P-wave (km/s) = 5.64107 6.93355 6.32043
#
# Compressibility (1/GPa) = 0.03216331
#
# Stress axis : x y z
#
# Youngs Moduli (GPa) = 39.30902 89.44004 146.06676
#
# Poissons Ratio (x) = 0.16079 0.20647
# Poissons Ratio (y) = 0.07067 0.35643
# Poissons Ratio (z) = 0.05557 0.21825
#
# Static dielectric constant tensor:
#      x y z
#    x 1.888110 0.000000 0.027560 
#    y 0.000000 1.997190 0.000000 
#    z 0.027560 0.000000 1.978820 
# 
# From -- ./inp_files/19099.got.cif
#   From: 2010.05.17/outbox.cif.g08.bks.cpg/sg9_10_cif.got.tgz:19099.got - 2010.06.03 20:04:27.
