data_PCOD9135479
_publ_section_title
;
Structure prediction by ZEFSAII (Michael W. Deem and Ramdas Pophale) SiO2 
 PCOD9135479
Probable space group: C C
;
_chemical_formula_sum "Si O2"
_cell_formula_units_Z 28
_cell_length_a 17.131064
_cell_length_b 9.050868
_cell_length_c 23.363332
_cell_angle_alpha 90.000000
_cell_angle_beta 20.656102
_cell_angle_gamma 90.000000
_cell_volume 1277.868795
_symmetry_space_group_name_H-M "C C"
_symmetry_group_IT_number 9
_symmetry_cell_setting 'monoclinic'
loop_
_space_group_symop_operation_xyz
x,y,z
x,-y,1/2+z
1/2+x,1/2+y,z
1/2+x,1/2-y,1/2+z
loop_
_atom_site_type_symbol
_atom_site_label
_atom_site_fract_x
_atom_site_fract_y
_atom_site_fract_z
Si Si1 0.500000 0.422934 0.966010
Si Si2 0.693340 0.588433 0.724121
Si Si3 0.388128 0.528969 0.836124
Si Si4 0.638365 0.903051 0.392597
Si Si5 0.033242 0.715992 0.762510
Si Si6 0.099714 0.318416 0.097760
Si Si7 0.894550 0.120103 0.138951
O O1 0.558256 0.511400 0.868408
O O2 0.626896 0.268326 0.884273
O O3 0.245088 0.367654 0.139585
O O4 0.536953 0.529529 0.994869
O O5 0.529428 0.623387 0.783510
O O6 0.788126 0.744676 0.678094
O O7 0.899456 0.476421 0.571285
O O8 0.308482 0.581802 0.829396
O O9 0.544983 0.382900 0.728455
O O10 0.164684 0.466760 0.019318
O O11 0.728489 0.001145 0.279103
O O12 0.976236 0.641807 0.740629
O O13 0.843873 0.743066 0.939285
O O14 0.992490 0.204115 0.127315
#
# Coordination Sequence:
#
# PCOD9135479 Si02
#       7
#     4   4   4   4   4   4   4
#     4  12  26  44  69 102 134 180 226 283 341 402
#     4  12  24  45  69 100 139 178 228 277 337 407
#     4  10  22  40  70  98 136 176 222 272 336 394
#     4  12  24  45  69 100 139 178 228 277 337 407
#     4  10  20  40  67  97 130 180 223 265 336 404
#     4  10  20  40  67  97 130 180 223 265 336 404
#     4  12  26  44  69 102 134 180 226 283 341 402
#
# _framework density 21.911483
#
# number of rings (size 3 to 8) (size 9 to 14) (size 15 to 20)
#    0.857    0.000    5.714    1.714    4.000    0.000 
#    2.571    2.857    0.000    0.000    0.000    0.000 
#    0.000    0.000    0.000    0.000    0.000    0.000 
#
# Total GULP energy -78003.356784 kJ/mol
# GULP energy per Si atom -5571.668342 kJ/mol
# Density = 2.186161 g / cm^3
# Si number density = 21.911483 Si / 1000 Ang^3
#
#
#
# Elastic Constant Matrix: (Units=GPa)
#
#
# Indices 1 2 3 4 5 6 
#
# 1 66.0448 13.4575 1.2966 -0.0183 -7.9732 0.0190
# 2 13.4575 94.5387 -5.0401 0.0074 -11.6911 -0.0159
# 3 1.2966 -5.0401 35.7367 -0.0040 3.6675 -0.0078
# 4 -0.0183 0.0074 -0.0040 48.1190 0.0041 -31.4031
# 5 -7.9732 -11.6911 3.6675 0.0041 29.3793 -0.0031
# 6 0.0190 -0.0159 -0.0078 -31.4031 -0.0031 54.6493
#
#
#
# Elastic Compliance Matrix: (Units=1/GPa)
#
#
# Indices 1 2 3 4 5 6 
#
# 1 0.016001 -0.001880 -0.001230 0.000003 0.003748 -0.000004
# 2 -0.001880 0.011391 0.001278 0.000000 0.003863 0.000005
# 3 -0.001230 0.001278 0.028555 0.000008 -0.003390 0.000009
# 4 0.000003 0.000000 0.000008 0.033252 -0.000003 0.019107
# 5 0.003748 0.003863 -0.003390 -0.000003 0.037015 0.000000
# 6 -0.000004 0.000005 0.000009 0.019107 0.000000 0.029278
#
#
# Mechanical properties :
#
#
# Convention : Reuss Voigt Hill
#
# Bulk Modulus (GPa) = 19.12645 23.97203 21.54924
# Shear Modulus (GPa) = 28.31518 38.86994 33.59256
#
# Velocity S-wave (km/s) = 3.59869 4.21640 3.91973
# Velocity P-wave (km/s) = 5.10052 5.88797 5.50834
#
# Compressibility (1/GPa) = 0.05228361
#
# Stress axis : x y z
#
# Youngs Moduli (GPa) = 62.49649 87.78738 35.01984
#
# Poissons Ratio (x) = 0.16502 0.04309
# Poissons Ratio (y) = 0.11748 -0.04476
# Poissons Ratio (z) = 0.07689 -0.11222
#
# Static dielectric constant tensor:
#      x y z
#    x 1.918810 0.000000 0.024090 
#    y 0.000000 1.782090 0.000010 
#    z 0.024090 0.000010 1.857890 
# 
# From -- ./inp_files/33694.got.cif
#   From: 2010.05.17/outbox.cif.g08.bks.cpg/sg9_17_cif.got.tgz:33694.got - 2010.06.03 20:04:27.
