data_PCOD9135576
_publ_section_title
;
Structure prediction by ZEFSAII (Michael W. Deem and Ramdas Pophale) SiO2 
 PCOD9135576
Probable space group: C C
;
_chemical_formula_sum "Si O2"
_cell_formula_units_Z 24
_cell_length_a 28.632432
_cell_length_b 5.254607
_cell_length_c 14.175600
_cell_angle_alpha 90.000000
_cell_angle_beta 28.202441
_cell_angle_gamma 90.000000
_cell_volume 1007.912668
_symmetry_space_group_name_H-M "C C"
_symmetry_group_IT_number 9
_symmetry_cell_setting 'monoclinic'
loop_
_space_group_symop_operation_xyz
x,y,z
x,-y,1/2+z
1/2+x,1/2+y,z
1/2+x,1/2-y,1/2+z
loop_
_atom_site_type_symbol
_atom_site_label
_atom_site_fract_x
_atom_site_fract_y
_atom_site_fract_z
Si Si1 0.141730 0.125900 0.919420
Si Si2 0.319026 0.769522 0.630947
Si Si3 0.770536 0.046670 0.043955
Si Si4 0.932335 0.587792 0.560446
Si Si5 0.976488 0.096887 0.583138
Si Si6 0.735681 0.149546 0.415852
O O1 0.204489 0.278997 0.728840
O O2 0.143042 0.290691 0.013149
O O3 0.214105 0.905202 0.823934
O O4 0.047577 0.000516 0.039585
O O5 0.318034 0.668441 0.526845
O O6 0.305491 0.537190 0.728132
O O7 0.406535 0.962845 0.504018
O O8 0.706997 0.957892 0.067738
O O9 0.868856 0.148471 0.819489
O O10 0.993308 0.369535 0.505575
O O11 0.816082 0.629852 0.798625
O O12 0.978601 0.861596 0.504245
#
# Coordination Sequence:
#
# PCOD9135576 Si02
#       6
#     4   4   4   4   4   4
#     4  10  24  39  68 103 136 178 235 285 339 422
#     4  10  20  41  68  96 131 176 229 270 349 415
#     4  10  22  41  69  97 133 188 222 278 354 405
#     4  10  20  41  67  92 133 177 217 283 337 402
#     4  11  24  42  68  97 138 174 228 283 339 407
#     4   9  20  42  66  93 135 183 223 283 346 417
#
# _framework density 23.811588
#
# number of rings (size 3 to 8) (size 9 to 14) (size 15 to 20)
#    0.000    2.000    3.333    0.000    9.333    0.000 
#    3.000    1.667    0.000    0.000    0.000    0.000 
#    0.000    0.000    0.000    0.000    0.000    0.000 
#
# Total GULP energy -66809.946992 kJ/mol
# GULP energy per Si atom -5567.495583 kJ/mol
# Density = 2.375739 g / cm^3
# Si number density = 23.811588 Si / 1000 Ang^3
#
#
#
# Elastic Constant Matrix: (Units=GPa)
#
#
# Indices 1 2 3 4 5 6 
#
# 1 181.9335 56.2632 31.1561 -0.0027 -2.0241 -0.0017
# 2 56.2632 105.0255 13.0992 -0.0098 -1.2554 -0.0085
# 3 31.1561 13.0992 62.5616 -0.0010 -7.4678 0.0003
# 4 -0.0027 -0.0098 -0.0010 17.5148 -0.0042 3.1612
# 5 -2.0241 -1.2554 -7.4678 -0.0042 33.3755 -0.0038
# 6 -0.0017 -0.0085 0.0003 3.1612 -0.0038 57.4888
#
#
#
# Elastic Compliance Matrix: (Units=1/GPa)
#
#
# Indices 1 2 3 4 5 6 
#
# 1 0.007035 -0.003420 -0.002827 -0.000001 -0.000335 0.000000
# 2 -0.003420 0.011440 -0.000684 0.000006 0.000070 0.000001
# 3 -0.002827 -0.000684 0.017992 0.000001 0.003829 0.000000
# 4 -0.000001 0.000006 0.000001 0.057667 0.000007 -0.003171
# 5 -0.000335 0.000070 0.003829 0.000007 0.030801 0.000002
# 6 0.000000 0.000001 0.000000 -0.003171 0.000002 0.017569
#
#
# Mechanical properties :
#
#
# Convention : Reuss Voigt Hill
#
# Bulk Modulus (GPa) = 44.23800 61.17306 52.70553
# Shear Modulus (GPa) = 30.50637 38.27596 34.39117
#
# Velocity S-wave (km/s) = 3.58321 4.01365 3.80452
# Velocity P-wave (km/s) = 5.97811 6.87208 6.44062
#
# Compressibility (1/GPa) = 0.02260500
#
# Stress axis : x y z
#
# Youngs Moduli (GPa) = 142.15589 87.41512 55.57915
#
# Poissons Ratio (x) = 0.29895 0.15713
# Poissons Ratio (y) = 0.48615 0.03800
# Poissons Ratio (z) = 0.40189 0.05977
#
# Static dielectric constant tensor:
#      x y z
#    x 2.022550 0.000010 0.055950 
#    y 0.000010 2.098730 0.000010 
#    z 0.055950 0.000010 1.919920 
# 
# From -- ./inp_files/25219.got.cif
#   From: 2010.05.17/outbox.cif.g08.bks.cpg/sg9_13_cif.got.tgz:25219.got - 2010.06.03 20:04:27.
