data_PCOD9135454
_publ_section_title
;
Structure prediction by ZEFSAII (Michael W. Deem and Ramdas Pophale) SiO2 
 PCOD9135454
Probable space group: C C
;
_chemical_formula_sum "Si O2"
_cell_formula_units_Z 32
_cell_length_a 7.708601
_cell_length_b 12.093056
_cell_length_c 18.421551
_cell_angle_alpha 90.000000
_cell_angle_beta 47.791957
_cell_angle_gamma 90.000000
_cell_volume 1271.997344
_symmetry_space_group_name_H-M "C C"
_symmetry_group_IT_number 9
_symmetry_cell_setting 'monoclinic'
loop_
_space_group_symop_operation_xyz
x,y,z
x,-y,1/2+z
1/2+x,1/2+y,z
1/2+x,1/2-y,1/2+z
loop_
_atom_site_type_symbol
_atom_site_label
_atom_site_fract_x
_atom_site_fract_y
_atom_site_fract_z
Si Si1 0.789110 0.394842 0.107620
Si Si2 0.553798 0.888509 0.308913
Si Si3 0.406572 0.780018 0.699560
Si Si4 0.263374 0.787569 0.900774
Si Si5 0.168570 0.518346 0.137480
Si Si6 0.797990 0.140476 0.471069
Si Si7 0.430825 0.560453 0.829950
Si Si8 0.694188 0.520238 0.004796
O O1 0.582914 0.318790 0.132222
O O2 0.679747 0.421455 0.218225
O O3 0.802716 0.503997 0.053981
O O4 0.031253 0.329389 0.026986
O O5 0.652744 0.769783 0.254955
O O6 0.740006 0.934382 0.317123
O O7 0.548010 0.964095 0.240366
O O8 0.307782 0.894747 0.417130
O O9 0.413624 0.802170 0.784475
O O10 0.513839 0.890901 0.640429
O O11 0.362219 0.668371 0.898098
O O12 0.254999 0.899943 0.949545
O O13 0.998602 0.777843 0.943691
O O14 0.235717 0.428366 0.060133
O O15 0.426195 0.554552 0.091024
O O16 0.905805 0.052476 0.382472
#
# Coordination Sequence:
#
# PCOD9135454 Si02
#       8
#     4   4   4   4   4   4   4   4
#     4  10  22  39  62  91 131 161 218 261 322 388
#     4  10  20  40  65  91 130 170 210 267 328 386
#     4  10  22  41  63  90 130 165 213 270 319 390
#     4   9  22  39  63  92 128 165 217 265 323 384
#     4  11  23  38  67  94 125 170 214 271 325 384
#     4  11  24  38  66  96 125 170 216 269 328 380
#     4  10  22  42  64  92 135 168 209 277 321 383
#     4  11  19  39  68  90 124 179 209 260 332 389
#
# _framework density 25.157283
#
# number of rings (size 3 to 8) (size 9 to 14) (size 15 to 20)
#    0.000    2.000    5.000    0.000    3.500    2.000 
#    0.000    0.000   16.500    0.000    0.000    0.000 
#    0.000    0.000    0.000    0.000    0.000    0.000 
#
# Total GULP energy -89237.183005 kJ/mol
# GULP energy per Si atom -5577.323938 kJ/mol
# Density = 2.510002 g / cm^3
# Si number density = 25.157283 Si / 1000 Ang^3
#
#
#
# Elastic Constant Matrix: (Units=GPa)
#
#
# Indices 1 2 3 4 5 6 
#
# 1 48.7355 16.8411 19.3091 -0.0002 -3.1564 0.0002
# 2 16.8411 82.8352 49.9683 -0.0001 -9.5833 0.0000
# 3 19.3091 49.9683 133.4913 -0.0002 -13.6021 0.0001
# 4 -0.0002 -0.0001 -0.0002 36.9051 0.0002 -7.0657
# 5 -3.1564 -9.5833 -13.6021 0.0002 32.0384 -0.0001
# 6 0.0002 0.0000 0.0001 -7.0657 -0.0001 22.9582
#
#
#
# Elastic Compliance Matrix: (Units=1/GPa)
#
#
# Indices 1 2 3 4 5 6 
#
# 1 0.022476 -0.003342 -0.001961 0.000000 0.000382 0.000000
# 2 -0.003342 0.016252 -0.005370 0.000000 0.002252 0.000000
# 3 -0.001961 -0.005370 0.010036 0.000000 0.002461 0.000000
# 4 0.000000 0.000000 0.000000 0.028793 0.000000 0.008862
# 5 0.000382 0.002252 0.002461 0.000000 0.032969 0.000000
# 6 0.000000 0.000000 0.000000 0.008862 0.000000 0.046285
#
#
# Mechanical properties :
#
#
# Convention : Reuss Voigt Hill
#
# Bulk Modulus (GPa) = 36.47553 48.58875 42.53214
# Shear Modulus (GPa) = 26.69573 30.30991 28.50282
#
# Velocity S-wave (km/s) = 3.26107 3.47481 3.36964
# Velocity P-wave (km/s) = 5.35816 5.95441 5.66414
#
# Compressibility (1/GPa) = 0.02741564
#
# Stress axis : x y z
#
# Youngs Moduli (GPa) = 44.49265 61.53158 99.64317
#
# Poissons Ratio (x) = 0.20566 0.19540
# Poissons Ratio (y) = 0.14871 0.53513
# Poissons Ratio (z) = 0.08725 0.33045
#
# Static dielectric constant tensor:
#      x y z
#    x 2.214570 0.000000 -0.130090 
#    y 0.000000 2.112970 0.000000 
#    z -0.130090 0.000000 2.053950 
# 
# From -- ./inp_files/32741.got.cif
#   From: 2010.05.17/outbox.cif.g08.bks.cpg/sg9_17_cif.got.tgz:32741.got - 2010.06.03 20:04:27.
