data_PCOD9135793
_publ_section_title
;
Structure prediction by ZEFSAII (Michael W. Deem and Ramdas Pophale) SiO2 
 PCOD9135793
Probable space group: C C
;
_chemical_formula_sum "Si O2"
_cell_formula_units_Z 28
_cell_length_a 7.829674
_cell_length_b 11.711945
_cell_length_c 13.786003
_cell_angle_alpha 90.000000
_cell_angle_beta 93.358889
_cell_angle_gamma 90.000000
_cell_volume 1262.014566
_symmetry_space_group_name_H-M "C C"
_symmetry_group_IT_number 9
_symmetry_cell_setting 'monoclinic'
loop_
_space_group_symop_operation_xyz
x,y,z
x,-y,1/2+z
1/2+x,1/2+y,z
1/2+x,1/2-y,1/2+z
loop_
_atom_site_type_symbol
_atom_site_label
_atom_site_fract_x
_atom_site_fract_y
_atom_site_fract_z
Si Si1 0.760940 0.323784 0.948790
Si Si2 0.965090 0.155605 0.574901
Si Si3 0.611253 0.545497 0.860622
Si Si4 0.134089 0.701878 0.434697
Si Si5 0.741648 0.977536 0.792057
Si Si6 0.730931 0.782287 0.231873
Si Si7 0.530293 0.571172 0.169399
O O1 0.718521 0.456177 0.926938
O O2 0.737665 0.264516 0.842278
O O3 0.954927 0.303244 0.984354
O O4 0.624013 0.287121 0.025233
O O5 0.798046 0.175998 0.504724
O O6 0.910174 0.199709 0.680292
O O7 0.998964 0.019445 0.584551
O O8 0.653195 0.674021 0.887730
O O9 0.404755 0.524333 0.860981
O O10 0.639414 0.504511 0.750825
O O11 0.127107 0.604136 0.351892
O O12 0.658926 0.089121 0.740973
O O13 0.846333 0.908421 0.713833
O O14 0.626480 0.689958 0.166463
#
# Coordination Sequence:
#
# PCOD9135793 Si02
#       7
#     4   4   4   4   4   4   4
#     4  11  23  43  67 101 133 182 230 273 339 404
#     4  11  23  39  67 103 140 175 223 290 331 393
#     4   9  20  42  66  91 136 173 220 283 328 394
#     4  12  22  39  71 102 129 179 224 273 348 398
#     4   9  19  39  67  93 128 171 224 277 327 397
#     4  10  20  44  72  92 139 184 220 281 339 392
#     4   8  19  42  66  92 139 176 219 285 332 392
#
# _framework density 22.186748000000001
#
# number of rings (size 3 to 8) (size 9 to 14) (size 15 to 20)
#    0.857    1.143    2.857    0.000    2.000    2.286 
#    0.000   11.429    9.429    0.000    0.000    0.000 
#    0.000    0.000    0.000    0.000    0.000    0.000 
#
# Total GULP energy -78043.215642 kJ/mol
# GULP energy per Si atom -5574.515403 kJ/mol
# Density = 2.213625 g / cm^3
# Si number density = 22.186748 Si / 1000 Ang^3
#
#
#
# Elastic Constant Matrix: (Units=GPa)
#
#
# Indices 1 2 3 4 5 6 
#
# 1 77.9225 35.4595 33.0770 0.0000 -22.4542 0.0000
# 2 35.4595 138.0630 32.3125 0.0000 -3.2653 0.0000
# 3 33.0770 32.3125 88.2779 0.0000 -27.7365 0.0000
# 4 0.0000 0.0000 0.0000 36.1795 0.0000 10.8803
# 5 -22.4542 -3.2653 -27.7365 0.0000 42.5954 0.0000
# 6 0.0000 0.0000 0.0000 10.8803 0.0000 32.8173
#
#
#
# Elastic Compliance Matrix: (Units=1/GPa)
#
#
# Indices 1 2 3 4 5 6 
#
# 1 0.017889 -0.003698 -0.003112 0.000000 0.007120 0.000000
# 2 -0.003698 0.008775 -0.002800 0.000000 -0.003100 0.000000
# 3 -0.003112 -0.002800 0.016263 0.000000 0.008735 0.000000
# 4 0.000000 0.000000 0.000000 0.030701 0.000000 -0.010179
# 5 0.007120 -0.003100 0.008735 0.000000 0.032680 0.000000
# 6 0.000000 0.000000 0.000000 -0.010179 0.000000 0.033846
#
#
# Mechanical properties :
#
#
# Convention : Reuss Voigt Hill
#
# Bulk Modulus (GPa) = 42.18263 56.21794 49.20029
# Shear Modulus (GPa) = 29.89045 35.87940 32.88493
#
# Velocity S-wave (km/s) = 3.67443 4.02575 3.85410
# Velocity P-wave (km/s) = 6.08734 6.85583 6.48298
#
# Compressibility (1/GPa) = 0.02370644
#
# Stress axis : x y z
#
# Youngs Moduli (GPa) = 55.90114 113.96189 61.48740
#
# Poissons Ratio (x) = 0.42139 0.19136
# Poissons Ratio (y) = 0.20670 0.17219
# Poissons Ratio (z) = 0.17398 0.31914
#
# Static dielectric constant tensor:
#      x y z
#    x 1.812370 0.000000 0.002520 
#    y 0.000000 1.799580 0.000000 
#    z 0.002520 0.000000 1.895860 
# 
# From -- ./inp_files/29074.got.cif
#   From: 2010.05.17/outbox.cif.g08.bks.cpg/sg9_15_cif.got.tgz:29074.got - 2010.06.03 20:04:27.
