data_PCOD9135617
_publ_section_title
;
Structure prediction by ZEFSAII (Michael W. Deem and Ramdas Pophale) SiO2 
 PCOD9135617
Probable space group: C C
;
_chemical_formula_sum "Si O2"
_cell_formula_units_Z 28
_cell_length_a 17.075804
_cell_length_b 17.656434
_cell_length_c 5.351511
_cell_angle_alpha 90.000000
_cell_angle_beta 130.252293
_cell_angle_gamma 90.000000
_cell_volume 1231.410075
_symmetry_space_group_name_H-M "C C"
_symmetry_group_IT_number 9
_symmetry_cell_setting 'monoclinic'
loop_
_space_group_symop_operation_xyz
x,y,z
x,-y,1/2+z
1/2+x,1/2+y,z
1/2+x,1/2-y,1/2+z
loop_
_atom_site_type_symbol
_atom_site_label
_atom_site_fract_x
_atom_site_fract_y
_atom_site_fract_z
Si Si1 0.275650 0.046011 0.908430
Si Si2 0.120286 0.261522 0.273129
Si Si3 0.171811 0.196059 0.876086
Si Si4 0.326824 0.334442 0.204537
Si Si5 0.640294 0.951361 0.770773
Si Si6 0.861730 0.792252 0.778077
Si Si7 0.964577 0.639243 0.150569
O O1 0.203573 0.115445 0.837991
O O2 0.261534 0.015092 0.598774
O O3 0.390017 0.081038 0.135629
O O4 0.102483 0.233786 0.517246
O O5 0.236478 0.294799 0.520263
O O6 0.127343 0.200272 0.062750
O O7 0.039400 0.321573 0.005833
O O8 0.272480 0.250903 0.094752
O O9 0.390770 0.335593 0.588295
O O10 0.237200 0.395895 0.008934
O O11 0.393055 0.335717 0.092343
O O12 0.537107 0.903476 0.604195
O O13 0.643339 0.988315 0.503959
O O14 0.898966 0.705883 0.882831
#
# Coordination Sequence:
#
# PCOD9135617 Si02
#       7
#     4   4   4   4   4   4   4
#     4  12  26  40  61  99 141 169 196 260 343 403
#     4  10  21  38  64  86 123 167 219 261 293 370
#     4  10  20  42  62  82 129 169 224 248 293 389
#     4  10  20  42  62  82 129 169 224 248 293 389
#     4  12  26  40  61  99 141 169 196 260 343 403
#     4  10  21  38  64  86 123 167 219 261 293 370
#     4  12  24  40  66  98 140 164 206 268 326 388
#
# _framework density 22.738159
#
# number of rings (size 3 to 8) (size 9 to 14) (size 15 to 20)
#    0.000    1.143    5.714    2.571    4.000    3.429 
#    0.000    0.000    0.000    0.000    0.000   20.000 
#    0.000    0.000    0.000    0.000    0.000    0.000 
#
# Total GULP energy -78297.003066 kJ/mol
# GULP energy per Si atom -5592.643076 kJ/mol
# Density = 2.268641 g / cm^3
# Si number density = 22.738159 Si / 1000 Ang^3
#
#
#
# Elastic Constant Matrix: (Units=GPa)
#
#
# Indices 1 2 3 4 5 6 
#
# 1 52.5421 12.8860 33.2711 0.0000 -24.7114 0.0000
# 2 12.8860 63.9856 3.4353 0.0000 -4.7238 0.0000
# 3 33.2711 3.4353 72.9516 0.0000 -29.3312 0.0000
# 4 0.0000 0.0000 0.0000 28.5614 0.0000 3.3551
# 5 -24.7114 -4.7238 -29.3312 0.0000 48.4781 0.0000
# 6 0.0000 0.0000 0.0000 3.3551 0.0000 50.1671
#
#
#
# Elastic Compliance Matrix: (Units=1/GPa)
#
#
# Indices 1 2 3 4 5 6 
#
# 1 0.031056 -0.005029 -0.010253 0.000000 0.009137 0.000000
# 2 -0.005029 0.016558 0.001496 0.000000 -0.000045 0.000000
# 3 -0.010253 0.001496 0.021501 0.000000 0.007928 0.000000
# 4 0.000000 0.000000 0.000000 0.035289 0.000000 -0.002360
# 5 0.009137 -0.000045 0.007928 0.000000 0.030078 0.000000
# 6 0.000000 0.000000 0.000000 -0.002360 0.000000 0.020091
#
#
# Mechanical properties :
#
#
# Convention : Reuss Voigt Hill
#
# Bulk Modulus (GPa) = 24.07242 32.07378 28.07310
# Shear Modulus (GPa) = 25.51111 34.76712 30.13911
#
# Velocity S-wave (km/s) = 3.35319 3.91451 3.64467
# Velocity P-wave (km/s) = 5.05980 5.87942 5.48494
#
# Compressibility (1/GPa) = 0.04154132
#
# Stress axis : x y z
#
# Youngs Moduli (GPa) = 32.20039 60.39481 46.50920
#
# Poissons Ratio (x) = 0.30374 0.47686
# Poissons Ratio (y) = 0.16194 -0.06957
# Poissons Ratio (z) = 0.33015 -0.09034
#
# Static dielectric constant tensor:
#      x y z
#    x 1.918620 0.000000 -0.051730 
#    y 0.000000 1.841310 0.000000 
#    z -0.051730 0.000000 1.924680 
# 
# From -- ./inp_files/3014.got.cif
#   From: 2010.05.17/outbox.cif.g08.bks.cpg/sg9_2_cif.got.tgz:3014.got - 2010.06.03 20:04:27.
