data_PCOD9135985
_publ_section_title
;
Structure prediction by ZEFSAII (Michael W. Deem and Ramdas Pophale) SiO2 
 PCOD9135985
Probable space group: C C
;
_chemical_formula_sum "Si O2"
_cell_formula_units_Z 28
_cell_length_a 8.772135
_cell_length_b 11.171042
_cell_length_c 22.923176
_cell_angle_alpha 90.000000
_cell_angle_beta 139.938228
_cell_angle_gamma 90.000000
_cell_volume 1445.768219
_symmetry_space_group_name_H-M "C C"
_symmetry_group_IT_number 9
_symmetry_cell_setting 'monoclinic'
loop_
_space_group_symop_operation_xyz
x,y,z
x,-y,1/2+z
1/2+x,1/2+y,z
1/2+x,1/2-y,1/2+z
loop_
_atom_site_type_symbol
_atom_site_label
_atom_site_fract_x
_atom_site_fract_y
_atom_site_fract_z
Si Si1 0.869190 0.132604 0.683830
Si Si2 0.508351 0.137620 0.683830
Si Si3 0.418918 0.200191 0.339111
Si Si4 0.771180 0.613351 0.882957
Si Si5 0.297796 0.299809 0.528550
Si Si6 0.793770 0.407639 0.683830
Si Si7 0.974670 0.613351 0.484703
O O1 0.687943 0.102289 0.683830
O O2 0.882120 0.278317 0.683830
O O3 0.733670 0.086622 0.587510
O O4 0.118952 0.086622 0.780151
O O5 0.677654 0.220675 0.773162
O O6 0.320325 0.220675 0.594498
O O7 0.399877 0.023388 0.683830
O O8 0.624902 0.284675 0.373601
O O9 0.367452 0.104076 0.273095
O O10 0.489478 0.151158 0.422087
O O11 0.801608 0.500000 0.933830
O O12 0.036451 0.651158 0.945573
O O13 0.510391 0.395924 0.594565
O O14 0.365818 0.215325 0.494059
#
# Coordination Sequence:
#
# PCOD9135985 Si02
#       7
#     4   4   4   4   4   4   4
#     4   8  20  36  53  83 111 142 192 230 269 335
#     4   8  16  35  59  81 112 149 183 226 271 325
#     4   9  21  36  55  87 113 143 191 227 270 339
#     4  10  21  38  56  80 114 145 183 234 278 325
#     4   9  21  36  55  87 113 143 191 227 270 339
#     4   8  16  35  58  82 117 145 179 232 276 324
#     4  10  21  38  56  80 114 145 183 234 278 325
#
# _framework density 19.366866999999999
#
# number of rings (size 3 to 8) (size 9 to 14) (size 15 to 20)
#    0.000    4.000    0.000    0.000    0.000   13.714 
#    0.000    2.857    0.000    0.000    0.000    0.000 
#    0.000    0.000    0.000    0.000    0.000    0.000 
#
# Total GULP energy -77976.222106 kJ/mol
# GULP energy per Si atom -5569.730150 kJ/mol
# Density = 1.932279 g / cm^3
# Si number density = 19.366867 Si / 1000 Ang^3
#
#
#
# Elastic Constant Matrix: (Units=GPa)
#
#
# Indices 1 2 3 4 5 6 
#
# 1 51.9159 45.8093 44.8749 0.0000 -0.3068 0.0000
# 2 45.8093 71.5849 39.6743 0.0000 0.0772 0.0000
# 3 44.8749 39.6743 185.5237 0.0000 -1.3770 0.0000
# 4 0.0000 0.0000 0.0000 -9.0370 0.0000 0.7359
# 5 -0.3068 0.0772 -1.3770 0.0000 15.7014 0.0000
# 6 0.0000 0.0000 0.0000 0.7359 0.0000 49.3634
#
#
#
# Elastic Compliance Matrix: (Units=1/GPa)
#
#
# Indices 1 2 3 4 5 6 
#
# 1 0.049317 -0.028306 -0.005871 0.000000 0.000588 0.000000
# 2 -0.028306 0.032096 -0.000022 0.000000 -0.000713 0.000000
# 3 -0.005871 -0.000022 0.006819 0.000000 0.000483 0.000000
# 4 0.000000 0.000000 0.000000 -0.110522 0.000000 0.001648
# 5 0.000588 -0.000713 0.000483 0.000000 0.063746 0.000000
# 6 0.000000 0.000000 0.000000 0.001648 0.000000 0.020233
#
#
# Mechanical properties :
#
#
# Convention : Reuss Voigt Hill
#
# Bulk Modulus (GPa) = 50.42178 63.30463 56.86320
# Shear Modulus (GPa) = 36.57650 23.11662 29.84656
#
# Velocity S-wave (km/s) = 4.35053 3.45862 3.92996
# Velocity P-wave (km/s) = 7.16434 6.97907 7.07231
#
# Compressibility (1/GPa) = 0.01983270
#
# Stress axis : x y z
#
# Youngs Moduli (GPa) = 20.27705 31.15613 146.65577
#
# Poissons Ratio (x) = 0.88190 0.86106
# Poissons Ratio (y) = 0.57396 0.00329
# Poissons Ratio (z) = 0.11905 0.00070
#
# Static dielectric constant tensor:
#      x y z
#    x 1.663850 0.000000 -0.000520 
#    y 0.000000 1.709550 0.000000 
#    z -0.000520 0.000000 1.704750 
# 
# From -- ./inp_files/34986.got.cif
#   From: 2010.05.17/outbox.cif.g08.bks.cpg/sg9_18_cif.got.tgz:34986.got - 2010.06.03 20:04:27.
