data_PCOD9135597
_publ_section_title
;
Structure prediction by ZEFSAII (Michael W. Deem and Ramdas Pophale) SiO2 
 PCOD9135597
Probable space group: C C
;
_chemical_formula_sum "Si O2"
_cell_formula_units_Z 32
_cell_length_a 10.152142
_cell_length_b 9.036198
_cell_length_c 24.027699
_cell_angle_alpha 90.000000
_cell_angle_beta 142.241922
_cell_angle_gamma 90.000000
_cell_volume 1349.709352
_symmetry_space_group_name_H-M "C C"
_symmetry_group_IT_number 9
_symmetry_cell_setting 'monoclinic'
loop_
_space_group_symop_operation_xyz
x,y,z
x,-y,1/2+z
1/2+x,1/2+y,z
1/2+x,1/2-y,1/2+z
loop_
_atom_site_type_symbol
_atom_site_label
_atom_site_fract_x
_atom_site_fract_y
_atom_site_fract_z
Si Si1 0.811550 0.526000 0.200590
Si Si2 0.484922 0.850274 0.866914
Si Si3 0.897076 0.771490 0.767284
Si Si4 0.851464 0.644723 0.445370
Si Si5 0.940642 0.770902 0.154096
Si Si6 0.603822 0.610798 0.976946
Si Si7 0.171620 0.550480 0.098417
Si Si8 0.988681 0.867368 0.012134
O O1 0.961609 0.378433 0.255246
O O2 0.601310 0.666760 0.366146
O O3 0.887306 0.657124 0.185729
O O4 0.821746 0.599942 0.264929
O O5 0.415764 0.916077 0.904405
O O6 0.500988 0.674559 0.886461
O O7 0.730821 0.882967 0.930983
O O8 0.695904 0.719254 0.736342
O O9 0.800727 0.896481 0.695191
O O10 0.600757 0.547618 0.602032
O O11 0.965691 0.803203 0.479248
O O12 0.955023 0.547528 0.527898
O O13 0.828840 0.930485 0.121683
O O14 0.835510 0.687928 0.065226
O O15 0.574034 0.445569 0.984902
O O16 0.088452 0.702604 0.043444
#
# Coordination Sequence:
#
# PCOD9135597 Si02
#       8
#     4   4   4   4   4   4   4   4
#     4  10  23  42  72 100 132 189 227 282 357 403
#     4  10  21  40  71  96 142 182 231 292 336 414
#     4  11  23  44  70  97 142 183 231 290 343 414
#     4   9  22  41  67 101 139 182 235 282 340 416
#     4  10  22  45  67  97 136 173 228 291 342 413
#     4   8  18  39  68  92 131 178 227 277 337 416
#     4  10  23  42  71 102 138 179 232 286 347 418
#     4  10  20  41  70  97 142 184 229 284 352 406
#
# _framework density 23.708808000000001
#
# number of rings (size 3 to 8) (size 9 to 14) (size 15 to 20)
#    0.750    1.500    0.000    2.250    1.750    1.000 
#    4.500    5.000   16.500    0.000    0.000    0.000 
#    0.000    0.000    0.000    0.000    0.000    0.000 
#
# Total GULP energy -89209.757519 kJ/mol
# GULP energy per Si atom -5575.609845 kJ/mol
# Density = 2.365485 g / cm^3
# Si number density = 23.708808 Si / 1000 Ang^3
#
#
#
# Elastic Constant Matrix: (Units=GPa)
#
#
# Indices 1 2 3 4 5 6 
#
# 1 94.5920 59.2274 43.0453 0.0000 19.3314 0.0000
# 2 59.2274 125.9223 46.1910 0.0000 10.0002 0.0000
# 3 43.0453 46.1910 89.6162 0.0000 16.9515 0.0000
# 4 0.0000 0.0000 0.0000 34.2142 0.0000 -13.1920
# 5 19.3314 10.0002 16.9515 0.0000 41.1375 0.0000
# 6 0.0000 0.0000 0.0000 -13.1920 0.0000 23.5054
#
#
#
# Elastic Compliance Matrix: (Units=1/GPa)
#
#
# Indices 1 2 3 4 5 6 
#
# 1 0.017409 -0.006254 -0.004206 0.000000 -0.004927 0.000000
# 2 -0.006254 0.012044 -0.003477 0.000000 0.001444 0.000000
# 3 -0.004206 -0.003477 0.015658 0.000000 -0.003630 0.000000
# 4 0.000000 0.000000 0.000000 0.037299 0.000000 0.020933
# 5 -0.004927 0.001444 -0.003630 0.000000 0.027769 0.000000
# 6 0.000000 0.000000 0.000000 0.020933 0.000000 0.054292
#
#
# Mechanical properties :
#
#
# Convention : Reuss Voigt Hill
#
# Bulk Modulus (GPa) = 58.01855 67.45089 62.73472
# Shear Modulus (GPa) = 25.24112 30.54921 27.89516
#
# Velocity S-wave (km/s) = 3.26641 3.59349 3.43384
# Velocity P-wave (km/s) = 6.22498 6.76232 6.49920
#
# Compressibility (1/GPa) = 0.01723587
#
# Stress axis : x y z
#
# Youngs Moduli (GPa) = 57.44303 83.03168 63.86528
#
# Poissons Ratio (x) = 0.51926 0.26865
# Poissons Ratio (y) = 0.35924 0.22205
# Poissons Ratio (z) = 0.24163 0.28869
#
# Static dielectric constant tensor:
#      x y z
#    x 1.984230 0.000000 -0.014740 
#    y 0.000000 1.938240 0.000000 
#    z -0.014740 0.000000 1.908190 
# 
# From -- ./inp_files/35238.got.cif
#   From: 2010.05.17/outbox.cif.g08.bks.cpg/sg9_18_cif.got.tgz:35238.got - 2010.06.03 20:04:27.
