data_PCOD9135098
_publ_section_title
;
Structure prediction by ZEFSAII (Michael W. Deem and Ramdas Pophale) SiO2 
 PCOD9135098
Probable space group: C C
;
_chemical_formula_sum "Si O2"
_cell_formula_units_Z 28
_cell_length_a 12.314720
_cell_length_b 7.101999
_cell_length_c 13.823947
_cell_angle_alpha 90.000000
_cell_angle_beta 119.846485
_cell_angle_gamma 90.000000
_cell_volume 1048.666953
_symmetry_space_group_name_H-M "C C"
_symmetry_group_IT_number 9
_symmetry_cell_setting 'monoclinic'
loop_
_space_group_symop_operation_xyz
x,y,z
x,-y,1/2+z
1/2+x,1/2+y,z
1/2+x,1/2-y,1/2+z
loop_
_atom_site_type_symbol
_atom_site_label
_atom_site_fract_x
_atom_site_fract_y
_atom_site_fract_z
Si Si1 0.392840 0.739757 0.905730
Si Si2 0.965913 0.239801 0.142290
Si Si3 0.636534 0.937626 0.933702
Si Si4 0.076553 0.350400 0.703288
Si Si5 0.141102 0.870496 0.875435
Si Si6 0.818630 0.199058 0.676295
Si Si7 0.706980 0.413725 0.106603
O O1 0.504502 0.864264 0.913820
O O2 0.537278 0.395957 0.748033
O O3 0.279301 0.872295 0.891989
O O4 0.437789 0.648068 0.026052
O O5 0.049852 0.429762 0.164851
O O6 0.836889 0.312954 0.132350
O O7 0.242779 0.110898 0.169950
O O8 0.659211 0.841818 0.838749
O O9 0.623184 0.155616 0.902584
O O10 0.738654 0.909583 0.061616
O O11 0.941880 0.272874 0.676718
O O12 0.133010 0.228525 0.642082
O O13 0.348139 0.613526 0.795204
O O14 0.139076 0.976509 0.976046
#
# Coordination Sequence:
#
# PCOD9135098 Si02
#       7
#     4   4   4   4   4   4   4
#     4  10  20  37  61  85 117 159 200 243 298 356
#     4   9  19  37  59  87 118 154 200 248 293 352
#     4  10  21  38  58  85 121 159 199 248 301 355
#     4   9  20  36  57  84 119 161 200 240 297 357
#     4  10  21  38  62  87 115 160 204 243 300 360
#     4  10  22  38  58  87 123 156 195 252 304 352
#     4  10  21  36  59  89 117 159 204 242 301 362
#
# _framework density 26.700564
#
# number of rings (size 3 to 8) (size 9 to 14) (size 15 to 20)
#    0.000    2.286    0.000    2.571    0.000    6.857 
#    0.000    7.143    0.000    0.000    0.000    0.000 
#    0.000    0.000    0.000    0.000    0.000    0.000 
#
# Total GULP energy -78520.190124 kJ/mol
# GULP energy per Si atom -5608.585009 kJ/mol
# Density = 2.663979 g / cm^3
# Si number density = 26.700564 Si / 1000 Ang^3
#
#
#
# Elastic Constant Matrix: (Units=GPa)
#
#
# Indices 1 2 3 4 5 6 
#
# 1 105.8707 37.6499 70.2751 0.0000 -13.6891 0.0000
# 2 37.6499 83.2586 28.2521 0.0000 -10.3408 0.0000
# 3 70.2751 28.2521 260.7421 0.0000 6.5605 0.0000
# 4 0.0000 0.0000 0.0000 43.2795 0.0000 -10.4283
# 5 -13.6891 -10.3408 6.5605 0.0000 52.9315 0.0000
# 6 0.0000 0.0000 0.0000 -10.4283 0.0000 33.0222
#
#
#
# Elastic Compliance Matrix: (Units=1/GPa)
#
#
# Indices 1 2 3 4 5 6 
#
# 1 0.013665 -0.004702 -0.003249 0.000000 0.003018 0.000000
# 2 -0.004702 0.014458 -0.000341 0.000000 0.001651 0.000000
# 3 -0.003249 -0.000341 0.004786 0.000000 -0.001500 0.000000
# 4 0.000000 0.000000 0.000000 0.025009 0.000000 0.007898
# 5 0.003018 0.001651 -0.001500 0.000000 0.020181 0.000000
# 6 0.000000 0.000000 0.000000 0.007898 0.000000 0.032777
#
#
# Mechanical properties :
#
#
# Convention : Reuss Voigt Hill
#
# Bulk Modulus (GPa) = 61.25963 80.24728 70.75345
# Shear Modulus (GPa) = 37.62234 46.75960 42.19097
#
# Velocity S-wave (km/s) = 3.75780 4.18934 3.97943
# Velocity P-wave (km/s) = 6.46692 7.31578 6.90441
#
# Compressibility (1/GPa) = 0.01632397
#
# Stress axis : x y z
#
# Youngs Moduli (GPa) = 73.18148 69.16773 208.95783
#
# Poissons Ratio (x) = 0.32521 0.67898
# Poissons Ratio (y) = 0.34408 0.07122
# Poissons Ratio (z) = 0.23779 0.02358
#
# Static dielectric constant tensor:
#      x y z
#    x 2.092360 0.000000 0.068810 
#    y 0.000000 2.108360 0.000000 
#    z 0.068810 0.000000 2.135440 
# 
# From -- ./inp_files/16029.got.cif
#   From: 2010.05.17/outbox.cif.g08.bks.cpg/sg9_9_cif.got.tgz:16029.got - 2010.06.03 20:04:27.
