data_PCOD9135475
_publ_section_title
;
Structure prediction by ZEFSAII (Michael W. Deem and Ramdas Pophale) SiO2 
 PCOD9135475
Probable space group: C C
;
_chemical_formula_sum "Si O2"
_cell_formula_units_Z 32
_cell_length_a 11.714501
_cell_length_b 10.522049
_cell_length_c 12.557356
_cell_angle_alpha 90.000000
_cell_angle_beta 110.804735
_cell_angle_gamma 90.000000
_cell_volume 1446.902668
_symmetry_space_group_name_H-M "C C"
_symmetry_group_IT_number 9
_symmetry_cell_setting 'monoclinic'
loop_
_space_group_symop_operation_xyz
x,y,z
x,-y,1/2+z
1/2+x,1/2+y,z
1/2+x,1/2-y,1/2+z
loop_
_atom_site_type_symbol
_atom_site_label
_atom_site_fract_x
_atom_site_fract_y
_atom_site_fract_z
Si Si1 0.330270 0.761602 0.695950
Si Si2 0.110398 0.545942 0.083438
Si Si3 0.565262 0.889827 0.871653
Si Si4 0.267883 0.203615 0.843587
Si Si5 0.731765 0.060435 0.817428
Si Si6 0.829386 0.471205 0.535662
Si Si7 0.683194 0.678385 0.579607
Si Si8 0.415929 0.396931 0.014389
O O1 0.436563 0.835071 0.795629
O O2 0.255796 0.691932 0.765280
O O3 0.273073 0.872086 0.603176
O O4 0.379118 0.658263 0.620839
O O5 0.215222 0.528458 0.206615
O O6 0.142746 0.678814 0.038190
O O7 0.974607 0.554327 0.088368
O O8 0.095972 0.423238 0.003389
O O9 0.657485 0.783589 0.858453
O O10 0.603408 0.024479 0.830313
O O11 0.246744 0.187215 0.714473
O O12 0.382583 0.285040 0.920253
O O13 0.283241 0.069953 0.905279
O O14 0.835136 0.012931 0.936839
O O15 0.781759 0.611294 0.538907
O O16 0.561211 0.592954 0.554060
#
# Coordination Sequence:
#
# PCOD9135475 Si02
#       8
#     4   4   4   4   4   4   4   4
#     4  11  22  45  71 102 139 187 236 286 362 421
#     4  12  23  45  68 100 144 186 237 293 358 427
#     4  11  23  42  72  91 139 186 228 300 350 420
#     4  10  20  44  65  92 139 184 225 294 362 410
#     4  11  22  42  73  99 136 191 234 287 360 423
#     4  11  25  40  71 102 137 194 233 289 362 423
#     4  12  23  42  71 100 143 186 238 292 358 428
#     4  10  20  40  67 102 133 188 233 289 358 418
#
# _framework density 22.116209000000001
#
# number of rings (size 3 to 8) (size 9 to 14) (size 15 to 20)
#    0.000    1.000    7.500    2.250    3.500    1.000 
#    0.000    0.000    0.000    0.000    0.000    0.000 
#    0.000    0.000    0.000    0.000    0.000    0.000 
#
# Total GULP energy -89115.460594 kJ/mol
# GULP energy per Si atom -5569.716287 kJ/mol
# Density = 2.206587 g / cm^3
# Si number density = 22.116209 Si / 1000 Ang^3
#
#
#
# Elastic Constant Matrix: (Units=GPa)
#
#
# Indices 1 2 3 4 5 6 
#
# 1 47.0630 37.7218 3.5188 0.0000 5.9347 0.0000
# 2 37.7218 52.8549 11.2347 0.0000 -7.1244 0.0000
# 3 3.5188 11.2347 92.6983 0.0000 -0.7369 0.0000
# 4 0.0000 0.0000 0.0000 43.6445 0.0000 -8.6602
# 5 5.9347 -7.1244 -0.7369 0.0000 14.5198 0.0000
# 6 0.0000 0.0000 0.0000 -8.6602 0.0000 40.2108
#
#
#
# Elastic Compliance Matrix: (Units=1/GPa)
#
#
# Indices 1 2 3 4 5 6 
#
# 1 0.091786 -0.076710 0.005217 0.000000 -0.074890 0.000000
# 2 -0.076710 0.084907 -0.006801 0.000000 0.072669 0.000000
# 3 0.005217 -0.006801 0.011375 0.000000 -0.004892 0.000000
# 4 0.000000 0.000000 0.000000 0.023935 0.000000 0.005155
# 5 -0.074890 0.072669 -0.004892 0.000000 0.134889 0.000000
# 6 0.000000 0.000000 0.000000 0.005155 0.000000 0.025979
#
#
# Mechanical properties :
#
#
# Convention : Reuss Voigt Hill
#
# Bulk Modulus (GPa) = 31.76454 33.06297 32.41376
# Shear Modulus (GPa) = 9.26008 29.01775 19.13892
#
# Velocity S-wave (km/s) = 2.04844 3.62616 2.94492
# Velocity P-wave (km/s) = 4.47085 5.70212 5.12361
#
# Compressibility (1/GPa) = 0.03148164
#
# Stress axis : x y z
#
# Youngs Moduli (GPa) = 10.89492 11.77757 87.91224
#
# Poissons Ratio (x) = 0.90345 -0.45867
# Poissons Ratio (y) = 0.83575 0.59788
# Poissons Ratio (z) = -0.05684 0.08010
#
# Static dielectric constant tensor:
#      x y z
#    x 1.895570 0.000000 -0.012900 
#    y 0.000000 1.887330 0.000000 
#    z -0.012900 0.000000 1.868800 
# 
# From -- ./inp_files/16584.got.cif
#   From: 2010.05.17/outbox.cif.g08.bks.cpg/sg9_9_cif.got.tgz:16584.got - 2010.06.03 20:04:27.
