data_PCOD9135308
_publ_section_title
;
Structure prediction by ZEFSAII (Michael W. Deem and Ramdas Pophale) SiO2 
 PCOD9135308
Probable space group: C C
;
_chemical_formula_sum "Si O2"
_cell_formula_units_Z 24
_cell_length_a 21.580005
_cell_length_b 7.564035
_cell_length_c 21.173253
_cell_angle_alpha 90.000000
_cell_angle_beta 15.166996
_cell_angle_gamma 90.000000
_cell_volume 904.243941
_symmetry_space_group_name_H-M "C C"
_symmetry_group_IT_number 9
_symmetry_cell_setting 'monoclinic'
loop_
_space_group_symop_operation_xyz
x,y,z
x,-y,1/2+z
1/2+x,1/2+y,z
1/2+x,1/2-y,1/2+z
loop_
_atom_site_type_symbol
_atom_site_label
_atom_site_fract_x
_atom_site_fract_y
_atom_site_fract_z
Si Si1 0.120460 0.374648 0.216750
Si Si2 0.213014 0.983145 0.073311
Si Si3 0.952425 0.345877 0.521796
Si Si4 0.305196 0.293375 0.593312
Si Si5 0.989566 0.059586 0.662328
Si Si6 0.479406 0.029987 0.126100
O O1 0.143475 0.181608 0.164292
O O2 0.955699 0.370850 0.442803
O O3 0.313213 0.507163 0.058112
O O4 0.992840 0.482287 0.285855
O O5 0.239417 0.830591 0.098876
O O6 0.049403 0.927473 0.177305
O O7 0.980483 0.487883 0.549460
O O8 0.694933 0.265719 0.790046
O O9 0.557701 0.240173 0.373997
O O10 0.974861 0.257602 0.647461
O O11 0.735669 0.970538 0.899528
O O12 0.225573 0.966855 0.401954
#
# Coordination Sequence:
#
# PCOD9135308 Si02
#       6
#     4   4   4   4   4   4
#     4  11  24  41  67 106 139 178 224 283 359 410
#     4  11  24  41  66 104 142 180 222 282 352 420
#     4  12  21  40  65  98 136 174 238 289 331 412
#     4  10  24  40  61  92 134 176 216 262 339 404
#     4  10  21  35  62  95 127 167 226 269 329 402
#     4  10  20  39  61  99 122 177 234 275 322 396
#
# _framework density 26.541509000000001
#
# number of rings (size 3 to 8) (size 9 to 14) (size 15 to 20)
#    0.000    1.333    5.000    1.000    9.333    1.333 
#    0.000    0.000    0.000    0.000   34.667    0.000 
#    0.000    0.000    0.000    0.000    0.000    0.000 
#
# Total GULP energy -66853.126799 kJ/mol
# GULP energy per Si atom -5571.093900 kJ/mol
# Density = 2.648110 g / cm^3
# Si number density = 26.541509 Si / 1000 Ang^3
#
#
#
# Elastic Constant Matrix: (Units=GPa)
#
#
# Indices 1 2 3 4 5 6 
#
# 1 108.6231 11.5112 38.1570 -0.0026 -3.9439 0.0010
# 2 11.5112 105.3046 10.1063 0.0035 11.8968 -0.0004
# 3 38.1570 10.1063 181.7812 0.0064 -36.5317 -0.0003
# 4 -0.0026 0.0035 0.0064 23.4439 0.0007 -5.5186
# 5 -3.9439 11.8968 -36.5317 0.0007 31.0681 -0.0004
# 6 0.0010 -0.0004 -0.0003 -5.5186 -0.0004 14.0108
#
#
#
# Elastic Compliance Matrix: (Units=1/GPa)
#
#
# Indices 1 2 3 4 5 6 
#
# 1 0.010051 -0.000750 -0.002297 0.000002 -0.001138 0.000000
# 2 -0.000750 0.010411 -0.001626 -0.000001 -0.005994 0.000000
# 3 -0.002297 -0.001626 0.008040 -0.000003 0.009785 0.000000
# 4 0.000002 -0.000001 -0.000003 0.047014 -0.000003 0.018518
# 5 -0.001138 -0.005994 0.009785 -0.000003 0.045844 0.000000
# 6 0.000000 0.000000 0.000000 0.018518 0.000000 0.078668
#
#
# Mechanical properties :
#
#
# Convention : Reuss Voigt Hill
#
# Bulk Modulus (GPa) = 52.19873 57.25087 54.72480
# Shear Modulus (GPa) = 23.17399 36.10019 29.63709
#
# Velocity S-wave (km/s) = 2.95807 3.69201 3.34523
# Velocity P-wave (km/s) = 5.60147 6.30807 5.96524
#
# Compressibility (1/GPa) = 0.01915756
#
# Stress axis : x y z
#
# Youngs Moduli (GPa) = 99.49176 96.04807 124.37697
#
# Poissons Ratio (x) = 0.07201 0.28566
# Poissons Ratio (y) = 0.07460 0.20224
# Poissons Ratio (z) = 0.22850 0.15618
#
# Static dielectric constant tensor:
#      x y z
#    x 2.051860 0.000000 -0.045270 
#    y 0.000000 2.248770 0.000010 
#    z -0.045270 0.000010 2.698800 
# 
# From -- ./inp_files/3267.got.cif
#   From: 2010.05.17/outbox.cif.g08.bks.cpg/sg9_2_cif.got.tgz:3267.got - 2010.06.03 20:04:27.
