data_PCOD9135394
_publ_section_title
;
Structure prediction by ZEFSAII (Michael W. Deem and Ramdas Pophale) SiO2 
 PCOD9135394
Probable space group: C C
;
_chemical_formula_sum "Si O2"
_cell_formula_units_Z 28
_cell_length_a 22.171405
_cell_length_b 5.305919
_cell_length_c 10.022342
_cell_angle_alpha 90.000000
_cell_angle_beta 63.425715
_cell_angle_gamma 90.000000
_cell_volume 1054.467115
_symmetry_space_group_name_H-M "C C"
_symmetry_group_IT_number 9
_symmetry_cell_setting 'monoclinic'
loop_
_space_group_symop_operation_xyz
x,y,z
x,-y,1/2+z
1/2+x,1/2+y,z
1/2+x,1/2-y,1/2+z
loop_
_atom_site_type_symbol
_atom_site_label
_atom_site_fract_x
_atom_site_fract_y
_atom_site_fract_z
Si Si1 0.392310 0.998735 0.745120
Si Si2 0.067848 0.929223 0.338471
Si Si3 0.811020 0.780493 0.527757
Si Si4 0.257721 0.169642 0.319304
Si Si5 0.636893 0.355458 0.533639
Si Si6 0.427229 0.506162 0.079172
Si Si7 0.675288 0.950478 0.772871
O O1 0.288583 0.630239 0.897263
O O2 0.433875 0.761973 0.646013
O O3 0.426497 0.264865 0.686791
O O4 0.362130 0.938199 0.920902
O O5 0.089054 0.984242 0.469855
O O6 0.109188 0.669649 0.268783
O O7 0.988258 0.932817 0.418554
O O8 0.099126 0.131849 0.208594
O O9 0.823763 0.494341 0.723044
O O10 0.858140 0.971202 0.563093
O O11 0.737355 0.768938 0.669702
O O12 0.216057 0.289019 0.239497
O O13 0.206477 0.003834 0.456344
O O14 0.653837 0.088616 0.449586
#
# Coordination Sequence:
#
# PCOD9135394 Si02
#       7
#     4   4   4   4   4   4   4
#     4  10  26  42  72 103 144 186 244 299 365 432
#     4  10  25  44  72  99 147 189 243 296 374 437
#     4  10  21  41  71 103 144 190 240 311 356 436
#     4  10  20  39  70 102 137 183 243 303 362 417
#     4  10  22  44  66 104 137 186 237 301 362 435
#     4  12  25  50  66 110 144 197 241 298 371 441
#     4  10  21  42  65 105 137 183 244 298 368 424
#
# _framework density 26.553695000000001
#
# number of rings (size 3 to 8) (size 9 to 14) (size 15 to 20)
#    1.714    0.000    2.857    0.857    2.000    3.429 
#    7.714    0.000    0.000    0.000    0.000    0.000 
#    0.000    0.000    0.000    0.000    0.000    0.000 
#
# Total GULP energy -78031.027321 kJ/mol
# GULP energy per Si atom -5573.644809 kJ/mol
# Density = 2.649326 g / cm^3
# Si number density = 26.553695 Si / 1000 Ang^3
#
#
#
# Elastic Constant Matrix: (Units=GPa)
#
#
# Indices 1 2 3 4 5 6 
#
# 1 74.8432 9.4597 38.2336 0.0000 -19.7136 0.0000
# 2 9.4597 104.0379 18.5281 0.0000 -8.3802 0.0000
# 3 38.2336 18.5281 119.7080 0.0000 -26.6573 0.0000
# 4 0.0000 0.0000 0.0000 34.4048 0.0000 2.2414
# 5 -19.7136 -8.3802 -26.6573 0.0000 47.0810 0.0000
# 6 0.0000 0.0000 0.0000 2.2414 0.0000 21.5119
#
#
#
# Elastic Compliance Matrix: (Units=1/GPa)
#
#
# Indices 1 2 3 4 5 6 
#
# 1 0.016799 -0.000398 -0.004295 0.000000 0.004532 0.000000
# 2 -0.000398 0.009937 -0.001206 0.000000 0.000919 0.000000
# 3 -0.004295 -0.001206 0.010829 0.000000 0.004118 0.000000
# 4 0.000000 0.000000 0.000000 0.029264 0.000000 -0.003049
# 5 0.004532 0.000919 0.004118 0.000000 0.025633 0.000000
# 6 0.000000 0.000000 0.000000 -0.003049 0.000000 0.046804
#
#
# Mechanical properties :
#
#
# Convention : Reuss Voigt Hill
#
# Bulk Modulus (GPa) = 38.80812 47.89242 43.35027
# Shear Modulus (GPa) = 31.31792 36.09071 33.70432
#
# Velocity S-wave (km/s) = 3.43799 3.69068 3.56657
# Velocity P-wave (km/s) = 5.51420 6.01969 5.77248
#
# Compressibility (1/GPa) = 0.02576780
#
# Stress axis : x y z
#
# Youngs Moduli (GPa) = 59.52688 100.63490 92.34267
#
# Poissons Ratio (x) = 0.04001 0.39660
# Poissons Ratio (y) = 0.02367 0.11140
# Poissons Ratio (z) = 0.25566 0.12140
#
# Static dielectric constant tensor:
#      x y z
#    x 2.133420 0.000000 0.086880 
#    y 0.000000 2.213910 0.000000 
#    z 0.086880 0.000000 2.134910 
# 
# From -- ./inp_files/19550.got.cif
#   From: 2010.05.17/outbox.cif.g08.bks.cpg/sg9_10_cif.got.tgz:19550.got - 2010.06.03 20:04:27.
