data_PCOD9135336
_publ_section_title
;
Structure prediction by ZEFSAII (Michael W. Deem and Ramdas Pophale) SiO2 
 PCOD9135336
Probable space group: C C
;
_chemical_formula_sum "Si O2"
_cell_formula_units_Z 32
_cell_length_a 28.211692
_cell_length_b 10.850003
_cell_length_c 15.996545
_cell_angle_alpha 90.000000
_cell_angle_beta 18.108756
_cell_angle_gamma 90.000000
_cell_volume 1521.936366
_symmetry_space_group_name_H-M "C C"
_symmetry_group_IT_number 9
_symmetry_cell_setting 'monoclinic'
loop_
_space_group_symop_operation_xyz
x,y,z
x,-y,1/2+z
1/2+x,1/2+y,z
1/2+x,1/2-y,1/2+z
loop_
_atom_site_type_symbol
_atom_site_label
_atom_site_fract_x
_atom_site_fract_y
_atom_site_fract_z
Si Si1 0.455010 0.077311 0.960550
Si Si2 0.876784 0.510564 0.765487
Si Si3 0.079343 0.124578 0.729786
Si Si4 0.170390 0.610213 0.025455
Si Si5 0.601677 0.414941 0.009759
Si Si6 0.934317 0.963343 0.644283
Si Si7 0.217148 0.737551 0.587391
Si Si8 0.125572 0.344027 0.421156
O O1 0.549368 0.197764 0.833601
O O2 0.558865 0.006711 0.720011
O O3 0.442227 0.982769 0.061236
O O4 0.284834 0.098305 0.212806
O O5 0.015454 0.458699 0.587142
O O6 0.754087 0.402723 0.960154
O O7 0.781267 0.626212 0.960919
O O8 0.079766 0.269503 0.708615
O O9 0.045154 0.055564 0.698729
O O10 0.988790 0.076063 0.961140
O O11 0.319648 0.578455 0.828051
O O12 0.218185 0.626656 0.849244
O O13 0.536296 0.280803 0.095771
O O14 0.559719 0.504112 0.003998
O O15 0.835427 0.851518 0.844273
O O16 0.212720 0.697556 0.691703
#
# Coordination Sequence:
#
# PCOD9135336 Si02
#       8
#     4   4   4   4   4   4   4   4
#     4   9  21  41  62  90 128 169 216 271 322 392
#     4  10  20  39  64  91 125 168 211 269 321 391
#     4  10  22  38  63  91 126 165 214 263 326 384
#     4  10  22  40  62  90 131 167 214 268 325 383
#     4  10  22  41  63  94 124 170 223 265 326 391
#     4  11  23  40  64  91 129 171 210 273 322 386
#     4  10  22  40  63  94 129 165 218 265 333 389
#     4  10  22  37  63  93 124 165 216 262 321 390
#
# _framework density 21.025846000000001
#
# number of rings (size 3 to 8) (size 9 to 14) (size 15 to 20)
#    0.000    2.000    0.000    2.250    5.250    4.000 
#    2.250    1.250    0.000    0.000    0.000    0.000 
#    0.000    0.000    0.000    0.000    0.000    0.000 
#
# Total GULP energy -89181.690590 kJ/mol
# GULP energy per Si atom -5573.855662 kJ/mol
# Density = 2.097799 g / cm^3
# Si number density = 21.025846 Si / 1000 Ang^3
#
#
#
# Elastic Constant Matrix: (Units=GPa)
#
#
# Indices 1 2 3 4 5 6 
#
# 1 120.3596 42.6147 56.5972 0.0000 11.6413 0.0001
# 2 42.6147 84.4326 28.4356 -0.0001 -1.5799 0.0001
# 3 56.5972 28.4356 78.1904 -0.0001 15.3961 0.0001
# 4 0.0000 -0.0001 -0.0001 38.2985 0.0001 3.7851
# 5 11.6413 -1.5799 15.3961 0.0001 39.7116 -0.0001
# 6 0.0001 0.0001 0.0001 3.7851 -0.0001 23.3607
#
#
#
# Elastic Compliance Matrix: (Units=1/GPa)
#
#
# Indices 1 2 3 4 5 6 
#
# 1 0.013765 -0.004191 -0.008241 0.000000 -0.001007 0.000000
# 2 -0.004191 0.015034 -0.003024 0.000000 0.002999 0.000000
# 3 -0.008241 -0.003024 0.021006 0.000000 -0.005848 0.000000
# 4 0.000000 0.000000 0.000000 0.026536 0.000000 -0.004300
# 5 -0.001007 0.002999 -0.005848 0.000000 0.027863 0.000000
# 6 0.000000 0.000000 0.000000 -0.004300 0.000000 0.043504
#
#
# Mechanical properties :
#
#
# Convention : Reuss Voigt Hill
#
# Bulk Modulus (GPa) = 52.93312 59.80864 56.37088
# Shear Modulus (GPa) = 27.03909 30.62984 28.83447
#
# Velocity S-wave (km/s) = 3.58996 3.82091 3.70724
# Velocity P-wave (km/s) = 6.51258 6.92624 6.72259
#
# Compressibility (1/GPa) = 0.01889176
#
# Stress axis : x y z
#
# Youngs Moduli (GPa) = 72.64839 66.51763 47.60502
#
# Poissons Ratio (x) = 0.27876 0.39233
# Poissons Ratio (y) = 0.30445 0.14398
# Poissons Ratio (z) = 0.59872 0.20118
#
# Static dielectric constant tensor:
#      x y z
#    x 1.802700 0.000000 0.039000 
#    y 0.000000 1.787860 0.000000 
#    z 0.039000 0.000000 1.768170 
# 
# From -- ./inp_files/28098.got.cif
#   From: 2010.05.17/outbox.cif.g08.bks.cpg/sg9_15_cif.got.tgz:28098.got - 2010.06.03 20:04:27.
