data_PCOD9135747
_publ_section_title
;
Structure prediction by ZEFSAII (Michael W. Deem and Ramdas Pophale) SiO2 
 PCOD9135747
Probable space group: C C
;
_chemical_formula_sum "Si O2"
_cell_formula_units_Z 32
_cell_length_a 7.484369
_cell_length_b 11.729483
_cell_length_c 15.693358
_cell_angle_alpha 90.000000
_cell_angle_beta 102.179369
_cell_angle_gamma 90.000000
_cell_volume 1346.676004
_symmetry_space_group_name_H-M "C C"
_symmetry_group_IT_number 9
_symmetry_cell_setting 'monoclinic'
loop_
_space_group_symop_operation_xyz
x,y,z
x,-y,1/2+z
1/2+x,1/2+y,z
1/2+x,1/2-y,1/2+z
loop_
_atom_site_type_symbol
_atom_site_label
_atom_site_fract_x
_atom_site_fract_y
_atom_site_fract_z
Si Si1 0.013910 0.499994 0.002080
Si Si2 0.801495 0.349999 0.197457
Si Si3 0.687377 0.897386 0.672518
Si Si4 0.093848 0.044623 0.421913
Si Si5 0.072153 0.692708 0.874978
Si Si6 0.148793 0.304378 0.108757
Si Si7 0.838708 0.910269 0.280395
Si Si8 0.555395 0.450727 0.600668
O O1 0.028357 0.555817 0.097250
O O2 0.129883 0.383611 0.023904
O O3 0.087416 0.600512 0.950505
O O4 0.810730 0.468567 0.954344
O O5 0.679623 0.235894 0.185534
O O6 0.685001 0.460628 0.163220
O O7 0.907962 0.346684 0.297171
O O8 0.959954 0.328504 0.142482
O O9 0.876468 0.922999 0.639284
O O10 0.707880 0.977161 0.757299
O O11 0.048485 0.176960 0.400419
O O12 0.012394 0.003956 0.504150
O O13 0.019764 0.964021 0.338590
O O14 0.255024 0.679708 0.837613
O O15 0.309927 0.349394 0.186364
O O16 0.151736 0.170817 0.094318
#
# Coordination Sequence:
#
# PCOD9135747 Si02
#       8
#     4   4   4   4   4   4   4   4
#     4  11  24  43  66  99 137 177 225 279 336 404
#     4  10  20  43  70  96 133 180 223 276 341 404
#     4  10  22  46  68  96 137 176 228 283 335 407
#     4  12  25  45  69 104 136 181 229 283 340 405
#     4  11  25  44  70  98 143 181 219 287 345 396
#     4   9  22  45  65  98 137 181 220 281 341 402
#     4  10  23  46  69  96 139 177 223 283 342 395
#     4  11  23  42  75  99 134 185 229 274 346 405
#
# _framework density 23.762212999999999
#
# number of rings (size 3 to 8) (size 9 to 14) (size 15 to 20)
#    0.000    1.500    2.500    1.500    5.250    0.000 
#   11.250    2.500    0.000    0.000    0.000    0.000 
#    0.000    0.000    0.000    0.000    0.000    0.000 
#
# Total GULP energy -89491.006955 kJ/mol
# GULP energy per Si atom -5593.187935 kJ/mol
# Density = 2.370813 g / cm^3
# Si number density = 23.762213 Si / 1000 Ang^3
#
#
#
# Elastic Constant Matrix: (Units=GPa)
#
#
# Indices 1 2 3 4 5 6 
#
# 1 80.0941 56.5408 35.0279 0.0000 21.5145 0.0000
# 2 56.5408 195.0624 52.4425 0.0000 23.5785 0.0000
# 3 35.0279 52.4425 95.2307 0.0000 40.1913 0.0000
# 4 0.0000 0.0000 0.0000 30.8788 0.0000 6.0239
# 5 21.5145 23.5785 40.1913 0.0000 35.9080 0.0000
# 6 0.0000 0.0000 0.0000 6.0239 0.0000 39.3906
#
#
#
# Elastic Compliance Matrix: (Units=1/GPa)
#
#
# Indices 1 2 3 4 5 6 
#
# 1 0.017639 -0.003902 -0.001820 0.000000 -0.005969 0.000000
# 2 -0.003902 0.006885 -0.002719 0.000000 0.000861 0.000000
# 3 -0.001820 -0.002719 0.021709 0.000000 -0.021422 0.000000
# 4 0.000000 0.000000 0.000000 0.033381 0.000000 -0.005105
# 5 -0.005969 0.000861 -0.021422 0.000000 0.054838 0.000000
# 6 0.000000 0.000000 0.000000 -0.005105 0.000000 0.026167
#
#
# Mechanical properties :
#
#
# Convention : Reuss Voigt Hill
#
# Bulk Modulus (GPa) = 34.07157 73.15661 53.61409
# Shear Modulus (GPa) = 26.69729 36.32722 31.51225
#
# Velocity S-wave (km/s) = 3.35553 3.91420 3.64558
# Velocity P-wave (km/s) = 5.42056 7.16113 6.35076
#
# Compressibility (1/GPa) = 0.02934998
#
# Stress axis : x y z
#
# Youngs Moduli (GPa) = 56.69161 145.25043 46.06405
#
# Poissons Ratio (x) = 0.56678 0.08383
# Poissons Ratio (y) = 0.22121 0.12527
# Poissons Ratio (z) = 0.10317 0.39500
#
# Static dielectric constant tensor:
#      x y z
#    x 1.970620 0.000000 -0.040810 
#    y 0.000000 1.880860 0.000000 
#    z -0.040810 0.000000 1.928690 
# 
# From -- ./inp_files/22809.got.cif
#   From: 2010.05.17/outbox.cif.g08.bks.cpg/sg9_12_cif.got.tgz:22809.got - 2010.06.03 20:04:27.
