data_PCOD9135319
_publ_section_title
;
Structure prediction by ZEFSAII (Michael W. Deem and Ramdas Pophale) SiO2 
 PCOD9135319
Probable space group: C C
;
_chemical_formula_sum "Si O2"
_cell_formula_units_Z 20
_cell_length_a 10.899624
_cell_length_b 18.991907
_cell_length_c 9.205265
_cell_angle_alpha 90.000000
_cell_angle_beta 28.188284
_cell_angle_gamma 90.000000
_cell_volume 900.117478
_symmetry_space_group_name_H-M "C C"
_symmetry_group_IT_number 9
_symmetry_cell_setting 'monoclinic'
loop_
_space_group_symop_operation_xyz
x,y,z
x,-y,1/2+z
1/2+x,1/2+y,z
1/2+x,1/2-y,1/2+z
loop_
_atom_site_type_symbol
_atom_site_label
_atom_site_fract_x
_atom_site_fract_y
_atom_site_fract_z
Si Si1 0.886380 0.040659 0.388450
Si Si2 0.610299 0.438629 0.950025
Si Si3 0.859011 0.710911 0.572222
Si Si4 0.393200 0.926867 0.209976
Si Si5 0.370877 0.788819 0.709503
O O1 0.897093 0.050652 0.548099
O O2 0.627520 0.061915 0.576110
O O3 0.127400 0.086782 0.076010
O O4 0.973617 0.961686 0.244731
O O5 0.822871 0.500030 0.704076
O O6 0.749943 0.364303 0.799057
O O7 0.872674 0.712484 0.383429
O O8 0.067528 0.766587 0.414322
O O9 0.935814 0.635231 0.553087
O O10 0.165716 0.731204 0.862622
#
# Coordination Sequence:
#
# PCOD9135319 Si02
#       5
#     4   4   4   4   4
#     4  10  24  36  67  90 124 153 214 239 321 339
#     4  10  24  42  64  92 123 162 205 260 291 378
#     4  10  20  39  63  89 123 157 205 249 301 363
#     4  10  23  39  61  95 117 163 200 256 299 359
#     4  10  23  38  61  90 121 165 200 248 306 361
#
# _framework density 22.219322999999999
#
# number of rings (size 3 to 8) (size 9 to 14) (size 15 to 20)
#    1.200    0.800    0.000    2.400    5.600    0.000 
#    0.000    6.000    0.000    0.000    0.000    0.000 
#    0.000    0.000    0.000    0.000    0.000    0.000 
#
# Total GULP energy -55805.364970 kJ/mol
# GULP energy per Si atom -5580.536497 kJ/mol
# Density = 2.216875 g / cm^3
# Si number density = 22.219323 Si / 1000 Ang^3
#
#
#
# Elastic Constant Matrix: (Units=GPa)
#
#
# Indices 1 2 3 4 5 6 
#
# 1 95.6343 44.5784 36.7285 0.0011 -51.4035 0.0000
# 2 44.5784 106.3129 4.5305 0.0005 -24.3430 -0.0004
# 3 36.7285 4.5305 70.9313 -0.0044 -39.1122 0.0012
# 4 0.0011 0.0005 -0.0044 12.7176 0.0013 -4.0122
# 5 -51.4035 -24.3430 -39.1122 0.0013 42.5479 -0.0002
# 6 0.0000 -0.0004 0.0012 -4.0122 -0.0002 31.1213
#
#
#
# Elastic Compliance Matrix: (Units=1/GPa)
#
#
# Indices 1 2 3 4 5 6 
#
# 1 0.034232 -0.004028 0.008245 -0.000005 0.046631 -0.000001
# 2 -0.004028 0.012482 0.005157 0.000001 0.007015 0.000000
# 3 0.008245 0.005157 0.033702 0.000006 0.043892 0.000000
# 4 -0.000005 0.000001 0.000006 0.081965 -0.000002 0.010567
# 5 0.046631 0.007015 0.043892 -0.000002 0.124201 -0.000001
# 6 -0.000001 0.000000 0.000000 0.010567 -0.000001 0.033495
#
#
# Mechanical properties :
#
#
# Convention : Reuss Voigt Hill
#
# Bulk Modulus (GPa) = 10.08442 49.39483 29.73962
# Shear Modulus (GPa) = 14.95294 29.74677 22.34985
#
# Velocity S-wave (km/s) = 2.59698 3.66290 3.17499
# Velocity P-wave (km/s) = 3.67979 6.33782 5.18212
#
# Compressibility (1/GPa) = 0.09916283
#
# Stress axis : x y z
#
# Youngs Moduli (GPa) = 29.21259 80.11719 29.67193
#
# Poissons Ratio (x) = 0.32270 -0.24464
# Poissons Ratio (y) = 0.11766 -0.15301
# Poissons Ratio (z) = -0.24085 -0.41314
#
# Static dielectric constant tensor:
#      x y z
#    x 1.800980 0.000000 0.041600 
#    y 0.000000 1.819090 0.000000 
#    z 0.041600 0.000000 1.857930 
# 
# From -- ./inp_files/16766.got.cif
#   From: 2010.05.17/outbox.cif.g08.bks.cpg/sg9_9_cif.got.tgz:16766.got - 2010.06.03 20:04:27.
