data_PCOD9135593
_publ_section_title
;
Structure prediction by ZEFSAII (Michael W. Deem and Ramdas Pophale) SiO2 
 PCOD9135593
Probable space group: C C
;
_chemical_formula_sum "Si O2"
_cell_formula_units_Z 28
_cell_length_a 7.629700
_cell_length_b 12.029584
_cell_length_c 13.623401
_cell_angle_alpha 90.000000
_cell_angle_beta 55.434322
_cell_angle_gamma 90.000000
_cell_volume 1029.662168
_symmetry_space_group_name_H-M "C C"
_symmetry_group_IT_number 9
_symmetry_cell_setting 'monoclinic'
loop_
_space_group_symop_operation_xyz
x,y,z
x,-y,1/2+z
1/2+x,1/2+y,z
1/2+x,1/2-y,1/2+z
loop_
_atom_site_type_symbol
_atom_site_label
_atom_site_fract_x
_atom_site_fract_y
_atom_site_fract_z
Si Si1 0.491520 0.678370 0.247270
Si Si2 0.147696 0.225150 0.560796
Si Si3 0.485777 0.642180 0.024993
Si Si4 0.465244 0.402543 0.954848
Si Si5 0.496314 0.106451 0.861346
Si Si6 0.346441 0.997071 0.086050
Si Si7 0.957821 0.429575 0.737487
O O1 0.358572 0.627632 0.383875
O O2 0.581184 0.788954 0.273604
O O3 0.665078 0.584213 0.172543
O O4 0.426360 0.692354 0.152578
O O5 0.379307 0.283323 0.473320
O O6 0.982834 0.198326 0.526151
O O7 0.224331 0.105968 0.577992
O O8 0.042959 0.314623 0.667783
O O9 0.405231 0.517235 0.026780
O O10 0.740227 0.630362 0.934410
O O11 0.718456 0.413258 0.851591
O O12 0.573894 0.991822 0.787976
O O13 0.511461 0.068773 0.969094
O O14 0.451812 0.974100 0.156238
#
# Coordination Sequence:
#
# PCOD9135593 Si02
#       7
#     4   4   4   4   4   4   4
#     4  10  20  41  70  93 134 185 215 280 343 393
#     4  12  22  43  70  96 137 176 223 281 336 399
#     4  10  23  43  66  99 135 177 226 280 336 407
#     4  10  22  44  64  98 137 175 226 282 333 400
#     4  10  20  44  63  93 138 174 224 277 336 398
#     4  10  21  42  65  94 135 168 223 283 328 402
#     4  10  22  39  66  95 128 177 219 275 340 395
#
# _framework density 27.193383999999998
#
# number of rings (size 3 to 8) (size 9 to 14) (size 15 to 20)
#    0.000    1.714    4.286    1.714    0.000    4.571 
#   12.857    0.000    0.000    0.000    0.000    0.000 
#    0.000    0.000    0.000    0.000    0.000    0.000 
#
# Total GULP energy -78029.697888 kJ/mol
# GULP energy per Si atom -5573.549849 kJ/mol
# Density = 2.713149 g / cm^3
# Si number density = 27.193384 Si / 1000 Ang^3
#
#
#
# Elastic Constant Matrix: (Units=GPa)
#
#
# Indices 1 2 3 4 5 6 
#
# 1 64.3652 4.2347 15.0913 0.0000 6.1300 0.0000
# 2 4.2347 186.8956 60.7266 0.0000 20.3085 0.0000
# 3 15.0913 60.7266 129.7932 0.0000 22.3181 0.0000
# 4 0.0000 0.0000 0.0000 44.4215 0.0000 -0.5943
# 5 6.1300 20.3085 22.3181 0.0000 42.1914 0.0000
# 6 0.0000 0.0000 0.0000 -0.5943 0.0000 41.5522
#
#
#
# Elastic Compliance Matrix: (Units=1/GPa)
#
#
# Indices 1 2 3 4 5 6 
#
# 1 0.016078 0.000385 -0.001778 0.000000 -0.001581 0.000000
# 2 0.000385 0.006422 -0.002759 0.000000 -0.001687 0.000000
# 3 -0.001778 -0.002759 0.009823 0.000000 -0.003610 0.000000
# 4 0.000000 0.000000 0.000000 0.022516 0.000000 0.000322
# 5 -0.001581 -0.001687 -0.003610 0.000000 0.026653 0.000000
# 6 0.000000 0.000000 0.000000 0.000322 0.000000 0.024071
#
#
# Mechanical properties :
#
#
# Convention : Reuss Voigt Hill
#
# Bulk Modulus (GPa) = 41.63304 60.12878 50.88091
# Shear Modulus (GPa) = 41.02642 45.69978 43.36310
#
# Velocity S-wave (km/s) = 3.88840 4.10390 3.99760
# Velocity P-wave (km/s) = 5.95842 6.67948 6.32923
#
# Compressibility (1/GPa) = 0.02401939
#
# Stress axis : x y z
#
# Youngs Moduli (GPa) = 62.19522 155.72118 101.80310
#
# Poissons Ratio (x) = -0.05997 0.18099
# Poissons Ratio (y) = -0.02395 0.28089
# Poissons Ratio (z) = 0.11057 0.42966
#
# Static dielectric constant tensor:
#      x y z
#    x 2.285230 0.000000 0.076220 
#    y 0.000000 2.105430 0.000000 
#    z 0.076220 0.000000 2.264570 
# 
# From -- ./inp_files/16016.got.cif
#   From: 2010.05.17/outbox.cif.g08.bks.cpg/sg9_9_cif.got.tgz:16016.got - 2010.06.03 20:04:27.
