data_PCOD9135400
_publ_section_title
;
Structure prediction by ZEFSAII (Michael W. Deem and Ramdas Pophale) SiO2 
 PCOD9135400
Probable space group: C C
;
_chemical_formula_sum "Si O2"
_cell_formula_units_Z 32
_cell_length_a 7.404349
_cell_length_b 30.518820
_cell_length_c 5.570836
_cell_angle_alpha 90.000000
_cell_angle_beta 87.970899
_cell_angle_gamma 90.000000
_cell_volume 1258.063586
_symmetry_space_group_name_H-M "C C"
_symmetry_group_IT_number 9
_symmetry_cell_setting 'monoclinic'
loop_
_space_group_symop_operation_xyz
x,y,z
x,-y,1/2+z
1/2+x,1/2+y,z
1/2+x,1/2-y,1/2+z
loop_
_atom_site_type_symbol
_atom_site_label
_atom_site_fract_x
_atom_site_fract_y
_atom_site_fract_z
Si Si1 0.367240 0.991662 0.932920
Si Si2 0.681651 0.242061 0.095309
Si Si3 0.500408 0.837931 0.775762
Si Si4 0.199345 0.103064 0.447419
Si Si5 0.862260 0.111380 0.161720
Si Si6 0.733635 0.791810 0.087246
Si Si7 0.039264 0.835037 0.286022
Si Si8 0.458004 0.476504 0.434332
O O1 0.305055 0.941682 0.950984
O O2 0.465265 0.997561 0.675627
O O3 0.180755 0.020830 0.931546
O O4 0.538149 0.201510 0.091091
O O5 0.796994 0.227508 0.326455
O O6 0.613056 0.288400 0.194554
O O7 0.746945 0.240151 0.816640
O O8 0.313062 0.862471 0.784495
O O9 0.660722 0.873500 0.732196
O O10 0.538176 0.811228 0.023134
O O11 0.999782 0.094346 0.357203
O O12 0.174023 0.127253 0.700670
O O13 0.876566 0.072050 0.968230
O O14 0.963982 0.154385 0.050088
O O15 0.852757 0.833925 0.144263
O O16 0.407299 0.497170 0.180068
#
# Coordination Sequence:
#
# PCOD9135400 Si02
#       8
#     4   4   4   4   4   4   4   4
#     4  10  20  41  64  96 138 174 223 292 342 410
#     4  10  25  43  69  95 147 182 234 287 351 403
#     4  10  26  45  67 105 147 181 228 307 340 413
#     4  12  25  41  73 106 132 190 237 287 354 428
#     4  12  24  45  71 106 141 185 242 289 357 428
#     4  10  23  47  64  97 140 188 225 300 335 415
#     4  12  25  41  76  98 137 199 236 284 365 413
#     4  10  20  39  70  97 136 181 225 288 350 416
#
# _framework density 25.435915999999999
#
# number of rings (size 3 to 8) (size 9 to 14) (size 15 to 20)
#    0.750    0.500    5.000    1.500    3.500    2.000 
#    0.000    1.250    0.000    0.000    0.000    0.000 
#    0.000    0.000    0.000    0.000    0.000    0.000 
#
# Total GULP energy -89248.159737 kJ/mol
# GULP energy per Si atom -5578.009984 kJ/mol
# Density = 2.537802 g / cm^3
# Si number density = 25.435916 Si / 1000 Ang^3
#
#
#
# Elastic Constant Matrix: (Units=GPa)
#
#
# Indices 1 2 3 4 5 6 
#
# 1 67.5508 3.8089 18.0313 0.0000 -4.2305 0.0000
# 2 3.8089 99.6139 40.6638 0.0000 2.5281 0.0000
# 3 18.0313 40.6638 165.9541 0.0000 15.4777 0.0000
# 4 0.0000 0.0000 0.0000 40.7822 0.0000 -3.8936
# 5 -4.2305 2.5281 15.4777 0.0000 15.4944 0.0000
# 6 0.0000 0.0000 0.0000 -3.8936 0.0000 16.8821
#
#
#
# Elastic Compliance Matrix: (Units=1/GPa)
#
#
# Indices 1 2 3 4 5 6 
#
# 1 0.015851 0.000202 -0.002395 0.000000 0.006688 0.000000
# 2 0.000202 0.011171 -0.002861 0.000000 0.001090 0.000000
# 3 -0.002395 -0.002861 0.007724 0.000000 -0.007903 0.000000
# 4 0.000000 0.000000 0.000000 0.025073 0.000000 0.005783
# 5 0.006688 0.001090 -0.007903 0.000000 0.074082 0.000000
# 6 0.000000 0.000000 0.000000 0.005783 0.000000 0.060568
#
#
# Mechanical properties :
#
#
# Convention : Reuss Voigt Hill
#
# Bulk Modulus (GPa) = 40.58892 50.90299 45.74596
# Shear Modulus (GPa) = 23.49743 32.67274 28.08509
#
# Velocity S-wave (km/s) = 3.04269 3.58790 3.32648
# Velocity P-wave (km/s) = 5.32315 6.10080 5.72519
#
# Compressibility (1/GPa) = 0.02463726
#
# Stress axis : x y z
#
# Youngs Moduli (GPa) = 63.08940 89.51561 129.46471
#
# Poissons Ratio (x) = -0.01809 0.31012
# Poissons Ratio (y) = -0.01275 0.37039
# Poissons Ratio (z) = 0.15113 0.25610
#
# Static dielectric constant tensor:
#      x y z
#    x 2.022130 0.000000 0.000690 
#    y 0.000000 2.016810 0.000000 
#    z 0.000690 0.000000 2.093290 
# 
# From -- ./inp_files/1270.got.cif
#   From: 2010.05.17/outbox.cif.g08.bks.cpg/sg9_1_cif.got.tgz:1270.got - 2010.06.03 20:04:27.
