data_PCOD9135729
_publ_section_title
;
Structure prediction by ZEFSAII (Michael W. Deem and Ramdas Pophale) SiO2 
 PCOD9135729
Probable space group: C C
;
_chemical_formula_sum "Si O2"
_cell_formula_units_Z 24
_cell_length_a 12.133766
_cell_length_b 22.355593
_cell_length_c 5.571011
_cell_angle_alpha 90.000000
_cell_angle_beta 130.619371
_cell_angle_gamma 90.000000
_cell_volume 1147.062079
_symmetry_space_group_name_H-M "C C"
_symmetry_group_IT_number 9
_symmetry_cell_setting 'monoclinic'
loop_
_space_group_symop_operation_xyz
x,y,z
x,-y,1/2+z
1/2+x,1/2+y,z
1/2+x,1/2-y,1/2+z
loop_
_atom_site_type_symbol
_atom_site_label
_atom_site_fract_x
_atom_site_fract_y
_atom_site_fract_z
Si Si1 0.047990 0.348651 0.593470
Si Si2 0.148023 0.876949 0.753097
Si Si3 0.875543 0.464434 0.204649
Si Si4 0.335102 0.204677 0.196961
Si Si5 0.049728 0.222438 0.481740
Si Si6 0.875244 0.169389 0.642354
O O1 0.039350 0.292219 0.396916
O O2 0.985791 0.409353 0.398899
O O3 0.945436 0.325447 0.665415
O O4 0.213862 0.356019 0.913686
O O5 0.279952 0.846753 0.794504
O O6 0.001557 0.877735 0.386633
O O7 0.212878 0.936315 0.961129
O O8 0.109547 0.828302 0.896463
O O9 0.894183 0.503906 0.472331
O O10 0.389644 0.272037 0.338290
O O11 0.180328 0.224241 0.862558
O O12 0.911470 0.197906 0.432806
#
# Coordination Sequence:
#
# PCOD9135729 Si02
#       6
#     4   4   4   4   4   4
#     4  10  20  43  65  99 140 171 231 288 347 408
#     4  11  22  40  67  97 135 181 231 279 346 417
#     4  12  28  49  73  94 135 199 250 274 323 419
#     4   9  18  37  62  99 141 176 213 272 357 428
#     4   9  19  37  63 102 136 173 210 283 367 413
#     4   9  21  36  62 103 139 168 211 288 372 407
#
# _framework density 20.923016000000001
#
# number of rings (size 3 to 8) (size 9 to 14) (size 15 to 20)
#    0.000    2.000    1.667    2.000    4.667    0.000 
#   12.000    1.667    0.000    0.000    0.000    0.000 
#    0.000    0.000    0.000    0.000    0.000    0.000 
#
# Total GULP energy -66893.156599 kJ/mol
# GULP energy per Si atom -5574.429717 kJ/mol
# Density = 2.087539 g / cm^3
# Si number density = 20.923016 Si / 1000 Ang^3
#
#
#
# Elastic Constant Matrix: (Units=GPa)
#
#
# Indices 1 2 3 4 5 6 
#
# 1 98.7677 30.0581 29.9374 0.0000 14.8887 0.0000
# 2 30.0581 100.2584 55.6406 0.0000 0.3931 0.0000
# 3 29.9374 55.6406 78.9627 0.0000 21.3551 0.0000
# 4 0.0000 0.0000 0.0000 42.7550 0.0000 9.1341
# 5 14.8887 0.3931 21.3551 0.0000 38.0809 0.0000
# 6 0.0000 0.0000 0.0000 9.1341 0.0000 23.7609
#
#
#
# Elastic Compliance Matrix: (Units=1/GPa)
#
#
# Indices 1 2 3 4 5 6 
#
# 1 0.012001 -0.002657 -0.001670 0.000000 -0.003729 0.000000
# 2 -0.002657 0.018969 -0.014838 0.000000 0.009164 0.000000
# 3 -0.001670 -0.014838 0.027742 0.000000 -0.014751 0.000000
# 4 0.000000 0.000000 0.000000 0.025482 0.000000 -0.009796
# 5 -0.003729 0.009164 -0.014751 0.000000 0.035895 0.000000
# 6 0.000000 0.000000 0.000000 -0.009796 0.000000 0.045852
#
#
# Mechanical properties :
#
#
# Convention : Reuss Voigt Hill
#
# Bulk Modulus (GPa) = 49.05703 56.58455 52.82079
# Shear Modulus (GPa) = 23.68950 31.74289 27.71620
#
# Velocity S-wave (km/s) = 3.36850 3.89926 3.64356
# Velocity P-wave (km/s) = 6.21501 6.88296 6.55750
#
# Compressibility (1/GPa) = 0.02038444
#
# Stress axis : x y z
#
# Youngs Moduli (GPa) = 83.32302 52.71688 36.04674
#
# Poissons Ratio (x) = 0.14006 0.06018
# Poissons Ratio (y) = 0.22138 0.53484
# Poissons Ratio (z) = 0.13912 0.78219
#
# Static dielectric constant tensor:
#      x y z
#    x 1.806900 0.000000 -0.069520 
#    y 0.000000 1.795840 0.000000 
#    z -0.069520 0.000000 1.935560 
# 
# From -- ./inp_files/2020.got.cif
#   From: 2010.05.17/outbox.cif.g08.bks.cpg/sg9_2_cif.got.tgz:2020.got - 2010.06.03 20:04:27.
