data_PCOD9135600
_publ_section_title
;
Structure prediction by ZEFSAII (Michael W. Deem and Ramdas Pophale) SiO2 
 PCOD9135600
Probable space group: C C
;
_chemical_formula_sum "Si O2"
_cell_formula_units_Z 28
_cell_length_a 7.962648
_cell_length_b 19.640988
_cell_length_c 7.296448
_cell_angle_alpha 90.000000
_cell_angle_beta 92.658554
_cell_angle_gamma 90.000000
_cell_volume 1139.894483
_symmetry_space_group_name_H-M "C C"
_symmetry_group_IT_number 9
_symmetry_cell_setting 'monoclinic'
loop_
_space_group_symop_operation_xyz
x,y,z
x,-y,1/2+z
1/2+x,1/2+y,z
1/2+x,1/2-y,1/2+z
loop_
_atom_site_type_symbol
_atom_site_label
_atom_site_fract_x
_atom_site_fract_y
_atom_site_fract_z
Si Si1 0.037160 0.438612 0.082540
Si Si2 0.724776 0.643061 0.656957
Si Si3 0.395328 0.599893 0.150503
Si Si4 0.017478 0.405735 0.653539
Si Si5 0.915499 0.051013 0.570878
Si Si6 0.816893 0.718075 0.989603
Si Si7 0.620392 0.713540 0.291514
O O1 0.984155 0.517873 0.081507
O O2 0.232437 0.438865 0.154177
O O3 0.903841 0.394711 0.189395
O O4 0.028576 0.412787 0.873562
O O5 0.572340 0.590003 0.664609
O O6 0.724489 0.674710 0.453336
O O7 0.703572 0.700728 0.808512
O O8 0.202890 0.616566 0.094085
O O9 0.398701 0.580380 0.366157
O O10 0.447305 0.529656 0.057900
O O11 0.522442 0.662061 0.149008
O O12 0.880780 0.351572 0.586070
O O13 0.728958 0.757583 0.153265
O O14 0.976889 0.752341 0.905354
#
# Coordination Sequence:
#
# PCOD9135600 Si02
#       7
#     4   4   4   4   4   4   4
#     4  10  20  41  71 108 149 178 233 300 374 436
#     4  11  25  45  75 105 142 187 240 305 358 440
#     4   9  21  41  68 102 144 180 227 299 358 434
#     4  10  21  41  70 106 146 186 233 299 367 435
#     4   9  21  38  67 108 141 178 226 290 370 430
#     4  12  28  47  73 102 142 201 248 300 360 421
#     4  11  28  49  68 105 142 196 251 299 353 432
#
# _framework density 24.563675
#
# number of rings (size 3 to 8) (size 9 to 14) (size 15 to 20)
#    0.000    1.714    1.429    0.857    6.000    6.857 
#    0.000    0.000    0.000    0.000    0.000    0.000 
#    0.000    0.000    0.000    0.000    0.000    0.000 
#
# Total GULP energy -78340.478510 kJ/mol
# GULP energy per Si atom -5595.748465 kJ/mol
# Density = 2.450777 g / cm^3
# Si number density = 24.563675 Si / 1000 Ang^3
#
#
#
# Elastic Constant Matrix: (Units=GPa)
#
#
# Indices 1 2 3 4 5 6 
#
# 1 83.8242 21.5131 46.6340 0.0000 -26.0397 0.0000
# 2 21.5131 32.5007 16.4571 0.0000 -12.8299 0.0000
# 3 46.6340 16.4571 93.2225 0.0000 -20.8664 0.0000
# 4 0.0000 0.0000 0.0000 14.4356 0.0000 -11.6802
# 5 -26.0397 -12.8299 -20.8664 0.0000 30.6449 0.0000
# 6 0.0000 0.0000 0.0000 -11.6802 0.0000 32.9540
#
#
#
# Elastic Compliance Matrix: (Units=1/GPa)
#
#
# Indices 1 2 3 4 5 6 
#
# 1 0.020481 -0.006047 -0.006901 0.000000 0.010173 0.000000
# 2 -0.006047 0.039700 -0.001668 0.000000 0.010347 0.000000
# 3 -0.006901 -0.001668 0.015343 0.000000 0.003885 0.000000
# 4 0.000000 0.000000 0.000000 0.097128 0.000000 0.034426
# 5 0.010173 0.010347 0.003885 0.000000 0.048253 0.000000
# 6 0.000000 0.000000 0.000000 0.034426 0.000000 0.042547
#
#
# Mechanical properties :
#
#
# Convention : Reuss Voigt Hill
#
# Bulk Modulus (GPa) = 21.60122 42.08398 31.84260
# Shear Modulus (GPa) = 16.22771 23.93645 20.08208
#
# Velocity S-wave (km/s) = 2.57308 3.12503 2.86239
# Velocity P-wave (km/s) = 4.20008 5.49462 4.89038
#
# Compressibility (1/GPa) = 0.04629369
#
# Stress axis : x y z
#
# Youngs Moduli (GPa) = 48.82584 25.18885 65.17518
#
# Poissons Ratio (x) = 0.15231 0.44978
# Poissons Ratio (y) = 0.29524 0.10868
# Poissons Ratio (z) = 0.33695 0.04200
#
# Static dielectric constant tensor:
#      x y z
#    x 2.020320 0.000000 -0.063390 
#    y 0.000000 1.971110 0.000000 
#    z -0.063390 0.000000 1.974710 
# 
# From -- ./inp_files/5597.got.cif
#   From: 2010.05.17/outbox.cif.g08.bks.cpg/sg9_3_cif.got.tgz:5597.got - 2010.06.03 20:04:27.
