data_PCOD9135025
_publ_section_title
;
Structure prediction by ZEFSAII (Michael W. Deem and Ramdas Pophale) SiO2 
 PCOD9135025
Probable space group: C C
;
_chemical_formula_sum "Si O2"
_cell_formula_units_Z 28
_cell_length_a 29.687984
_cell_length_b 9.482734
_cell_length_c 9.143358
_cell_angle_alpha 90.000000
_cell_angle_beta 143.115840
_cell_angle_gamma 90.000000
_cell_volume 1544.953297
_symmetry_space_group_name_H-M "C C"
_symmetry_group_IT_number 9
_symmetry_cell_setting 'monoclinic'
loop_
_space_group_symop_operation_xyz
x,y,z
x,-y,1/2+z
1/2+x,1/2+y,z
1/2+x,1/2-y,1/2+z
loop_
_atom_site_type_symbol
_atom_site_label
_atom_site_fract_x
_atom_site_fract_y
_atom_site_fract_z
Si Si1 0.978620 0.725192 0.608050
Si Si2 0.573102 0.901787 0.591126
Si Si3 0.818993 0.179174 0.094158
Si Si4 0.394169 0.520912 0.017176
Si Si5 0.644019 0.841651 0.081939
Si Si6 0.432146 0.080053 0.940592
Si Si7 0.013841 0.789936 0.376705
O O1 0.923180 0.854578 0.488873
O O2 0.929498 0.581327 0.484538
O O3 0.017398 0.740717 0.552114
O O4 0.044069 0.713746 0.899390
O O5 0.495031 0.926455 0.476685
O O6 0.609354 0.026553 0.586519
O O7 0.628753 0.865014 0.869464
O O8 0.858367 0.333395 0.202733
O O9 0.840523 0.088836 0.294154
O O10 0.856311 0.093695 0.057457
O O11 0.730449 0.180690 0.841204
O O12 0.468212 0.433919 0.252709
O O13 0.594132 0.710407 0.007700
O O14 0.466703 0.176433 0.159195
#
# Coordination Sequence:
#
# PCOD9135025 Si02
#       7
#     4   4   4   4   4   4   4
#     4  12  19  37  66  90 112 155 220 249 287 361
#     4  11  19  33  63  89 114 161 211 241 290 363
#     4  11  23  39  60  92 129 156 199 256 312 350
#     4  11  23  37  62  92 121 164 202 253 301 365
#     4  11  21  37  61  90 127 159 201 256 305 355
#     4  10  20  36  62  90 113 162 204 246 291 367
#     4  10  21  37  60  89 118 159 207 249 296 363
#
# _framework density 18.123525000000001
#
# number of rings (size 3 to 8) (size 9 to 14) (size 15 to 20)
#    0.000    1.143    7.143    0.857    0.000    0.000 
#    0.000    0.000    9.429    0.000    0.000    0.000 
#    0.000    0.000    0.000    0.000    0.000    0.000 
#
# Total GULP energy -78037.665877 kJ/mol
# GULP energy per Si atom -5574.118991 kJ/mol
# Density = 1.808228 g / cm^3
# Si number density = 18.123525 Si / 1000 Ang^3
#
#
#
# Elastic Constant Matrix: (Units=GPa)
#
#
# Indices 1 2 3 4 5 6 
#
# 1 64.2728 21.9239 43.4259 0.0000 -9.2587 0.0000
# 2 21.9239 78.3293 42.9834 0.0000 9.2075 0.0000
# 3 43.4259 42.9834 130.2331 0.0000 10.9525 0.0000
# 4 0.0000 0.0000 0.0000 23.0287 0.0000 -5.5255
# 5 -9.2587 9.2075 10.9525 0.0000 38.6135 0.0000
# 6 0.0000 0.0000 0.0000 -5.5255 0.0000 20.1213
#
#
#
# Elastic Compliance Matrix: (Units=1/GPa)
#
#
# Indices 1 2 3 4 5 6 
#
# 1 0.022757 -0.003417 -0.007159 0.000000 0.008302 0.000000
# 2 -0.003417 0.016308 -0.003941 0.000000 -0.003590 0.000000
# 3 -0.007159 -0.003941 0.011711 0.000000 -0.004098 0.000000
# 4 0.000000 0.000000 0.000000 0.046487 0.000000 0.012766
# 5 0.008302 -0.003590 -0.004098 0.000000 0.029907 0.000000
# 6 0.000000 0.000000 0.000000 0.012766 0.000000 0.053204
#
#
# Mechanical properties :
#
#
# Convention : Reuss Voigt Hill
#
# Bulk Modulus (GPa) = 45.99363 54.38909 50.19136
# Shear Modulus (GPa) = 23.07820 27.31949 25.19884
#
# Velocity S-wave (km/s) = 3.57232 3.88674 3.73284
# Velocity P-wave (km/s) = 6.51523 7.08645 6.80683
#
# Compressibility (1/GPa) = 0.02174214
#
# Stress axis : x y z
#
# Youngs Moduli (GPa) = 43.94259 61.32075 85.38995
#
# Poissons Ratio (x) = 0.20954 0.61128
# Poissons Ratio (y) = 0.15016 0.33652
# Poissons Ratio (z) = 0.31457 0.24166
#
# Static dielectric constant tensor:
#      x y z
#    x 1.632640 0.000000 -0.034280 
#    y 0.000000 1.648140 0.000000 
#    z -0.034280 0.000000 1.634520 
# 
# From -- ./inp_files/10422.got.cif
#   From: 2010.05.17/outbox.cif.g08.bks.cpg/sg9_6_cif.got.tgz:10422.got - 2010.06.03 20:04:27.
