data_PCOD9135289
_publ_section_title
;
Structure prediction by ZEFSAII (Michael W. Deem and Ramdas Pophale) SiO2 
 PCOD9135289
Probable space group: C C
;
_chemical_formula_sum "Si O2"
_cell_formula_units_Z 28
_cell_length_a 17.524493
_cell_length_b 8.325050
_cell_length_c 9.382539
_cell_angle_alpha 90.000000
_cell_angle_beta 52.541899
_cell_angle_gamma 90.000000
_cell_volume 1086.582874
_symmetry_space_group_name_H-M "C C"
_symmetry_group_IT_number 9
_symmetry_cell_setting 'monoclinic'
loop_
_space_group_symop_operation_xyz
x,y,z
x,-y,1/2+z
1/2+x,1/2+y,z
1/2+x,1/2-y,1/2+z
loop_
_atom_site_type_symbol
_atom_site_label
_atom_site_fract_x
_atom_site_fract_y
_atom_site_fract_z
Si Si1 0.438400 0.098799 0.993580
Si Si2 0.155342 0.899211 0.398408
Si Si3 0.562556 0.406012 0.798415
Si Si4 0.591276 0.122219 0.257805
Si Si5 0.862991 0.027755 0.050993
Si Si6 0.252705 0.379605 0.949151
Si Si7 0.900270 0.662697 0.335882
O O1 0.513415 0.232722 0.859680
O O2 0.514063 0.958120 0.954658
O O3 0.380708 0.004484 0.938073
O O4 0.377426 0.154091 0.196723
O O5 0.136590 0.765701 0.295841
O O6 0.229174 0.796040 0.413346
O O7 0.083089 0.940628 0.610471
O O8 0.151311 0.058915 0.303987
O O9 0.475145 0.514953 0.956467
O O10 0.516836 0.180320 0.220119
O O11 0.665736 0.991359 0.109509
O O12 0.799673 0.031120 0.262101
O O13 0.852144 0.191251 0.972905
O O14 0.830264 0.882877 0.986897
#
# Coordination Sequence:
#
# PCOD9135289 Si02
#       7
#     4   4   4   4   4   4   4
#     4  10  20  38  72 102 135 186 257 301 355 433
#     4  12  24  47  72 108 143 201 255 311 363 474
#     4  12  24  44  75 111 145 196 262 309 376 463
#     4  10  21  42  75  97 139 194 261 292 366 450
#     4  12  26  43  72 107 151 191 249 320 390 437
#     4  12  25  46  71 108 153 200 243 323 392 439
#     4  10  22  40  69 107 136 196 253 300 358 468
#
# _framework density 25.768858999999999
#
# number of rings (size 3 to 8) (size 9 to 14) (size 15 to 20)
#    0.857    0.000    4.286    4.286    0.000    0.000 
#    0.000    2.857    0.000    0.000    0.000    0.000 
#    0.000    0.000    0.000    0.000    0.000    0.000 
#
# Total GULP energy -78109.537999 kJ/mol
# GULP energy per Si atom -5579.252714 kJ/mol
# Density = 2.571021 g / cm^3
# Si number density = 25.768859 Si / 1000 Ang^3
#
#
#
# Elastic Constant Matrix: (Units=GPa)
#
#
# Indices 1 2 3 4 5 6 
#
# 1 111.3345 26.2829 36.7887 0.0000 15.0061 0.0000
# 2 26.2829 85.8355 20.6324 0.0000 5.3416 0.0000
# 3 36.7887 20.6324 137.3362 0.0000 22.0756 0.0000
# 4 0.0000 0.0000 0.0000 29.9680 0.0000 6.7220
# 5 15.0061 5.3416 22.0756 0.0000 43.8718 0.0000
# 6 0.0000 0.0000 0.0000 6.7220 0.0000 44.8411
#
#
#
# Elastic Compliance Matrix: (Units=1/GPa)
#
#
# Indices 1 2 3 4 5 6 
#
# 1 0.010588 -0.002601 -0.002083 0.000000 -0.002257 0.000000
# 2 -0.002601 0.012741 -0.001209 0.000000 -0.000053 0.000000
# 3 -0.002083 -0.001209 0.008576 0.000000 -0.003456 0.000000
# 4 0.000000 0.000000 0.000000 0.034530 0.000000 -0.005176
# 5 -0.002257 -0.000053 -0.003456 0.000000 0.025311 0.000000
# 6 0.000000 0.000000 0.000000 -0.005176 0.000000 0.023077
#
#
# Mechanical properties :
#
#
# Convention : Reuss Voigt Hill
#
# Bulk Modulus (GPa) = 49.70136 55.76825 52.73481
# Shear Modulus (GPa) = 37.50507 40.45632 38.98069
#
# Velocity S-wave (km/s) = 3.81916 3.96658 3.89357
# Velocity P-wave (km/s) = 6.22714 6.53200 6.38139
#
# Compressibility (1/GPa) = 0.02012017
#
# Stress axis : x y z
#
# Youngs Moduli (GPa) = 94.44276 78.48985 116.59866
#
# Poissons Ratio (x) = 0.20416 0.24285
# Poissons Ratio (y) = 0.24565 0.14093
# Poissons Ratio (z) = 0.19671 0.09487
#
# Static dielectric constant tensor:
#      x y z
#    x 2.081140 0.000000 -0.045750 
#    y 0.000000 2.098980 0.000000 
#    z -0.045750 0.000000 1.946060 
# 
# From -- ./inp_files/11309.got.cif
#   From: 2010.05.17/outbox.cif.g08.bks.cpg/sg9_6_cif.got.tgz:11309.got - 2010.06.03 20:04:27.
