data_PCOD9135437
_publ_section_title
;
Structure prediction by ZEFSAII (Michael W. Deem and Ramdas Pophale) SiO2 
 PCOD9135437
Probable space group: C C
;
_chemical_formula_sum "Si O2"
_cell_formula_units_Z 32
_cell_length_a 11.470164
_cell_length_b 7.808985
_cell_length_c 27.779730
_cell_angle_alpha 90.000000
_cell_angle_beta 149.597551
_cell_angle_gamma 90.000000
_cell_volume 1259.225095
_symmetry_space_group_name_H-M "C C"
_symmetry_group_IT_number 9
_symmetry_cell_setting 'monoclinic'
loop_
_space_group_symop_operation_xyz
x,y,z
x,-y,1/2+z
1/2+x,1/2+y,z
1/2+x,1/2-y,1/2+z
loop_
_atom_site_type_symbol
_atom_site_label
_atom_site_fract_x
_atom_site_fract_y
_atom_site_fract_z
Si Si1 0.701330 0.522587 0.036710
Si Si2 0.512808 0.860401 0.257492
Si Si3 0.598857 0.283874 0.597203
Si Si4 0.053635 0.733735 0.881993
Si Si5 0.056864 0.212176 0.180735
Si Si6 0.668991 0.390015 0.418232
Si Si7 0.692117 0.920590 0.607664
Si Si8 0.744056 0.803795 0.853127
O O1 0.673616 0.635060 0.074001
O O2 0.916777 0.390655 0.118542
O O3 0.699560 0.634325 0.986868
O O4 0.473619 0.404550 0.952533
O O5 0.555037 0.841343 0.329105
O O6 0.669539 0.755955 0.272885
O O7 0.273013 0.756701 0.161900
O O8 0.579076 0.055182 0.270448
O O9 0.316533 0.283948 0.495103
O O10 0.664395 0.365010 0.671432
O O11 0.712777 0.096342 0.642992
O O12 0.856927 0.683952 0.851053
O O13 0.022189 0.937758 0.862379
O O14 0.863457 0.074241 0.124596
O O15 0.616255 0.265057 0.355507
O O16 0.933661 0.425890 0.498103
#
# Coordination Sequence:
#
# PCOD9135437 Si02
#       8
#     4   4   4   4   4   4   4   4
#     4  11  21  37  65  90 116 159 211 245 294 370
#     4  10  23  38  61  91 127 157 198 257 313 357
#     4  11  20  39  64  88 115 164 210 243 295 367
#     4  10  21  39  64  89 118 160 204 256 301 353
#     4  10  21  41  58  85 124 161 195 250 308 355
#     4  10  20  40  64  87 120 161 207 249 294 365
#     4   9  20  38  61  84 119 160 195 243 305 358
#     4  11  20  40  61  88 123 158 198 257 306 353
#
# _framework density 25.412454
#
# number of rings (size 3 to 8) (size 9 to 14) (size 15 to 20)
#    0.750    1.000    6.250    0.000    1.750    1.000 
#    6.750    1.250    5.500    0.000    0.000    0.000 
#    0.000    0.000    0.000    0.000    0.000    0.000 
#
# Total GULP energy -89080.893979 kJ/mol
# GULP energy per Si atom -5567.555874 kJ/mol
# Density = 2.535461 g / cm^3
# Si number density = 25.412454 Si / 1000 Ang^3
#
#
#
# Elastic Constant Matrix: (Units=GPa)
#
#
# Indices 1 2 3 4 5 6 
#
# 1 161.3040 21.5541 25.6796 0.0000 -32.3347 0.0000
# 2 21.5541 35.6728 7.0898 0.0000 -1.6661 0.0000
# 3 25.6796 7.0898 79.4486 0.0000 -10.1802 0.0000
# 4 0.0000 0.0000 0.0000 36.5041 0.0000 -7.3446
# 5 -32.3347 -1.6661 -10.1802 0.0000 36.7358 0.0000
# 6 0.0000 0.0000 0.0000 -7.3446 0.0000 36.2977
#
#
#
# Elastic Compliance Matrix: (Units=1/GPa)
#
#
# Indices 1 2 3 4 5 6 
#
# 1 0.008384 -0.004462 -0.001443 0.000000 0.006777 0.000000
# 2 -0.004462 0.030927 -0.001701 0.000000 -0.002997 0.000000
# 3 -0.001443 -0.001701 0.013512 0.000000 0.002397 0.000000
# 4 0.000000 0.000000 0.000000 0.028557 0.000000 0.005778
# 5 0.006777 -0.002997 0.002397 0.000000 0.033715 0.000000
# 6 0.000000 0.000000 0.000000 0.005778 0.000000 0.028719
#
#
# Mechanical properties :
#
#
# Convention : Reuss Voigt Hill
#
# Bulk Modulus (GPa) = 26.58940 42.78583 34.68762
# Shear Modulus (GPa) = 29.14346 36.71433 32.92890
#
# Velocity S-wave (km/s) = 3.39014 3.80509 3.60360
# Velocity P-wave (km/s) = 5.08035 6.01482 5.56723
#
# Compressibility (1/GPa) = 0.03760898
#
# Stress axis : x y z
#
# Youngs Moduli (GPa) = 119.27342 32.33413 74.00704
#
# Poissons Ratio (x) = 0.14429 0.10681
# Poissons Ratio (y) = 0.53225 0.12592
# Poissons Ratio (z) = 0.17215 0.05502
#
# Static dielectric constant tensor:
#      x y z
#    x 2.093680 0.000000 -0.003520 
#    y 0.000000 2.063170 0.000000 
#    z -0.003520 0.000000 2.091440 
# 
# From -- ./inp_files/37246.got.cif
#   From: 2010.05.17/outbox.cif.g08.bks.cpg/sg9_19_cif.got.tgz:37246.got - 2010.06.03 20:04:27.
