data_PCOD9135591
_publ_section_title
;
Structure prediction by ZEFSAII (Michael W. Deem and Ramdas Pophale) SiO2 
 PCOD9135591
Probable space group: C C
;
_chemical_formula_sum "Si O2"
_cell_formula_units_Z 28
_cell_length_a 11.293770
_cell_length_b 8.539326
_cell_length_c 12.023150
_cell_angle_alpha 90.000000
_cell_angle_beta 98.477943
_cell_angle_gamma 90.000000
_cell_volume 1146.856312
_symmetry_space_group_name_H-M "C C"
_symmetry_group_IT_number 9
_symmetry_cell_setting 'monoclinic'
loop_
_space_group_symop_operation_xyz
x,y,z
x,-y,1/2+z
1/2+x,1/2+y,z
1/2+x,1/2-y,1/2+z
loop_
_atom_site_type_symbol
_atom_site_label
_atom_site_fract_x
_atom_site_fract_y
_atom_site_fract_z
Si Si1 0.226060 0.173290 0.813370
Si Si2 0.333686 0.707037 0.922650
Si Si3 0.095334 0.870123 0.843655
Si Si4 0.171994 0.570971 0.475864
Si Si5 0.463278 0.180751 0.986152
Si Si6 0.860898 0.155892 0.672317
Si Si7 0.412466 0.712975 0.163130
O O1 0.157071 0.308582 0.872164
O O2 0.339902 0.133556 0.908853
O O3 0.294001 0.217709 0.707749
O O4 0.133230 0.031814 0.792933
O O5 0.218228 0.815194 0.913566
O O6 0.280323 0.537994 0.945875
O O7 0.368095 0.709704 0.799839
O O8 0.421305 0.751581 0.034693
O O9 0.003324 0.844765 0.931987
O O10 0.033839 0.752228 0.746804
O O11 0.230050 0.652760 0.593118
O O12 0.063021 0.452739 0.484372
O O13 0.439152 0.227498 0.108815
O O14 0.898800 0.974076 0.676023
#
# Coordination Sequence:
#
# PCOD9135591 Si02
#       7
#     4   4   4   4   4   4   4
#     4  10  20  44  68 102 137 172 225 287 334 402
#     4  10  21  44  68  95 137 181 225 277 339 406
#     4  10  23  43  71 101 136 174 232 281 340 408
#     4   9  19  41  72  94 135 178 222 275 340 402
#     4   9  21  43  68 100 137 175 224 280 339 405
#     4  10  20  41  69  95 135 178 224 279 332 404
#     4  10  22  42  72  97 137 180 224 283 340 403
#
# _framework density 24.414567000000002
#
# number of rings (size 3 to 8) (size 9 to 14) (size 15 to 20)
#    0.000    2.286    1.429    0.000    2.000    3.429 
#   15.429    1.429    3.143    0.000    0.000    0.000 
#    0.000    0.000    0.000    0.000    0.000    0.000 
#
# Total GULP energy -78183.851770 kJ/mol
# GULP energy per Si atom -5584.560841 kJ/mol
# Density = 2.435900 g / cm^3
# Si number density = 24.414567 Si / 1000 Ang^3
#
#
#
# Elastic Constant Matrix: (Units=GPa)
#
#
# Indices 1 2 3 4 5 6 
#
# 1 105.3852 54.1246 46.9466 0.0000 -16.7273 0.0000
# 2 54.1246 65.4249 26.0839 0.0000 -16.0156 0.0000
# 3 46.9466 26.0839 187.4033 0.0000 -20.2126 0.0000
# 4 0.0000 0.0000 0.0000 13.1929 0.0000 -9.5413
# 5 -16.7273 -16.0156 -20.2126 0.0000 34.0126 0.0000
# 6 0.0000 0.0000 0.0000 -9.5413 0.0000 53.3800
#
#
#
# Elastic Compliance Matrix: (Units=1/GPa)
#
#
# Indices 1 2 3 4 5 6 
#
# 1 0.017576 -0.013342 -0.002448 0.000000 0.000906 0.000000
# 2 -0.013342 0.027884 0.000181 0.000000 0.006676 0.000000
# 3 -0.002448 0.000181 0.006201 0.000000 0.002566 0.000000
# 4 0.000000 0.000000 0.000000 0.087052 0.000000 0.015560
# 5 0.000906 0.006676 0.002566 0.000000 0.034515 0.000000
# 6 0.000000 0.000000 0.000000 0.015560 0.000000 0.021515
#
#
# Mechanical properties :
#
#
# Convention : Reuss Voigt Hill
#
# Bulk Modulus (GPa) = 48.91623 68.05820 58.48721
# Shear Modulus (GPa) = 21.47993 35.52098 28.50046
#
# Velocity S-wave (km/s) = 2.96936 3.81847 3.42036
# Velocity P-wave (km/s) = 5.64228 6.88313 6.29336
#
# Compressibility (1/GPa) = 0.02044311
#
# Stress axis : x y z
#
# Youngs Moduli (GPa) = 56.89621 35.86236 161.26601
#
# Poissons Ratio (x) = 0.47848 0.39480
# Poissons Ratio (y) = 0.75912 -0.02924
# Poissons Ratio (z) = 0.13929 -0.00650
#
# Static dielectric constant tensor:
#      x y z
#    x 1.988420 0.000000 0.018880 
#    y 0.000000 2.004110 0.000000 
#    z 0.018880 0.000000 1.954800 
# 
# From -- ./inp_files/15938.got.cif
#   From: 2010.05.17/outbox.cif.g08.bks.cpg/sg9_8_cif.got.tgz:15938.got - 2010.06.03 20:04:27.
