data_PCOD9135641
_publ_section_title
;
Structure prediction by ZEFSAII (Michael W. Deem and Ramdas Pophale) SiO2 
 PCOD9135641
Probable space group: C C
;
_chemical_formula_sum "Si O2"
_cell_formula_units_Z 32
_cell_length_a 16.176629
_cell_length_b 9.992266
_cell_length_c 9.377556
_cell_angle_alpha 90.000000
_cell_angle_beta 125.471453
_cell_angle_gamma 90.000000
_cell_volume 1234.474077
_symmetry_space_group_name_H-M "C C"
_symmetry_group_IT_number 9
_symmetry_cell_setting 'monoclinic'
loop_
_space_group_symop_operation_xyz
x,y,z
x,-y,1/2+z
1/2+x,1/2+y,z
1/2+x,1/2-y,1/2+z
loop_
_atom_site_type_symbol
_atom_site_label
_atom_site_fract_x
_atom_site_fract_y
_atom_site_fract_z
Si Si1 0.504820 0.923421 0.744730
Si Si2 0.248178 0.307570 0.680339
Si Si3 0.879493 0.253850 0.832054
Si Si4 0.219882 0.643348 0.454150
Si Si5 0.006008 0.334575 0.426060
Si Si6 0.106966 0.924821 0.370453
Si Si7 0.734002 0.501153 0.248839
Si Si8 0.919807 0.102275 0.161277
O O1 0.466810 0.809092 0.815075
O O2 0.624768 0.952526 0.873718
O O3 0.477229 0.883650 0.556320
O O4 0.462625 0.061661 0.765645
O O5 0.276823 0.374754 0.861456
O O6 0.127627 0.323542 0.548977
O O7 0.265724 0.147749 0.726126
O O8 0.305038 0.382022 0.607481
O O9 0.798143 0.168490 0.659042
O O10 0.818840 0.387019 0.816148
O O11 0.919840 0.173865 0.007916
O O12 0.149156 0.778687 0.372098
O O13 0.970673 0.190980 0.337703
O O14 0.191029 0.007439 0.365202
O O15 0.135950 0.953487 0.560610
O O16 0.992767 0.972458 0.225059
#
# Coordination Sequence:
#
# PCOD9135641 Si02
#       8
#     4   4   4   4   4   4   4   4
#     4  11  24  45  67  98 131 180 234 289 349 420
#     4  10  21  42  67  96 132 187 228 280 354 419
#     4  11  24  37  70 102 132 176 228 285 338 427
#     4   9  23  46  68  91 139 189 228 282 346 431
#     4  11  24  43  68  95 138 178 227 296 352 412
#     4  10  22  40  67  95 135 176 225 284 343 408
#     4  10  20  42  65  94 133 181 228 277 340 421
#     4  12  24  39  68 109 138 175 232 291 352 422
#
# _framework density 25.921970000000002
#
# number of rings (size 3 to 8) (size 9 to 14) (size 15 to 20)
#    0.000    1.500    1.250    3.000    3.500    5.000 
#    2.250    1.250    0.000    0.000    0.000    0.000 
#    0.000    0.000    0.000    0.000    0.000    0.000 
#
# Total GULP energy -89489.747742 kJ/mol
# GULP energy per Si atom -5593.109234 kJ/mol
# Density = 2.586297 g / cm^3
# Si number density = 25.921970 Si / 1000 Ang^3
#
#
#
# Elastic Constant Matrix: (Units=GPa)
#
#
# Indices 1 2 3 4 5 6 
#
# 1 127.7069 14.3514 44.3163 0.0000 -14.1042 0.0000
# 2 14.3514 77.2398 19.9009 0.0000 -5.7624 0.0000
# 3 44.3163 19.9009 116.8217 0.0000 5.2771 0.0000
# 4 0.0000 0.0000 0.0000 33.8752 0.0000 9.2050
# 5 -14.1042 -5.7624 5.2771 0.0000 27.9940 0.0000
# 6 0.0000 0.0000 0.0000 9.2050 0.0000 38.2775
#
#
#
# Elastic Compliance Matrix: (Units=1/GPa)
#
#
# Indices 1 2 3 4 5 6 
#
# 1 0.009859 -0.000401 -0.003926 0.000000 0.005625 0.000000
# 2 -0.000401 0.013857 -0.002348 0.000000 0.003093 0.000000
# 3 -0.003926 -0.002348 0.010651 0.000000 -0.004469 0.000000
# 4 0.000000 0.000000 0.000000 0.031584 0.000000 -0.007595
# 5 0.005625 0.003093 -0.004469 0.000000 0.040035 0.000000
# 6 0.000000 0.000000 0.000000 -0.007595 0.000000 0.027952
#
#
# Mechanical properties :
#
#
# Convention : Reuss Voigt Hill
#
# Bulk Modulus (GPa) = 47.57931 53.21171 50.39551
# Shear Modulus (GPa) = 32.40584 36.24267 34.32425
#
# Velocity S-wave (km/s) = 3.53955 3.74323 3.64282
# Velocity P-wave (km/s) = 5.92446 6.26535 6.09729
#
# Compressibility (1/GPa) = 0.02101754
#
# Stress axis : x y z
#
# Youngs Moduli (GPa) = 101.43015 72.16599 93.88588
#
# Poissons Ratio (x) = 0.02892 0.36858
# Poissons Ratio (y) = 0.04064 0.22047
# Poissons Ratio (z) = 0.39820 0.16947
#
# Static dielectric constant tensor:
#      x y z
#    x 2.114980 0.000000 0.045250 
#    y 0.000000 2.170670 0.000000 
#    z 0.045250 0.000000 1.956570 
# 
# From -- ./inp_files/9329.got.cif
#   From: 2010.05.17/outbox.cif.g08.bks.cpg/sg9_5_cif.got.tgz:9329.got - 2010.06.03 20:04:27.
