data_PCOD9135119
_publ_section_title
;
Structure prediction by ZEFSAII (Michael W. Deem and Ramdas Pophale) SiO2 
 PCOD9135119
Probable space group: C C
;
_chemical_formula_sum "Si O2"
_cell_formula_units_Z 28
_cell_length_a 9.170788
_cell_length_b 10.668688
_cell_length_c 14.367469
_cell_angle_alpha 90.000000
_cell_angle_beta 58.978616
_cell_angle_gamma 90.000000
_cell_volume 1204.664463
_symmetry_space_group_name_H-M "C C"
_symmetry_group_IT_number 9
_symmetry_cell_setting 'monoclinic'
loop_
_space_group_symop_operation_xyz
x,y,z
x,-y,1/2+z
1/2+x,1/2+y,z
1/2+x,1/2-y,1/2+z
loop_
_atom_site_type_symbol
_atom_site_label
_atom_site_fract_x
_atom_site_fract_y
_atom_site_fract_z
Si Si1 0.089530 0.236944 0.857870
Si Si2 0.094693 0.897373 0.055213
Si Si3 0.667602 0.492399 0.727420
Si Si4 0.764622 0.137740 0.055564
Si Si5 0.723493 0.045773 0.717440
Si Si6 0.377516 0.061445 0.313649
Si Si7 0.288616 0.452809 0.890556
O O1 0.182566 0.131545 0.767228
O O2 0.198587 0.327607 0.886701
O O3 0.967490 0.319824 0.831760
O O4 0.958080 0.166817 0.968178
O O5 0.147067 0.987903 0.124539
O O6 0.159381 0.759154 0.061851
O O7 0.888509 0.888855 0.116588
O O8 0.204888 0.947679 0.931709
O O9 0.821643 0.419545 0.725268
O O10 0.490686 0.435475 0.822808
O O11 0.753485 0.093987 0.165102
O O12 0.719560 0.017212 0.006303
O O13 0.518304 0.051317 0.771829
O O14 0.754507 0.050805 0.817258
#
# Coordination Sequence:
#
# PCOD9135119 Si02
#       7
#     4   4   4   4   4   4   4
#     4   9  19  38  61  88 121 158 197 241 293 351
#     4  10  20  37  63  89 117 160 201 238 296 354
#     4  10  20  38  62  86 121 161 196 243 296 348
#     4  10  20  37  63  86 119 160 195 243 298 348
#     4  10  21  38  61  90 119 154 200 245 292 353
#     4  10  21  37  60  89 121 154 199 248 292 347
#     4   9  19  37  62  90 120 153 198 248 293 349
#
# _framework density 23.242986999999999
#
# number of rings (size 3 to 8) (size 9 to 14) (size 15 to 20)
#    0.000    2.286    0.000    3.429    0.000    4.571 
#    0.000   14.286    0.000   34.286    0.000    0.000 
#    0.000    0.000    0.000    0.000    0.000    0.000 
#
# Total GULP energy -78041.419826 kJ/mol
# GULP energy per Si atom -5574.387130 kJ/mol
# Density = 2.319008 g / cm^3
# Si number density = 23.242987 Si / 1000 Ang^3
#
#
#
# Elastic Constant Matrix: (Units=GPa)
#
#
# Indices 1 2 3 4 5 6 
#
# 1 123.0943 28.9096 17.6082 0.0000 6.1611 0.0000
# 2 28.9096 62.7690 12.5562 0.0000 -9.5608 0.0000
# 3 17.6082 12.5562 89.5735 0.0000 0.4675 0.0000
# 4 0.0000 0.0000 0.0000 22.6516 0.0000 6.4965
# 5 6.1611 -9.5608 0.4675 0.0000 27.6575 0.0000
# 6 0.0000 0.0000 0.0000 6.4965 0.0000 32.2572
#
#
#
# Elastic Compliance Matrix: (Units=1/GPa)
#
#
# Indices 1 2 3 4 5 6 
#
# 1 0.009601 -0.004754 -0.001201 0.000000 -0.003762 0.000000
# 2 -0.004754 0.019698 -0.001868 0.000000 0.007900 0.000000
# 3 -0.001201 -0.001868 0.011665 0.000000 -0.000575 0.000000
# 4 0.000000 0.000000 0.000000 0.046853 0.000000 -0.009436
# 5 -0.003762 0.007900 -0.000575 0.000000 0.039735 0.000000
# 6 0.000000 0.000000 0.000000 -0.009436 0.000000 0.032901
#
#
# Mechanical properties :
#
#
# Convention : Reuss Voigt Hill
#
# Bulk Modulus (GPa) = 39.49952 43.73163 41.61557
# Shear Modulus (GPa) = 27.09449 30.93745 29.01597
#
# Velocity S-wave (km/s) = 3.41795 3.65231 3.53707
# Velocity P-wave (km/s) = 5.71030 6.05323 5.88427
#
# Compressibility (1/GPa) = 0.02531676
#
# Stress axis : x y z
#
# Youngs Moduli (GPa) = 104.16025 50.76618 85.72672
#
# Poissons Ratio (x) = 0.24137 0.10297
# Poissons Ratio (y) = 0.49523 0.16012
# Poissons Ratio (z) = 0.12511 0.09482
#
# Static dielectric constant tensor:
#      x y z
#    x 1.910850 0.000000 -0.053290 
#    y 0.000000 1.911630 0.000000 
#    z -0.053290 0.000000 1.914240 
# 
# From -- ./inp_files/14231.got.cif
#   From: 2010.05.17/outbox.cif.g08.bks.cpg/sg9_8_cif.got.tgz:14231.got - 2010.06.03 20:04:27.
