data_PCOD9135296
_publ_section_title
;
Structure prediction by ZEFSAII (Michael W. Deem and Ramdas Pophale) SiO2 
 PCOD9135296
Probable space group: C C
;
_chemical_formula_sum "Si O2"
_cell_formula_units_Z 28
_cell_length_a 15.482350
_cell_length_b 13.513923
_cell_length_c 21.524177
_cell_angle_alpha 90.000000
_cell_angle_beta 19.477074
_cell_angle_gamma 90.000000
_cell_volume 1501.582132
_symmetry_space_group_name_H-M "C C"
_symmetry_group_IT_number 9
_symmetry_cell_setting 'monoclinic'
loop_
_space_group_symop_operation_xyz
x,y,z
x,-y,1/2+z
1/2+x,1/2+y,z
1/2+x,1/2-y,1/2+z
loop_
_atom_site_type_symbol
_atom_site_label
_atom_site_fract_x
_atom_site_fract_y
_atom_site_fract_z
Si Si1 0.895420 0.566229 0.273490
Si Si2 0.664260 0.142883 0.566779
Si Si3 0.901091 0.850734 0.769654
Si Si4 0.416649 0.566345 0.513324
Si Si5 0.871604 0.500232 0.927911
Si Si6 0.436969 0.357123 0.430806
Si Si7 0.414357 0.149049 0.513437
O O1 0.653658 0.596629 0.395820
O O2 0.990246 0.456072 0.189504
O O3 0.828608 0.556681 0.391761
O O4 0.149943 0.634233 0.095990
O O5 0.492487 0.240045 0.691454
O O6 0.809190 0.144858 0.403086
O O7 0.862858 0.134186 0.489865
O O8 0.139453 0.923852 0.596241
O O9 0.659685 0.877698 0.889619
O O10 0.144959 0.557162 0.734138
O O11 0.466904 0.455994 0.451967
O O12 0.892136 0.424199 0.970434
O O13 0.452535 0.259770 0.461900
O O14 0.657812 0.355428 0.229267
#
# Coordination Sequence:
#
# PCOD9135296 Si02
#       7
#     4   4   4   4   4   4   4
#     4  10  20  39  59  83 116 149 181 232 281 326
#     4  10  22  36  59  86 112 146 193 226 273 340
#     4  12  22  38  59  84 114 148 185 234 279 326
#     4  10  20  39  59  83 116 149 181 232 281 326
#     4  10  22  36  58  86 112 144 192 228 274 340
#     4  10  22  36  59  86 112 146 193 226 273 340
#     4  12  22  38  59  84 114 148 185 234 279 326
#
# _framework density 18.646999000000001
#
# number of rings (size 3 to 8) (size 9 to 14) (size 15 to 20)
#    0.000    1.714    0.000    8.571    0.000    0.000 
#    0.000    8.571    0.000    0.000    0.000    0.000 
#    0.000    0.000    0.000    0.000    0.000    0.000 
#
# Total GULP energy -78233.643844 kJ/mol
# GULP energy per Si atom -5588.117417 kJ/mol
# Density = 1.860456 g / cm^3
# Si number density = 18.646999 Si / 1000 Ang^3
#
#
#
# Elastic Constant Matrix: (Units=GPa)
#
#
# Indices 1 2 3 4 5 6 
#
# 1 136.5687 28.9908 107.8721 -0.0794 -13.0495 -0.0506
# 2 28.9908 50.6909 39.4888 -0.0996 11.5037 -0.0031
# 3 107.8721 39.4888 144.4462 -0.1086 14.8194 0.2351
# 4 -0.0794 -0.0996 -0.1086 18.4693 0.1747 0.0132
# 5 -13.0495 11.5037 14.8194 0.1747 46.1396 -0.0001
# 6 -0.0506 -0.0031 0.2351 0.0132 -0.0001 18.4093
#
#
#
# Elastic Compliance Matrix: (Units=1/GPa)
#
#
# Indices 1 2 3 4 5 6 
#
# 1 0.023447 -0.002141 -0.018263 -0.000142 0.013031 0.000297
# 2 -0.002141 0.026069 -0.004963 0.000154 -0.005512 0.000062
# 3 -0.018263 -0.004963 0.023082 0.000138 -0.011342 -0.000346
# 4 -0.000142 0.000154 0.000138 0.054148 -0.000328 -0.000041
# 5 0.013031 -0.005512 -0.011342 -0.000328 0.030377 0.000180
# 6 0.000297 0.000062 -0.000346 -0.000041 0.000180 0.054326
#
#
# Mechanical properties :
#
#
# Convention : Reuss Voigt Hill
#
# Bulk Modulus (GPa) = 45.73170 76.04550 60.88860
# Shear Modulus (GPa) = 18.55498 26.96058 22.75778
#
# Velocity S-wave (km/s) = 3.15789 3.80655 3.49729
# Velocity P-wave (km/s) = 6.15423 7.75821 7.00230
#
# Compressibility (1/GPa) = 0.02186667
#
# Stress axis : x y z
#
# Youngs Moduli (GPa) = 42.64936 38.36019 43.32305
#
# Poissons Ratio (x) = 0.08211 0.79119
# Poissons Ratio (y) = 0.09129 0.21500
# Poissons Ratio (z) = 0.77889 0.19037
#
# Static dielectric constant tensor:
#      x y z
#    x 1.641190 0.000020 -0.012490 
#    y 0.000020 1.624360 -0.000050 
#    z -0.012490 -0.000050 1.631190 
# 
# From -- ./inp_files/33781.got.cif
#   From: 2010.05.17/outbox.cif.g08.bks.cpg/sg9_17_cif.got.tgz:33781.got - 2010.06.03 20:04:27.
