data_PCOD9135943
_publ_section_title
;
Structure prediction by ZEFSAII (Michael W. Deem and Ramdas Pophale) SiO2 
 PCOD9135943
Probable space group: C C
;
_chemical_formula_sum "Si O2"
_cell_formula_units_Z 32
_cell_length_a 12.373678
_cell_length_b 8.185476
_cell_length_c 22.810127
_cell_angle_alpha 90.000000
_cell_angle_beta 32.474779
_cell_angle_gamma 90.000000
_cell_volume 1240.471388
_symmetry_space_group_name_H-M "C C"
_symmetry_group_IT_number 9
_symmetry_cell_setting 'monoclinic'
loop_
_space_group_symop_operation_xyz
x,y,z
x,-y,1/2+z
1/2+x,1/2+y,z
1/2+x,1/2-y,1/2+z
loop_
_atom_site_type_symbol
_atom_site_label
_atom_site_fract_x
_atom_site_fract_y
_atom_site_fract_z
Si Si1 0.699590 0.274833 0.061290
Si Si2 0.900314 0.001034 0.258668
Si Si3 0.498406 0.035917 0.716660
Si Si4 0.091682 0.312293 0.481473
Si Si5 0.571126 0.391220 0.368712
Si Si6 0.206937 0.931676 0.706727
Si Si7 0.324971 0.700039 0.502850
Si Si8 0.104699 0.407180 0.301167
O O1 0.598104 0.428517 0.137317
O O2 0.583266 0.127204 0.147362
O O3 0.668047 0.269432 0.005736
O O4 0.938763 0.249998 0.957728
O O5 0.768576 0.879731 0.360019
O O6 0.744940 0.025720 0.276026
O O7 0.011764 0.110865 0.256345
O O8 0.259882 0.058845 0.821721
O O9 0.599586 0.174373 0.627878
O O10 0.564199 0.033162 0.754267
O O11 0.923820 0.445487 0.577312
O O12 0.954076 0.199130 0.503760
O O13 0.663510 0.401516 0.261343
O O14 0.402759 0.534438 0.437294
O O15 0.221550 0.768471 0.740831
O O16 0.403327 0.851591 0.428519
#
# Coordination Sequence:
#
# PCOD9135943 Si02
#       8
#     4   4   4   4   4   4   4   4
#     4  11  21  40  62  92 124 170 212 264 328 393
#     4  11  23  41  66  94 125 169 223 263 325 392
#     4  11  19  39  64  85 129 166 208 262 330 392
#     4  11  19  39  65  88 121 168 219 258 320 389
#     4  10  21  37  61  95 121 163 211 262 326 379
#     4  11  20  39  65  91 120 165 223 262 308 391
#     4   9  20  36  64  87 114 174 209 250 318 386
#     4  10  21  39  63  90 126 169 211 263 321 386
#
# _framework density 25.796645999999999
#
# number of rings (size 3 to 8) (size 9 to 14) (size 15 to 20)
#    0.000    1.500    5.000    1.500    0.000    0.000 
#    4.500   11.250    0.000    0.000    0.000    0.000 
#    0.000    0.000    0.000    0.000    0.000    0.000 
#
# Total GULP energy -89351.066515 kJ/mol
# GULP energy per Si atom -5584.441657 kJ/mol
# Density = 2.573793 g / cm^3
# Si number density = 25.796646 Si / 1000 Ang^3
#
#
#
# Elastic Constant Matrix: (Units=GPa)
#
#
# Indices 1 2 3 4 5 6 
#
# 1 138.0736 11.6847 35.0888 0.0000 9.9278 0.0000
# 2 11.6847 36.5901 25.8578 0.0000 2.2976 0.0000
# 3 35.0888 25.8578 168.0790 -0.0002 2.5710 0.0000
# 4 0.0000 0.0000 -0.0002 44.3120 0.0000 1.6684
# 5 9.9278 2.2976 2.5710 0.0000 44.5894 0.0000
# 6 0.0000 0.0000 0.0000 1.6684 0.0000 26.1422
#
#
#
# Elastic Compliance Matrix: (Units=1/GPa)
#
#
# Indices 1 2 3 4 5 6 
#
# 1 0.007831 -0.001417 -0.001392 0.000000 -0.001590 0.000000
# 2 -0.001417 0.030996 -0.004457 0.000000 -0.001025 0.000000
# 3 -0.001392 -0.004457 0.006924 0.000000 0.000140 0.000000
# 4 0.000000 0.000000 0.000000 0.022622 0.000000 -0.001444
# 5 -0.001590 -0.001025 0.000140 0.000000 0.022826 0.000000
# 6 0.000000 0.000000 0.000000 -0.001444 0.000000 0.038344
#
#
# Mechanical properties :
#
#
# Convention : Reuss Voigt Hill
#
# Bulk Modulus (GPa) = 32.03263 54.22280 43.12772
# Shear Modulus (GPa) = 32.36637 41.01614 36.69126
#
# Velocity S-wave (km/s) = 3.54598 3.99178 3.77547
# Velocity P-wave (km/s) = 5.40459 6.50467 5.97998
#
# Compressibility (1/GPa) = 0.03121816
#
# Stress axis : x y z
#
# Youngs Moduli (GPa) = 127.70384 32.26179 144.42857
#
# Poissons Ratio (x) = 0.04571 0.20111
# Poissons Ratio (y) = 0.18092 0.64374
# Poissons Ratio (z) = 0.17782 0.14380
#
# Static dielectric constant tensor:
#      x y z
#    x 2.056890 0.000000 0.022540 
#    y 0.000000 2.141870 0.000000 
#    z 0.022540 0.000000 2.050590 
# 
# From -- ./inp_files/16503.got.cif
#   From: 2010.05.17/outbox.cif.g08.bks.cpg/sg9_9_cif.got.tgz:16503.got - 2010.06.03 20:04:27.
