data_PCOD9135904
_publ_section_title
;
Structure prediction by ZEFSAII (Michael W. Deem and Ramdas Pophale) SiO2 
 PCOD9135904
Probable space group: C C
;
_chemical_formula_sum "Si O2"
_cell_formula_units_Z 32
_cell_length_a 14.644115
_cell_length_b 19.359501
_cell_length_c 5.226368
_cell_angle_alpha 90.000000
_cell_angle_beta 105.447103
_cell_angle_gamma 90.000000
_cell_volume 1428.166319
_symmetry_space_group_name_H-M "C C"
_symmetry_group_IT_number 9
_symmetry_cell_setting 'monoclinic'
loop_
_space_group_symop_operation_xyz
x,y,z
x,-y,1/2+z
1/2+x,1/2+y,z
1/2+x,1/2-y,1/2+z
loop_
_atom_site_type_symbol
_atom_site_label
_atom_site_fract_x
_atom_site_fract_y
_atom_site_fract_z
Si Si1 0.427920 0.534007 0.199710
Si Si2 0.112999 0.670073 0.220344
Si Si3 0.005508 0.175702 0.059342
Si Si4 0.714863 0.464880 0.325972
Si Si5 0.986040 0.325780 0.125644
Si Si6 0.630241 0.679381 0.652486
Si Si7 0.425664 0.026653 0.519747
Si Si8 0.702270 0.033201 0.079327
O O1 0.465107 0.519854 0.513500
O O2 0.448679 0.608603 0.098836
O O3 0.315475 0.527105 0.144140
O O4 0.067083 0.665630 0.467431
O O5 0.166973 0.743308 0.233696
O O6 0.175596 0.605702 0.185670
O O7 0.029467 0.671616 0.943036
O O8 0.949791 0.248111 0.050254
O O9 0.090082 0.178399 0.333949
O O10 0.047229 0.171356 0.804577
O O11 0.674527 0.487742 0.568469
O O12 0.698747 0.385308 0.249376
O O13 0.825933 0.485483 0.426851
O O14 0.917350 0.391244 0.037940
O O15 0.476961 0.005098 0.300820
O O16 0.669228 0.976787 0.263432
#
# Coordination Sequence:
#
# PCOD9135904 Si02
#       8
#     4   4   4   4   4   4   4   4
#     4  10  21  37  57  83 114 142 188 239 287 345
#     4  10  21  37  58  85 112 153 191 238 290 339
#     4  10  21  37  58  85 112 153 191 238 290 339
#     4  10  21  37  56  81 118 153 190 239 286 345
#     4  10  21  37  58  83 118 147 196 238 279 351
#     4  10  21  37  58  83 118 147 196 238 279 351
#     4  10  21  37  56  81 118 153 190 239 286 345
#     4  10  21  37  57  83 114 142 188 239 287 345
#
# _framework density 22.406354
#
# number of rings (size 3 to 8) (size 9 to 14) (size 15 to 20)
#    0.000    2.000    0.000    3.000    0.000    6.000 
#    4.500    0.000   11.000    0.000    0.000    0.000 
#    0.000    0.000    0.000    0.000    0.000    0.000 
#
# Total GULP energy -89337.243356 kJ/mol
# GULP energy per Si atom -5583.577710 kJ/mol
# Density = 2.235536 g / cm^3
# Si number density = 22.406354 Si / 1000 Ang^3
#
#
#
# Elastic Constant Matrix: (Units=GPa)
#
#
# Indices 1 2 3 4 5 6 
#
# 1 48.6265 16.1685 4.6218 0.0000 -1.6718 0.0000
# 2 16.1685 169.9487 17.8333 0.0000 -10.6609 0.0000
# 3 4.6218 17.8333 95.6146 0.0000 -26.7290 0.0000
# 4 0.0000 0.0000 0.0000 19.4994 0.0000 -33.4876
# 5 -1.6718 -10.6609 -26.7290 0.0000 16.5046 0.0000
# 6 0.0000 0.0000 0.0000 -33.4876 0.0000 -40.3164
#
#
#
# Elastic Compliance Matrix: (Units=1/GPa)
#
#
# Indices 1 2 3 4 5 6 
#
# 1 0.021279 -0.001966 -0.000757 0.000000 -0.000341 0.000000
# 2 -0.001966 0.006315 0.000003 0.000000 0.003885 0.000000
# 3 -0.000757 0.000003 0.019138 0.000000 0.030919 0.000000
# 4 0.000000 0.000000 0.000000 0.021135 0.000000 -0.017555
# 5 -0.000341 0.003885 0.030919 0.000000 0.113137 0.000000
# 6 0.000000 0.000000 0.000000 -0.017555 0.000000 -0.010222
#
#
# Mechanical properties :
#
#
# Convention : Reuss Voigt Hill
#
# Bulk Modulus (GPa) = 24.21809 43.49297 33.85553
# Shear Modulus (GPa) = 26.31775 17.50862 21.91319
#
# Velocity S-wave (km/s) = 3.43091 2.79841 3.13068
# Velocity P-wave (km/s) = 5.15043 5.46760 5.31138
#
# Compressibility (1/GPa) = 0.04129146
#
# Stress axis : x y z
#
# Youngs Moduli (GPa) = 46.99477 158.36411 52.25177
#
# Poissons Ratio (x) = 0.31140 0.03956
# Poissons Ratio (y) = 0.09241 -0.00018
# Poissons Ratio (z) = 0.03558 -0.00054
#
# Static dielectric constant tensor:
#      x y z
#    x 1.859950 0.000000 -0.012380 
#    y 0.000000 1.852070 0.000000 
#    z -0.012380 0.000000 1.934310 
# 
# From -- ./inp_files/2505.got.cif
#   From: 2010.05.17/outbox.cif.g08.bks.cpg/sg9_2_cif.got.tgz:2505.got - 2010.06.03 20:04:27.
