data_PCOD9135302
_publ_section_title
;
Structure prediction by ZEFSAII (Michael W. Deem and Ramdas Pophale) SiO2 
 PCOD9135302
Probable space group: C C
;
_chemical_formula_sum "Si O2"
_cell_formula_units_Z 32
_cell_length_a 7.469202
_cell_length_b 23.217599
_cell_length_c 13.101289
_cell_angle_alpha 90.000000
_cell_angle_beta 141.118011
_cell_angle_gamma 90.000000
_cell_volume 1426.167011
_symmetry_space_group_name_H-M "C C"
_symmetry_group_IT_number 9
_symmetry_cell_setting 'monoclinic'
loop_
_space_group_symop_operation_xyz
x,y,z
x,-y,1/2+z
1/2+x,1/2+y,z
1/2+x,1/2-y,1/2+z
loop_
_atom_site_type_symbol
_atom_site_label
_atom_site_fract_x
_atom_site_fract_y
_atom_site_fract_z
Si Si1 0.232410 0.442380 0.534680
Si Si2 0.241108 0.566101 0.622058
Si Si3 0.372870 0.183418 0.635356
Si Si4 0.749092 0.649205 0.801725
Si Si5 0.305934 0.805780 0.538854
Si Si6 0.306951 0.777627 0.763310
Si Si7 0.644985 0.624433 0.349202
Si Si8 0.403808 0.406328 0.396958
O O1 0.247811 0.510363 0.555297
O O2 0.369776 0.410377 0.692628
O O3 0.411383 0.429451 0.512958
O O4 0.934136 0.409906 0.380432
O O5 0.429925 0.623221 0.677870
O O6 0.358055 0.548998 0.785882
O O7 0.912201 0.582658 0.481574
O O8 0.258717 0.185469 0.700767
O O9 0.520014 0.238766 0.648450
O O10 0.138382 0.159893 0.451849
O O11 0.635791 0.137741 0.764321
O O12 0.887053 0.687502 0.954970
O O13 0.430227 0.790214 0.704744
O O14 0.049489 0.760022 0.423025
O O15 0.183298 0.869653 0.501279
O O16 0.231953 0.833698 0.794801
#
# Coordination Sequence:
#
# PCOD9135302 Si02
#       8
#     4   4   4   4   4   4   4   4
#     4  11  21  40  64  92 120 165 217 259 312 367
#     4  10  22  41  62  88 125 167 209 258 318 366
#     4   9  20  39  61  87 127 162 198 253 317 369
#     4  10  23  43  59  94 135 155 205 277 308 352
#     4  10  20  39  61  87 121 168 202 249 313 376
#     4  11  20  39  64  85 121 175 206 234 317 404
#     4  11  22  40  65  90 117 171 216 240 309 403
#     4   8  18  37  60  79 122 167 195 242 314 383
#
# _framework density 22.437766
#
# number of rings (size 3 to 8) (size 9 to 14) (size 15 to 20)
#    0.000    2.000    2.500    1.500    0.000    1.000 
#    9.000    3.750    0.000    0.000    0.000    0.000 
#    0.000    0.000    0.000    0.000    0.000    0.000 
#
# Total GULP energy -89161.114713 kJ/mol
# GULP energy per Si atom -5572.569670 kJ/mol
# Density = 2.238670 g / cm^3
# Si number density = 22.437766 Si / 1000 Ang^3
#
#
#
# Elastic Constant Matrix: (Units=GPa)
#
#
# Indices 1 2 3 4 5 6 
#
# 1 53.0320 -5.9273 18.1444 0.0000 -27.5605 0.0000
# 2 -5.9273 50.9049 15.3582 0.0000 -16.1137 0.0000
# 3 18.1444 15.3582 79.3752 0.0000 -31.3474 0.0000
# 4 0.0000 0.0000 0.0000 24.1856 0.0000 -8.2416
# 5 -27.5605 -16.1137 -31.3474 0.0000 49.2542 0.0000
# 6 0.0000 0.0000 0.0000 -8.2416 0.0000 23.2609
#
#
#
# Elastic Compliance Matrix: (Units=1/GPa)
#
#
# Indices 1 2 3 4 5 6 
#
# 1 0.030648 0.010169 -0.001185 0.000000 0.019722 0.000000
# 2 0.010169 0.025500 -0.002293 0.000000 0.012573 0.000000
# 3 -0.001185 -0.002293 0.017037 0.000000 0.009430 0.000000
# 4 0.000000 0.000000 0.000000 0.047025 0.000000 0.016661
# 5 0.019722 0.012573 0.009430 0.000000 0.041453 0.000000
# 6 0.000000 0.000000 0.000000 0.016661 0.000000 0.048894
#
#
# Mechanical properties :
#
#
# Convention : Reuss Voigt Hill
#
# Bulk Modulus (GPa) = 11.55166 26.49587 19.02376
# Shear Modulus (GPa) = 22.12090 29.72259 25.92175
#
# Velocity S-wave (km/s) = 3.14328 3.64355 3.40262
# Velocity P-wave (km/s) = 4.28171 5.43460 4.89223
#
# Compressibility (1/GPa) = 0.08656763
#
# Stress axis : x y z
#
# Youngs Moduli (GPa) = 32.62870 39.21522 58.69556
#
# Poissons Ratio (x) = -0.39878 0.06953
# Poissons Ratio (y) = -0.33180 0.13459
# Poissons Ratio (z) = 0.03865 0.08992
#
# Static dielectric constant tensor:
#      x y z
#    x 1.895250 0.000000 -0.037150 
#    y 0.000000 1.824820 0.000000 
#    z -0.037150 0.000000 1.865910 
# 
# From -- ./inp_files/5940.got.cif
#   From: 2010.05.17/outbox.cif.g08.bks.cpg/sg9_3_cif.got.tgz:5940.got - 2010.06.03 20:04:27.
