data_PCOD9135715
_publ_section_title
;
Structure prediction by ZEFSAII (Michael W. Deem and Ramdas Pophale) SiO2 
 PCOD9135715
Probable space group: C C
;
_chemical_formula_sum "Si O2"
_cell_formula_units_Z 32
_cell_length_a 4.929703
_cell_length_b 13.197528
_cell_length_c 24.501683
_cell_angle_alpha 90.000000
_cell_angle_beta 72.703351
_cell_angle_gamma 90.000000
_cell_volume 1521.989842
_symmetry_space_group_name_H-M "C C"
_symmetry_group_IT_number 9
_symmetry_cell_setting 'monoclinic'
loop_
_space_group_symop_operation_xyz
x,y,z
x,-y,1/2+z
1/2+x,1/2+y,z
1/2+x,1/2-y,1/2+z
loop_
_atom_site_type_symbol
_atom_site_label
_atom_site_fract_x
_atom_site_fract_y
_atom_site_fract_z
Si Si1 0.684610 0.844400 0.307720
Si Si2 0.052624 0.767983 0.061274
Si Si3 0.735131 0.252880 0.252595
Si Si4 0.334884 0.851346 0.851818
Si Si5 0.687308 0.496034 0.554811
Si Si6 0.957453 0.185955 0.125810
Si Si7 0.260450 0.472970 0.879046
Si Si8 0.779070 0.084329 0.992133
O O1 0.423063 0.808807 0.286903
O O2 0.676516 0.953584 0.334459
O O3 0.971296 0.827053 0.255427
O O4 0.719780 0.763649 0.355520
O O5 0.180251 0.716831 0.108312
O O6 0.199577 0.702171 0.004492
O O7 0.717905 0.746740 0.082680
O O8 0.119933 0.886023 0.056895
O O9 0.575290 0.157505 0.290097
O O10 0.913327 0.218518 0.190394
O O11 0.507738 0.889836 0.893911
O O12 0.066142 0.920545 0.854400
O O13 0.532438 0.431913 0.611700
O O14 0.566269 0.443260 0.506917
O O15 0.021699 0.474679 0.537969
O O16 0.280962 0.540001 0.931873
#
# Coordination Sequence:
#
# PCOD9135715 Si02
#       8
#     4   4   4   4   4   4   4   4
#     4  10  22  40  57  86 125 156 203 248 287 355
#     4  10  21  40  61  89 117 150 196 248 296 362
#     4  10  20  43  59  85 129 158 190 265 291 345
#     4  10  22  40  57  86 125 155 202 250 285 357
#     4  10  21  42  59  89 117 150 196 251 292 365
#     4  10  21  39  62  87 120 151 197 241 301 352
#     4  12  22  39  62  86 118 168 198 244 306 357
#     4  10  23  37  61  86 119 150 198 247 296 349
#
# _framework density 21.025105
#
# number of rings (size 3 to 8) (size 9 to 14) (size 15 to 20)
#    0.750    1.000    1.250    3.000    0.000    2.000 
#    6.750    0.000    0.000    0.000    0.000    0.000 
#    0.000    0.000    0.000    0.000    0.000    0.000 
#
# Total GULP energy -89251.466276 kJ/mol
# GULP energy per Si atom -5578.216642 kJ/mol
# Density = 2.097725 g / cm^3
# Si number density = 21.025105 Si / 1000 Ang^3
#
#
#
# Elastic Constant Matrix: (Units=GPa)
#
#
# Indices 1 2 3 4 5 6 
#
# 1 103.3483 11.2121 1.1002 0.0000 3.1700 0.0000
# 2 11.2121 95.3888 2.2921 0.0000 -14.1048 0.0000
# 3 1.1002 2.2921 28.4668 0.0000 0.3624 0.0000
# 4 0.0000 0.0000 0.0000 13.4719 0.0000 3.9383
# 5 3.1700 -14.1048 0.3624 0.0000 18.6433 0.0000
# 6 0.0000 0.0000 0.0000 3.9383 0.0000 16.6937
#
#
#
# Elastic Compliance Matrix: (Units=1/GPa)
#
#
# Indices 1 2 3 4 5 6 
#
# 1 0.009939 -0.001590 -0.000219 0.000000 -0.002889 0.000000
# 2 -0.001590 0.012091 -0.001032 0.000000 0.009438 0.000000
# 3 -0.000219 -0.001032 0.035238 0.000000 -0.001429 0.000000
# 4 0.000000 0.000000 0.000000 0.079727 0.000000 -0.018809
# 5 -0.002889 0.009438 -0.001429 0.000000 0.061298 0.000000
# 6 0.000000 0.000000 0.000000 -0.018809 0.000000 0.064340
#
#
# Mechanical properties :
#
#
# Convention : Reuss Voigt Hill
#
# Bulk Modulus (GPa) = 19.38542 28.49028 23.93785
# Shear Modulus (GPa) = 17.51242 23.93509 20.72375
#
# Velocity S-wave (km/s) = 2.88918 3.37769 3.14294
# Velocity P-wave (km/s) = 4.51331 5.36579 4.95791
#
# Compressibility (1/GPa) = 0.05158515
#
# Stress axis : x y z
#
# Youngs Moduli (GPa) = 100.60882 82.70847 28.37810
#
# Poissons Ratio (x) = 0.13152 0.00622
# Poissons Ratio (y) = 0.15999 0.02929
# Poissons Ratio (z) = 0.02207 0.08537
#
# Static dielectric constant tensor:
#      x y z
#    x 1.737460 0.000000 -0.001820 
#    y 0.000000 1.772810 0.000000 
#    z -0.001820 0.000000 1.755950 
# 
# From -- ./inp_files/34773.got.cif
#   From: 2010.05.17/outbox.cif.g08.bks.cpg/sg9_18_cif.got.tgz:34773.got - 2010.06.03 20:04:27.
