data_PCOD9135587
_publ_section_title
;
Structure prediction by ZEFSAII (Michael W. Deem and Ramdas Pophale) SiO2 
 PCOD9135587
Probable space group: C C
;
_chemical_formula_sum "Si O2"
_cell_formula_units_Z 28
_cell_length_a 14.449165
_cell_length_b 18.530102
_cell_length_c 8.608413
_cell_angle_alpha 90.000000
_cell_angle_beta 37.917725
_cell_angle_gamma 90.000000
_cell_volume 1416.401038
_symmetry_space_group_name_H-M "C C"
_symmetry_group_IT_number 9
_symmetry_cell_setting 'monoclinic'
loop_
_space_group_symop_operation_xyz
x,y,z
x,-y,1/2+z
1/2+x,1/2+y,z
1/2+x,1/2-y,1/2+z
loop_
_atom_site_type_symbol
_atom_site_label
_atom_site_fract_x
_atom_site_fract_y
_atom_site_fract_z
Si Si1 0.387790 0.365112 0.827200
Si Si2 0.648298 0.893251 0.376202
Si Si3 0.884174 0.457469 0.545246
Si Si4 0.348418 0.761612 0.149852
Si Si5 0.221632 0.911141 0.455442
Si Si6 0.131481 0.335935 0.732513
Si Si7 0.653277 0.044768 0.449700
O O1 0.411923 0.291991 0.698079
O O2 0.540625 0.403225 0.679848
O O3 0.296446 0.419703 0.838485
O O4 0.259712 0.346620 0.124032
O O5 0.475223 0.902458 0.541677
O O6 0.680869 0.873102 0.509813
O O7 0.703246 0.975616 0.289231
O O8 0.770238 0.422650 0.570840
O O9 0.798234 0.522392 0.752295
O O10 0.022926 0.478426 0.244001
O O11 0.275648 0.833002 0.320859
O O12 0.243125 0.716413 0.175711
O O13 0.489079 0.790230 0.868540
O O14 0.088285 0.395702 0.918312
#
# Coordination Sequence:
#
# PCOD9135587 Si02
#       7
#     4   4   4   4   4   4   4
#     4  10  25  40  63  95 135 173 208 262 329 380
#     4  11  22  43  64 100 122 173 222 263 317 389
#     4  11  23  39  71  97 124 167 216 271 322 377
#     4  11  22  45  66  88 129 179 205 265 322 392
#     4  12  24  44  64 100 129 164 218 269 323 378
#     4  11  22  42  70  92 129 167 225 256 327 386
#     4  10  20  41  68  94 126 173 210 266 324 382
#
# _framework density 19.768412999999999
#
# number of rings (size 3 to 8) (size 9 to 14) (size 15 to 20)
#    0.000    1.143    4.286    2.571    2.000    0.000 
#    5.143    0.000    0.000    0.000    0.000    0.000 
#    0.000    0.000    0.000    0.000    0.000    0.000 
#
# Total GULP energy -77941.360119 kJ/mol
# GULP energy per Si atom -5567.240009 kJ/mol
# Density = 1.972342 g / cm^3
# Si number density = 19.768413 Si / 1000 Ang^3
#
#
#
# Elastic Constant Matrix: (Units=GPa)
#
#
# Indices 1 2 3 4 5 6 
#
# 1 150.2894 44.0582 39.8983 -0.0005 -3.8290 0.0005
# 2 44.0582 73.3860 26.3237 -0.0002 -0.7961 0.0001
# 3 39.8983 26.3237 44.3575 -0.0009 -9.3286 0.0003
# 4 -0.0005 -0.0002 -0.0009 11.9497 0.0004 -7.0410
# 5 -3.8290 -0.7961 -9.3286 0.0004 34.3320 -0.0004
# 6 0.0005 0.0001 0.0003 -7.0410 -0.0004 23.5100
#
#
#
# Elastic Compliance Matrix: (Units=1/GPa)
#
#
# Indices 1 2 3 4 5 6 
#
# 1 0.009350 -0.003230 -0.006671 0.000000 -0.000845 0.000000
# 2 -0.003230 0.018638 -0.008634 0.000000 -0.002274 0.000000
# 3 -0.006671 -0.008634 0.035498 0.000002 0.008701 0.000000
# 4 0.000000 0.000000 0.000002 0.101616 0.000000 0.030433
# 5 -0.000845 -0.002274 0.008701 0.000000 0.031345 0.000000
# 6 0.000000 0.000000 0.000000 0.030433 0.000000 0.051649
#
#
# Mechanical properties :
#
#
# Convention : Reuss Voigt Hill
#
# Bulk Modulus (GPa) = 37.85446 54.28815 46.07131
# Shear Modulus (GPa) = 17.00847 24.47516 20.74182
#
# Velocity S-wave (km/s) = 2.93642 3.52247 3.24271
# Velocity P-wave (km/s) = 5.53961 6.63818 6.11362
#
# Compressibility (1/GPa) = 0.02641697
#
# Stress axis : x y z
#
# Youngs Moduli (GPa) = 106.95005 53.65430 28.17030
#
# Poissons Ratio (x) = 0.17328 0.18793
# Poissons Ratio (y) = 0.34541 0.24322
# Poissons Ratio (z) = 0.71349 0.46324
#
# Static dielectric constant tensor:
#      x y z
#    x 1.726500 0.000000 -0.008330 
#    y 0.000000 1.676120 0.000000 
#    z -0.008330 0.000000 1.727080 
# 
# From -- ./inp_files/7855.got.cif
#   From: 2010.05.17/outbox.cif.g08.bks.cpg/sg9_4_cif.got.tgz:7855.got - 2010.06.03 20:04:27.
