data_PCOD9135518
_publ_section_title
;
Structure prediction by ZEFSAII (Michael W. Deem and Ramdas Pophale) SiO2 
 PCOD9135518
Probable space group: C C
;
_chemical_formula_sum "Si O2"
_cell_formula_units_Z 32
_cell_length_a 6.178288
_cell_length_b 18.032144
_cell_length_c 15.179825
_cell_angle_alpha 90.000000
_cell_angle_beta 57.373047
_cell_angle_gamma 90.000000
_cell_volume 1424.285090
_symmetry_space_group_name_H-M "C C"
_symmetry_group_IT_number 9
_symmetry_cell_setting 'monoclinic'
loop_
_space_group_symop_operation_xyz
x,y,z
x,-y,1/2+z
1/2+x,1/2+y,z
1/2+x,1/2-y,1/2+z
loop_
_atom_site_type_symbol
_atom_site_label
_atom_site_fract_x
_atom_site_fract_y
_atom_site_fract_z
Si Si1 0.003520 0.191718 0.445500
Si Si2 0.547304 0.193101 0.270295
Si Si3 0.983462 0.967737 0.284097
Si Si4 0.081561 0.194797 0.080222
Si Si5 0.599575 0.411319 0.081397
Si Si6 0.887352 0.592586 0.146157
Si Si7 0.452669 0.553912 0.990192
Si Si8 0.666009 0.093523 0.409624
O O1 0.268023 0.228139 0.352448
O O2 0.036611 0.160753 0.536826
O O3 0.763091 0.245545 0.495767
O O4 0.915150 0.119829 0.408893
O O5 0.478925 0.127765 0.217369
O O6 0.627130 0.154419 0.343286
O O7 0.807969 0.227909 0.173449
O O8 0.970813 0.911077 0.205750
O O9 0.058581 0.945518 0.367012
O O10 0.190805 0.026655 0.203776
O O11 0.723579 0.015333 0.351114
O O12 0.242774 0.156976 0.123918
O O13 0.033004 0.127712 0.023866
O O14 0.521252 0.483635 0.038497
O O15 0.908049 0.411052 0.022202
O O16 0.145086 0.561121 0.045971
#
# Coordination Sequence:
#
# PCOD9135518 Si02
#       8
#     4   4   4   4   4   4   4   4
#     4  11  24  44  68  98 139 182 231 288 351 426
#     4  10  20  40  71  96 123 186 230 272 358 426
#     4  12  20  40  71  96 135 174 230 292 354 396
#     4  11  24  44  68  98 139 182 231 288 351 426
#     4  11  24  41  68 103 134 180 235 288 344 422
#     4  11  21  43  69  97 131 180 228 282 349 418
#     4  11  24  41  68 103 134 180 235 288 344 422
#     4  11  21  43  69  97 131 180 228 282 349 418
#
# _framework density 22.467410999999998
#
# number of rings (size 3 to 8) (size 9 to 14) (size 15 to 20)
#    0.000    1.000    5.000    2.250    0.000    4.000 
#    0.000    7.500    0.000    0.000    0.000    0.000 
#    0.000    0.000    0.000    0.000    0.000    0.000 
#
# Total GULP energy -89367.381725 kJ/mol
# GULP energy per Si atom -5585.461358 kJ/mol
# Density = 2.241627 g / cm^3
# Si number density = 22.467411 Si / 1000 Ang^3
#
#
#
# Elastic Constant Matrix: (Units=GPa)
#
#
# Indices 1 2 3 4 5 6 
#
# 1 77.3736 9.1021 25.3048 0.0000 -7.3421 0.0000
# 2 9.1021 41.9428 26.0549 0.0000 -12.1248 0.0000
# 3 25.3048 26.0549 103.6406 0.0000 1.8466 0.0000
# 4 0.0000 0.0000 0.0000 29.0443 0.0000 -12.1626
# 5 -7.3421 -12.1248 1.8466 0.0000 46.0980 0.0000
# 6 0.0000 0.0000 0.0000 -12.1626 0.0000 16.5053
#
#
#
# Elastic Compliance Matrix: (Units=1/GPa)
#
#
# Indices 1 2 3 4 5 6 
#
# 1 0.014313 -0.000274 -0.003468 0.000000 0.002347 0.000000
# 2 -0.000274 0.031302 -0.007954 0.000000 0.008508 0.000000
# 3 -0.003468 -0.007954 0.012551 0.000000 -0.003147 0.000000
# 4 0.000000 0.000000 0.000000 0.049797 0.000000 0.036695
# 5 0.002347 0.008508 -0.003147 0.000000 0.024431 0.000000
# 6 0.000000 0.000000 0.000000 0.036695 0.000000 0.087627
#
#
# Mechanical properties :
#
#
# Convention : Reuss Voigt Hill
#
# Bulk Modulus (GPa) = 28.75581 38.20897 33.48239
# Shear Modulus (GPa) = 19.60762 29.16253 24.38507
#
# Velocity S-wave (km/s) = 2.95738 3.60667 3.29804
# Velocity P-wave (km/s) = 4.94855 5.86408 5.42566
#
# Compressibility (1/GPa) = 0.03477558
#
# Stress axis : x y z
#
# Youngs Moduli (GPa) = 69.86511 31.94694 79.67436
#
# Poissons Ratio (x) = 0.00874 0.27629
# Poissons Ratio (y) = 0.01912 0.63373
# Poissons Ratio (z) = 0.24227 0.25411
#
# Static dielectric constant tensor:
#      x y z
#    x 1.837390 0.000000 -0.003570 
#    y 0.000000 1.847250 0.000000 
#    z -0.003570 0.000000 1.865110 
# 
# From -- ./inp_files/13382.got.cif
#   From: 2010.05.17/outbox.cif.g08.bks.cpg/sg9_7_cif.got.tgz:13382.got - 2010.06.03 20:04:27.
