data_PCOD9135012
_publ_section_title
;
Structure prediction by ZEFSAII (Michael W. Deem and Ramdas Pophale) SiO2 
 PCOD9135012
Probable space group: C C
;
_chemical_formula_sum "Si O2"
_cell_formula_units_Z 24
_cell_length_a 27.107383
_cell_length_b 7.174396
_cell_length_c 17.891597
_cell_angle_alpha 90.000000
_cell_angle_beta 15.119207
_cell_angle_gamma 90.000000
_cell_volume 907.562403
_symmetry_space_group_name_H-M "C C"
_symmetry_group_IT_number 9
_symmetry_cell_setting 'monoclinic'
loop_
_space_group_symop_operation_xyz
x,y,z
x,-y,1/2+z
1/2+x,1/2+y,z
1/2+x,1/2-y,1/2+z
loop_
_atom_site_type_symbol
_atom_site_label
_atom_site_fract_x
_atom_site_fract_y
_atom_site_fract_z
Si Si1 0.295140 0.810325 0.462990
Si Si2 0.711340 0.227594 0.973545
Si Si3 0.332898 0.694821 0.257092
Si Si4 0.608478 0.765693 0.380377
Si Si5 0.419978 0.617697 0.796510
Si Si6 0.662945 0.862266 0.860096
O O1 0.212632 0.800668 0.499202
O O2 0.175821 0.848746 0.710415
O O3 0.367141 0.598332 0.373291
O O4 0.486244 0.925385 0.173057
O O5 0.741711 0.222115 0.018607
O O6 0.895017 0.340595 0.674579
O O7 0.513180 0.298290 0.233814
O O8 0.771057 0.019882 0.859619
O O9 0.546679 0.739715 0.970714
O O10 0.296700 0.737204 0.223682
O O11 0.580160 0.651098 0.497875
O O12 0.729443 0.947585 0.224871
#
# Coordination Sequence:
#
# PCOD9135012 Si02
#       6
#     4   4   4   4   4   4
#     4   9  22  37  58  88 115 150 200 238 291 353
#     4   9  18  36  60  80 119 158 184 243 296 341
#     4   9  19  38  56  84 121 151 192 246 292 344
#     4  10  20  37  62  84 113 158 195 234 297 352
#     4   9  19  36  61  80 120 152 188 244 292 343
#     4  10  20  36  61  84 120 151 195 251 288 343
#
# _framework density 26.444464
#
# number of rings (size 3 to 8) (size 9 to 14) (size 15 to 20)
#    2.000    0.667    1.667    0.000    2.333    1.333 
#    0.000    6.667    0.000    0.000    0.000    0.000 
#    0.000    0.000    0.000    0.000    0.000    0.000 
#
# Total GULP energy -66840.487971 kJ/mol
# GULP energy per Si atom -5570.040664 kJ/mol
# Density = 2.638427 g / cm^3
# Si number density = 26.444464 Si / 1000 Ang^3
#
#
#
# Elastic Constant Matrix: (Units=GPa)
#
#
# Indices 1 2 3 4 5 6 
#
# 1 190.8390 31.8116 44.0228 0.0000 -27.3045 0.0000
# 2 31.8116 50.6572 6.1480 0.0000 0.7561 0.0000
# 3 44.0228 6.1480 54.7148 0.0000 12.1167 0.0000
# 4 0.0000 0.0000 0.0000 23.4561 0.0000 0.3806
# 5 -27.3045 0.7561 12.1167 0.0000 57.8072 0.0000
# 6 0.0000 0.0000 0.0000 0.3806 0.0000 32.1201
#
#
#
# Elastic Compliance Matrix: (Units=1/GPa)
#
#
# Indices 1 2 3 4 5 6 
#
# 1 0.008584 -0.004546 -0.007662 0.000000 0.005720 0.000000
# 2 -0.004546 0.022424 0.001760 0.000000 -0.002809 0.000000
# 3 -0.007662 0.001760 0.026270 0.000000 -0.009148 0.000000
# 4 0.000000 0.000000 0.000000 0.042641 0.000000 -0.000505
# 5 0.005720 -0.002809 -0.009148 0.000000 0.021955 0.000000
# 6 0.000000 0.000000 0.000000 -0.000505 0.000000 0.031139
#
#
# Mechanical properties :
#
#
# Convention : Reuss Voigt Hill
#
# Bulk Modulus (GPa) = 27.48696 51.13065 39.30880
# Shear Modulus (GPa) = 26.87666 36.95857 31.91762
#
# Velocity S-wave (km/s) = 3.19147 3.74249 3.47791
# Velocity P-wave (km/s) = 4.89872 6.16864 5.56999
#
# Compressibility (1/GPa) = 0.03638089
#
# Stress axis : x y z
#
# Youngs Moduli (GPa) = 116.50021 44.59606 38.06669
#
# Poissons Ratio (x) = 0.20272 0.29168
# Poissons Ratio (y) = 0.52959 -0.06700
# Poissons Ratio (z) = 0.89265 -0.07849
#
# Static dielectric constant tensor:
#      x y z
#    x 2.198090 0.000000 -0.010210 
#    y 0.000000 2.148420 0.000000 
#    z -0.010210 0.000000 2.121300 
# 
# From -- ./inp_files/21089.got.cif
#   From: 2010.05.17/outbox.cif.g08.bks.cpg/sg9_11_cif.got.tgz:21089.got - 2010.06.03 20:04:27.
