data_PCOD9135143
_publ_section_title
;
Structure prediction by ZEFSAII (Michael W. Deem and Ramdas Pophale) SiO2 
 PCOD9135143
Probable space group: C C
;
_chemical_formula_sum "Si O2"
_cell_formula_units_Z 32
_cell_length_a 10.850494
_cell_length_b 8.918630
_cell_length_c 22.432084
_cell_angle_alpha 90.000000
_cell_angle_beta 143.852719
_cell_angle_gamma 90.000000
_cell_volume 1280.466955
_symmetry_space_group_name_H-M "C C"
_symmetry_group_IT_number 9
_symmetry_cell_setting 'monoclinic'
loop_
_space_group_symop_operation_xyz
x,y,z
x,-y,1/2+z
1/2+x,1/2+y,z
1/2+x,1/2-y,1/2+z
loop_
_atom_site_type_symbol
_atom_site_label
_atom_site_fract_x
_atom_site_fract_y
_atom_site_fract_z
Si Si1 0.315300 0.094253 0.623920
Si Si2 0.431578 0.912576 0.553650
Si Si3 0.100018 0.876282 0.763884
Si Si4 0.012930 0.494563 0.953268
Si Si5 0.445629 0.623345 0.622090
Si Si6 0.902333 0.311172 0.726017
Si Si7 0.962519 0.061728 0.826958
Si Si8 0.379393 0.326075 0.893775
O O1 0.458133 0.232416 0.699128
O O2 0.080741 0.132602 0.511516
O O3 0.423805 0.021468 0.607325
O O4 0.307728 0.970429 0.672862
O O5 0.530034 0.977075 0.531499
O O6 0.528294 0.753987 0.611585
O O7 0.186680 0.891309 0.441747
O O8 0.344493 0.864688 0.875619
O O9 0.079082 0.986941 0.699396
O O10 0.011923 0.967376 0.786630
O O11 0.925974 0.652965 0.894202
O O12 0.235696 0.451355 0.014791
O O13 0.380104 0.717794 0.655762
O O14 0.151345 0.330453 0.833288
O O15 0.834522 0.205634 0.753960
O O16 0.866354 0.945841 0.835704
#
# Coordination Sequence:
#
# PCOD9135143 Si02
#       8
#     4   4   4   4   4   4   4   4
#     4  10  22  37  65  96 132 166 224 281 325 403
#     4   9  20  40  65  90 128 175 210 274 335 386
#     4  10  20  39  60  96 129 165 222 277 315 406
#     4  11  21  41  69  93 133 179 218 275 342 383
#     4  10  20  37  65  90 126 166 222 264 322 403
#     4  10  21  41  63  91 130 170 217 278 329 396
#     4   9  20  39  65  90 127 174 219 265 336 396
#     4  11  20  40  68  92 127 183 214 270 348 387
#
# _framework density 24.990884999999999
#
# number of rings (size 3 to 8) (size 9 to 14) (size 15 to 20)
#    0.000    2.000    5.000    0.000    0.000    7.000 
#    2.250    1.250   13.750    0.000    0.000    0.000 
#    0.000    0.000    0.000    0.000    0.000    0.000 
#
# Total GULP energy -89566.171948 kJ/mol
# GULP energy per Si atom -5597.885747 kJ/mol
# Density = 2.493400 g / cm^3
# Si number density = 24.990885 Si / 1000 Ang^3
#
#
#
# Elastic Constant Matrix: (Units=GPa)
#
#
# Indices 1 2 3 4 5 6 
#
# 1 67.9483 26.1892 24.7802 0.0000 -16.8780 0.0000
# 2 26.1892 113.9739 65.7147 0.0000 -24.7500 0.0000
# 3 24.7802 65.7147 131.2105 0.0000 2.2076 0.0000
# 4 0.0000 0.0000 0.0000 64.5228 0.0000 -12.6349
# 5 -16.8780 -24.7500 2.2076 0.0000 40.3484 0.0000
# 6 0.0000 0.0000 0.0000 -12.6349 0.0000 42.7648
#
#
#
# Elastic Compliance Matrix: (Units=1/GPa)
#
#
# Indices 1 2 3 4 5 6 
#
# 1 0.017942 -0.000747 -0.003136 0.000000 0.007218 0.000000
# 2 -0.000747 0.015540 -0.007804 0.000000 0.009647 0.000000
# 3 -0.003136 -0.007804 0.012236 0.000000 -0.006768 0.000000
# 4 0.000000 0.000000 0.000000 0.016450 0.000000 0.004860
# 5 0.007218 0.009647 -0.006768 0.000000 0.034091 0.000000
# 6 0.000000 0.000000 0.000000 0.004860 0.000000 0.024820
#
#
# Mechanical properties :
#
#
# Convention : Reuss Voigt Hill
#
# Bulk Modulus (GPa) = 44.75553 60.72232 52.73893
# Shear Modulus (GPa) = 32.91612 42.62378 37.76995
#
# Velocity S-wave (km/s) = 3.63316 4.13434 3.89182
# Velocity P-wave (km/s) = 5.96217 6.86592 6.42994
#
# Compressibility (1/GPa) = 0.02234361
#
# Stress axis : x y z
#
# Youngs Moduli (GPa) = 55.73646 64.34888 81.72571
#
# Poissons Ratio (x) = 0.04809 0.25626
# Poissons Ratio (y) = 0.04165 0.63781
# Poissons Ratio (z) = 0.17477 0.50220
#
# Static dielectric constant tensor:
#      x y z
#    x 1.980880 0.000000 -0.012020 
#    y 0.000000 1.965920 0.000000 
#    z -0.012020 0.000000 1.971130 
# 
# From -- ./inp_files/25511.got.cif
#   From: 2010.05.17/outbox.cif.g08.bks.cpg/sg9_13_cif.got.tgz:25511.got - 2010.06.03 20:04:27.
