data_PCOD9135642
_publ_section_title
;
Structure prediction by ZEFSAII (Michael W. Deem and Ramdas Pophale) SiO2 
 PCOD9135642
Probable space group: C C
;
_chemical_formula_sum "Si O2"
_cell_formula_units_Z 32
_cell_length_a 17.363918
_cell_length_b 11.836393
_cell_length_c 15.331258
_cell_angle_alpha 90.000000
_cell_angle_beta 147.762044
_cell_angle_gamma 90.000000
_cell_volume 1680.845545
_symmetry_space_group_name_H-M "C C"
_symmetry_group_IT_number 9
_symmetry_cell_setting 'monoclinic'
loop_
_space_group_symop_operation_xyz
x,y,z
x,-y,1/2+z
1/2+x,1/2+y,z
1/2+x,1/2-y,1/2+z
loop_
_atom_site_type_symbol
_atom_site_label
_atom_site_fract_x
_atom_site_fract_y
_atom_site_fract_z
Si Si1 0.329850 0.792465 0.768400
Si Si2 0.115037 0.662904 0.449270
Si Si3 0.761766 0.304674 0.332868
Si Si4 0.794465 0.977639 0.552384
Si Si5 0.859441 0.104401 0.934712
Si Si6 0.144148 0.007597 0.145594
Si Si7 0.976043 0.805738 0.165787
Si Si8 0.364451 0.402201 0.813177
O O1 0.264281 0.704714 0.635191
O O2 0.487446 0.839271 0.897062
O O3 0.338347 0.722064 0.865590
O O4 0.216062 0.893417 0.659899
O O5 0.148638 0.546928 0.432326
O O6 0.056069 0.751268 0.323299
O O7 0.771764 0.432615 0.308561
O O8 0.850951 0.271083 0.504160
O O9 0.594848 0.306509 0.203005
O O10 0.807378 0.212741 0.303411
O O11 0.908622 0.074656 0.629759
O O12 0.789982 0.899426 0.463136
O O13 0.830124 0.918742 0.678562
O O14 0.801390 0.004114 0.814387
O O15 0.030352 0.071062 0.100645
O O16 0.036517 0.926199 0.987929
#
# Coordination Sequence:
#
# PCOD9135642 Si02
#       8
#     4   4   4   4   4   4   4   4
#     4  12  22  41  69  89 136 173 222 268 335 384
#     4  12  21  37  64 103 122 163 226 279 315 381
#     4  12  21  40  66  94 132 173 212 271 328 393
#     4  12  21  38  68  96 129 175 217 271 331 390
#     4  10  20  42  65  96 129 172 214 272 329 385
#     4  10  22  42  64  93 128 180 215 267 331 390
#     4  12  20  35  67  97 124 165 225 268 321 382
#     4  10  21  41  65  94 134 167 211 278 336 379
#
# _framework density 19.038038
#
# number of rings (size 3 to 8) (size 9 to 14) (size 15 to 20)
#    0.750    0.000    8.750    0.750    0.000    1.000 
#    2.250    1.250    0.000    0.000    0.000    0.000 
#    0.000    0.000    0.000    0.000    0.000    0.000 
#
# Total GULP energy -89081.106114 kJ/mol
# GULP energy per Si atom -5567.569132 kJ/mol
# Density = 1.899471 g / cm^3
# Si number density = 19.038038 Si / 1000 Ang^3
#
#
#
# Elastic Constant Matrix: (Units=GPa)
#
#
# Indices 1 2 3 4 5 6 
#
# 1 111.7889 31.8853 34.5154 0.0000 -10.8403 0.0000
# 2 31.8853 50.3872 12.1801 0.0000 -2.8715 0.0000
# 3 34.5154 12.1801 53.7636 0.0000 -7.7430 0.0000
# 4 0.0000 0.0000 0.0000 15.0739 0.0000 -9.9611
# 5 -10.8403 -2.8715 -7.7430 0.0000 33.2221 0.0000
# 6 0.0000 0.0000 0.0000 -9.9611 0.0000 33.0996
#
#
#
# Elastic Compliance Matrix: (Units=1/GPa)
#
#
# Indices 1 2 3 4 5 6 
#
# 1 0.013056 -0.006546 -0.006588 0.000000 0.002159 0.000000
# 2 -0.006546 0.024296 -0.001352 0.000000 -0.000351 0.000000
# 3 -0.006588 -0.001352 0.023601 0.000000 0.003234 0.000000
# 4 0.000000 0.000000 0.000000 0.082808 0.000000 0.024921
# 5 0.002159 -0.000351 0.003234 0.000000 0.031528 0.000000
# 6 0.000000 0.000000 0.000000 0.024921 0.000000 0.037712
#
#
# Mechanical properties :
#
#
# Convention : Reuss Voigt Hill
#
# Bulk Modulus (GPa) = 31.26897 41.45571 36.36234
# Shear Modulus (GPa) = 19.79151 25.43638 22.61395
#
# Velocity S-wave (km/s) = 3.22775 3.65921 3.45023
# Velocity P-wave (km/s) = 5.50920 6.29885 5.91721
#
# Compressibility (1/GPa) = 0.03198059
#
# Stress axis : x y z
#
# Youngs Moduli (GPa) = 76.59308 41.15947 42.37055
#
# Poissons Ratio (x) = 0.26945 0.27913
# Poissons Ratio (y) = 0.50141 0.05729
# Poissons Ratio (z) = 0.50458 0.05565
#
# Static dielectric constant tensor:
#      x y z
#    x 1.718330 0.000000 0.004000 
#    y 0.000000 1.674510 0.000000 
#    z 0.004000 0.000000 1.666130 
# 
# From -- ./inp_files/26854.got.cif
#   From: 2010.05.17/outbox.cif.g08.bks.cpg/sg9_14_cif.got.tgz:26854.got - 2010.06.03 20:04:27.
