data_PCOD9135180
_publ_section_title
;
Structure prediction by ZEFSAII (Michael W. Deem and Ramdas Pophale) SiO2 
 PCOD9135180
Probable space group: C C
;
_chemical_formula_sum "Si O2"
_cell_formula_units_Z 28
_cell_length_a 5.501372
_cell_length_b 30.462466
_cell_length_c 7.789187
_cell_angle_alpha 90.000000
_cell_angle_beta 61.190881
_cell_angle_gamma 90.000000
_cell_volume 1143.790055
_symmetry_space_group_name_H-M "C C"
_symmetry_group_IT_number 9
_symmetry_cell_setting 'monoclinic'
loop_
_space_group_symop_operation_xyz
x,y,z
x,-y,1/2+z
1/2+x,1/2+y,z
1/2+x,1/2-y,1/2+z
loop_
_atom_site_type_symbol
_atom_site_label
_atom_site_fract_x
_atom_site_fract_y
_atom_site_fract_z
Si Si1 0.383210 0.163046 0.998010
Si Si2 0.359231 0.294723 0.535091
Si Si3 0.190228 0.488168 0.690977
Si Si4 0.014137 0.152765 0.471930
Si Si5 0.434588 0.445110 0.907015
Si Si6 0.944324 0.561312 0.974288
Si Si7 0.998655 0.307265 0.994715
O O1 0.456278 0.112728 0.929120
O O2 0.658315 0.190649 0.949477
O O3 0.167274 0.184795 0.938954
O O4 0.199759 0.161475 0.237142
O O5 0.188472 0.310802 0.758937
O O6 0.395091 0.242642 0.537516
O O7 0.185250 0.459677 0.865886
O O8 0.450540 0.518870 0.550272
O O9 0.976796 0.528386 0.803574
O O10 0.168981 0.454866 0.538955
O O11 0.927172 0.102310 0.490801
O O12 0.727600 0.180028 0.558684
O O13 0.228037 0.163218 0.551339
O O14 0.675209 0.445459 0.683857
#
# Coordination Sequence:
#
# PCOD9135180 Si02
#       7
#     4   4   4   4   4   4   4
#     4   9  20  35  62  82 119 157 201 241 312 368
#     4  10  20  38  58  87 113 157 194 249 308 373
#     4  10  22  38  60  92 118 166 214 252 316 370
#     4   9  20  35  62  82 119 157 201 241 312 368
#     4  10  21  38  61  87 125 162 208 258 311 369
#     4  10  21  38  61  87 125 162 208 258 311 369
#     4  10  20  38  58  87 113 157 194 249 308 373
#
# _framework density 24.480018000000001
#
# number of rings (size 3 to 8) (size 9 to 14) (size 15 to 20)
#    0.000    2.286    0.000    1.714   10.000    0.000 
#    5.143    0.000    0.000    0.000    0.000    0.000 
#    0.000    0.000    0.000    0.000    0.000    0.000 
#
# Total GULP energy -78144.688282 kJ/mol
# GULP energy per Si atom -5581.763449 kJ/mol
# Density = 2.442430 g / cm^3
# Si number density = 24.480018 Si / 1000 Ang^3
#
#
#
# Elastic Constant Matrix: (Units=GPa)
#
#
# Indices 1 2 3 4 5 6 
#
# 1 132.7158 75.7466 21.4810 0.0000 -5.5455 0.0000
# 2 75.7466 160.1403 4.4468 0.0000 -2.9099 0.0000
# 3 21.4810 4.4468 73.4347 0.0000 16.8850 0.0000
# 4 0.0000 0.0000 0.0000 73.8935 0.0000 18.7383
# 5 -5.5455 -2.9099 16.8850 0.0000 34.2132 0.0000
# 6 0.0000 0.0000 0.0000 18.7383 0.0000 44.9169
#
#
#
# Elastic Compliance Matrix: (Units=1/GPa)
#
#
# Indices 1 2 3 4 5 6 
#
# 1 0.011200 -0.005136 -0.003702 0.000000 0.003206 0.000000
# 2 -0.005136 0.008631 0.001131 0.000000 -0.000657 0.000000
# 3 -0.003702 0.001131 0.016636 0.000000 -0.008714 0.000000
# 4 0.000000 0.000000 0.000000 0.015134 0.000000 -0.006314
# 5 0.003206 -0.000657 -0.008714 0.000000 0.033993 0.000000
# 6 0.000000 0.000000 0.000000 -0.006314 0.000000 0.024897
#
#
# Mechanical properties :
#
#
# Convention : Reuss Voigt Hill
#
# Bulk Modulus (GPa) = 47.50458 63.29328 55.39893
# Shear Modulus (GPa) = 37.61600 48.24582 42.93091
#
# Velocity S-wave (km/s) = 3.92420 4.44421 4.19228
# Velocity P-wave (km/s) = 6.32298 7.22813 6.79065
#
# Compressibility (1/GPa) = 0.02105060
#
# Stress axis : x y z
#
# Youngs Moduli (GPa) = 89.28882 115.86534 60.11195
#
# Poissons Ratio (x) = 0.59513 0.22254
# Poissons Ratio (y) = 0.45862 -0.06798
# Poissons Ratio (z) = 0.33056 -0.13102
#
# Static dielectric constant tensor:
#      x y z
#    x 2.081230 0.000000 0.015590 
#    y 0.000000 1.853060 0.000000 
#    z 0.015590 0.000000 2.058510 
# 
# From -- ./inp_files/4175.got.cif
#   From: 2010.05.17/outbox.cif.g08.bks.cpg/sg9_3_cif.got.tgz:4175.got - 2010.06.03 20:04:27.
