data_PCOD9135301
_publ_section_title
;
Structure prediction by ZEFSAII (Michael W. Deem and Ramdas Pophale) SiO2 
 PCOD9135301
Probable space group: C C
;
_chemical_formula_sum "Si O2"
_cell_formula_units_Z 20
_cell_length_a 8.932111
_cell_length_b 11.080576
_cell_length_c 8.524954
_cell_angle_alpha 90.000000
_cell_angle_beta 111.826714
_cell_angle_gamma 90.000000
_cell_volume 783.254190
_symmetry_space_group_name_H-M "C C"
_symmetry_group_IT_number 9
_symmetry_cell_setting 'monoclinic'
loop_
_space_group_symop_operation_xyz
x,y,z
x,-y,1/2+z
1/2+x,1/2+y,z
1/2+x,1/2-y,1/2+z
loop_
_atom_site_type_symbol
_atom_site_label
_atom_site_fract_x
_atom_site_fract_y
_atom_site_fract_z
Si Si1 0.947580 0.359271 0.417940
Si Si2 0.967759 0.115573 0.554379
Si Si3 0.162165 0.035547 0.344712
Si Si4 0.018714 0.741725 0.622757
Si Si5 0.762690 0.102737 0.869511
O O1 0.835188 0.473428 0.403863
O O2 0.923207 0.254996 0.535619
O O3 0.914968 0.293080 0.237704
O O4 0.134638 0.387257 0.463730
O O5 0.030527 0.065641 0.743605
O O6 0.117605 0.091793 0.493923
O O7 0.835689 0.028833 0.423935
O O8 0.125467 0.140854 0.206789
O O9 0.894172 0.790953 0.447663
O O10 0.150730 0.634011 0.674780
#
# Coordination Sequence:
#
# PCOD9135301 Si02
#       5
#     4   4   4   4   4
#     4   9  19  36  60  82 116 161 186 239 294 356
#     4  10  21  41  57  88 121 153 194 253 285 356
#     4  10  20  39  61  83 124 151 196 247 295 341
#     4   8  18  35  60  80 116 154 190 238 289 349
#     4   9  18  37  60  81 117 157 192 235 301 342
#
# _framework density 25.534493999999999
#
# number of rings (size 3 to 8) (size 9 to 14) (size 15 to 20)
#    1.200    1.600    0.000    1.200    0.000    0.000 
#   10.800   12.000    0.000    0.000    0.000    0.000 
#    0.000    0.000    0.000    0.000    0.000    0.000 
#
# Total GULP energy -55803.385394 kJ/mol
# GULP energy per Si atom -5580.338539 kJ/mol
# Density = 2.547638 g / cm^3
# Si number density = 25.534494 Si / 1000 Ang^3
#
#
#
# Elastic Constant Matrix: (Units=GPa)
#
#
# Indices 1 2 3 4 5 6 
#
# 1 86.8134 63.3950 37.5679 0.0000 26.3968 0.0000
# 2 63.3950 83.8459 19.1500 0.0000 28.7441 0.0000
# 3 37.5679 19.1500 63.1473 0.0000 14.8713 0.0000
# 4 0.0000 0.0000 0.0000 46.3911 0.0000 16.7551
# 5 26.3968 28.7441 14.8713 0.0000 40.2925 0.0000
# 6 0.0000 0.0000 0.0000 16.7551 0.0000 38.9473
#
#
#
# Elastic Compliance Matrix: (Units=1/GPa)
#
#
# Indices 1 2 3 4 5 6 
#
# 1 0.033620 -0.021904 -0.012980 0.000000 -0.001609 0.000000
# 2 -0.021904 0.030380 0.006070 0.000000 -0.009563 0.000000
# 3 -0.012980 0.006070 0.022708 0.000000 -0.004208 0.000000
# 4 0.000000 0.000000 0.000000 0.025521 0.000000 -0.010979
# 5 -0.001609 -0.009563 -0.004208 0.000000 0.034248 0.000000
# 6 0.000000 0.000000 0.000000 -0.010979 0.000000 0.030399
#
#
# Mechanical properties :
#
#
# Convention : Reuss Voigt Hill
#
# Bulk Modulus (GPa) = 34.38633 52.67026 43.52830
# Shear Modulus (GPa) = 20.47520 32.70576 26.59048
#
# Velocity S-wave (km/s) = 2.83479 3.58277 3.23050
# Velocity P-wave (km/s) = 4.92043 6.14711 5.56765
#
# Compressibility (1/GPa) = 0.02908132
#
# Stress axis : x y z
#
# Youngs Moduli (GPa) = 29.74385 32.91652 44.03671
#
# Poissons Ratio (x) = 0.72100 0.57160
# Poissons Ratio (y) = 0.65150 -0.26731
# Poissons Ratio (z) = 0.38608 -0.19981
#
# Static dielectric constant tensor:
#      x y z
#    x 2.078060 0.000000 -0.006740 
#    y 0.000000 1.993510 0.000000 
#    z -0.006740 0.000000 2.064220 
# 
# From -- ./inp_files/10578.got.cif
#   From: 2010.05.17/outbox.cif.g08.bks.cpg/sg9_6_cif.got.tgz:10578.got - 2010.06.03 20:04:27.
