data_PCOD9135328
_publ_section_title
;
Structure prediction by ZEFSAII (Michael W. Deem and Ramdas Pophale) SiO2 
 PCOD9135328
Probable space group: C C
;
_chemical_formula_sum "Si O2"
_cell_formula_units_Z 32
_cell_length_a 8.423163
_cell_length_b 12.642001
_cell_length_c 13.944893
_cell_angle_alpha 90.000000
_cell_angle_beta 81.133781
_cell_angle_gamma 90.000000
_cell_volume 1467.187215
_symmetry_space_group_name_H-M "C C"
_symmetry_group_IT_number 9
_symmetry_cell_setting 'monoclinic'
loop_
_space_group_symop_operation_xyz
x,y,z
x,-y,1/2+z
1/2+x,1/2+y,z
1/2+x,1/2-y,1/2+z
loop_
_atom_site_type_symbol
_atom_site_label
_atom_site_fract_x
_atom_site_fract_y
_atom_site_fract_z
Si Si1 0.636950 0.695646 0.049490
Si Si2 0.406510 0.842638 0.653740
Si Si3 0.101958 0.979321 0.386767
Si Si4 0.503950 0.379934 0.199742
Si Si5 0.456660 0.024327 0.783644
Si Si6 0.556978 0.959769 0.484183
Si Si7 0.348727 0.588332 0.522270
Si Si8 0.875735 0.646740 0.612532
O O1 0.721783 0.642158 0.135121
O O2 0.459072 0.744005 0.076203
O O3 0.631396 0.612355 0.963618
O O4 0.750349 0.801017 0.023542
O O5 0.422142 0.734546 0.708322
O O6 0.497480 0.927691 0.710715
O O7 0.499910 0.854265 0.543437
O O8 0.011764 0.933942 0.301692
O O9 0.278293 0.007194 0.334132
O O10 0.005459 0.076019 0.442036
O O11 0.685483 0.360767 0.143770
O O12 0.403885 0.435707 0.125334
O O13 0.447644 0.121507 0.711492
O O14 0.552056 0.045574 0.870610
O O15 0.730316 0.996782 0.500041
O O16 0.437012 0.053192 0.535403
#
# Coordination Sequence:
#
# PCOD9135328 Si02
#       8
#     4   4   4   4   4   4   4   4
#     4  10  22  43  60  93 127 168 210 266 324 382
#     4  10  22  39  62  90 125 158 207 269 309 385
#     4  11  23  41  66  91 127 168 213 263 325 394
#     4  10  23  42  60  96 123 163 217 258 320 390
#     4  10  21  40  62  92 121 168 206 254 328 382
#     4  10  20  39  64  87 124 165 204 254 322 376
#     4  10  24  41  63  91 130 165 210 269 314 391
#     4   9  21  39  63  86 127 165 203 265 310 382
#
# _framework density 21.810442999999999
#
# number of rings (size 3 to 8) (size 9 to 14) (size 15 to 20)
#    0.000    2.000    1.250    0.750    8.750    4.000 
#    4.500    1.250    0.000    0.000    0.000    0.000 
#    0.000    0.000    0.000    0.000    0.000    0.000 
#
# Total GULP energy -89270.021481 kJ/mol
# GULP energy per Si atom -5579.376343 kJ/mol
# Density = 2.176080 g / cm^3
# Si number density = 21.810443 Si / 1000 Ang^3
#
#
#
# Elastic Constant Matrix: (Units=GPa)
#
#
# Indices 1 2 3 4 5 6 
#
# 1 36.1867 6.2531 17.2263 0.0000 16.2636 0.0000
# 2 6.2531 18.5730 14.5112 0.0000 8.5298 0.0000
# 3 17.2263 14.5112 112.3937 0.0000 35.7513 0.0000
# 4 0.0000 0.0000 0.0000 21.5206 0.0000 6.3041
# 5 16.2636 8.5298 35.7513 0.0000 40.6316 0.0000
# 6 0.0000 0.0000 0.0000 6.3041 0.0000 25.0344
#
#
#
# Elastic Compliance Matrix: (Units=1/GPa)
#
#
# Indices 1 2 3 4 5 6 
#
# 1 0.034296 -0.005484 -0.000761 0.000000 -0.011907 0.000000
# 2 -0.005484 0.062697 -0.005230 0.000000 -0.006366 0.000000
# 3 -0.000761 -0.005230 0.012835 0.000000 -0.009891 0.000000
# 4 0.000000 0.000000 0.000000 0.050168 0.000000 -0.012633
# 5 -0.011907 -0.006366 -0.009891 0.000000 0.039417 0.000000
# 6 0.000000 0.000000 0.000000 -0.012633 0.000000 0.043126
#
#
# Mechanical properties :
#
#
# Convention : Reuss Voigt Hill
#
# Bulk Modulus (GPa) = 11.51016 27.01496 19.26256
# Shear Modulus (GPa) = 16.98093 26.04816 21.51454
#
# Velocity S-wave (km/s) = 2.79331 3.45961 3.14416
# Velocity P-wave (km/s) = 3.96135 5.32651 4.69382
#
# Compressibility (1/GPa) = 0.08687976
#
# Stress axis : x y z
#
# Youngs Moduli (GPa) = 29.15823 15.94964 77.90917
#
# Poissons Ratio (x) = 0.08746 0.05929
# Poissons Ratio (y) = 0.15990 0.40743
# Poissons Ratio (z) = 0.02219 0.08341
#
# Static dielectric constant tensor:
#      x y z
#    x 1.852070 0.000000 -0.014800 
#    y 0.000000 1.801350 0.000000 
#    z -0.014800 0.000000 1.797220 
# 
# From -- ./inp_files/14625.got.cif
#   From: 2010.05.17/outbox.cif.g08.bks.cpg/sg9_8_cif.got.tgz:14625.got - 2010.06.03 20:04:27.
