data_PCOD9135478
_publ_section_title
;
Structure prediction by ZEFSAII (Michael W. Deem and Ramdas Pophale) SiO2 
 PCOD9135478
Probable space group: C C
;
_chemical_formula_sum "Si O2"
_cell_formula_units_Z 32
_cell_length_a 16.956727
_cell_length_b 13.727407
_cell_length_c 12.704774
_cell_angle_alpha 90.000000
_cell_angle_beta 146.744169
_cell_angle_gamma 90.000000
_cell_volume 1621.727090
_symmetry_space_group_name_H-M "C C"
_symmetry_group_IT_number 9
_symmetry_cell_setting 'monoclinic'
loop_
_space_group_symop_operation_xyz
x,y,z
x,-y,1/2+z
1/2+x,1/2+y,z
1/2+x,1/2-y,1/2+z
loop_
_atom_site_type_symbol
_atom_site_label
_atom_site_fract_x
_atom_site_fract_y
_atom_site_fract_z
Si Si1 0.355060 0.773481 0.870540
Si Si2 0.727167 0.898809 0.821153
Si Si3 0.987284 0.338554 0.411457
Si Si4 0.665383 0.315335 0.019655
Si Si5 0.597822 0.360138 0.712067
Si Si6 0.046984 0.551412 0.516141
Si Si7 0.788875 0.119277 0.632251
Si Si8 0.482998 0.540395 0.461078
O O1 0.203655 0.799452 0.753994
O O2 0.342440 0.719178 0.744472
O O3 0.446279 0.697458 0.042204
O O4 0.440429 0.873124 0.949150
O O5 0.598551 0.829934 0.633957
O O6 0.656737 0.006299 0.725180
O O7 0.768311 0.877498 0.985480
O O8 0.865289 0.902242 0.899344
O O9 0.075168 0.284978 0.418101
O O10 0.972470 0.455039 0.385444
O O11 0.827720 0.298013 0.238366
O O12 0.663170 0.360268 0.900999
O O13 0.582884 0.387060 0.007345
O O14 0.570935 0.467006 0.634661
O O15 0.140951 0.597834 0.528711
O O16 0.895852 0.031662 0.785139
#
# Coordination Sequence:
#
# PCOD9135478 Si02
#       8
#     4   4   4   4   4   4   4   4
#     4  11  21  42  62 101 130 158 225 267 315 408
#     4   9  21  42  64  89 126 173 208 263 335 377
#     4  10  24  42  61  94 127 168 226 269 314 401
#     4  12  23  44  64  92 128 171 216 274 328 384
#     4  11  24  38  67  95 123 174 207 269 332 382
#     4   9  21  42  61  93 131 164 216 273 313 399
#     4  10  20  40  67  92 129 172 207 268 339 383
#     4  10  22  42  64  94 128 156 223 267 318 406
#
# _framework density 19.732049
#
# number of rings (size 3 to 8) (size 9 to 14) (size 15 to 20)
#    0.750    1.000    1.250    3.000    0.000    2.000 
#    4.500    1.250    0.000    0.000    0.000    0.000 
#    0.000    0.000    0.000    0.000    0.000    0.000 
#
# Total GULP energy -89252.712158 kJ/mol
# GULP energy per Si atom -5578.294510 kJ/mol
# Density = 1.968714 g / cm^3
# Si number density = 19.732049 Si / 1000 Ang^3
#
#
#
# Elastic Constant Matrix: (Units=GPa)
#
#
# Indices 1 2 3 4 5 6 
#
# 1 62.8997 14.2008 63.8788 0.0000 -9.4903 0.0000
# 2 14.2008 62.0837 18.8284 0.0000 -3.8025 0.0000
# 3 63.8788 18.8284 105.3130 0.0000 -11.7591 0.0000
# 4 0.0000 0.0000 0.0000 21.4280 0.0000 5.1848
# 5 -9.4903 -3.8025 -11.7591 0.0000 41.4077 0.0000
# 6 0.0000 0.0000 0.0000 5.1848 0.0000 13.4077
#
#
#
# Elastic Compliance Matrix: (Units=1/GPa)
#
#
# Indices 1 2 3 4 5 6 
#
# 1 0.041855 -0.001913 -0.024780 0.000000 0.002380 0.000000
# 2 -0.001913 0.017139 -0.001835 0.000000 0.000614 0.000000
# 3 -0.024780 -0.001835 0.024994 0.000000 0.001250 0.000000
# 4 0.000000 0.000000 0.000000 0.051485 0.000000 -0.019910
# 5 0.002380 0.000614 0.001250 0.000000 0.025107 0.000000
# 6 0.000000 0.000000 0.000000 -0.019910 0.000000 0.082283
#
#
# Mechanical properties :
#
#
# Convention : Reuss Voigt Hill
#
# Bulk Modulus (GPa) = 37.13117 47.12360 42.12738
# Shear Modulus (GPa) = 16.18670 24.14125 20.16397
#
# Velocity S-wave (km/s) = 2.86724 3.50159 3.20017
# Velocity P-wave (km/s) = 5.46077 6.34679 5.92038
#
# Compressibility (1/GPa) = 0.02693155
#
# Stress axis : x y z
#
# Youngs Moduli (GPa) = 23.89219 58.34618 40.01026
#
# Poissons Ratio (x) = 0.11161 0.99144
# Poissons Ratio (y) = 0.04570 0.07343
# Poissons Ratio (z) = 0.59204 0.10709
#
# Static dielectric constant tensor:
#      x y z
#    x 1.646700 0.000000 0.009660 
#    y 0.000000 1.718780 0.000000 
#    z 0.009660 0.000000 1.709380 
# 
# From -- ./inp_files/18386.got.cif
#   From: 2010.05.17/outbox.cif.g08.bks.cpg/sg9_10_cif.got.tgz:18386.got - 2010.06.03 20:04:27.
