data_PCOD9135607
_publ_section_title
;
Structure prediction by ZEFSAII (Michael W. Deem and Ramdas Pophale) SiO2 
 PCOD9135607
Probable space group: C C
;
_chemical_formula_sum "Si O2"
_cell_formula_units_Z 32
_cell_length_a 5.588448
_cell_length_b 13.597486
_cell_length_c 18.106203
_cell_angle_alpha 90.000000
_cell_angle_beta 113.096155
_cell_angle_gamma 90.000000
_cell_volume 1265.590497
_symmetry_space_group_name_H-M "C C"
_symmetry_group_IT_number 9
_symmetry_cell_setting 'monoclinic'
loop_
_space_group_symop_operation_xyz
x,y,z
x,-y,1/2+z
1/2+x,1/2+y,z
1/2+x,1/2-y,1/2+z
loop_
_atom_site_type_symbol
_atom_site_label
_atom_site_fract_x
_atom_site_fract_y
_atom_site_fract_z
Si Si1 0.615960 0.382693 0.459550
Si Si2 0.676264 0.052552 0.793979
Si Si3 0.926379 0.497365 0.897763
Si Si4 0.637349 0.193503 0.384618
Si Si5 0.945889 0.143770 0.306438
Si Si6 0.086133 0.011916 0.594834
Si Si7 0.118830 0.625140 0.624647
Si Si8 0.201878 0.179001 0.201372
O O1 0.416591 0.409639 0.370475
O O2 0.881268 0.434491 0.462330
O O3 0.619441 0.266107 0.450948
O O4 0.522437 0.435402 0.521486
O O5 0.672278 0.106450 0.717382
O O6 0.441240 0.058407 0.823569
O O7 0.728858 0.939985 0.779308
O O8 0.695971 0.418497 0.860823
O O9 0.157509 0.417164 0.919588
O O10 0.422098 0.202024 0.291706
O O11 0.893040 0.216092 0.367375
O O12 0.954567 0.187648 0.226518
O O13 0.196569 0.933254 0.669697
O O14 0.317981 0.082482 0.587938
O O15 0.839614 0.068889 0.602255
O O16 0.172536 0.742952 0.631711
#
# Coordination Sequence:
#
# PCOD9135607 Si02
#       8
#     4   4   4   4   4   4   4   4
#     4  11  25  43  68  99 143 189 239 300 372 429
#     4  10  20  41  72  95 136 185 243 297 348 438
#     4   9  21  37  64 100 136 175 236 300 358 414
#     4  10  21  39  69 104 132 183 244 298 354 438
#     4   9  18  37  63 102 132 169 236 305 343 414
#     4  12  30  50  68 112 155 191 243 314 374 435
#     4  12  27  47  78 102 147 200 244 294 378 440
#     4  11  24  42  74 104 143 192 245 300 367 444
#
# _framework density 25.28464
#
# number of rings (size 3 to 8) (size 9 to 14) (size 15 to 20)
#    0.000    1.500    2.500    2.250    7.000    1.000 
#    4.500    0.000    0.000    0.000    0.000    0.000 
#    0.000    0.000    0.000    0.000    0.000    0.000 
#
# Total GULP energy -89091.161237 kJ/mol
# GULP energy per Si atom -5568.197577 kJ/mol
# Density = 2.522709 g / cm^3
# Si number density = 25.284640 Si / 1000 Ang^3
#
#
#
# Elastic Constant Matrix: (Units=GPa)
#
#
# Indices 1 2 3 4 5 6 
#
# 1 80.1316 17.5494 -0.5301 0.0000 -23.4863 0.0000
# 2 17.5494 111.1853 -1.9079 0.0000 -11.4168 0.0000
# 3 -0.5301 -1.9079 68.7856 0.0000 -11.7034 0.0000
# 4 0.0000 0.0000 0.0000 33.4109 0.0000 -7.2439
# 5 -23.4863 -11.4168 -11.7034 0.0000 29.3812 0.0000
# 6 0.0000 0.0000 0.0000 -7.2439 0.0000 13.7458
#
#
#
# Elastic Compliance Matrix: (Units=1/GPa)
#
#
# Indices 1 2 3 4 5 6 
#
# 1 0.016860 -0.001180 0.002480 0.000000 0.014006 0.000000
# 2 -0.001180 0.009508 0.000775 0.000000 0.003060 0.000000
# 3 0.002480 0.000775 0.016055 0.000000 0.008679 0.000000
# 4 0.000000 0.000000 0.000000 0.033791 0.000000 0.017808
# 5 0.014006 0.003060 0.008679 0.000000 0.049878 0.000000
# 6 0.000000 0.000000 0.000000 0.017808 0.000000 0.082134
#
#
# Mechanical properties :
#
#
# Convention : Reuss Voigt Hill
#
# Bulk Modulus (GPa) = 21.47168 32.25837 26.86502
# Shear Modulus (GPa) = 22.76873 31.64031 27.20452
#
# Velocity S-wave (km/s) = 3.00408 3.54130 3.28370
# Velocity P-wave (km/s) = 4.53245 5.43202 5.00250
#
# Compressibility (1/GPa) = 0.04657298
#
# Stress axis : x y z
#
# Youngs Moduli (GPa) = 59.31338 105.17700 62.28491
#
# Poissons Ratio (x) = 0.12414 -0.15448
# Poissons Ratio (y) = 0.07001 -0.04828
# Poissons Ratio (z) = -0.14711 -0.08154
#
# Static dielectric constant tensor:
#      x y z
#    x 2.369420 0.000000 -0.044740 
#    y 0.000000 2.172750 0.000000 
#    z -0.044740 0.000000 2.033280 
# 
# From -- ./inp_files/28706.got.cif
#   From: 2010.05.17/outbox.cif.g08.bks.cpg/sg9_15_cif.got.tgz:28706.got - 2010.06.03 20:04:27.
