data_PCOD9135421
_publ_section_title
;
Structure prediction by ZEFSAII (Michael W. Deem and Ramdas Pophale) SiO2 
 PCOD9135421
Probable space group: C C
;
_chemical_formula_sum "Si O2"
_cell_formula_units_Z 32
_cell_length_a 8.951705
_cell_length_b 21.420116
_cell_length_c 7.999278
_cell_angle_alpha 90.000000
_cell_angle_beta 107.386654
_cell_angle_gamma 90.000000
_cell_volume 1463.753095
_symmetry_space_group_name_H-M "C C"
_symmetry_group_IT_number 9
_symmetry_cell_setting 'monoclinic'
loop_
_space_group_symop_operation_xyz
x,y,z
x,-y,1/2+z
1/2+x,1/2+y,z
1/2+x,1/2-y,1/2+z
loop_
_atom_site_type_symbol
_atom_site_label
_atom_site_fract_x
_atom_site_fract_y
_atom_site_fract_z
Si Si1 0.162550 0.506404 0.606190
Si Si2 0.235620 0.702703 0.972707
Si Si3 0.582738 0.899448 0.816350
Si Si4 0.113852 0.133755 0.881066
Si Si5 0.859972 0.933913 0.446173
Si Si6 0.546442 0.284234 0.688776
Si Si7 0.410062 0.327806 0.988241
Si Si8 0.912471 0.313435 0.553876
O O1 0.088174 0.443283 0.652913
O O2 0.059063 0.549506 0.453108
O O3 0.326517 0.484136 0.576415
O O4 0.221500 0.549313 0.774056
O O5 0.316997 0.635879 0.985959
O O6 0.170419 0.732049 0.782396
O O7 0.374978 0.744390 0.093523
O O8 0.087672 0.693896 0.040209
O O9 0.452290 0.846419 0.744546
O O10 0.755582 0.869908 0.907082
O O11 0.031125 0.071235 0.923147
O O12 0.013621 0.152046 0.683737
O O13 0.101113 0.180422 0.039442
O O14 0.298133 0.140576 0.913305
O O15 0.512048 0.323872 0.849296
O O16 0.355526 0.257383 0.011665
#
# Coordination Sequence:
#
# PCOD9135421 Si02
#       8
#     4   4   4   4   4   4   4   4
#     4  10  21  37  71  88 118 175 230 274 311 400
#     4  10  21  40  62  90 135 168 217 264 332 400
#     4  11  20  42  64  97 124 175 229 267 332 397
#     4  11  24  39  61  97 131 167 219 268 345 395
#     4  10  20  40  62  90 117 167 220 271 314 397
#     4  10  23  39  58  92 132 175 211 269 325 408
#     4  11  22  41  67  92 133 183 216 274 336 409
#     4  11  23  38  63 100 140 166 212 289 341 410
#
# _framework density 21.861609000000001
#
# number of rings (size 3 to 8) (size 9 to 14) (size 15 to 20)
#    0.000    1.500    3.750    1.500    8.750    1.000 
#    0.000    1.250    0.000    0.000    0.000    0.000 
#    0.000    0.000    0.000    0.000    0.000    0.000 
#
# Total GULP energy -89104.369440 kJ/mol
# GULP energy per Si atom -5569.023090 kJ/mol
# Density = 2.181185 g / cm^3
# Si number density = 21.861609 Si / 1000 Ang^3
#
#
#
# Elastic Constant Matrix: (Units=GPa)
#
#
# Indices 1 2 3 4 5 6 
#
# 1 28.5470 -4.1495 20.5848 0.0000 3.5979 0.0000
# 2 -4.1495 60.4394 28.4907 0.0000 -0.8534 0.0000
# 3 20.5848 28.4907 113.0175 0.0000 8.7304 0.0000
# 4 0.0000 0.0000 0.0000 36.5488 0.0000 -3.9367
# 5 3.5979 -0.8534 8.7304 0.0000 35.6092 0.0000
# 6 0.0000 0.0000 0.0000 -3.9367 0.0000 8.5294
#
#
#
# Elastic Compliance Matrix: (Units=1/GPa)
#
#
# Indices 1 2 3 4 5 6 
#
# 1 0.043294 0.007487 -0.009631 0.000000 -0.001834 0.000000
# 2 0.007487 0.020166 -0.006550 0.000000 0.001333 0.000000
# 3 -0.009631 -0.006550 0.012426 0.000000 -0.002230 0.000000
# 4 0.000000 0.000000 0.000000 0.028792 0.000000 0.013289
# 5 -0.001834 0.001333 -0.002230 0.000000 0.028847 0.000000
# 6 0.000000 0.000000 0.000000 0.013289 0.000000 0.123376
#
#
# Mechanical properties :
#
#
# Convention : Reuss Voigt Hill
#
# Bulk Modulus (GPa) = 17.09503 32.42843 24.76173
# Shear Modulus (GPa) = 17.01901 26.60934 21.81417
#
# Velocity S-wave (km/s) = 2.79317 3.49258 3.16227
# Velocity P-wave (km/s) = 4.27072 5.57942 4.96835
#
# Compressibility (1/GPa) = 0.05849653
#
# Stress axis : x y z
#
# Youngs Moduli (GPa) = 23.09778 49.58831 80.47682
#
# Poissons Ratio (x) = -0.37125 0.77509
# Poissons Ratio (y) = -0.17292 0.52714
# Poissons Ratio (z) = 0.22246 0.32482
#
# Static dielectric constant tensor:
#      x y z
#    x 1.921940 0.000000 -0.047810 
#    y 0.000000 1.875180 0.000000 
#    z -0.047810 0.000000 1.892600 
# 
# From -- ./inp_files/6180.got.cif
#   From: 2010.05.17/outbox.cif.g08.bks.cpg/sg9_4_cif.got.tgz:6180.got - 2010.06.03 20:04:27.
