data_PCOD9135909
_publ_section_title
;
Structure prediction by ZEFSAII (Michael W. Deem and Ramdas Pophale) SiO2 
 PCOD9135909
Probable space group: C C
;
_chemical_formula_sum "Si O2"
_cell_formula_units_Z 32
_cell_length_a 9.989021
_cell_length_b 21.904690
_cell_length_c 13.200847
_cell_angle_alpha 90.000000
_cell_angle_beta 148.126509
_cell_angle_gamma 90.000000
_cell_volume 1525.222378
_symmetry_space_group_name_H-M "C C"
_symmetry_group_IT_number 9
_symmetry_cell_setting 'monoclinic'
loop_
_space_group_symop_operation_xyz
x,y,z
x,-y,1/2+z
1/2+x,1/2+y,z
1/2+x,1/2-y,1/2+z
loop_
_atom_site_type_symbol
_atom_site_label
_atom_site_fract_x
_atom_site_fract_y
_atom_site_fract_z
Si Si1 0.672780 0.693847 0.266190
Si Si2 0.878899 0.012270 0.066359
Si Si3 0.089826 0.334434 0.195185
Si Si4 0.686261 0.599695 0.550090
Si Si5 0.923795 0.519448 0.123557
Si Si6 0.276897 0.075518 0.840847
Si Si7 0.256077 0.628469 0.126848
Si Si8 0.599269 0.398822 0.551606
O O1 0.694081 0.766331 0.274702
O O2 0.407514 0.675759 0.151648
O O3 0.898028 0.666241 0.478122
O O4 0.685104 0.661721 0.165497
O O5 0.666146 0.991008 0.850179
O O6 0.082855 0.049051 0.128026
O O7 0.007356 0.954267 0.203943
O O8 0.774636 0.065099 0.073422
O O9 0.315409 0.382919 0.332785
O O10 0.910933 0.352364 0.174228
O O11 0.757147 0.541052 0.528532
O O12 0.703270 0.578039 0.675406
O O13 0.423289 0.624037 0.336475
O O14 0.957096 0.532176 0.026525
O O15 0.775098 0.576895 0.075861
O O16 0.458688 0.135730 0.962285
#
# Coordination Sequence:
#
# PCOD9135909 Si02
#       8
#     4   4   4   4   4   4   4   4
#     4  10  22  38  65  92 113 150 201 261 304 342
#     4  11  20  37  60  87 125 164 199 243 303 359
#     4  11  21  38  66  92 116 149 203 256 306 345
#     4  11  21  38  57  89 125 160 194 247 300 363
#     4  12  24  36  58  90 129 164 196 240 305 373
#     4  12  23  36  58  83 128 162 199 241 299 369
#     4  10  21  37  57  88 124 155 204 248 300 356
#     4  11  22  38  57  91 124 156 200 248 299 361
#
# _framework density 20.980546
#
# number of rings (size 3 to 8) (size 9 to 14) (size 15 to 20)
#    0.000    1.000    6.250    1.500    0.000    1.000 
#    0.000    0.000    0.000    1.500    0.000    0.000 
#    0.000    0.000    0.000    0.000    0.000    0.000 
#
# Total GULP energy -89112.652449 kJ/mol
# GULP energy per Si atom -5569.540778 kJ/mol
# Density = 2.093279 g / cm^3
# Si number density = 20.980546 Si / 1000 Ang^3
#
#
#
# Elastic Constant Matrix: (Units=GPa)
#
#
# Indices 1 2 3 4 5 6 
#
# 1 40.8265 18.4180 10.2345 -0.0003 -12.1010 -0.0001
# 2 18.4180 68.0852 16.1379 0.0000 2.3622 0.0000
# 3 10.2345 16.1379 92.2576 -0.0004 -6.7790 -0.0003
# 4 -0.0003 0.0000 -0.0004 28.5393 -0.0004 7.0116
# 5 -12.1010 2.3622 -6.7790 -0.0004 28.2292 -0.0002
# 6 -0.0001 0.0000 -0.0003 7.0116 -0.0002 16.1440
#
#
#
# Elastic Compliance Matrix: (Units=1/GPa)
#
#
# Indices 1 2 3 4 5 6 
#
# 1 0.033330 -0.009298 -0.000981 0.000001 0.014830 0.000000
# 2 -0.009298 0.018024 -0.002570 0.000000 -0.006111 0.000000
# 3 -0.000981 -0.002570 0.011587 0.000000 0.002577 0.000000
# 4 0.000001 0.000000 0.000000 0.039225 0.000001 -0.017036
# 5 0.014830 -0.006111 0.002577 0.000001 0.042912 0.000000
# 6 0.000000 0.000000 0.000000 -0.017036 0.000000 0.069342
#
#
# Mechanical properties :
#
#
# Convention : Reuss Voigt Hill
#
# Bulk Modulus (GPa) = 26.85173 32.30557 29.57865
# Shear Modulus (GPa) = 19.79937 25.00774 22.40356
#
# Velocity S-wave (km/s) = 3.07530 3.45621 3.27130
# Velocity P-wave (km/s) = 5.04343 5.59986 5.32891
#
# Compressibility (1/GPa) = 0.03724155
#
# Stress axis : x y z
#
# Youngs Moduli (GPa) = 30.00280 55.48136 86.30331
#
# Poissons Ratio (x) = 0.51588 0.08469
# Poissons Ratio (y) = 0.27897 0.22183
# Poissons Ratio (z) = 0.02944 0.14261
#
# Static dielectric constant tensor:
#      x y z
#    x 1.800320 0.000000 0.023110 
#    y 0.000000 1.748170 0.000000 
#    z 0.023110 0.000000 1.815570 
# 
# From -- ./inp_files/25050.got.cif
#   From: 2010.05.17/outbox.cif.g08.bks.cpg/sg9_13_cif.got.tgz:25050.got - 2010.06.03 20:04:27.
