data_PCOD9135242
_publ_section_title
;
Structure prediction by ZEFSAII (Michael W. Deem and Ramdas Pophale) SiO2 
 PCOD9135242
Probable space group: C C
;
_chemical_formula_sum "Si O2"
_cell_formula_units_Z 24
_cell_length_a 16.700816
_cell_length_b 14.034125
_cell_length_c 5.210804
_cell_angle_alpha 90.000000
_cell_angle_beta 55.583242
_cell_angle_gamma 90.000000
_cell_volume 1007.521817
_symmetry_space_group_name_H-M "C C"
_symmetry_group_IT_number 9
_symmetry_cell_setting 'monoclinic'
loop_
_space_group_symop_operation_xyz
x,y,z
x,-y,1/2+z
1/2+x,1/2+y,z
1/2+x,1/2-y,1/2+z
loop_
_atom_site_type_symbol
_atom_site_label
_atom_site_fract_x
_atom_site_fract_y
_atom_site_fract_z
Si Si1 0.773230 0.952033 0.851030
Si Si2 0.863173 0.447179 0.240273
Si Si3 0.821101 0.243532 0.524207
Si Si4 0.135498 0.225832 0.679824
Si Si5 0.071521 0.414337 0.039689
Si Si6 0.526657 0.277245 0.870196
O O1 0.781970 0.842747 0.921459
O O2 0.814605 0.982044 0.501694
O O3 0.657959 0.969622 0.020734
O O4 0.824764 0.507278 0.550789
O O5 0.845518 0.335084 0.306080
O O6 0.980013 0.458300 0.059796
O O7 0.916695 0.203420 0.490485
O O8 0.100946 0.183970 0.015877
O O9 0.062077 0.195206 0.586656
O O10 0.120399 0.338328 0.756178
O O11 0.242822 0.219308 0.372145
O O12 0.031725 0.337986 0.325158
#
# Coordination Sequence:
#
# PCOD9135242 Si02
#       6
#     4   4   4   4   4   4
#     4  12  25  38  65 101 133 178 223 277 348 414
#     4  11  26  40  66 101 134 176 225 281 349 411
#     4  11  24  45  69  93 148 180 224 290 335 420
#     4  10  20  38  64  99 122 185 214 267 342 409
#     4   9  21  38  63  96 139 155 215 287 358 411
#     4   9  22  35  65  96 126 178 221 264 344 403
#
# _framework density 23.820820999999999
#
# number of rings (size 3 to 8) (size 9 to 14) (size 15 to 20)
#    1.000    0.667    1.667    2.000    4.667    8.000 
#    0.000    0.000    0.000    6.000    0.000    0.000 
#    0.000    0.000    0.000    0.000    0.000    0.000 
#
# Total GULP energy -67038.863820 kJ/mol
# GULP energy per Si atom -5586.571985 kJ/mol
# Density = 2.376660 g / cm^3
# Si number density = 23.820821 Si / 1000 Ang^3
#
#
#
# Elastic Constant Matrix: (Units=GPa)
#
#
# Indices 1 2 3 4 5 6 
#
# 1 75.9881 9.1161 49.2560 0.0000 6.5880 0.0000
# 2 9.1161 71.5501 28.2599 0.0000 4.9936 0.0000
# 3 49.2560 28.2599 72.7639 0.0000 22.7012 0.0000
# 4 0.0000 0.0000 0.0000 27.1339 0.0000 3.2665
# 5 6.5880 4.9936 22.7012 0.0000 35.4962 0.0000
# 6 0.0000 0.0000 0.0000 3.2665 0.0000 32.0512
#
#
#
# Elastic Compliance Matrix: (Units=1/GPa)
#
#
# Indices 1 2 3 4 5 6 
#
# 1 0.026423 0.004925 -0.022553 0.000000 0.008827 0.000000
# 2 0.004925 0.017568 -0.011369 0.000000 0.003886 0.000000
# 3 -0.022553 -0.011369 0.039502 0.000000 -0.019478 0.000000
# 4 0.000000 0.000000 0.000000 0.037312 0.000000 -0.003803
# 5 0.008827 0.003886 -0.019478 0.000000 0.038444 0.000000
# 6 0.000000 0.000000 0.000000 -0.003803 0.000000 0.031588
#
#
# Mechanical properties :
#
#
# Convention : Reuss Voigt Hill
#
# Bulk Modulus (GPa) = 39.21727 43.72957 41.47342
# Shear Modulus (GPa) = 19.43025 27.84761 23.63893
#
# Velocity S-wave (km/s) = 2.85912 3.42284 3.15360
# Velocity P-wave (km/s) = 5.23436 5.83255 5.54154
#
# Compressibility (1/GPa) = 0.02549897
#
# Stress axis : x y z
#
# Youngs Moduli (GPa) = 37.84602 56.92166 25.31502
#
# Poissons Ratio (x) = -0.28035 0.57093
# Poissons Ratio (y) = -0.18640 0.28781
# Poissons Ratio (z) = 0.85354 0.64715
#
# Static dielectric constant tensor:
#      x y z
#    x 1.907220 0.000000 -0.013870 
#    y 0.000000 1.883130 0.000000 
#    z -0.013870 0.000000 2.027620 
# 
# From -- ./inp_files/2884.got.cif
#   From: 2010.05.17/outbox.cif.g08.bks.cpg/sg9_2_cif.got.tgz:2884.got - 2010.06.03 20:04:27.
