data_PCOD9135354
_publ_section_title
;
Structure prediction by ZEFSAII (Michael W. Deem and Ramdas Pophale) SiO2 
 PCOD9135354
Probable space group: C C
;
_chemical_formula_sum "Si O2"
_cell_formula_units_Z 28
_cell_length_a 7.752711
_cell_length_b 16.660220
_cell_length_c 10.442702
_cell_angle_alpha 90.000000
_cell_angle_beta 117.411856
_cell_angle_gamma 90.000000
_cell_volume 1197.355971
_symmetry_space_group_name_H-M "C C"
_symmetry_group_IT_number 9
_symmetry_cell_setting 'monoclinic'
loop_
_space_group_symop_operation_xyz
x,y,z
x,-y,1/2+z
1/2+x,1/2+y,z
1/2+x,1/2-y,1/2+z
loop_
_atom_site_type_symbol
_atom_site_label
_atom_site_fract_x
_atom_site_fract_y
_atom_site_fract_z
Si Si1 0.160430 0.909201 0.779990
Si Si2 0.118457 0.653967 0.959338
Si Si3 0.214925 0.093492 0.790661
Si Si4 0.540755 0.171011 0.352390
Si Si5 0.464476 0.601789 0.935482
Si Si6 0.954862 0.212714 0.587247
Si Si7 0.272421 0.440795 0.752644
O O1 0.343736 0.852260 0.855741
O O2 0.075720 0.914192 0.606401
O O3 0.975580 0.891779 0.806991
O O4 0.228454 0.000034 0.822769
O O5 0.173190 0.582404 0.081338
O O6 0.295621 0.661938 0.922104
O O7 0.060785 0.733961 0.015692
O O8 0.921983 0.627266 0.823457
O O9 0.055933 0.125791 0.637056
O O10 0.133605 0.127330 0.897209
O O11 0.491755 0.234684 0.225973
O O12 0.624733 0.092760 0.306511
O O13 0.726284 0.200005 0.494296
O O14 0.348170 0.528724 0.823096
#
# Coordination Sequence:
#
# PCOD9135354 Si02
#       7
#     4   4   4   4   4   4   4
#     4  10  22  38  65  94 131 171 220 279 336 392
#     4  10  21  40  62  94 134 176 217 282 336 398
#     4  11  22  40  65  96 131 178 222 277 335 404
#     4  11  22  43  65  92 132 181 216 280 334 397
#     4  10  20  39  65  99 129 171 223 279 332 408
#     4  11  23  42  67  94 135 182 227 276 340 404
#     4   9  20  38  63  95 128 165 219 275 333 397
#
# _framework density 23.384858999999999
#
# number of rings (size 3 to 8) (size 9 to 14) (size 15 to 20)
#    0.000    1.714    1.429    3.429    0.000    2.286 
#    2.571    5.714    0.000    0.000    0.000    0.000 
#    0.000    0.000    0.000    0.000    0.000    0.000 
#
# Total GULP energy -78153.957465 kJ/mol
# GULP energy per Si atom -5582.425533 kJ/mol
# Density = 2.333163 g / cm^3
# Si number density = 23.384859 Si / 1000 Ang^3
#
#
#
# Elastic Constant Matrix: (Units=GPa)
#
#
# Indices 1 2 3 4 5 6 
#
# 1 127.5317 7.2959 13.9657 0.0000 20.8974 0.0000
# 2 7.2959 66.4853 11.0225 0.0000 11.5120 0.0000
# 3 13.9657 11.0225 70.8419 0.0000 26.1583 0.0000
# 4 0.0000 0.0000 0.0000 22.2779 0.0000 9.3604
# 5 20.8974 11.5120 26.1583 0.0000 36.1871 0.0000
# 6 0.0000 0.0000 0.0000 9.3604 0.0000 23.5004
#
#
#
# Elastic Compliance Matrix: (Units=1/GPa)
#
#
# Indices 1 2 3 4 5 6 
#
# 1 0.008663 -0.000098 0.000195 0.000000 -0.005113 0.000000
# 2 -0.000098 0.015954 -0.000832 0.000000 -0.004418 0.000000
# 3 0.000195 -0.000832 0.019303 0.000000 -0.013802 0.000000
# 4 0.000000 0.000000 0.000000 0.053910 0.000000 -0.021473
# 5 -0.005113 -0.004418 -0.013802 0.000000 0.041969 0.000000
# 6 0.000000 0.000000 0.000000 -0.021473 0.000000 0.051105
#
#
# Mechanical properties :
#
#
# Convention : Reuss Voigt Hill
#
# Bulk Modulus (GPa) = 23.55596 36.60302 30.07949
# Shear Modulus (GPa) = 24.21030 31.89807 28.05419
#
# Velocity S-wave (km/s) = 3.22110 3.69731 3.46739
# Velocity P-wave (km/s) = 4.89173 5.82351 5.37783
#
# Compressibility (1/GPa) = 0.04245210
#
# Stress axis : x y z
#
# Youngs Moduli (GPa) = 115.43081 62.67826 51.80519
#
# Poissons Ratio (x) = 0.00613 -0.01012
# Poissons Ratio (y) = 0.01128 0.04310
# Poissons Ratio (z) = -0.02254 0.05214
#
# Static dielectric constant tensor:
#      x y z
#    x 1.832560 0.000000 -0.017630 
#    y 0.000000 1.974720 0.000000 
#    z -0.017630 0.000000 1.912610 
# 
# From -- ./inp_files/13526.got.cif
#   From: 2010.05.17/outbox.cif.g08.bks.cpg/sg9_7_cif.got.tgz:13526.got - 2010.06.03 20:04:27.
