data_PCOD9135988
_publ_section_title
;
Structure prediction by ZEFSAII (Michael W. Deem and Ramdas Pophale) SiO2 
 PCOD9135988
Probable space group: C C
;
_chemical_formula_sum "Si O2"
_cell_formula_units_Z 20
_cell_length_a 21.677457
_cell_length_b 7.731045
_cell_length_c 5.493193
_cell_angle_alpha 90.000000
_cell_angle_beta 52.800449
_cell_angle_gamma 90.000000
_cell_volume 733.290517
_symmetry_space_group_name_H-M "C C"
_symmetry_group_IT_number 9
_symmetry_cell_setting 'monoclinic'
loop_
_space_group_symop_operation_xyz
x,y,z
x,-y,1/2+z
1/2+x,1/2+y,z
1/2+x,1/2-y,1/2+z
loop_
_atom_site_type_symbol
_atom_site_label
_atom_site_fract_x
_atom_site_fract_y
_atom_site_fract_z
Si Si1 0.402860 0.931995 0.489960
Si Si2 0.855072 0.036936 0.589971
Si Si3 0.021029 0.902249 0.204790
Si Si4 0.143647 0.605216 0.944620
Si Si5 0.223604 0.061625 0.402670
O O1 0.393710 0.725978 0.490424
O O2 0.313046 0.994517 0.716458
O O3 0.438605 0.988855 0.660672
O O4 0.812443 0.016987 0.946751
O O5 0.927252 0.901673 0.430606
O O6 0.067462 0.727497 0.135787
O O7 0.040153 0.022371 0.392473
O O8 0.144403 0.477783 0.174425
O O9 0.211894 0.254518 0.332714
O O10 0.191159 0.048772 0.753528
#
# Coordination Sequence:
#
# PCOD9135988 Si02
#       5
#     4   4   4   4   4
#     4  10  21  38  61  90 118 150 196 244 287 344
#     4  10  21  38  59  83 115 158 195 233 291 348
#     4  10  21  41  60  80 114 159 196 232 295 350
#     4  12  24  38  60  91 119 149 199 250 286 340
#     4  10  21  39  62  86 120 158 188 233 301 358
#
# _framework density 27.274322000000002
#
# number of rings (size 3 to 8) (size 9 to 14) (size 15 to 20)
#    0.000    1.600    0.000    4.800    0.000    1.600 
#    0.000   24.000    0.000    0.000    0.000    0.000 
#    0.000    0.000    0.000    0.000    0.000    0.000 
#
# Total GULP energy -56007.393740 kJ/mol
# GULP energy per Si atom -5600.739374 kJ/mol
# Density = 2.721224 g / cm^3
# Si number density = 27.274322 Si / 1000 Ang^3
#
#
#
# Elastic Constant Matrix: (Units=GPa)
#
#
# Indices 1 2 3 4 5 6 
#
# 1 90.1491 -5.3688 33.6963 0.0000 17.4568 0.0000
# 2 -5.3688 101.6463 59.2229 0.0000 30.6124 0.0000
# 3 33.6963 59.2229 236.1192 0.0000 72.9569 0.0000
# 4 0.0000 0.0000 0.0000 67.9077 0.0000 7.9729
# 5 17.4568 30.6124 72.9569 0.0000 51.5833 0.0000
# 6 0.0000 0.0000 0.0000 7.9729 0.0000 55.1841
#
#
#
# Elastic Compliance Matrix: (Units=1/GPa)
#
#
# Indices 1 2 3 4 5 6 
#
# 1 0.012474 0.002570 -0.001153 0.000000 -0.004116 0.000000
# 2 0.002570 0.012789 -0.001706 0.000000 -0.006046 0.000000
# 3 -0.001153 -0.001706 0.007805 0.000000 -0.009636 0.000000
# 4 0.000000 0.000000 0.000000 0.014980 0.000000 -0.002164
# 5 -0.004116 -0.006046 -0.009636 0.000000 0.037996 0.000000
# 6 0.000000 0.000000 0.000000 -0.002164 0.000000 0.018434
#
#
# Mechanical properties :
#
#
# Convention : Reuss Voigt Hill
#
# Bulk Modulus (GPa) = 30.77918 67.00171 48.89045
# Shear Modulus (GPa) = 43.14583 57.62598 50.38590
#
# Velocity S-wave (km/s) = 3.98165 4.60154 4.30277
# Velocity P-wave (km/s) = 5.69628 7.26990 6.53066
#
# Compressibility (1/GPa) = 0.03248949
#
# Stress axis : x y z
#
# Youngs Moduli (GPa) = 80.16797 78.19329 128.12037
#
# Poissons Ratio (x) = -0.20097 0.14773
# Poissons Ratio (y) = -0.20605 0.21861
# Poissons Ratio (z) = 0.09244 0.13342
#
# Static dielectric constant tensor:
#      x y z
#    x 2.183410 0.000000 -0.021800 
#    y 0.000000 2.086300 0.000000 
#    z -0.021800 0.000000 2.145440 
# 
# From -- ./inp_files/3350.got.cif
#   From: 2010.05.17/outbox.cif.g08.bks.cpg/sg9_2_cif.got.tgz:3350.got - 2010.06.03 20:04:27.
