data_PCOD9135199
_publ_section_title
;
Structure prediction by ZEFSAII (Michael W. Deem and Ramdas Pophale) SiO2 
 PCOD9135199
Probable space group: C C
;
_chemical_formula_sum "Si O2"
_cell_formula_units_Z 32
_cell_length_a 9.363625
_cell_length_b 22.408374
_cell_length_c 16.453020
_cell_angle_alpha 90.000000
_cell_angle_beta 28.903277
_cell_angle_gamma 90.000000
_cell_volume 1668.575798
_symmetry_space_group_name_H-M "C C"
_symmetry_group_IT_number 9
_symmetry_cell_setting 'monoclinic'
loop_
_space_group_symop_operation_xyz
x,y,z
x,-y,1/2+z
1/2+x,1/2+y,z
1/2+x,1/2-y,1/2+z
loop_
_atom_site_type_symbol
_atom_site_label
_atom_site_fract_x
_atom_site_fract_y
_atom_site_fract_z
Si Si1 0.546770 0.418707 0.538080
Si Si2 0.963515 0.889646 0.766653
Si Si3 0.920080 0.684374 0.479135
Si Si4 0.204609 0.308254 0.658964
Si Si5 0.905691 0.523048 0.324366
Si Si6 0.107190 0.939044 0.140257
Si Si7 0.119510 0.505263 0.968454
Si Si8 0.911093 0.396537 0.681089
O O1 0.564259 0.412575 0.627270
O O2 0.481003 0.352084 0.540044
O O3 0.822347 0.453472 0.362015
O O4 0.246233 0.455952 0.665004
O O5 0.724112 0.838705 0.868528
O O6 0.222464 0.873868 0.699068
O O7 0.796398 0.944629 0.892596
O O8 0.005175 0.692201 0.340862
O O9 0.804739 0.743912 0.578783
O O10 0.686330 0.630473 0.609748
O O11 0.039654 0.342072 0.667830
O O12 0.743280 0.544060 0.486549
O O13 0.762860 0.560571 0.322112
O O14 0.771806 0.959842 0.317398
O O15 0.295456 0.979726 0.109933
O O16 0.133716 0.554736 0.030964
#
# Coordination Sequence:
#
# PCOD9135199 Si02
#       8
#     4   4   4   4   4   4   4   4
#     4  10  20  38  62  85 124 163 195 249 308 365
#     4  10  20  38  61  86 126 154 198 255 305 360
#     4  10  22  44  64  81 117 170 209 243 300 370
#     4  10  23  42  60  86 117 166 206 253 295 361
#     4  11  19  36  58  89 126 154 192 249 314 357
#     4  11  19  38  62  88 120 165 195 246 302 374
#     4  11  20  33  59  94 121 158 196 238 317 361
#     4  11  23  35  60  95 127 150 205 261 303 352
#
# _framework density 19.178032999999999
#
# number of rings (size 3 to 8) (size 9 to 14) (size 15 to 20)
#    0.000    1.500    7.500    0.000    5.250    0.000 
#    2.250    2.500    5.500    0.000    0.000    0.000 
#    0.000    0.000    0.000    0.000    0.000    0.000 
#
# Total GULP energy -89153.295576 kJ/mol
# GULP energy per Si atom -5572.080973 kJ/mol
# Density = 1.913438 g / cm^3
# Si number density = 19.178033 Si / 1000 Ang^3
#
#
#
# Elastic Constant Matrix: (Units=GPa)
#
#
# Indices 1 2 3 4 5 6 
#
# 1 112.0914 42.5511 18.6634 -0.0011 10.6113 0.0019
# 2 42.5511 149.9527 44.3416 -0.0033 -0.2809 -0.0015
# 3 18.6634 44.3416 42.4485 0.0042 3.9415 0.0152
# 4 -0.0011 -0.0033 0.0042 34.2389 -0.0186 2.9317
# 5 10.6113 -0.2809 3.9415 -0.0186 15.3845 0.0028
# 6 0.0019 -0.0015 0.0152 2.9317 0.0028 26.8042
#
#
#
# Elastic Compliance Matrix: (Units=1/GPa)
#
#
# Indices 1 2 3 4 5 6 
#
# 1 0.010845 -0.002719 -0.001259 -0.000004 -0.007207 0.000001
# 2 -0.002719 0.010452 -0.010157 0.000004 0.004668 0.000006
# 3 -0.001259 -0.010157 0.035502 -0.000008 -0.008412 -0.000019
# 4 -0.000004 0.000004 -0.000008 0.029483 0.000041 -0.003225
# 5 -0.007207 0.004668 -0.008412 0.000041 0.072212 -0.000007
# 6 0.000001 0.000006 -0.000019 -0.003225 -0.000007 0.037660
#
#
# Mechanical properties :
#
#
# Convention : Reuss Voigt Hill
#
# Bulk Modulus (GPa) = 35.04970 57.28943 46.16957
# Shear Modulus (GPa) = 21.37352 28.54796 24.96074
#
# Velocity S-wave (km/s) = 3.34200 3.86239 3.61158
# Velocity P-wave (km/s) = 5.76261 7.05890 6.44343
#
# Compressibility (1/GPa) = 0.02853092
#
# Stress axis : x y z
#
# Youngs Moduli (GPa) = 92.20603 95.67263 28.16720
#
# Poissons Ratio (x) = 0.26010 0.03547
# Poissons Ratio (y) = 0.25067 0.28608
# Poissons Ratio (z) = 0.11611 0.97171
#
# Static dielectric constant tensor:
#      x y z
#    x 1.764850 0.000010 -0.001950 
#    y 0.000010 1.685530 0.000010 
#    z -0.001950 0.000010 1.730130 
# 
# From -- ./inp_files/23748.got.cif
#   From: 2010.05.17/outbox.cif.g08.bks.cpg/sg9_12_cif.got.tgz:23748.got - 2010.06.03 20:04:27.
