data_PCOD9135381
_publ_section_title
;
Structure prediction by ZEFSAII (Michael W. Deem and Ramdas Pophale) SiO2 
 PCOD9135381
Probable space group: C C
;
_chemical_formula_sum "Si O2"
_cell_formula_units_Z 32
_cell_length_a 8.226349
_cell_length_b 18.855172
_cell_length_c 9.207829
_cell_angle_alpha 90.000000
_cell_angle_beta 121.588957
_cell_angle_gamma 90.000000
_cell_volume 1216.596995
_symmetry_space_group_name_H-M "C C"
_symmetry_group_IT_number 9
_symmetry_cell_setting 'monoclinic'
loop_
_space_group_symop_operation_xyz
x,y,z
x,-y,1/2+z
1/2+x,1/2+y,z
1/2+x,1/2-y,1/2+z
loop_
_atom_site_type_symbol
_atom_site_label
_atom_site_fract_x
_atom_site_fract_y
_atom_site_fract_z
Si Si1 0.882720 0.651443 0.717140
Si Si2 0.374313 0.300590 0.211637
Si Si3 0.884345 0.411368 0.503137
Si Si4 0.630567 0.829391 0.847730
Si Si5 0.971563 0.943933 0.420520
Si Si6 0.633885 0.725783 0.351710
Si Si7 0.982870 0.921148 0.746417
Si Si8 0.438731 0.063203 0.484495
O O1 0.775583 0.696832 0.542264
O O2 0.967160 0.587470 0.663190
O O3 0.039615 0.702270 0.857471
O O4 0.783118 0.620505 0.811930
O O5 0.556728 0.250954 0.309311
O O6 0.391210 0.375661 0.299302
O O7 0.225229 0.249956 0.237335
O O8 0.332744 0.317453 0.022787
O O9 0.040587 0.364920 0.661775
O O10 0.703705 0.433510 0.518819
O O11 0.990315 0.481779 0.497607
O O12 0.536067 0.880319 0.926083
O O13 0.906782 0.940273 0.554594
O O14 0.918185 0.020926 0.332380
O O15 0.475900 0.663358 0.265308
O O16 0.212455 0.932354 0.850173
#
# Coordination Sequence:
#
# PCOD9135381 Si02
#       8
#     4   4   4   4   4   4   4   4
#     4  11  23  39  66  97 126 179 217 280 328 403
#     4  12  23  43  72  96 130 180 234 277 335 415
#     4  11  24  41  64 102 139 168 226 282 343 400
#     4  12  22  42  69  98 127 182 226 278 338 407
#     4  11  24  41  69  97 134 179 225 283 337 408
#     4  11  21  41  69  95 131 175 231 268 341 407
#     4  10  21  40  67  97 128 176 226 274 335 409
#     4  10  20  39  68  92 125 175 227 266 331 403
#
# _framework density 26.302876000000001
#
# number of rings (size 3 to 8) (size 9 to 14) (size 15 to 20)
#    0.000    1.000    5.000    3.000    8.750    2.000 
#    2.250    1.250    0.000    0.000    0.000    0.000 
#    0.000    0.000    0.000    0.000    0.000    0.000 
#
# Total GULP energy -89441.677475 kJ/mol
# GULP energy per Si atom -5590.104842 kJ/mol
# Density = 2.624301 g / cm^3
# Si number density = 26.302876 Si / 1000 Ang^3
#
#
#
# Elastic Constant Matrix: (Units=GPa)
#
#
# Indices 1 2 3 4 5 6 
#
# 1 37.7467 12.7504 22.0163 0.0000 0.2611 0.0000
# 2 12.7504 120.8045 51.3546 0.0000 -11.6835 0.0000
# 3 22.0163 51.3546 158.4467 0.0000 -14.9625 0.0000
# 4 0.0000 0.0000 0.0000 46.5162 0.0000 1.9498
# 5 0.2611 -11.6835 -14.9625 0.0000 39.0341 0.0000
# 6 0.0000 0.0000 0.0000 1.9498 0.0000 24.2788
#
#
#
# Elastic Compliance Matrix: (Units=1/GPa)
#
#
# Indices 1 2 3 4 5 6 
#
# 1 0.029250 -0.001717 -0.003709 0.000000 -0.002131 0.000000
# 2 -0.001717 0.009817 -0.002765 0.000000 0.001890 0.000000
# 3 -0.003709 -0.002765 0.007934 0.000000 0.002239 0.000000
# 4 0.000000 0.000000 0.000000 0.021570 0.000000 -0.001732
# 5 -0.002131 0.001890 0.002239 0.000000 0.027057 0.000000
# 6 0.000000 0.000000 0.000000 -0.001732 0.000000 0.041327
#
#
# Mechanical properties :
#
#
# Convention : Reuss Voigt Hill
#
# Bulk Modulus (GPa) = 32.65793 54.36006 43.50899
# Shear Modulus (GPa) = 30.57272 37.35761 33.96517
#
# Velocity S-wave (km/s) = 3.41300 3.77276 3.59738
# Velocity P-wave (km/s) = 5.28909 6.30001 5.81655
#
# Compressibility (1/GPa) = 0.03062044
#
# Stress axis : x y z
#
# Youngs Moduli (GPa) = 34.18746 101.86236 126.03666
#
# Poissons Ratio (x) = 0.17485 0.46751
# Poissons Ratio (y) = 0.05868 0.34847
# Poissons Ratio (z) = 0.12681 0.28164
#
# Static dielectric constant tensor:
#      x y z
#    x 2.167450 0.000000 0.002020 
#    y 0.000000 2.062300 0.000000 
#    z 0.002020 0.000000 2.030160 
# 
# From -- ./inp_files/8020.got.cif
#   From: 2010.05.17/outbox.cif.g08.bks.cpg/sg9_5_cif.got.tgz:8020.got - 2010.06.03 20:04:27.
