data_PCOD9135407
_publ_section_title
;
Structure prediction by ZEFSAII (Michael W. Deem and Ramdas Pophale) SiO2 
 PCOD9135407
Probable space group: C C
;
_chemical_formula_sum "Si O2"
_cell_formula_units_Z 20
_cell_length_a 7.702279
_cell_length_b 10.558859
_cell_length_c 15.650044
_cell_angle_alpha 90.000000
_cell_angle_beta 129.731468
_cell_angle_gamma 90.000000
_cell_volume 978.826218
_symmetry_space_group_name_H-M "C C"
_symmetry_group_IT_number 9
_symmetry_cell_setting 'monoclinic'
loop_
_space_group_symop_operation_xyz
x,y,z
x,-y,1/2+z
1/2+x,1/2+y,z
1/2+x,1/2-y,1/2+z
loop_
_atom_site_type_symbol
_atom_site_label
_atom_site_fract_x
_atom_site_fract_y
_atom_site_fract_z
Si Si1 0.118040 0.773034 0.958410
Si Si2 0.098730 0.624545 0.593736
Si Si3 0.959416 0.493554 0.382514
Si Si4 0.727724 0.763773 0.966824
Si Si5 0.510928 0.520126 0.818355
O O1 0.077407 0.638613 0.898699
O O2 0.966456 0.770441 0.995416
O O3 0.027125 0.886622 0.870756
O O4 0.380180 0.801616 0.058560
O O5 0.006684 0.518663 0.498745
O O6 0.235299 0.714413 0.570752
O O7 0.263192 0.559482 0.711428
O O8 0.074796 0.619226 0.381654
O O9 0.688510 0.485971 0.294220
O O10 0.602180 0.634352 0.905516
#
# Coordination Sequence:
#
# PCOD9135407 Si02
#       5
#     4   4   4   4   4
#     4  10  20  40  59  83 117 151 198 235 285 344
#     4   9  21  40  60  83 124 151 186 244 290 331
#     4   8  20  40  56  82 120 148 189 242 278 340
#     4   9  21  40  58  82 122 149 191 239 284 342
#     4  10  20  40  61  86 117 155 192 238 285 345
#
# _framework density 20.432635999999999
#
# number of rings (size 3 to 8) (size 9 to 14) (size 15 to 20)
#    1.200    1.600    0.000    0.000    2.800    1.600 
#   25.200    0.000    0.000    0.000    0.000    0.000 
#    0.000    0.000    0.000    0.000    0.000    0.000 
#
# Total GULP energy -55676.719196 kJ/mol
# GULP energy per Si atom -5567.671920 kJ/mol
# Density = 2.038613 g / cm^3
# Si number density = 20.432636 Si / 1000 Ang^3
#
#
#
# Elastic Constant Matrix: (Units=GPa)
#
#
# Indices 1 2 3 4 5 6 
#
# 1 59.8427 5.2740 2.0210 0.0000 11.4354 0.0000
# 2 5.2740 123.8109 -13.6142 0.0000 -2.5430 0.0000
# 3 2.0210 -13.6142 20.0571 0.0000 5.8343 0.0000
# 4 0.0000 0.0000 0.0000 13.2908 0.0000 6.2194
# 5 11.4354 -2.5430 5.8343 0.0000 15.4349 0.0000
# 6 0.0000 0.0000 0.0000 6.2194 0.0000 21.2863
#
#
#
# Elastic Compliance Matrix: (Units=1/GPa)
#
#
# Indices 1 2 3 4 5 6 
#
# 1 0.019682 -0.000951 0.001864 0.000000 -0.015443 0.000000
# 2 -0.000951 0.008785 0.006104 0.000000 -0.000156 0.000000
# 3 0.001864 0.006104 0.060584 0.000000 -0.023276 0.000000
# 4 0.000000 0.000000 0.000000 0.087156 0.000000 -0.025465
# 5 -0.015443 -0.000156 -0.023276 0.000000 0.085003 0.000000
# 6 0.000000 0.000000 0.000000 -0.025465 0.000000 0.054419
#
#
# Mechanical properties :
#
#
# Convention : Reuss Voigt Hill
#
# Bulk Modulus (GPa) = 9.70058 21.23024 15.46541
# Shear Modulus (GPa) = 14.88286 24.00439 19.44362
#
# Velocity S-wave (km/s) = 2.70179 3.43126 3.08814
# Velocity P-wave (km/s) = 3.80668 5.10989 4.50565
#
# Compressibility (1/GPa) = 0.10308663
#
# Stress axis : x y z
#
# Youngs Moduli (GPa) = 50.80685 113.82566 16.50601
#
# Poissons Ratio (x) = 0.10821 -0.03076
# Poissons Ratio (y) = 0.04830 -0.10076
# Poissons Ratio (z) = -0.09469 -0.69483
#
# Static dielectric constant tensor:
#      x y z
#    x 1.774380 0.000000 0.017040 
#    y 0.000000 1.741590 0.000000 
#    z 0.017040 0.000000 1.722880 
# 
# From -- ./inp_files/13995.got.cif
#   From: 2010.05.17/outbox.cif.g08.bks.cpg/sg9_7_cif.got.tgz:13995.got - 2010.06.03 20:04:27.
