data_PCOD9135113
_publ_section_title
;
Structure prediction by ZEFSAII (Michael W. Deem and Ramdas Pophale) SiO2 
 PCOD9135113
Probable space group: C C
;
_chemical_formula_sum "Si O2"
_cell_formula_units_Z 32
_cell_length_a 18.036768
_cell_length_b 16.958418
_cell_length_c 10.013215
_cell_angle_alpha 90.000000
_cell_angle_beta 24.983424
_cell_angle_gamma 90.000000
_cell_volume 1293.588987
_symmetry_space_group_name_H-M "C C"
_symmetry_group_IT_number 9
_symmetry_cell_setting 'monoclinic'
loop_
_space_group_symop_operation_xyz
x,y,z
x,-y,1/2+z
1/2+x,1/2+y,z
1/2+x,1/2-y,1/2+z
loop_
_atom_site_type_symbol
_atom_site_label
_atom_site_fract_x
_atom_site_fract_y
_atom_site_fract_z
Si Si1 0.170220 0.703359 0.203310
Si Si2 0.282881 0.528795 0.092219
Si Si3 0.304566 0.832027 0.198842
Si Si4 0.463274 0.946030 0.726945
Si Si5 0.623555 0.438906 0.165799
Si Si6 0.236145 0.797393 0.818324
Si Si7 0.947073 0.118448 0.206981
Si Si8 0.091830 0.300578 0.330727
O O1 0.253387 0.616206 0.085203
O O2 0.260809 0.758604 0.169032
O O3 0.956987 0.693049 0.553930
O O4 0.205546 0.740936 0.998278
O O5 0.119867 0.505681 0.451668
O O6 0.452473 0.517209 0.905912
O O7 0.337752 0.463600 0.893897
O O8 0.105884 0.863524 0.553190
O O9 0.404844 0.904760 0.958926
O O10 0.518673 0.872237 0.542273
O O11 0.288278 0.984974 0.952995
O O12 0.557709 0.381305 0.390495
O O13 0.686323 0.385407 0.941295
O O14 0.117956 0.771142 0.889122
O O15 0.445879 0.791137 0.455860
O O16 0.786347 0.178040 0.469459
#
# Coordination Sequence:
#
# PCOD9135113 Si02
#       8
#     4   4   4   4   4   4   4   4
#     4  12  22  39  71  98 119 181 229 266 324 413
#     4  11  25  37  67  96 130 173 230 269 338 400
#     4  11  23  43  70  90 135 171 226 271 339 397
#     4   9  20  40  60  87 129 175 205 271 332 396
#     4  10  21  42  66  88 135 176 224 270 344 392
#     4  11  19  40  66  94 124 173 219 271 330 404
#     4  10  24  42  62  95 135 174 210 295 331 385
#     4  10  20  37  62  92 127 163 215 273 334 379
#
# _framework density 24.737379000000001
#
# number of rings (size 3 to 8) (size 9 to 14) (size 15 to 20)
#    0.000    1.500    5.000    1.500    3.500    1.000 
#    0.000    0.000    5.500    0.000    0.000    0.000 
#    0.000    0.000    0.000    0.000    0.000    0.000 
#
# Total GULP energy -89306.059964 kJ/mol
# GULP energy per Si atom -5581.628748 kJ/mol
# Density = 2.468108 g / cm^3
# Si number density = 24.737379 Si / 1000 Ang^3
#
#
#
# Elastic Constant Matrix: (Units=GPa)
#
#
# Indices 1 2 3 4 5 6 
#
# 1 50.7453 -1.5335 28.2449 0.0022 -28.1206 -0.0009
# 2 -1.5335 69.5384 21.5804 0.0051 0.9632 -0.0023
# 3 28.2449 21.5804 154.0277 0.0070 -40.6894 -0.0036
# 4 0.0022 0.0051 0.0070 44.1586 -0.0033 -9.0868
# 5 -28.1206 0.9632 -40.6894 -0.0033 37.9940 0.0017
# 6 -0.0009 -0.0023 -0.0036 -9.0868 0.0017 11.3875
#
#
#
# Elastic Compliance Matrix: (Units=1/GPa)
#
#
# Indices 1 2 3 4 5 6 
#
# 1 0.033447 0.000226 0.000520 0.000000 0.025307 -0.000001
# 2 0.000226 0.015413 -0.003152 -0.000001 -0.003599 0.000002
# 3 0.000520 -0.003152 0.009708 0.000000 0.010861 0.000001
# 4 0.000000 -0.000001 0.000000 0.027095 0.000001 0.021621
# 5 0.025307 -0.003599 0.010861 0.000001 0.056774 -0.000003
# 6 -0.000001 0.000002 0.000001 0.021621 -0.000003 0.105068
#
#
# Mechanical properties :
#
#
# Convention : Reuss Voigt Hill
#
# Bulk Modulus (GPa) = 18.60217 41.21055 29.90636
# Shear Modulus (GPa) = 18.50238 33.77600 26.13919
#
# Velocity S-wave (km/s) = 2.73784 3.69912 3.25417
# Velocity P-wave (km/s) = 4.18695 5.91101 5.12204
#
# Compressibility (1/GPa) = 0.05375716
#
# Stress axis : x y z
#
# Youngs Moduli (GPa) = 29.89770 64.87843 103.01037
#
# Poissons Ratio (x) = -0.01464 -0.05360
# Poissons Ratio (y) = -0.00675 0.32465
# Poissons Ratio (z) = -0.01556 0.20447
#
# Static dielectric constant tensor:
#      x y z
#    x 2.072660 0.000000 0.021000 
#    y 0.000000 2.037920 0.000000 
#    z 0.021000 0.000000 1.999600 
# 
# From -- ./inp_files/20381.got.cif
#   From: 2010.05.17/outbox.cif.g08.bks.cpg/sg9_11_cif.got.tgz:20381.got - 2010.06.03 20:04:27.
