data_PCOD9135447
_publ_section_title
;
Structure prediction by ZEFSAII (Michael W. Deem and Ramdas Pophale) SiO2 
 PCOD9135447
Probable space group: C C
;
_chemical_formula_sum "Si O2"
_cell_formula_units_Z 32
_cell_length_a 11.861240
_cell_length_b 19.397439
_cell_length_c 8.154462
_cell_angle_alpha 90.000000
_cell_angle_beta 128.643656
_cell_angle_gamma 90.000000
_cell_volume 1465.364934
_symmetry_space_group_name_H-M "C C"
_symmetry_group_IT_number 9
_symmetry_cell_setting 'monoclinic'
loop_
_space_group_symop_operation_xyz
x,y,z
x,-y,1/2+z
1/2+x,1/2+y,z
1/2+x,1/2-y,1/2+z
loop_
_atom_site_type_symbol
_atom_site_label
_atom_site_fract_x
_atom_site_fract_y
_atom_site_fract_z
Si Si1 0.313160 0.455721 0.757260
Si Si2 0.365558 0.277160 0.285751
Si Si3 0.709015 0.613580 0.734267
Si Si4 0.463286 0.418814 0.236449
Si Si5 0.038029 0.614030 0.971826
Si Si6 0.980208 0.157348 0.305397
Si Si7 0.571495 0.790024 0.192157
Si Si8 0.742098 0.226677 0.317506
O O1 0.398225 0.524984 0.798838
O O2 0.141278 0.452498 0.583667
O O3 0.361499 0.400925 0.660241
O O4 0.362051 0.426571 0.980388
O O5 0.453543 0.345627 0.318310
O O6 0.466016 0.214769 0.438971
O O7 0.239576 0.292381 0.301542
O O8 0.280605 0.264720 0.040990
O O9 0.623478 0.577951 0.805492
O O10 0.608086 0.606387 0.483139
O O11 0.697887 0.696881 0.728524
O O12 0.875718 0.596951 0.874187
O O13 0.034270 0.651224 0.790071
O O14 0.117299 0.672113 0.157905
O O15 0.885943 0.203204 0.349844
O O16 0.040520 0.213933 0.238705
#
# Coordination Sequence:
#
# PCOD9135447 Si02
#       8
#     4   4   4   4   4   4   4   4
#     4  10  24  44  68  90 134 187 241 262 336 413
#     4  12  25  39  60 105 138 172 221 292 342 388
#     4  11  19  37  70  94 124 164 239 273 333 406
#     4  11  25  45  68  94 129 194 229 281 327 420
#     4  11  22  40  70  97 133 186 225 281 343 422
#     4  10  20  40  64  92 130 185 217 273 346 421
#     4  12  24  36  65 104 142 164 222 290 348 406
#     4  11  19  39  63  96 138 176 220 262 363 422
#
# _framework density 21.837561999999998
#
# number of rings (size 3 to 8) (size 9 to 14) (size 15 to 20)
#    0.000    1.000    6.250    3.000    5.250    0.000 
#    0.000    2.500    2.750    0.000    0.000    0.000 
#    0.000    0.000    0.000    0.000    0.000    0.000 
#
# Total GULP energy -89195.699275 kJ/mol
# GULP energy per Si atom -5574.731205 kJ/mol
# Density = 2.178786 g / cm^3
# Si number density = 21.837562 Si / 1000 Ang^3
#
#
#
# Elastic Constant Matrix: (Units=GPa)
#
#
# Indices 1 2 3 4 5 6 
#
# 1 125.7769 10.0735 42.8954 0.0000 41.2421 0.0000
# 2 10.0735 22.5665 9.6404 0.0000 3.7853 0.0000
# 3 42.8954 9.6404 90.5229 0.0000 13.3918 0.0000
# 4 0.0000 0.0000 0.0000 13.4516 0.0000 2.4744
# 5 41.2421 3.7853 13.3918 0.0000 44.7708 0.0000
# 6 0.0000 0.0000 0.0000 2.4744 0.0000 34.8297
#
#
#
# Elastic Compliance Matrix: (Units=1/GPa)
#
#
# Indices 1 2 3 4 5 6 
#
# 1 0.013090 -0.002190 -0.004408 0.000000 -0.010555 0.000000
# 2 -0.002190 0.047074 -0.003856 0.000000 -0.000809 0.000000
# 3 -0.004408 -0.003856 0.013495 0.000000 0.000350 0.000000
# 4 0.000000 0.000000 0.000000 0.075325 0.000000 -0.005351
# 5 -0.010555 -0.000809 0.000350 0.000000 0.032023 0.000000
# 6 0.000000 0.000000 0.000000 -0.005351 0.000000 0.029091
#
#
# Mechanical properties :
#
#
# Convention : Reuss Voigt Hill
#
# Bulk Modulus (GPa) = 18.95693 40.45387 29.70540
# Shear Modulus (GPa) = 20.11352 30.36090 25.23721
#
# Velocity S-wave (km/s) = 3.03818 3.73273 3.40322
# Velocity P-wave (km/s) = 4.58335 6.09449 5.39212
#
# Compressibility (1/GPa) = 0.05275115
#
# Stress axis : x y z
#
# Youngs Moduli (GPa) = 76.39246 21.24316 74.10338
#
# Poissons Ratio (x) = 0.04652 0.32667
# Poissons Ratio (y) = 0.16728 0.28573
# Poissons Ratio (z) = 0.33676 0.08191
#
# Static dielectric constant tensor:
#      x y z
#    x 1.839500 0.000000 -0.039550 
#    y 0.000000 1.825780 0.000000 
#    z -0.039550 0.000000 1.997180 
# 
# From -- ./inp_files/8388.got.cif
#   From: 2010.05.17/outbox.cif.g08.bks.cpg/sg9_5_cif.got.tgz:8388.got - 2010.06.03 20:04:27.
