data_PCOD9135285
_publ_section_title
;
Structure prediction by ZEFSAII (Michael W. Deem and Ramdas Pophale) SiO2 
 PCOD9135285
Probable space group: C C
;
_chemical_formula_sum "Si O2"
_cell_formula_units_Z 32
_cell_length_a 11.725874
_cell_length_b 8.401111
_cell_length_c 19.937331
_cell_angle_alpha 90.000000
_cell_angle_beta 38.822781
_cell_angle_gamma 90.000000
_cell_volume 1231.279579
_symmetry_space_group_name_H-M "C C"
_symmetry_group_IT_number 9
_symmetry_cell_setting 'monoclinic'
loop_
_space_group_symop_operation_xyz
x,y,z
x,-y,1/2+z
1/2+x,1/2+y,z
1/2+x,1/2-y,1/2+z
loop_
_atom_site_type_symbol
_atom_site_label
_atom_site_fract_x
_atom_site_fract_y
_atom_site_fract_z
Si Si1 0.431260 0.793838 0.755350
Si Si2 0.425691 0.259605 0.607721
Si Si3 0.784402 0.540629 0.913821
Si Si4 0.813515 0.987610 0.762016
Si Si5 0.672014 0.938862 0.087330
Si Si6 0.588406 0.708592 0.231140
Si Si7 0.451510 0.863928 0.959543
Si Si8 0.002481 0.933589 0.351482
O O1 0.286067 0.920922 0.850239
O O2 0.370464 0.668937 0.726939
O O3 0.463635 0.679070 0.804920
O O4 0.599638 0.899289 0.653470
O O5 0.603860 0.359169 0.505234
O O6 0.295906 0.388751 0.701474
O O7 0.498962 0.134410 0.628086
O O8 0.361788 0.166750 0.571759
O O9 0.955515 0.658906 0.824740
O O10 0.819451 0.438824 0.965057
O O11 0.623606 0.979602 0.887812
O O12 0.962839 0.891611 0.736364
O O13 0.723417 0.809689 0.121508
O O14 0.827479 0.975205 0.962272
O O15 0.634745 0.573771 0.264796
O O16 0.537335 0.698075 0.892651
#
# Coordination Sequence:
#
# PCOD9135285 Si02
#       8
#     4   4   4   4   4   4   4   4
#     4   9  21  37  66  94 123 170 224 264 332 410
#     4  11  22  42  67  92 132 175 221 272 349 397
#     4  10  20  41  66  91 125 177 215 278 334 403
#     4  10  21  41  62  93 130 170 215 284 332 398
#     4  10  20  38  70  95 125 176 225 268 338 407
#     4   9  18  40  65  91 124 171 218 269 333 401
#     4  11  24  40  64  95 135 172 228 279 336 403
#     4  10  20  39  64  95 132 175 212 282 332 393
#
# _framework density 25.989222999999999
#
# number of rings (size 3 to 8) (size 9 to 14) (size 15 to 20)
#    0.000    2.000    2.500    0.750    3.500    3.000 
#    6.750    0.000    5.500    0.000    0.000    0.000 
#    0.000    0.000    0.000    0.000    0.000    0.000 
#
# Total GULP energy -89551.155709 kJ/mol
# GULP energy per Si atom -5596.947232 kJ/mol
# Density = 2.593007 g / cm^3
# Si number density = 25.989223 Si / 1000 Ang^3
#
#
#
# Elastic Constant Matrix: (Units=GPa)
#
#
# Indices 1 2 3 4 5 6 
#
# 1 46.2669 32.7391 21.8654 0.0000 18.9731 0.0000
# 2 32.7391 138.5038 55.7750 0.0000 14.7097 0.0000
# 3 21.8654 55.7750 126.4165 0.0000 11.8235 0.0000
# 4 0.0000 0.0000 0.0000 52.5627 0.0000 5.1172
# 5 18.9731 14.7097 11.8235 0.0000 37.8303 0.0000
# 6 0.0000 0.0000 0.0000 5.1172 0.0000 37.7754
#
#
#
# Elastic Compliance Matrix: (Units=1/GPa)
#
#
# Indices 1 2 3 4 5 6 
#
# 1 0.031707 -0.005325 -0.001897 0.000000 -0.013239 0.000000
# 2 -0.005325 0.009868 -0.003424 0.000000 -0.000096 0.000000
# 3 -0.001897 -0.003424 0.009823 0.000000 -0.000788 0.000000
# 4 0.000000 0.000000 0.000000 0.019279 0.000000 -0.002612
# 5 -0.013239 -0.000096 -0.000788 0.000000 0.033357 0.000000
# 6 0.000000 0.000000 0.000000 -0.002612 0.000000 0.026826
#
#
# Mechanical properties :
#
#
# Convention : Reuss Voigt Hill
#
# Bulk Modulus (GPa) = 33.21495 59.10511 46.16003
# Shear Modulus (GPa) = 30.82891 39.02086 34.92488
#
# Velocity S-wave (km/s) = 3.44789 3.87903 3.66979
# Velocity P-wave (km/s) = 5.35337 6.54630 5.97966
#
# Compressibility (1/GPa) = 0.03010692
#
# Stress axis : x y z
#
# Youngs Moduli (GPa) = 31.53868 101.34168 101.80681
#
# Poissons Ratio (x) = 0.53965 0.19308
# Poissons Ratio (y) = 0.16795 0.34854
# Poissons Ratio (z) = 0.05981 0.34695
#
# Static dielectric constant tensor:
#      x y z
#    x 2.072080 0.000000 0.044330 
#    y 0.000000 2.043050 0.000000 
#    z 0.044330 0.000000 2.033350 
# 
# From -- ./inp_files/25562.got.cif
#   From: 2010.05.17/outbox.cif.g08.bks.cpg/sg9_13_cif.got.tgz:25562.got - 2010.06.03 20:04:27.
