data_PCOD9135968
_publ_section_title
;
Structure prediction by ZEFSAII (Michael W. Deem and Ramdas Pophale) SiO2 
 PCOD9135968
Probable space group: C C
;
_chemical_formula_sum "Si O2"
_cell_formula_units_Z 32
_cell_length_a 27.246121
_cell_length_b 5.568890
_cell_length_c 18.748372
_cell_angle_alpha 90.000000
_cell_angle_beta 26.008880
_cell_angle_gamma 90.000000
_cell_volume 1247.431830
_symmetry_space_group_name_H-M "C C"
_symmetry_group_IT_number 9
_symmetry_cell_setting 'monoclinic'
loop_
_space_group_symop_operation_xyz
x,y,z
x,-y,1/2+z
1/2+x,1/2+y,z
1/2+x,1/2-y,1/2+z
loop_
_atom_site_type_symbol
_atom_site_label
_atom_site_fract_x
_atom_site_fract_y
_atom_site_fract_z
Si Si1 0.421480 0.642733 0.172960
Si Si2 0.320005 0.296387 0.507437
Si Si3 0.716881 0.128557 0.999312
Si Si4 0.888847 0.286653 0.454494
Si Si5 0.252546 0.984220 0.836152
Si Si6 0.094033 0.372186 0.037785
Si Si7 0.972567 0.760579 0.997279
Si Si8 0.683068 0.937456 0.286857
O O1 0.343799 0.459817 0.318190
O O2 0.492029 0.495466 0.021242
O O3 0.330589 0.785229 0.246218
O O4 0.472350 0.834581 0.162740
O O5 0.221779 0.322196 0.576897
O O6 0.395722 0.538238 0.401307
O O7 0.259898 0.337741 0.662751
O O8 0.387824 0.047989 0.419499
O O9 0.710071 0.375778 0.966008
O O10 0.629624 0.950301 0.071467
O O11 0.971330 0.242687 0.413339
O O12 0.760192 0.270197 0.652666
O O13 0.345078 0.811864 0.681349
O O14 0.142698 0.112273 0.950147
O O15 0.153630 0.565852 0.908364
O O16 0.063806 0.571086 0.904423
#
# Coordination Sequence:
#
# PCOD9135968 Si02
#       8
#     4   4   4   4   4   4   4   4
#     4  10  23  38  67  99 133 171 227 286 341 404
#     4  10  25  46  66  95 137 183 226 276 336 407
#     4  10  24  43  63  96 133 183 228 275 340 413
#     4  10  24  42  67  93 134 180 219 274 341 391
#     4  10  21  37  66  88 135 167 223 273 335 399
#     4  11  22  39  68 100 131 173 223 288 347 394
#     4  11  22  38  64 104 128 172 226 278 347 403
#     4  10  23  39  67 101 133 169 224 284 335 411
#
# _framework density 25.652704
#
# number of rings (size 3 to 8) (size 9 to 14) (size 15 to 20)
#    0.750    1.000    1.250    3.000   10.500    0.000 
#    2.250    1.250    0.000    0.000    0.000    0.000 
#    0.000    0.000    0.000    0.000    0.000    0.000 
#
# Total GULP energy -89091.830352 kJ/mol
# GULP energy per Si atom -5568.239397 kJ/mol
# Density = 2.559432 g / cm^3
# Si number density = 25.652704 Si / 1000 Ang^3
#
#
#
# Elastic Constant Matrix: (Units=GPa)
#
#
# Indices 1 2 3 4 5 6 
#
# 1 150.6450 28.3529 2.9584 0.0009 2.3491 0.0060
# 2 28.3529 125.1821 -2.3436 -0.0237 1.7178 0.0211
# 3 2.9584 -2.3436 40.2705 -0.0139 -4.6384 -0.0046
# 4 0.0009 -0.0237 -0.0139 15.0663 -0.0043 -7.2446
# 5 2.3491 1.7178 -4.6384 -0.0043 31.2718 0.0008
# 6 0.0060 0.0211 -0.0046 -7.2446 0.0008 29.7615
#
#
#
# Elastic Compliance Matrix: (Units=1/GPa)
#
#
# Indices 1 2 3 4 5 6 
#
# 1 0.006957 -0.001581 -0.000665 -0.000004 -0.000534 -0.000001
# 2 -0.001581 0.008361 0.000573 0.000013 -0.000255 -0.000002
# 3 -0.000665 0.000573 0.025349 0.000031 0.003778 0.000011
# 4 -0.000004 0.000013 0.000031 0.075172 0.000014 0.018298
# 5 -0.000534 -0.000255 0.003778 0.000014 0.032592 0.000003
# 6 -0.000001 -0.000002 0.000011 0.018298 0.000003 0.038055
#
#
# Mechanical properties :
#
#
# Convention : Reuss Voigt Hill
#
# Bulk Modulus (GPa) = 26.79330 41.55924 34.17627
# Shear Modulus (GPa) = 24.71923 34.36189 29.54056
#
# Velocity S-wave (km/s) = 3.10758 3.66389 3.39714
# Velocity P-wave (km/s) = 4.83149 5.84249 5.36088
#
# Compressibility (1/GPa) = 0.03732276
#
# Stress axis : x y z
#
# Youngs Moduli (GPa) = 143.73936 119.60788 39.44852
#
# Poissons Ratio (x) = 0.18908 0.02622
# Poissons Ratio (y) = 0.22723 -0.02261
# Poissons Ratio (z) = 0.09553 -0.06857
#
# Static dielectric constant tensor:
#      x y z
#    x 2.054620 0.000010 0.067650 
#    y 0.000010 2.070150 0.000030 
#    z 0.067650 0.000030 2.083260 
# 
# From -- ./inp_files/34558.got.cif
#   From: 2010.05.17/outbox.cif.g08.bks.cpg/sg9_18_cif.got.tgz:34558.got - 2010.06.03 20:04:27.
