data_PCOD9135964
_publ_section_title
;
Structure prediction by ZEFSAII (Michael W. Deem and Ramdas Pophale) SiO2 
 PCOD9135964
Probable space group: C C
;
_chemical_formula_sum "Si O2"
_cell_formula_units_Z 32
_cell_length_a 18.204622
_cell_length_b 13.993412
_cell_length_c 13.718682
_cell_angle_alpha 90.000000
_cell_angle_beta 20.067881
_cell_angle_gamma 90.000000
_cell_volume 1199.169068
_symmetry_space_group_name_H-M "C C"
_symmetry_group_IT_number 9
_symmetry_cell_setting 'monoclinic'
loop_
_space_group_symop_operation_xyz
x,y,z
x,-y,1/2+z
1/2+x,1/2+y,z
1/2+x,1/2-y,1/2+z
loop_
_atom_site_type_symbol
_atom_site_label
_atom_site_fract_x
_atom_site_fract_y
_atom_site_fract_z
Si Si1 0.338600 0.025802 0.904460
Si Si2 0.589683 0.390598 0.078398
Si Si3 0.223676 0.968682 0.249214
Si Si4 0.700700 0.742400 0.853812
Si Si5 0.750559 0.051598 0.252552
Si Si6 0.838448 0.211827 0.754795
Si Si7 0.290756 0.755504 0.433474
Si Si8 0.691747 0.137860 0.744428
O O1 0.558088 0.029874 0.569391
O O2 0.158848 0.955903 0.081618
O O3 0.254024 0.133707 0.005484
O O4 0.368392 0.992011 0.976762
O O5 0.645204 0.279679 0.027935
O O6 0.724217 0.444844 0.825299
O O7 0.368692 0.370574 0.297511
O O8 0.264126 0.865572 0.246779
O O9 0.980319 0.964635 0.513642
O O10 0.421551 0.737409 0.164368
O O11 0.572750 0.754572 0.121834
O O12 0.746629 0.836381 0.732675
O O13 0.697889 0.976221 0.234323
O O14 0.856787 0.161612 0.626528
O O15 0.007022 0.298582 0.526170
O O16 0.221913 0.679641 0.600232
#
# Coordination Sequence:
#
# PCOD9135964 Si02
#       8
#     4   4   4   4   4   4   4   4
#     4  11  25  47  74 106 149 200 252 300 390 445
#     4  11  22  43  70 105 151 192 244 315 364 456
#     4  12  25  48  78 104 152 204 246 317 384 446
#     4  11  24  46  69 102 152 195 249 309 371 454
#     4  11  25  48  70 110 149 195 253 313 371 460
#     4  10  21  37  65 103 149 187 227 310 371 429
#     4  11  23  40  73 106 141 193 248 312 361 447
#     4  11  21  39  71 108 143 182 247 308 376 439
#
# _framework density 26.685144999999999
#
# number of rings (size 3 to 8) (size 9 to 14) (size 15 to 20)
#    0.000    1.000    5.000    2.250    1.750    1.000 
#    2.250    0.000    2.750    0.000    0.000    0.000 
#    0.000    0.000    0.000    0.000    0.000    0.000 
#
# Total GULP energy -89263.440944 kJ/mol
# GULP energy per Si atom -5578.965059 kJ/mol
# Density = 2.662441 g / cm^3
# Si number density = 26.685145 Si / 1000 Ang^3
#
#
#
# Elastic Constant Matrix: (Units=GPa)
#
#
# Indices 1 2 3 4 5 6 
#
# 1 152.7527 86.4178 22.0961 -0.0047 14.1316 0.0070
# 2 86.4178 194.8186 12.7097 -0.0040 31.5304 0.0075
# 3 22.0961 12.7097 39.2360 -0.0028 -2.2284 0.0027
# 4 -0.0047 -0.0040 -0.0028 30.8314 0.0030 -4.6332
# 5 14.1316 31.5304 -2.2284 0.0030 42.3317 -0.0038
# 6 0.0070 0.0075 0.0027 -4.6332 -0.0038 67.0189
#
#
#
# Elastic Compliance Matrix: (Units=1/GPa)
#
#
# Indices 1 2 3 4 5 6 
#
# 1 0.009323 -0.003790 -0.004051 0.000001 -0.000503 0.000000
# 2 -0.003790 0.007563 -0.000565 0.000001 -0.004398 -0.000001
# 3 -0.004051 -0.000565 0.028136 0.000001 0.003255 0.000000
# 4 0.000001 0.000001 0.000001 0.032775 -0.000003 0.002266
# 5 -0.000503 -0.004398 0.003255 -0.000003 0.027238 0.000002
# 6 0.000000 -0.000001 0.000000 0.002266 0.000002 0.015078
#
#
# Mechanical properties :
#
#
# Convention : Reuss Voigt Hill
#
# Bulk Modulus (GPa) = 35.44936 69.91718 52.68327
# Shear Modulus (GPa) = 34.16970 45.74198 39.95584
#
# Velocity S-wave (km/s) = 3.58226 4.14470 3.87370
# Velocity P-wave (km/s) = 5.51573 7.01159 6.30816
#
# Compressibility (1/GPa) = 0.02820925
#
# Stress axis : x y z
#
# Youngs Moduli (GPa) = 107.25975 132.22777 35.54131
#
# Poissons Ratio (x) = 0.50113 0.14399
# Poissons Ratio (y) = 0.40650 0.02009
# Poissons Ratio (z) = 0.43454 0.07474
#
# Static dielectric constant tensor:
#      x y z
#    x 2.655600 0.000000 -0.396710 
#    y 0.000000 1.933550 0.000000 
#    z -0.396710 0.000000 2.286230 
# 
# From -- ./inp_files/19407.got.cif
#   From: 2010.05.17/outbox.cif.g08.bks.cpg/sg9_10_cif.got.tgz:19407.got - 2010.06.03 20:04:27.
