data_PCOD9135151
_publ_section_title
;
Structure prediction by ZEFSAII (Michael W. Deem and Ramdas Pophale) SiO2 
 PCOD9135151
Probable space group: C C
;
_chemical_formula_sum "Si O2"
_cell_formula_units_Z 32
_cell_length_a 18.091125
_cell_length_b 12.108280
_cell_length_c 8.401700
_cell_angle_alpha 90.000000
_cell_angle_beta 129.342817
_cell_angle_gamma 90.000000
_cell_volume 1423.313769
_symmetry_space_group_name_H-M "C C"
_symmetry_group_IT_number 9
_symmetry_cell_setting 'monoclinic'
loop_
_space_group_symop_operation_xyz
x,y,z
x,-y,1/2+z
1/2+x,1/2+y,z
1/2+x,1/2-y,1/2+z
loop_
_atom_site_type_symbol
_atom_site_label
_atom_site_fract_x
_atom_site_fract_y
_atom_site_fract_z
Si Si1 0.967980 0.040236 0.235010
Si Si2 0.896791 0.150813 0.460275
Si Si3 0.736187 0.800429 0.528240
Si Si4 0.406309 0.760616 0.028176
Si Si5 0.171958 0.925243 0.922899
Si Si6 0.799599 0.451531 0.818720
Si Si7 0.567864 0.912762 0.135367
Si Si8 0.472682 0.893248 0.658285
O O1 0.953457 0.095108 0.387745
O O2 0.076572 0.014333 0.340358
O O3 0.936981 0.134177 0.063260
O O4 0.908589 0.930209 0.125452
O O5 0.786883 0.150293 0.251339
O O6 0.938107 0.272193 0.555684
O O7 0.828925 0.745279 0.566460
O O8 0.667029 0.699823 0.475252
O O9 0.676200 0.879389 0.329244
O O10 0.343771 0.834790 0.822229
O O11 0.501305 0.835738 0.160756
O O12 0.201932 0.927981 0.781175
O O13 0.264631 0.975743 0.128698
O O14 0.880094 0.524599 0.019248
O O15 0.545185 0.040481 0.141047
O O16 0.528117 0.888476 0.903603
#
# Coordination Sequence:
#
# PCOD9135151 Si02
#       8
#     4   4   4   4   4   4   4   4
#     4  11  24  42  65  96 141 185 224 289 343 414
#     4  11  26  45  67 100 143 184 234 279 359 418
#     4  10  22  43  68  98 139 184 230 282 346 423
#     4   9  21  38  65  94 134 177 221 280 347 393
#     4  11  20  38  65  97 131 178 227 279 335 404
#     4  10  20  37  65  98 128 168 233 283 334 400
#     4  11  24  42  75 103 139 178 239 290 353 413
#     4  11  25  43  72 106 135 182 232 294 355 415
#
# _framework density 22.482745999999999
#
# number of rings (size 3 to 8) (size 9 to 14) (size 15 to 20)
#    0.000    1.500    2.500    2.250    8.750    4.000 
#    0.000    1.250    2.750    0.000    0.000    0.000 
#    0.000    0.000    0.000    0.000    0.000    0.000 
#
# Total GULP energy -89073.997437 kJ/mol
# GULP energy per Si atom -5567.124840 kJ/mol
# Density = 2.243157 g / cm^3
# Si number density = 22.482746 Si / 1000 Ang^3
#
#
#
# Elastic Constant Matrix: (Units=GPa)
#
#
# Indices 1 2 3 4 5 6 
#
# 1 42.5909 6.3401 25.3606 0.0000 -0.4296 0.0000
# 2 6.3401 117.0874 57.9429 0.0000 0.5231 0.0000
# 3 25.3606 57.9429 140.3319 0.0000 10.1550 0.0000
# 4 0.0000 0.0000 0.0000 41.8343 0.0000 -1.3518
# 5 -0.4296 0.5231 10.1550 0.0000 16.9125 0.0000
# 6 0.0000 0.0000 0.0000 -1.3518 0.0000 20.0160
#
#
#
# Elastic Compliance Matrix: (Units=1/GPa)
#
#
# Indices 1 2 3 4 5 6 
#
# 1 0.026697 0.001343 -0.005672 0.000000 0.004042 0.000000
# 2 0.001343 0.010898 -0.004935 0.000000 0.002660 0.000000
# 3 -0.005672 -0.004935 0.010651 0.000000 -0.006387 0.000000
# 4 0.000000 0.000000 0.000000 0.023956 0.000000 0.001618
# 5 0.004042 0.002660 -0.006387 0.000000 0.062983 0.000000
# 6 0.000000 0.000000 0.000000 0.001618 0.000000 0.050069
#
#
# Mechanical properties :
#
#
# Convention : Reuss Voigt Hill
#
# Bulk Modulus (GPa) = 33.64872 53.25525 43.45198
# Shear Modulus (GPa) = 23.39853 29.77700 26.58777
#
# Velocity S-wave (km/s) = 3.22954 3.64323 3.44260
# Velocity P-wave (km/s) = 5.37639 6.43709 5.93050
#
# Compressibility (1/GPa) = 0.02971881
#
# Stress axis : x y z
#
# Youngs Moduli (GPa) = 37.45702 91.75785 93.88945
#
# Poissons Ratio (x) = -0.12324 0.53252
# Poissons Ratio (y) = -0.05031 0.46335
# Poissons Ratio (z) = 0.21245 0.45284
#
# Static dielectric constant tensor:
#      x y z
#    x 1.867940 0.000000 -0.003080 
#    y 0.000000 1.875430 0.000000 
#    z -0.003080 0.000000 1.907820 
# 
# From -- ./inp_files/9119.got.cif
#   From: 2010.05.17/outbox.cif.g08.bks.cpg/sg9_5_cif.got.tgz:9119.got - 2010.06.03 20:04:27.
