data_PCOD9135927
_publ_section_title
;
Structure prediction by ZEFSAII (Michael W. Deem and Ramdas Pophale) SiO2 
 PCOD9135927
Probable space group: C C
;
_chemical_formula_sum "Si O2"
_cell_formula_units_Z 32
_cell_length_a 6.686226
_cell_length_b 19.234068
_cell_length_c 12.217843
_cell_angle_alpha 90.000000
_cell_angle_beta 79.167823
_cell_angle_gamma 90.000000
_cell_volume 1543.258400
_symmetry_space_group_name_H-M "C C"
_symmetry_group_IT_number 9
_symmetry_cell_setting 'monoclinic'
loop_
_space_group_symop_operation_xyz
x,y,z
x,-y,1/2+z
1/2+x,1/2+y,z
1/2+x,1/2-y,1/2+z
loop_
_atom_site_type_symbol
_atom_site_label
_atom_site_fract_x
_atom_site_fract_y
_atom_site_fract_z
Si Si1 0.696320 0.354404 0.115210
Si Si2 0.756929 0.933724 0.763713
Si Si3 0.970683 0.255804 0.494181
Si Si4 0.231966 0.375503 0.527727
Si Si5 0.038438 0.244174 0.071433
Si Si6 0.316246 0.944386 0.893687
Si Si7 0.520588 0.554156 0.823393
Si Si8 0.099769 0.828002 0.786541
O O1 0.534760 0.298130 0.083723
O O2 0.617840 0.387958 0.235031
O O3 0.906181 0.312014 0.108870
O O4 0.739976 0.412301 0.016795
O O5 0.704307 0.918045 0.642751
O O6 0.558169 0.950099 0.856169
O O7 0.882883 0.867706 0.797046
O O8 0.912341 0.997557 0.756843
O O9 0.027745 0.335151 0.514094
O O10 0.104983 0.229782 0.379199
O O11 0.739178 0.244072 0.480881
O O12 0.386524 0.312089 0.537569
O O13 0.345675 0.418245 0.422357
O O14 0.133942 0.209933 0.169736
O O15 0.254455 0.887217 0.808343
O O16 0.193719 0.014057 0.875623
#
# Coordination Sequence:
#
# PCOD9135927 Si02
#       8
#     4   4   4   4   4   4   4   4
#     4  10  23  39  57  92 119 154 199 245 295 348
#     4  10  21  40  61  83 119 163 197 245 291 347
#     4  10  21  37  60  86 119 153 190 247 296 356
#     4  10  23  39  57  92 119 154 199 245 295 348
#     4  10  21  37  60  86 119 153 190 247 296 356
#     4  10  21  40  61  83 119 163 197 245 291 347
#     4  11  24  38  60  88 124 155 202 244 284 361
#     4   9  20  36  58  88 112 149 198 238 300 347
#
# _framework density 20.735348999999999
#
# number of rings (size 3 to 8) (size 9 to 14) (size 15 to 20)
#    0.000    2.000    0.000    2.250    3.500    3.000 
#    4.500    0.000    0.000    0.000    0.000    0.000 
#    0.000    0.000    0.000    0.000    0.000    0.000 
#
# Total GULP energy -89312.808236 kJ/mol
# GULP energy per Si atom -5582.050515 kJ/mol
# Density = 2.068815 g / cm^3
# Si number density = 20.735349 Si / 1000 Ang^3
#
#
#
# Elastic Constant Matrix: (Units=GPa)
#
#
# Indices 1 2 3 4 5 6 
#
# 1 55.5165 2.9857 5.5288 0.0000 -20.9600 0.0000
# 2 2.9857 61.3467 33.5023 0.0000 -2.9618 0.0000
# 3 5.5288 33.5023 66.3970 0.0000 -1.7008 0.0000
# 4 0.0000 0.0000 0.0000 22.4764 0.0000 -7.4899
# 5 -20.9600 -2.9618 -1.7008 0.0000 26.9372 0.0000
# 6 0.0000 0.0000 0.0000 -7.4899 0.0000 21.4798
#
#
#
# Elastic Compliance Matrix: (Units=1/GPa)
#
#
# Indices 1 2 3 4 5 6 
#
# 1 0.025711 0.000832 -0.002049 0.000000 0.019968 0.000000
# 2 0.000832 0.022612 -0.011417 0.000000 0.002413 0.000000
# 3 -0.002049 -0.011417 0.020953 0.000000 -0.001527 0.000000
# 4 0.000000 0.000000 0.000000 0.050341 0.000000 0.017554
# 5 0.019968 0.002413 -0.001527 0.000000 0.052829 0.000000
# 6 0.000000 0.000000 0.000000 0.017554 0.000000 0.052676
#
#
# Mechanical properties :
#
#
# Convention : Reuss Voigt Hill
#
# Bulk Modulus (GPa) = 22.72355 29.69932 26.21143
# Shear Modulus (GPa) = 18.86374 23.59490 21.22932
#
# Velocity S-wave (km/s) = 3.01946 3.37695 3.20319
# Velocity P-wave (km/s) = 4.81028 5.43683 5.13313
#
# Compressibility (1/GPa) = 0.04400722
#
# Stress axis : x y z
#
# Youngs Moduli (GPa) = 38.89425 44.22504 47.72577
#
# Poissons Ratio (x) = -0.03678 0.09780
# Poissons Ratio (y) = -0.03235 0.54487
# Poissons Ratio (z) = 0.07970 0.50491
#
# Static dielectric constant tensor:
#      x y z
#    x 1.753530 0.000000 0.002980 
#    y 0.000000 1.732460 0.000000 
#    z 0.002980 0.000000 1.725740 
# 
# From -- ./inp_files/13487.got.cif
#   From: 2010.05.17/outbox.cif.g08.bks.cpg/sg9_7_cif.got.tgz:13487.got - 2010.06.03 20:04:27.
