data_PCOD9135061
_publ_section_title
;
Structure prediction by ZEFSAII (Michael W. Deem and Ramdas Pophale) SiO2 
 PCOD9135061
Probable space group: C C
;
_chemical_formula_sum "Si O2"
_cell_formula_units_Z 32
_cell_length_a 15.668870
_cell_length_b 22.203872
_cell_length_c 14.884602
_cell_angle_alpha 90.000000
_cell_angle_beta 160.727629
_cell_angle_gamma 90.000000
_cell_volume 1709.210338
_symmetry_space_group_name_H-M "C C"
_symmetry_group_IT_number 9
_symmetry_cell_setting 'monoclinic'
loop_
_space_group_symop_operation_xyz
x,y,z
x,-y,1/2+z
1/2+x,1/2+y,z
1/2+x,1/2-y,1/2+z
loop_
_atom_site_type_symbol
_atom_site_label
_atom_site_fract_x
_atom_site_fract_y
_atom_site_fract_z
Si Si1 0.647760 0.973036 0.625000
Si Si2 0.142027 0.720512 0.641830
Si Si3 0.965080 0.929262 0.647971
Si Si4 0.829071 0.596911 0.087144
Si Si5 0.349518 0.428967 0.002913
Si Si6 0.486096 0.096282 0.564343
Si Si7 0.664781 0.525639 0.525225
Si Si8 0.219145 0.227995 0.018927
O O1 0.735550 0.926594 0.789596
O O2 0.407424 0.952437 0.325193
O O3 0.549295 0.034649 0.574423
O O4 0.906978 0.986704 0.826475
O O5 0.043131 0.653594 0.559221
O O6 0.176659 0.736957 0.571062
O O7 0.921745 0.765131 0.460104
O O8 0.693432 0.899092 0.352150
O O9 0.905663 0.999999 0.573190
O O10 0.194609 0.907979 0.810535
O O11 0.076477 0.928588 0.859225
O O12 0.624461 0.599683 0.801206
O O13 0.776152 0.657993 0.088495
O O14 0.760358 0.537015 0.074772
O O15 0.122407 0.591877 0.344355
O O16 0.955191 0.239804 0.705313
#
# Coordination Sequence:
#
# PCOD9135061 Si02
#       8
#     4   4   4   4   4   4   4   4
#     4  11  21  31  53  79 108 137 189 227 273 330
#     4  10  22  35  51  76 113 140 193 229 252 317
#     4  10  20  37  51  76 106 146 192 226 270 342
#     4  11  21  35  56  71 113 159 179 219 285 318
#     4  10  20  37  51  76 106 146 192 226 270 342
#     4  11  21  35  56  71 113 159 179 219 285 318
#     4  11  21  31  53  79 108 137 189 227 273 330
#     4  10  22  35  51  76 113 140 193 229 252 317
#
# _framework density 18.722096000000001
#
# number of rings (size 3 to 8) (size 9 to 14) (size 15 to 20)
#    0.000    1.500    0.000    9.000    7.000    0.000 
#    0.000    0.000    0.000    0.000    0.000    0.000 
#    0.000   70.000    0.000    0.000    0.000    0.000 
#
# Total GULP energy -89221.448278 kJ/mol
# GULP energy per Si atom -5576.340517 kJ/mol
# Density = 1.867948 g / cm^3
# Si number density = 18.722096 Si / 1000 Ang^3
#
#
#
# Elastic Constant Matrix: (Units=GPa)
#
#
# Indices 1 2 3 4 5 6 
#
# 1 36.6216 -1.6775 16.6463 -0.0009 -11.9164 -0.0017
# 2 -1.6775 40.8495 -0.4824 -0.0012 -8.7479 -0.0005
# 3 16.6463 -0.4824 131.9162 -0.0095 2.1456 -0.0038
# 4 -0.0009 -0.0012 -0.0095 22.5946 -0.0037 9.3392
# 5 -11.9164 -8.7479 2.1456 -0.0037 37.5407 -0.0010
# 6 -0.0017 -0.0005 -0.0038 9.3392 -0.0010 22.6065
#
#
#
# Elastic Compliance Matrix: (Units=1/GPa)
#
#
# Indices 1 2 3 4 5 6 
#
# 1 0.033279 0.003821 -0.004376 0.000001 0.011704 0.000002
# 2 0.003821 0.026205 -0.000506 0.000003 0.007348 0.000000
# 3 -0.004376 -0.000506 0.008163 0.000003 -0.001973 0.000000
# 4 0.000001 0.000003 0.000003 0.053372 0.000005 -0.022049
# 5 0.011704 0.007348 -0.001973 0.000005 0.032178 0.000000
# 6 0.000002 0.000000 0.000000 -0.022049 0.000000 0.053344
#
#
# Mechanical properties :
#
#
# Convention : Reuss Voigt Hill
#
# Bulk Modulus (GPa) = 15.26116 26.48447 20.87281
# Shear Modulus (GPa) = 21.69168 29.54175 25.61672
#
# Velocity S-wave (km/s) = 3.40753 3.97660 3.70301
# Velocity P-wave (km/s) = 4.86321 5.93812 5.42734
#
# Compressibility (1/GPa) = 0.06552584
#
# Stress axis : x y z
#
# Youngs Moduli (GPa) = 30.04912 38.16111 122.50406
#
# Poissons Ratio (x) = -0.14583 0.53605
# Poissons Ratio (y) = -0.11483 0.06198
# Poissons Ratio (z) = 0.13149 0.01931
#
# Static dielectric constant tensor:
#      x y z
#    x 1.696140 0.000000 -0.044800 
#    y 0.000000 1.644330 0.000000 
#    z -0.044800 0.000000 1.784730 
# 
# From -- ./inp_files/26184.got.cif
#   From: 2010.05.17/outbox.cif.g08.bks.cpg/sg9_14_cif.got.tgz:26184.got - 2010.06.03 20:04:27.
