data_PCOD9135126
_publ_section_title
;
Structure prediction by ZEFSAII (Michael W. Deem and Ramdas Pophale) SiO2 
 PCOD9135126
Probable space group: C C
;
_chemical_formula_sum "Si O2"
_cell_formula_units_Z 28
_cell_length_a 11.919255
_cell_length_b 21.730772
_cell_length_c 5.852118
_cell_angle_alpha 90.000000
_cell_angle_beta 55.466837
_cell_angle_gamma 90.000000
_cell_volume 1248.700214
_symmetry_space_group_name_H-M "C C"
_symmetry_group_IT_number 9
_symmetry_cell_setting 'monoclinic'
loop_
_space_group_symop_operation_xyz
x,y,z
x,-y,1/2+z
1/2+x,1/2+y,z
1/2+x,1/2-y,1/2+z
loop_
_atom_site_type_symbol
_atom_site_label
_atom_site_fract_x
_atom_site_fract_y
_atom_site_fract_z
Si Si1 0.085160 0.792726 0.712010
Si Si2 0.361403 0.351831 0.265438
Si Si3 0.576209 0.165669 0.952562
Si Si4 0.547078 0.530074 0.578485
Si Si5 0.942664 0.749788 0.487979
Si Si6 0.855970 0.488589 0.203736
Si Si7 0.837512 0.358653 0.415479
O O1 0.122044 0.724270 0.748024
O O2 0.191338 0.841865 0.684190
O O3 0.063602 0.788802 0.466530
O O4 0.940080 0.813991 0.978003
O O5 0.210280 0.371101 0.366474
O O6 0.460769 0.407705 0.210418
O O7 0.348785 0.300380 0.477680
O O8 0.458493 0.130134 0.953895
O O9 0.505498 0.200807 0.242220
O O10 0.512752 0.506670 0.357007
O O11 0.713303 0.526869 0.376175
O O12 0.872244 0.705587 0.751327
O O13 0.922360 0.503204 0.376095
O O14 0.824086 0.415947 0.263610
#
# Coordination Sequence:
#
# PCOD9135126 Si02
#       7
#     4   4   4   4   4   4   4
#     4  10  20  37  63  97 128 174 224 279 340 404
#     4  11  23  40  68  93 139 170 230 283 342 414
#     4  10  22  40  56  98 134 177 212 274 360 415
#     4  10  23  44  66 100 127 175 234 290 336 393
#     4  10  22  36  65 100 132 178 217 281 350 407
#     4  10  23  41  68  98 129 173 235 289 337 389
#     4  11  23  40  66  94 139 171 230 282 343 412
#
# _framework density 22.423316
#
# number of rings (size 3 to 8) (size 9 to 14) (size 15 to 20)
#    0.000    1.714    0.000    5.143    8.000    2.286 
#    0.000    1.429    0.000    0.000    0.000    0.000 
#    0.000    0.000    0.000    0.000    0.000    0.000 
#
# Total GULP energy -78036.033613 kJ/mol
# GULP energy per Si atom -5574.002401 kJ/mol
# Density = 2.237228 g / cm^3
# Si number density = 22.423316 Si / 1000 Ang^3
#
#
#
# Elastic Constant Matrix: (Units=GPa)
#
#
# Indices 1 2 3 4 5 6 
#
# 1 109.0214 22.8208 28.7788 0.0000 -6.3353 0.0000
# 2 22.8208 56.5196 6.2641 0.0000 9.4396 0.0000
# 3 28.7788 6.2641 67.6046 0.0000 24.6745 0.0000
# 4 0.0000 0.0000 0.0000 21.6964 0.0000 9.7078
# 5 -6.3353 9.4396 24.6745 0.0000 29.9127 0.0000
# 6 0.0000 0.0000 0.0000 9.7078 0.0000 33.5277
#
#
#
# Elastic Compliance Matrix: (Units=1/GPa)
#
#
# Indices 1 2 3 4 5 6 
#
# 1 0.014154 -0.006857 -0.010407 0.000000 0.013746 0.000000
# 2 -0.006857 0.022017 0.005644 0.000000 -0.013056 0.000000
# 3 -0.010407 0.005644 0.028835 0.000000 -0.027771 0.000000
# 4 0.000000 0.000000 0.000000 0.052951 0.000000 -0.015332
# 5 0.013746 -0.013056 -0.027771 0.000000 0.063369 0.000000
# 6 0.000000 0.000000 0.000000 -0.015332 0.000000 0.034265
#
#
# Mechanical properties :
#
#
# Convention : Reuss Voigt Hill
#
# Bulk Modulus (GPa) = 23.94315 38.76366 31.35340
# Shear Modulus (GPa) = 19.78220 28.71282 24.24751
#
# Velocity S-wave (km/s) = 2.97343 3.58228 3.29196
# Velocity P-wave (km/s) = 4.74230 5.86813 5.33500
#
# Compressibility (1/GPa) = 0.04176561
#
# Stress axis : x y z
#
# Youngs Moduli (GPa) = 70.65216 45.42004 34.68034
#
# Poissons Ratio (x) = 0.31146 0.36091
# Poissons Ratio (y) = 0.48448 -0.19575
# Poissons Ratio (z) = 0.73527 -0.25636
#
# Static dielectric constant tensor:
#      x y z
#    x 1.916740 0.000000 0.028720 
#    y 0.000000 1.819170 0.000000 
#    z 0.028720 0.000000 1.928940 
# 
# From -- ./inp_files/1754.got.cif
#   From: 2010.05.17/outbox.cif.g08.bks.cpg/sg9_1_cif.got.tgz:1754.got - 2010.06.03 20:04:27.
