data_PCOD9135835
_publ_section_title
;
Structure prediction by ZEFSAII (Michael W. Deem and Ramdas Pophale) SiO2 
 PCOD9135835
Probable space group: C C
;
_chemical_formula_sum "Si O2"
_cell_formula_units_Z 28
_cell_length_a 9.791063
_cell_length_b 24.151439
_cell_length_c 8.019787
_cell_angle_alpha 90.000000
_cell_angle_beta 33.030187
_cell_angle_gamma 90.000000
_cell_volume 1033.704946
_symmetry_space_group_name_H-M "C C"
_symmetry_group_IT_number 9
_symmetry_cell_setting 'monoclinic'
loop_
_space_group_symop_operation_xyz
x,y,z
x,-y,1/2+z
1/2+x,1/2+y,z
1/2+x,1/2-y,1/2+z
loop_
_atom_site_type_symbol
_atom_site_label
_atom_site_fract_x
_atom_site_fract_y
_atom_site_fract_z
Si Si1 0.314660 0.563958 0.831580
Si Si2 0.263819 0.317788 0.841857
Si Si3 0.176941 0.783800 0.913518
Si Si4 0.515290 0.132452 0.916749
Si Si5 0.269372 0.193298 0.704754
Si Si6 0.008079 0.538589 0.674808
Si Si7 0.008020 0.960466 0.477973
O O1 0.200200 0.620382 0.881505
O O2 0.442217 0.526975 0.554563
O O3 0.495665 0.563529 0.805096
O O4 0.081303 0.525168 0.130163
O O5 0.041608 0.333948 0.940896
O O6 0.543580 0.339302 0.522522
O O7 0.152541 0.331741 0.134831
O O8 0.265624 0.439026 0.828575
O O9 0.260153 0.838726 0.732751
O O10 0.188002 0.795119 0.099929
O O11 0.413435 0.743041 0.638512
O O12 0.465428 0.073178 0.884581
O O13 0.798805 0.248141 0.271334
O O14 0.769568 0.544948 0.802450
#
# Coordination Sequence:
#
# PCOD9135835 Si02
#       7
#     4   4   4   4   4   4   4
#     4  10  23  49  74 112 154 211 258 336 386 482
#     4  10  22  41  75 104 147 202 260 308 389 476
#     4  12  26  50  76 116 161 207 262 343 394 482
#     4  12  28  47  81 125 158 212 278 324 415 472
#     4  10  20  48  74  98 156 209 246 323 403 453
#     4  10  24  48  71 112 154 206 257 331 391 476
#     4  10  23  43  79  97 162 203 255 323 398 455
#
# _framework density 27.087033000000002
#
# number of rings (size 3 to 8) (size 9 to 14) (size 15 to 20)
#    0.857    0.571    4.286    0.000    8.000    3.429 
#    5.143    1.429    0.000    0.000    0.000    0.000 
#    0.000    0.000    0.000    0.000    0.000    0.000 
#
# Total GULP energy -78487.750917 kJ/mol
# GULP energy per Si atom -5606.267923 kJ/mol
# Density = 2.702538 g / cm^3
# Si number density = 27.087033 Si / 1000 Ang^3
#
#
#
# Elastic Constant Matrix: (Units=GPa)
#
#
# Indices 1 2 3 4 5 6 
#
# 1 125.9636 10.4696 25.3513 0.0000 -17.7509 0.0000
# 2 10.4696 76.9658 33.0614 0.0000 1.9708 0.0000
# 3 25.3513 33.0614 131.0122 0.0000 -22.5681 0.0000
# 4 0.0000 0.0000 0.0000 33.0781 0.0000 11.0376
# 5 -17.7509 1.9708 -22.5681 0.0000 58.8952 0.0000
# 6 0.0000 0.0000 0.0000 11.0376 0.0000 47.0240
#
#
#
# Elastic Compliance Matrix: (Units=1/GPa)
#
#
# Indices 1 2 3 4 5 6 
#
# 1 0.008527 -0.000749 -0.001085 0.000000 0.002179 0.000000
# 2 -0.000749 0.014869 -0.003996 0.000000 -0.002254 0.000000
# 3 -0.001085 -0.003996 0.009441 0.000000 0.003424 0.000000
# 4 0.000000 0.000000 0.000000 0.032800 0.000000 -0.007699
# 5 0.002179 -0.002254 0.003424 0.000000 0.019024 0.000000
# 6 0.000000 0.000000 0.000000 -0.007699 0.000000 0.023073
#
#
# Mechanical properties :
#
#
# Convention : Reuss Voigt Hill
#
# Bulk Modulus (GPa) = 47.22397 52.41181 49.81789
# Shear Modulus (GPa) = 39.54042 45.47008 42.50525
#
# Velocity S-wave (km/s) = 3.82482 4.10160 3.96562
# Velocity P-wave (km/s) = 6.08093 6.46701 6.27694
#
# Compressibility (1/GPa) = 0.02117569
#
# Stress axis : x y z
#
# Youngs Moduli (GPa) = 117.27982 67.25501 105.92015
#
# Poissons Ratio (x) = 0.05040 0.11497
# Poissons Ratio (y) = 0.08789 0.42321
# Poissons Ratio (z) = 0.12730 0.26872
#
# Static dielectric constant tensor:
#      x y z
#    x 2.056880 0.000000 -0.016180 
#    y 0.000000 2.251300 0.000000 
#    z -0.016180 0.000000 2.092260 
# 
# From -- ./inp_files/6427.got.cif
#   From: 2010.05.17/outbox.cif.g08.bks.cpg/sg9_4_cif.got.tgz:6427.got - 2010.06.03 20:04:27.
