data_PCOD9135383
_publ_section_title
;
Structure prediction by ZEFSAII (Michael W. Deem and Ramdas Pophale) SiO2 
 PCOD9135383
Probable space group: C C
;
_chemical_formula_sum "Si O2"
_cell_formula_units_Z 24
_cell_length_a 10.282447
_cell_length_b 8.073637
_cell_length_c 14.618142
_cell_angle_alpha 90.000000
_cell_angle_beta 136.728712
_cell_angle_gamma 90.000000
_cell_volume 831.832559
_symmetry_space_group_name_H-M "C C"
_symmetry_group_IT_number 9
_symmetry_cell_setting 'monoclinic'
loop_
_space_group_symop_operation_xyz
x,y,z
x,-y,1/2+z
1/2+x,1/2+y,z
1/2+x,1/2-y,1/2+z
loop_
_atom_site_type_symbol
_atom_site_label
_atom_site_fract_x
_atom_site_fract_y
_atom_site_fract_z
Si Si1 0.062340 0.903022 0.688390
Si Si2 0.531265 0.931200 0.672069
Si Si3 0.472854 0.403984 0.855607
Si Si4 0.348802 0.140697 0.903297
Si Si5 0.161825 0.779725 0.554087
Si Si6 0.171552 0.535563 0.417084
O O1 0.209241 0.056427 0.759828
O O2 0.857291 0.940408 0.541711
O O3 0.144617 0.776814 0.654837
O O4 0.038759 0.894086 0.785442
O O5 0.742747 0.912169 0.738543
O O6 0.409517 0.970417 0.519901
O O7 0.385453 0.793907 0.642873
O O8 0.555090 0.045413 0.774166
O O9 0.514869 0.234402 0.932847
O O10 0.558853 0.557948 0.957517
O O11 0.244246 0.297035 0.899755
O O12 0.079863 0.620732 0.458562
#
# Coordination Sequence:
#
# PCOD9135383 Si02
#       6
#     4   4   4   4   4   4
#     4  12  23  44  71  98 134 171 218 278 327 388
#     4  10  21  42  69  96 132 175 218 270 329 390
#     4  11  23  39  69 102 129 175 221 265 334 392
#     4  10  20  39  68  95 129 169 217 268 323 387
#     4  11  23  39  69 102 129 175 221 265 334 392
#     4  10  20  39  68  95 129 169 217 268 323 387
#
# _framework density 28.851956999999999
#
# number of rings (size 3 to 8) (size 9 to 14) (size 15 to 20)
#    0.000    1.333    6.667    4.000    0.000    1.333 
#    0.000    3.333    0.000    0.000    0.000    0.000 
#    0.000    0.000    0.000    0.000    0.000    0.000 
#
# Total GULP energy -67051.803618 kJ/mol
# GULP energy per Si atom -5587.650301 kJ/mol
# Density = 2.878629 g / cm^3
# Si number density = 28.851957 Si / 1000 Ang^3
#
#
#
# Elastic Constant Matrix: (Units=GPa)
#
#
# Indices 1 2 3 4 5 6 
#
# 1 201.4820 30.2661 68.0395 0.0000 -39.2099 0.0000
# 2 30.2661 88.5215 18.8420 0.0000 2.0960 0.0000
# 3 68.0395 18.8420 166.2976 0.0000 -12.8840 0.0000
# 4 0.0000 0.0000 0.0000 38.9935 0.0000 -4.0855
# 5 -39.2099 2.0960 -12.8840 0.0000 83.9190 0.0000
# 6 0.0000 0.0000 0.0000 -4.0855 0.0000 41.0666
#
#
#
# Elastic Compliance Matrix: (Units=1/GPa)
#
#
# Indices 1 2 3 4 5 6 
#
# 1 0.006533 -0.001819 -0.002254 0.000000 0.002752 0.000000
# 2 -0.001819 0.012103 -0.000725 0.000000 -0.001264 0.000000
# 3 -0.002254 -0.000725 0.007021 0.000000 0.000043 0.000000
# 4 0.000000 0.000000 0.000000 0.025915 0.000000 0.002578
# 5 0.002752 -0.001264 0.000043 0.000000 0.013240 0.000000
# 6 0.000000 0.000000 0.000000 0.002578 0.000000 0.024607
#
#
# Mechanical properties :
#
#
# Convention : Reuss Voigt Hill
#
# Bulk Modulus (GPa) = 62.26101 76.73292 69.49697
# Shear Modulus (GPa) = 47.90700 55.40604 51.65652
#
# Velocity S-wave (km/s) = 4.07927 4.38694 4.23590
# Velocity P-wave (km/s) = 6.61918 7.23281 6.93279
#
# Compressibility (1/GPa) = 0.01606142
#
# Stress axis : x y z
#
# Youngs Moduli (GPa) = 153.06710 82.62487 142.43298
#
# Poissons Ratio (x) = 0.15031 0.32099
# Poissons Ratio (y) = 0.27846 0.10325
# Poissons Ratio (z) = 0.34496 0.05989
#
# Static dielectric constant tensor:
#      x y z
#    x 2.372730 0.000000 -0.025450 
#    y 0.000000 2.418290 0.000000 
#    z -0.025450 0.000000 2.307110 
# 
# From -- ./inp_files/24580.got.cif
#   From: 2010.05.17/outbox.cif.g08.bks.cpg/sg9_13_cif.got.tgz:24580.got - 2010.06.03 20:04:27.
