data_PCOD9135160
_publ_section_title
;
Structure prediction by ZEFSAII (Michael W. Deem and Ramdas Pophale) SiO2 
 PCOD9135160
Probable space group: C C
;
_chemical_formula_sum "Si O2"
_cell_formula_units_Z 28
_cell_length_a 18.911978
_cell_length_b 11.145267
_cell_length_c 11.572955
_cell_angle_alpha 90.000000
_cell_angle_beta 25.927559
_cell_angle_gamma 90.000000
_cell_volume 1066.561836
_symmetry_space_group_name_H-M "C C"
_symmetry_group_IT_number 9
_symmetry_cell_setting 'monoclinic'
loop_
_space_group_symop_operation_xyz
x,y,z
x,-y,1/2+z
1/2+x,1/2+y,z
1/2+x,1/2-y,1/2+z
loop_
_atom_site_type_symbol
_atom_site_label
_atom_site_fract_x
_atom_site_fract_y
_atom_site_fract_z
Si Si1 0.165670 0.782073 0.400570
Si Si2 0.622054 0.016746 0.719697
Si Si3 0.407443 0.098855 0.732840
Si Si4 0.976195 0.311008 0.811007
Si Si5 0.506458 0.238161 0.993312
Si Si6 0.702797 0.619728 0.494609
Si Si7 0.986983 0.982856 0.114908
O O1 0.278214 0.827273 0.342574
O O2 0.022306 0.686881 0.639551
O O3 0.309550 0.753485 0.099056
O O4 0.068563 0.889419 0.479672
O O5 0.501641 0.949689 0.807728
O O6 0.797276 0.987403 0.414041
O O7 0.626934 0.157498 0.744144
O O8 0.549053 0.959086 0.944005
O O9 0.295520 0.983073 0.928923
O O10 0.006811 0.290075 0.630546
O O11 0.114285 0.235487 0.675333
O O12 0.333649 0.179878 0.214577
O O13 0.519190 0.380861 0.971206
O O14 0.567843 0.556628 0.616519
#
# Coordination Sequence:
#
# PCOD9135160 Si02
#       7
#     4   4   4   4   4   4   4
#     4  10  21  37  64  92 137 175 226 272 352 407
#     4  10  20  39  66  93 131 169 230 275 331 407
#     4   9  19  37  60  95 129 175 219 279 324 418
#     4  10  20  37  67 101 126 180 223 284 341 414
#     4  10  20  38  67  97 127 174 233 271 341 412
#     4   9  18  35  65  90 126 169 223 272 336 402
#     4  10  20  39  63  92 138 178 216 289 339 402
#
# _framework density 26.252579999999998
#
# number of rings (size 3 to 8) (size 9 to 14) (size 15 to 20)
#    0.000    2.286    1.429    2.571    2.000    0.000 
#    5.143    2.857   34.571    0.000    0.000    0.000 
#    0.000    0.000    0.000    0.000    0.000    0.000 
#
# Total GULP energy -78084.882549 kJ/mol
# GULP energy per Si atom -5577.491611 kJ/mol
# Density = 2.619283 g / cm^3
# Si number density = 26.252580 Si / 1000 Ang^3
#
#
#
# Elastic Constant Matrix: (Units=GPa)
#
#
# Indices 1 2 3 4 5 6 
#
# 1 59.8892 14.8238 25.6872 0.0000 -9.6526 0.0000
# 2 14.8238 156.7627 58.6263 0.0000 2.2500 0.0000
# 3 25.6872 58.6263 78.2662 0.0000 -22.6934 0.0000
# 4 0.0000 0.0000 0.0000 41.8316 0.0000 -2.2962
# 5 -9.6526 2.2500 -22.6934 0.0000 32.5461 0.0000
# 6 0.0000 0.0000 0.0000 -2.2962 0.0000 33.3702
#
#
#
# Elastic Compliance Matrix: (Units=1/GPa)
#
#
# Indices 1 2 3 4 5 6 
#
# 1 0.019534 0.000552 -0.006462 0.000000 0.001250 0.000000
# 2 0.000552 0.010160 -0.009961 0.000000 -0.007485 0.000000
# 3 -0.006462 -0.009961 0.027579 0.000000 0.018002 0.000000
# 4 0.000000 0.000000 0.000000 0.023996 0.000000 0.001651
# 5 0.001250 -0.007485 0.018002 0.000000 0.044166 0.000000
# 6 0.000000 0.000000 0.000000 0.001651 0.000000 0.030080
#
#
# Mechanical properties :
#
#
# Convention : Reuss Voigt Hill
#
# Bulk Modulus (GPa) = 39.17070 54.79917 46.98493
# Shear Modulus (GPa) = 25.54028 34.60162 30.07095
#
# Velocity S-wave (km/s) = 3.12247 3.63440 3.38812
# Velocity P-wave (km/s) = 5.28704 6.20733 5.76558
#
# Compressibility (1/GPa) = 0.02552929
#
# Stress axis : x y z
#
# Youngs Moduli (GPa) = 51.19278 98.42771 36.25911
#
# Poissons Ratio (x) = -0.05429 0.23430
# Poissons Ratio (y) = -0.02823 0.36119
# Poissons Ratio (z) = 0.33080 0.98048
#
# Static dielectric constant tensor:
#      x y z
#    x 2.146130 0.000000 0.001700 
#    y 0.000000 2.189380 0.000000 
#    z 0.001700 0.000000 2.057470 
# 
# From -- ./inp_files/31686.got.cif
#   From: 2010.05.17/outbox.cif.g08.bks.cpg/sg9_16_cif.got.tgz:31686.got - 2010.06.03 20:04:27.
