data_PCOD9135775
_publ_section_title
;
Structure prediction by ZEFSAII (Michael W. Deem and Ramdas Pophale) SiO2 
 PCOD9135775
Probable space group: C C
;
_chemical_formula_sum "Si O2"
_cell_formula_units_Z 32
_cell_length_a 7.281969
_cell_length_b 22.202696
_cell_length_c 9.602422
_cell_angle_alpha 90.000000
_cell_angle_beta 49.070279
_cell_angle_gamma 90.000000
_cell_volume 1172.945113
_symmetry_space_group_name_H-M "C C"
_symmetry_group_IT_number 9
_symmetry_cell_setting 'monoclinic'
loop_
_space_group_symop_operation_xyz
x,y,z
x,-y,1/2+z
1/2+x,1/2+y,z
1/2+x,1/2-y,1/2+z
loop_
_atom_site_type_symbol
_atom_site_label
_atom_site_fract_x
_atom_site_fract_y
_atom_site_fract_z
Si Si1 0.483410 0.833696 0.890620
Si Si2 0.786552 0.087579 0.778113
Si Si3 0.541195 0.413758 0.863803
Si Si4 0.124721 0.957773 0.352293
Si Si5 0.199369 0.742362 0.501363
Si Si6 0.266583 0.168521 0.773130
Si Si7 0.442297 0.181523 0.098099
Si Si8 0.699846 0.041636 0.291885
O O1 0.701861 0.809058 0.879993
O O2 0.478038 0.803791 0.743100
O O3 0.513738 0.904905 0.853191
O O4 0.259837 0.823932 0.109857
O O5 0.909704 0.105164 0.571615
O O6 0.999515 0.061170 0.769970
O O7 0.617565 0.027665 0.841203
O O8 0.654101 0.140116 0.928131
O O9 0.708505 0.473725 0.803046
O O10 0.702763 0.361194 0.719979
O O11 0.328711 0.438526 0.870605
O O12 0.298086 0.901019 0.293539
O O13 0.910829 0.956645 0.571774
O O14 0.084540 0.798805 0.468472
O O15 0.994517 0.710364 0.699586
O O16 0.391343 0.236205 0.019740
#
# Coordination Sequence:
#
# PCOD9135775 Si02
#       8
#     4   4   4   4   4   4   4   4
#     4  10  25  46  73 101 146 198 255 308 376 450
#     4  10  23  41  72 116 149 193 248 311 385 465
#     4  10  24  40  73 111 152 189 244 310 383 467
#     4  10  20  44  69 108 147 199 240 312 382 457
#     4  10  27  46  67 110 137 204 255 317 371 440
#     4  10  24  44  72  97 149 193 256 309 382 437
#     4  12  24  48  74 109 151 197 259 318 381 454
#     4  10  21  43  70 106 159 187 241 309 382 464
#
# _framework density 27.281752000000001
#
# number of rings (size 3 to 8) (size 9 to 14) (size 15 to 20)
#    0.750    1.000    1.250    1.500    7.000    0.000 
#    4.500    1.250    0.000    0.000    0.000    0.000 
#    0.000    0.000    0.000    0.000    0.000    0.000 
#
# Total GULP energy -89472.700524 kJ/mol
# GULP energy per Si atom -5592.043783 kJ/mol
# Density = 2.721966 g / cm^3
# Si number density = 27.281752 Si / 1000 Ang^3
#
#
#
# Elastic Constant Matrix: (Units=GPa)
#
#
# Indices 1 2 3 4 5 6 
#
# 1 61.3143 40.7802 22.8610 0.0000 20.3865 0.0000
# 2 40.7802 131.1470 0.0497 0.0000 -3.9938 0.0000
# 3 22.8610 0.0497 157.8709 0.0000 26.6908 0.0000
# 4 0.0000 0.0000 0.0000 37.3964 0.0000 -3.4505
# 5 20.3865 -3.9938 26.6908 0.0000 39.0330 0.0000
# 6 0.0000 0.0000 0.0000 -3.4505 0.0000 42.4798
#
#
#
# Elastic Compliance Matrix: (Units=1/GPa)
#
#
# Indices 1 2 3 4 5 6 
#
# 1 0.027661 -0.009036 -0.001587 0.000000 -0.014286 0.000000
# 2 -0.009036 0.010604 0.000366 0.000000 0.005554 0.000000
# 3 -0.001587 0.000366 0.007256 0.000000 -0.004095 0.000000
# 4 0.000000 0.000000 0.000000 0.026942 0.000000 0.002188
# 5 -0.014286 0.005554 -0.004095 0.000000 0.036449 0.000000
# 6 0.000000 0.000000 0.000000 0.002188 0.000000 0.023718
#
#
# Mechanical properties :
#
#
# Convention : Reuss Voigt Hill
#
# Bulk Modulus (GPa) = 39.98847 53.07933 46.53390
# Shear Modulus (GPa) = 30.96350 42.89125 36.92737
#
# Velocity S-wave (km/s) = 3.37256 3.96935 3.68306
# Velocity P-wave (km/s) = 5.46397 6.36442 5.93131
#
# Compressibility (1/GPa) = 0.02500721
#
# Stress axis : x y z
#
# Youngs Moduli (GPa) = 36.15231 94.30740 137.80845
#
# Poissons Ratio (x) = 0.85212 0.21875
# Poissons Ratio (y) = 0.32666 -0.05046
# Poissons Ratio (z) = 0.05739 -0.03453
#
# Static dielectric constant tensor:
#      x y z
#    x 2.236900 0.000000 -0.128180 
#    y 0.000000 2.311290 0.000000 
#    z -0.128180 0.000000 2.276190 
# 
# From -- ./inp_files/6367.got.cif
#   From: 2010.05.17/outbox.cif.g08.bks.cpg/sg9_4_cif.got.tgz:6367.got - 2010.06.03 20:04:27.
