data_PCOD9135537
_publ_section_title
;
Structure prediction by ZEFSAII (Michael W. Deem and Ramdas Pophale) SiO2 
 PCOD9135537
Probable space group: C C
;
_chemical_formula_sum "Si O2"
_cell_formula_units_Z 32
_cell_length_a 15.592613
_cell_length_b 11.104335
_cell_length_c 9.392959
_cell_angle_alpha 90.000000
_cell_angle_beta 113.025244
_cell_angle_gamma 90.000000
_cell_volume 1496.782488
_symmetry_space_group_name_H-M "C C"
_symmetry_group_IT_number 9
_symmetry_cell_setting 'monoclinic'
loop_
_space_group_symop_operation_xyz
x,y,z
x,-y,1/2+z
1/2+x,1/2+y,z
1/2+x,1/2-y,1/2+z
loop_
_atom_site_type_symbol
_atom_site_label
_atom_site_fract_x
_atom_site_fract_y
_atom_site_fract_z
Si Si1 0.446410 0.620930 0.040180
Si Si2 0.206067 0.056683 0.454598
Si Si3 0.031333 0.653636 0.758168
Si Si4 0.515022 0.241586 0.303532
Si Si5 0.481853 0.020984 0.449466
Si Si6 0.589256 0.426816 0.153034
Si Si7 0.326693 0.143365 0.177275
Si Si8 0.248185 0.703384 0.863789
O O1 0.483481 0.721861 0.176130
O O2 0.489905 0.491742 0.097505
O O3 0.488197 0.668707 0.916182
O O4 0.335126 0.618960 0.955759
O O5 0.158703 0.019411 0.276484
O O6 0.260406 0.180536 0.473665
O O7 0.125609 0.082431 0.517539
O O8 0.268033 0.945320 0.543986
O O9 0.878950 0.437631 0.832466
O O10 0.995650 0.551706 0.622784
O O11 0.004662 0.607623 0.897835
O O12 0.545419 0.119723 0.404641
O O13 0.584070 0.305014 0.240327
O O14 0.416481 0.207078 0.165740
O O15 0.642829 0.161302 0.814711
O O16 0.265288 0.243128 0.216904
#
# Coordination Sequence:
#
# PCOD9135537 Si02
#       8
#     4   4   4   4   4   4   4   4
#     4  10  20  41  63  87 125 165 200 252 314 362
#     4  12  22  36  63  97 117 161 212 258 294 371
#     4  11  20  41  61  91 120 162 200 249 309 361
#     4   8  20  39  59  85 117 167 199 240 310 367
#     4   9  22  38  64  82 124 163 197 248 307 362
#     4  12  22  39  64  90 129 160 206 250 318 366
#     4   9  20  37  61  86 118 160 206 246 303 358
#     4  11  22  39  63  92 120 164 208 247 309 375
#
# _framework density 21.379193999999998
#
# number of rings (size 3 to 8) (size 9 to 14) (size 15 to 20)
#    0.750    1.000    5.000    0.750    1.750    1.000 
#    4.500    1.250    0.000    0.000    0.000    0.000 
#    0.000    0.000    0.000    0.000    0.000    0.000 
#
# Total GULP energy -89285.646963 kJ/mol
# GULP energy per Si atom -5580.352935 kJ/mol
# Density = 2.133053 g / cm^3
# Si number density = 21.379194 Si / 1000 Ang^3
#
#
#
# Elastic Constant Matrix: (Units=GPa)
#
#
# Indices 1 2 3 4 5 6 
#
# 1 59.3600 -4.5314 2.4300 0.0000 11.1064 0.0000
# 2 -4.5314 27.2542 5.8705 0.0000 -6.5369 0.0000
# 3 2.4300 5.8705 43.9952 0.0000 0.9324 0.0000
# 4 0.0000 0.0000 0.0000 19.3718 0.0000 -2.7159
# 5 11.1064 -6.5369 0.9324 0.0000 30.8655 0.0000
# 6 0.0000 0.0000 0.0000 -2.7159 0.0000 43.6330
#
#
#
# Elastic Compliance Matrix: (Units=1/GPa)
#
#
# Indices 1 2 3 4 5 6 
#
# 1 0.018175 0.001792 -0.001113 0.000000 -0.006127 0.000000
# 2 0.001792 0.040125 -0.005623 0.000000 0.008023 0.000000
# 3 -0.001113 -0.005623 0.023573 0.000000 -0.001502 0.000000
# 4 0.000000 0.000000 0.000000 0.052076 0.000000 0.003241
# 5 -0.006127 0.008023 -0.001502 0.000000 0.036348 0.000000
# 6 0.000000 0.000000 0.000000 0.003241 0.000000 0.023120
#
#
# Mechanical properties :
#
#
# Convention : Reuss Voigt Hill
#
# Bulk Modulus (GPa) = 13.89174 15.34974 14.62074
# Shear Modulus (GPa) = 21.99732 27.23010 24.61371
#
# Velocity S-wave (km/s) = 3.21115 3.57273 3.39675
# Velocity P-wave (km/s) = 4.50117 4.92082 4.71567
#
# Compressibility (1/GPa) = 0.07198522
#
# Stress axis : x y z
#
# Youngs Moduli (GPa) = 55.02039 24.92212 42.42076
#
# Poissons Ratio (x) = -0.04466 0.04722
# Poissons Ratio (y) = -0.09860 0.23854
# Poissons Ratio (z) = 0.06125 0.14014
#
# Static dielectric constant tensor:
#      x y z
#    x 1.778590 0.000000 -0.008800 
#    y 0.000000 1.795730 0.000000 
#    z -0.008800 0.000000 1.790130 
# 
# From -- ./inp_files/9276.got.cif
#   From: 2010.05.17/outbox.cif.g08.bks.cpg/sg9_5_cif.got.tgz:9276.got - 2010.06.03 20:04:27.
