data_PCOD9135444
_publ_section_title
;
Structure prediction by ZEFSAII (Michael W. Deem and Ramdas Pophale) SiO2 
 PCOD9135444
Probable space group: C C
;
_chemical_formula_sum "Si O2"
_cell_formula_units_Z 32
_cell_length_a 5.354501
_cell_length_b 26.104392
_cell_length_c 8.822920
_cell_angle_alpha 90.000000
_cell_angle_beta 102.899716
_cell_angle_gamma 90.000000
_cell_volume 1202.108456
_symmetry_space_group_name_H-M "C C"
_symmetry_group_IT_number 9
_symmetry_cell_setting 'monoclinic'
loop_
_space_group_symop_operation_xyz
x,y,z
x,-y,1/2+z
1/2+x,1/2+y,z
1/2+x,1/2-y,1/2+z
loop_
_atom_site_type_symbol
_atom_site_label
_atom_site_fract_x
_atom_site_fract_y
_atom_site_fract_z
Si Si1 0.976490 0.051854 0.831190
Si Si2 0.766101 0.387395 0.191456
Si Si3 0.663169 0.925613 0.679253
Si Si4 0.404957 0.707707 0.727207
Si Si5 0.220872 0.645226 0.935475
Si Si6 0.191628 0.475742 0.992849
Si Si7 0.635903 0.195704 0.379270
Si Si8 0.630705 0.627318 0.350212
O O1 0.926255 0.100810 0.929442
O O2 0.798253 0.053826 0.654616
O O3 0.244716 0.061234 0.787360
O O4 0.913817 0.003684 0.923357
O O5 0.562385 0.343359 0.205685
O O6 0.026358 0.362064 0.271740
O O7 0.728155 0.399883 0.014298
O O8 0.587955 0.874150 0.572267
O O9 0.971907 0.915099 0.734927
O O10 0.580155 0.974211 0.565994
O O11 0.578658 0.940149 0.841009
O O12 0.325354 0.699821 0.895914
O O13 0.589099 0.756522 0.762313
O O14 0.201547 0.712495 0.562182
O O15 0.889225 0.164610 0.360737
O O16 0.370759 0.162717 0.335534
#
# Coordination Sequence:
#
# PCOD9135444 Si02
#       8
#     4   4   4   4   4   4   4   4
#     4   9  18  36  61  85 128 171 216 278 344 404
#     4  10  20  40  64  91 133 176 226 284 350 406
#     4  10  21  39  69  98 135 180 234 285 360 412
#     4  10  24  42  65  97 135 181 229 287 339 412
#     4  10  21  39  65  94 132 179 226 286 347 414
#     4   9  18  37  66  91 130 172 225 292 335 428
#     4  11  26  43  70 100 141 183 238 285 345 410
#     4  11  24  44  68 102 138 186 228 291 344 418
#
# _framework density 26.619893000000001
#
# number of rings (size 3 to 8) (size 9 to 14) (size 15 to 20)
#    0.000    2.000    2.500    0.000    3.500    1.000 
#    4.500    5.000    8.250    0.000    0.000    0.000 
#    0.000    0.000    0.000    0.000    0.000    0.000 
#
# Total GULP energy -89081.764331 kJ/mol
# GULP energy per Si atom -5567.610271 kJ/mol
# Density = 2.655930 g / cm^3
# Si number density = 26.619893 Si / 1000 Ang^3
#
#
#
# Elastic Constant Matrix: (Units=GPa)
#
#
# Indices 1 2 3 4 5 6 
#
# 1 84.2546 22.5814 37.6822 0.0000 -5.8013 0.0000
# 2 22.5814 58.6201 40.9509 0.0000 -12.5611 0.0000
# 3 37.6822 40.9509 196.3070 0.0000 -7.6034 0.0000
# 4 0.0000 0.0000 0.0000 38.9170 0.0000 5.3849
# 5 -5.8013 -12.5611 -7.6034 0.0000 40.7959 0.0000
# 6 0.0000 0.0000 0.0000 5.3849 0.0000 16.8258
#
#
#
# Elastic Compliance Matrix: (Units=1/GPa)
#
#
# Indices 1 2 3 4 5 6 
#
# 1 0.013762 -0.003957 -0.001801 0.000000 0.000403 0.000000
# 2 -0.003957 0.022368 -0.003688 0.000000 0.005637 0.000000
# 3 -0.001801 -0.003688 0.006200 0.000000 -0.000236 0.000000
# 4 0.000000 0.000000 0.000000 0.026886 0.000000 -0.008605
# 5 0.000403 0.005637 -0.000236 0.000000 0.026261 0.000000
# 6 0.000000 0.000000 0.000000 -0.008605 0.000000 0.062186
#
#
# Mechanical properties :
#
#
# Convention : Reuss Voigt Hill
#
# Bulk Modulus (GPa) = 42.66565 60.17897 51.42231
# Shear Modulus (GPa) = 27.11959 35.17222 31.14590
#
# Velocity S-wave (km/s) = 3.19528 3.63888 3.42427
# Velocity P-wave (km/s) = 5.44754 6.34910 5.91552
#
# Compressibility (1/GPa) = 0.02343806
#
# Stress axis : x y z
#
# Youngs Moduli (GPa) = 72.66131 44.70731 161.29223
#
# Poissons Ratio (x) = 0.17692 0.29043
# Poissons Ratio (y) = 0.28754 0.59486
# Poissons Ratio (z) = 0.13084 0.16488
#
# Static dielectric constant tensor:
#      x y z
#    x 2.185230 0.000000 -0.071660 
#    y 0.000000 2.107430 0.000000 
#    z -0.071660 0.000000 2.122990 
# 
# From -- ./inp_files/4417.got.cif
#   From: 2010.05.17/outbox.cif.g08.bks.cpg/sg9_3_cif.got.tgz:4417.got - 2010.06.03 20:04:27.
