data_PCOD9135735
_publ_section_title
;
Structure prediction by ZEFSAII (Michael W. Deem and Ramdas Pophale) SiO2 
 PCOD9135735
Probable space group: C C
;
_chemical_formula_sum "Si O2"
_cell_formula_units_Z 32
_cell_length_a 20.819372
_cell_length_b 5.193096
_cell_length_c 13.670686
_cell_angle_alpha 90.000000
_cell_angle_beta 99.928616
_cell_angle_gamma 90.000000
_cell_volume 1455.897510
_symmetry_space_group_name_H-M "C C"
_symmetry_group_IT_number 9
_symmetry_cell_setting 'monoclinic'
loop_
_space_group_symop_operation_xyz
x,y,z
x,-y,1/2+z
1/2+x,1/2+y,z
1/2+x,1/2-y,1/2+z
loop_
_atom_site_type_symbol
_atom_site_label
_atom_site_fract_x
_atom_site_fract_y
_atom_site_fract_z
Si Si1 0.004790 0.760692 0.130460
Si Si2 0.867439 0.271607 0.524538
Si Si3 0.397223 0.735440 0.901296
Si Si4 0.543432 0.938588 0.950976
Si Si5 0.605649 0.611547 0.113214
Si Si6 0.297659 0.714895 0.701174
Si Si7 0.111291 0.502226 0.285920
Si Si8 0.213839 0.789497 0.218977
O O1 0.048522 0.654742 0.228378
O O2 0.929291 0.716303 0.114098
O O3 0.030679 0.048581 0.123514
O O4 0.025873 0.622741 0.035820
O O5 0.868878 0.519295 0.454432
O O6 0.809815 0.258941 0.588414
O O7 0.881375 0.018506 0.462200
O O8 0.474722 0.796514 0.907707
O O9 0.360693 0.698825 0.788592
O O10 0.581704 0.097174 0.878425
O O11 0.597171 0.740784 0.007036
O O12 0.628165 0.795936 0.207064
O O13 0.654336 0.370519 0.130567
O O14 0.258410 0.448277 0.699490
O O15 0.258004 0.957985 0.733856
O O16 0.173294 0.693012 0.303483
#
# Coordination Sequence:
#
# PCOD9135735 Si02
#       8
#     4   4   4   4   4   4   4   4
#     4   9  20  37  65  98 134 162 213 283 329 414
#     4  11  23  45  69  99 135 176 221 278 348 385
#     4  11  24  45  69 106 134 168 230 283 327 424
#     4  10  21  40  68 104 132 168 222 280 351 389
#     4  10  20  43  66  94 138 169 222 279 329 398
#     4  12  25  47  68  95 137 187 223 278 331 391
#     4  10  21  41  66  97 130 181 214 276 341 389
#     4  11  24  46  65  93 136 177 235 267 318 408
#
# _framework density 21.979569000000001
#
# number of rings (size 3 to 8) (size 9 to 14) (size 15 to 20)
#    0.000    1.500    2.500    2.250    0.000    2.000 
#   13.500    1.250    0.000    0.000    0.000    0.000 
#    0.000    0.000    0.000    0.000    0.000    0.000 
#
# Total GULP energy -89178.759419 kJ/mol
# GULP energy per Si atom -5573.672464 kJ/mol
# Density = 2.192954 g / cm^3
# Si number density = 21.979569 Si / 1000 Ang^3
#
#
#
# Elastic Constant Matrix: (Units=GPa)
#
#
# Indices 1 2 3 4 5 6 
#
# 1 76.1740 31.6020 45.9215 0.0000 -2.4975 0.0000
# 2 31.6020 113.7977 24.2328 0.0000 -4.2489 0.0000
# 3 45.9215 24.2328 74.7384 0.0000 -14.5853 0.0000
# 4 0.0000 0.0000 0.0000 2.5225 0.0000 6.5578
# 5 -2.4975 -4.2489 -14.5853 0.0000 20.2495 0.0000
# 6 0.0000 0.0000 0.0000 6.5578 0.0000 35.8794
#
#
#
# Elastic Compliance Matrix: (Units=1/GPa)
#
#
# Indices 1 2 3 4 5 6 
#
# 1 0.023269 -0.003632 -0.014786 0.000000 -0.008542 0.000000
# 2 -0.003632 0.010007 -0.000804 0.000000 0.001073 0.000000
# 3 -0.014786 -0.000804 0.025990 0.000000 0.016728 0.000000
# 4 0.000000 0.000000 0.000000 0.755312 0.000000 -0.138050
# 5 -0.008542 0.001073 0.016728 0.000000 0.060604 0.000000
# 6 0.000000 0.000000 0.000000 -0.138050 0.000000 0.053103
#
#
# Mechanical properties :
#
#
# Convention : Reuss Voigt Hill
#
# Bulk Modulus (GPa) = 48.02620 52.02473 50.02547
# Shear Modulus (GPa) = 5.13521 22.59388 13.86454
#
# Velocity S-wave (km/s) = 1.53017 3.20964 2.51428
# Velocity P-wave (km/s) = 5.00197 6.12019 5.58912
#
# Compressibility (1/GPa) = 0.02082197
#
# Stress axis : x y z
#
# Youngs Moduli (GPa) = 42.97655 99.92656 38.47598
#
# Poissons Ratio (x) = 0.36293 0.56892
# Poissons Ratio (y) = 0.15609 0.03092
# Poissons Ratio (z) = 0.63547 0.08031
#
# Static dielectric constant tensor:
#      x y z
#    x 1.887040 0.000000 0.012200 
#    y 0.000000 1.852290 0.000000 
#    z 0.012200 0.000000 1.802240 
# 
# From -- ./inp_files/19713.got.cif
#   From: 2010.05.17/outbox.cif.g08.bks.cpg/sg9_10_cif.got.tgz:19713.got - 2010.06.03 20:04:27.
