data_PCOD9135662
_publ_section_title
;
Structure prediction by ZEFSAII (Michael W. Deem and Ramdas Pophale) SiO2 
 PCOD9135662
Probable space group: C C
;
_chemical_formula_sum "Si O2"
_cell_formula_units_Z 32
_cell_length_a 7.384713
_cell_length_b 17.885567
_cell_length_c 14.553294
_cell_angle_alpha 90.000000
_cell_angle_beta 142.526212
_cell_angle_gamma 90.000000
_cell_volume 1169.460918
_symmetry_space_group_name_H-M "C C"
_symmetry_group_IT_number 9
_symmetry_cell_setting 'monoclinic'
loop_
_space_group_symop_operation_xyz
x,y,z
x,-y,1/2+z
1/2+x,1/2+y,z
1/2+x,1/2-y,1/2+z
loop_
_atom_site_type_symbol
_atom_site_label
_atom_site_fract_x
_atom_site_fract_y
_atom_site_fract_z
Si Si1 0.088110 0.972561 0.482020
Si Si2 0.416254 0.396214 0.649532
Si Si3 0.359169 0.750686 0.014928
Si Si4 0.034255 0.891578 0.101429
Si Si5 0.756223 0.762932 0.891578
Si Si6 0.990665 0.342922 0.629098
Si Si7 0.798305 0.480302 0.363824
Si Si8 0.649554 0.161895 0.773260
O O1 0.360281 0.918141 0.619468
O O2 0.191505 0.997951 0.423332
O O3 0.816176 0.915858 0.355858
O O4 0.027325 0.038848 0.527489
O O5 0.457763 0.328900 0.596734
O O6 0.715618 0.443576 0.778763
O O7 0.293982 0.363214 0.697199
O O8 0.133010 0.447908 0.502624
O O9 0.570918 0.815782 0.137757
O O10 0.302667 0.732119 0.886471
O O11 0.051700 0.763260 0.946664
O O12 0.084454 0.921646 0.224211
O O13 0.341011 0.848367 0.203121
O O14 0.784626 0.832827 0.972189
O O15 0.515114 0.780872 0.717232
O O16 0.780335 0.688183 0.961991
#
# Coordination Sequence:
#
# PCOD9135662 Si02
#       8
#     4   4   4   4   4   4   4   4
#     4  11  27  42  65 103 145 173 232 301 358 415
#     4  10  21  40  67  97 138 176 240 279 362 420
#     4  10  20  42  67  95 132 180 234 281 342 433
#     4  11  24  42  73  95 136 187 234 282 354 433
#     4  10  21  39  71  95 125 187 236 278 346 432
#     4  10  23  40  66  97 139 176 235 289 350 423
#     4  11  24  42  69  99 140 187 228 297 349 441
#     4  11  24  43  68  99 135 182 237 283 355 419
#
# _framework density 27.363036999999998
#
# number of rings (size 3 to 8) (size 9 to 14) (size 15 to 20)
#    0.000    1.500    1.250    3.750    8.750    2.000 
#    0.000    0.000    0.000    0.000    0.000    0.000 
#    0.000    0.000    0.000    0.000    0.000    0.000 
#
# Total GULP energy -89648.130043 kJ/mol
# GULP energy per Si atom -5603.008128 kJ/mol
# Density = 2.730076 g / cm^3
# Si number density = 27.363037 Si / 1000 Ang^3
#
#
#
# Elastic Constant Matrix: (Units=GPa)
#
#
# Indices 1 2 3 4 5 6 
#
# 1 77.3023 20.1930 15.0486 0.0007 -4.9868 0.0001
# 2 20.1930 112.3705 56.8836 0.0002 -7.7601 -0.0001
# 3 15.0486 56.8836 122.3641 0.0035 -19.2976 0.0017
# 4 0.0007 0.0002 0.0035 68.2652 0.0023 0.2079
# 5 -4.9868 -7.7601 -19.2976 0.0023 23.2840 0.0004
# 6 0.0001 -0.0001 0.0017 0.2079 0.0004 46.7031
#
#
#
# Elastic Compliance Matrix: (Units=1/GPa)
#
#
# Indices 1 2 3 4 5 6 
#
# 1 0.013692 -0.002130 -0.000395 0.000000 0.001895 0.000000
# 2 -0.002130 0.011979 -0.005463 0.000000 -0.000992 0.000000
# 3 -0.000395 -0.005463 0.012033 -0.000001 0.008067 0.000000
# 4 0.000000 0.000000 -0.000001 0.014649 -0.000002 -0.000065
# 5 0.001895 -0.000992 0.008067 -0.000002 0.049710 -0.000001
# 6 0.000000 0.000000 0.000000 -0.000065 -0.000001 0.021412
#
#
# Mechanical properties :
#
#
# Convention : Reuss Voigt Hill
#
# Bulk Modulus (GPa) = 46.02340 55.14303 50.58322
# Shear Modulus (GPa) = 34.08504 42.31123 38.19813
#
# Velocity S-wave (km/s) = 3.53322 3.93656 3.74033
# Velocity P-wave (km/s) = 5.78800 6.39203 6.09750
#
# Compressibility (1/GPa) = 0.02172808
#
# Stress axis : x y z
#
# Youngs Moduli (GPa) = 73.03713 83.48051 83.10603
#
# Poissons Ratio (x) = 0.17778 0.03282
# Poissons Ratio (y) = 0.15554 0.45402
# Poissons Ratio (z) = 0.02885 0.45606
#
# Static dielectric constant tensor:
#      x y z
#    x 2.131310 0.000000 0.056600 
#    y 0.000000 2.113680 0.000000 
#    z 0.056600 0.000000 2.188380 
# 
# From -- ./inp_files/23690.got.cif
#   From: 2010.05.17/outbox.cif.g08.bks.cpg/sg9_12_cif.got.tgz:23690.got - 2010.06.03 20:04:27.
