data_PCOD9135080
_publ_section_title
;
Structure prediction by ZEFSAII (Michael W. Deem and Ramdas Pophale) SiO2 
 PCOD9135080
Probable space group: C C
;
_chemical_formula_sum "Si O2"
_cell_formula_units_Z 32
_cell_length_a 15.370586
_cell_length_b 9.076742
_cell_length_c 10.954012
_cell_angle_alpha 90.000000
_cell_angle_beta 120.714243
_cell_angle_gamma 90.000000
_cell_volume 1313.872889
_symmetry_space_group_name_H-M "C C"
_symmetry_group_IT_number 9
_symmetry_cell_setting 'monoclinic'
loop_
_space_group_symop_operation_xyz
x,y,z
x,-y,1/2+z
1/2+x,1/2+y,z
1/2+x,1/2-y,1/2+z
loop_
_atom_site_type_symbol
_atom_site_label
_atom_site_fract_x
_atom_site_fract_y
_atom_site_fract_z
Si Si1 0.231760 0.424260 0.500000
Si Si2 0.865144 0.896856 0.231863
Si Si3 0.721251 0.712187 0.271841
Si Si4 0.389825 0.874042 0.583858
Si Si5 0.366383 0.945315 0.300572
Si Si6 0.669472 0.250198 0.392323
Si Si7 0.156284 0.788487 0.111383
Si Si8 0.051893 0.914935 0.509657
O O1 0.339121 0.456104 0.641009
O O2 0.232880 0.290505 0.407468
O O3 0.201511 0.579212 0.418064
O O4 0.151753 0.366598 0.541494
O O5 0.756375 0.835296 0.198962
O O6 0.910034 0.780414 0.167504
O O7 0.933141 0.916422 0.400324
O O8 0.804915 0.588336 0.305845
O O9 0.610914 0.641229 0.171789
O O10 0.414304 0.998388 0.705278
O O11 0.267194 0.856986 0.480081
O O12 0.423982 0.893540 0.466638
O O13 0.275861 0.832827 0.202492
O O14 0.624239 0.278032 0.227760
O O15 0.593239 0.298308 0.441386
O O16 0.095505 0.923856 0.010638
#
# Coordination Sequence:
#
# PCOD9135080 Si02
#       8
#     4   4   4   4   4   4   4   4
#     4  11  21  39  66  92 130 171 213 271 335 384
#     4  10  22  40  62  95 127 170 219 270 325 391
#     4  10  20  38  64  91 128 171 211 274 331 384
#     4   9  16  33  56  86 122 161 208 266 317 379
#     4   9  16  31  58  87 117 165 212 249 319 387
#     4  10  20  37  59  92 128 166 216 262 329 385
#     4  10  21  35  66  92 123 172 217 259 325 394
#     4  11  22  41  67  93 129 174 224 263 323 400
#
# _framework density 24.355474999999998
#
# number of rings (size 3 to 8) (size 9 to 14) (size 15 to 20)
#    0.000    2.000    5.000    1.500    3.500    1.000 
#    0.000    2.500    8.250    0.000    0.000    0.000 
#    0.000    0.000    0.000    0.000    0.000    0.000 
#
# Total GULP energy -89265.268155 kJ/mol
# GULP energy per Si atom -5579.079260 kJ/mol
# Density = 2.430004 g / cm^3
# Si number density = 24.355475 Si / 1000 Ang^3
#
#
#
# Elastic Constant Matrix: (Units=GPa)
#
#
# Indices 1 2 3 4 5 6 
#
# 1 39.1268 8.1662 29.0982 0.0000 1.2115 0.0000
# 2 8.1662 79.4178 28.7523 0.0000 2.8998 0.0000
# 3 29.0982 28.7523 119.8067 0.0000 4.5336 0.0000
# 4 0.0000 0.0000 0.0000 30.8634 0.0000 -18.0224
# 5 1.2115 2.8998 4.5336 0.0000 32.3960 0.0000
# 6 0.0000 0.0000 0.0000 -18.0224 0.0000 4.2235
#
#
#
# Elastic Compliance Matrix: (Units=1/GPa)
#
#
# Indices 1 2 3 4 5 6 
#
# 1 0.031211 -0.000507 -0.007456 0.000000 -0.000078 0.000000
# 2 -0.000507 0.013817 -0.003164 0.000000 -0.000775 0.000000
# 3 -0.007456 -0.003164 0.010954 0.000000 -0.000971 0.000000
# 4 0.000000 0.000000 0.000000 -0.021720 0.000000 -0.092682
# 5 -0.000078 -0.000775 -0.000971 0.000000 0.031076 0.000000
# 6 0.000000 0.000000 0.000000 -0.092682 0.000000 -0.158719
#
#
# Mechanical properties :
#
#
# Convention : Reuss Voigt Hill
#
# Bulk Modulus (GPa) = 29.64797 41.15385 35.40091
# Shear Modulus (GPa) = -83.49356 24.98555 -29.25401
#
# Velocity S-wave (km/s) = -5.86137 3.20640 -3.46949
# Velocity P-wave (km/s) = 5.79725 5.53550 1.21784
#
# Compressibility (1/GPa) = 0.03372912
#
# Stress axis : x y z
#
# Youngs Moduli (GPa) = 32.04000 72.37248 91.29455
#
# Poissons Ratio (x) = 0.03670 0.68067
# Poissons Ratio (y) = 0.01625 0.28881
# Poissons Ratio (z) = 0.23888 0.22895
#
# Static dielectric constant tensor:
#      x y z
#    x 1.973260 0.000000 -0.015930 
#    y 0.000000 1.916290 0.000000 
#    z -0.015930 0.000000 2.033380 
# 
# From -- ./inp_files/20022.got.cif
#   From: 2010.05.17/outbox.cif.g08.bks.cpg/sg9_11_cif.got.tgz:20022.got - 2010.06.03 20:04:27.
