data_PCOD9135117
_publ_section_title
;
Structure prediction by ZEFSAII (Michael W. Deem and Ramdas Pophale) SiO2 
 PCOD9135117
Probable space group: C C
;
_chemical_formula_sum "Si O2"
_cell_formula_units_Z 28
_cell_length_a 25.431329
_cell_length_b 9.596271
_cell_length_c 10.048133
_cell_angle_alpha 90.000000
_cell_angle_beta 142.432792
_cell_angle_gamma 90.000000
_cell_volume 1495.089381
_symmetry_space_group_name_H-M "C C"
_symmetry_group_IT_number 9
_symmetry_cell_setting 'monoclinic'
loop_
_space_group_symop_operation_xyz
x,y,z
x,-y,1/2+z
1/2+x,1/2+y,z
1/2+x,1/2-y,1/2+z
loop_
_atom_site_type_symbol
_atom_site_label
_atom_site_fract_x
_atom_site_fract_y
_atom_site_fract_z
Si Si1 0.649840 0.151739 0.439010
Si Si2 0.971489 0.295405 0.451219
Si Si3 0.398094 0.394531 0.600928
Si Si4 0.370574 0.694975 0.480473
Si Si5 0.802340 0.353902 0.781192
Si Si6 0.876708 0.545190 0.158138
Si Si7 0.226098 0.467708 0.816518
O O1 0.553690 0.195735 0.209757
O O2 0.708631 0.285112 0.590389
O O3 0.661775 0.045996 0.586716
O O4 0.688469 0.082175 0.380872
O O5 0.969832 0.174730 0.337272
O O6 0.888097 0.263748 0.374564
O O7 0.955821 0.443624 0.350669
O O8 0.418268 0.544980 0.579828
O O9 0.367123 0.277969 0.434303
O O10 0.272891 0.342227 0.828509
O O11 0.404020 0.806739 0.653478
O O12 0.320856 0.038492 0.436929
O O13 0.824203 0.424590 0.686022
O O14 0.809505 0.068727 0.004507
#
# Coordination Sequence:
#
# PCOD9135117 Si02
#       7
#     4   4   4   4   4   4   4
#     4  11  22  38  61  90 125 149 198 253 301 345
#     4  11  23  37  61  91 121 150 199 258 298 339
#     4   8  20  37  65  79 114 158 205 226 288 367
#     4  10  20  37  63  81 114 160 203 228 289 363
#     4  10  20  40  58  89 111 160 195 244 284 362
#     4  11  21  37  63  84 117 154 204 234 294 354
#     4   9  20  38  65  82 116 163 202 229 292 370
#
# _framework density 18.727976999999999
#
# number of rings (size 3 to 8) (size 9 to 14) (size 15 to 20)
#    0.857    1.143    2.857    0.857    4.000    0.000 
#    2.571    0.000    3.143    0.000    0.000    0.000 
#    0.000    0.000    0.000    0.000    0.000    0.000 
#
# Total GULP energy -77946.311328 kJ/mol
# GULP energy per Si atom -5567.593666 kJ/mol
# Density = 1.868535 g / cm^3
# Si number density = 18.727977 Si / 1000 Ang^3
#
#
#
# Elastic Constant Matrix: (Units=GPa)
#
#
# Indices 1 2 3 4 5 6 
#
# 1 44.7416 16.1054 8.4004 0.0000 -17.3071 0.0000
# 2 16.1054 112.7247 34.1943 0.0000 -8.4306 0.0000
# 3 8.4004 34.1943 93.0798 0.0000 -0.4820 0.0000
# 4 0.0000 0.0000 0.0000 22.6097 0.0000 -12.1315
# 5 -17.3071 -8.4306 -0.4820 0.0000 18.9150 0.0000
# 6 0.0000 0.0000 0.0000 -12.1315 0.0000 23.9495
#
#
#
# Elastic Compliance Matrix: (Units=1/GPa)
#
#
# Indices 1 2 3 4 5 6 
#
# 1 0.035825 -0.002035 -0.002321 0.000000 0.031813 0.000000
# 2 -0.002035 0.010472 -0.003649 0.000000 0.002712 0.000000
# 3 -0.002321 -0.003649 0.012276 0.000000 -0.003437 0.000000
# 4 0.000000 0.000000 0.000000 0.060736 0.000000 0.030766
# 5 0.031813 0.002712 -0.003437 0.000000 0.083098 0.000000
# 6 0.000000 0.000000 0.000000 0.030766 0.000000 0.057339
#
#
# Mechanical properties :
#
#
# Convention : Reuss Voigt Hill
#
# Bulk Modulus (GPa) = 23.49509 40.88291 32.18900
# Shear Modulus (GPa) = 17.24474 25.88459 21.56466
#
# Velocity S-wave (km/s) = 3.03776 3.72174 3.39701
# Velocity P-wave (km/s) = 4.98765 6.35183 5.71062
#
# Compressibility (1/GPa) = 0.04256208
#
# Stress axis : x y z
#
# Youngs Moduli (GPa) = 27.91349 95.49490 81.46158
#
# Poissons Ratio (x) = 0.19435 0.18905
# Poissons Ratio (y) = 0.05681 0.29727
# Poissons Ratio (z) = 0.06478 0.34848
#
# Static dielectric constant tensor:
#      x y z
#    x 1.654410 0.000000 -0.007820 
#    y 0.000000 1.680840 0.000000 
#    z -0.007820 0.000000 1.640870 
# 
# From -- ./inp_files/11430.got.cif
#   From: 2010.05.17/outbox.cif.g08.bks.cpg/sg9_6_cif.got.tgz:11430.got - 2010.06.03 20:04:27.
