data_PCOD9135856
_publ_section_title
;
Structure prediction by ZEFSAII (Michael W. Deem and Ramdas Pophale) SiO2 
 PCOD9135856
Probable space group: C C
;
_chemical_formula_sum "Si O2"
_cell_formula_units_Z 32
_cell_length_a 15.003303
_cell_length_b 13.115061
_cell_length_c 13.667462
_cell_angle_alpha 90.000000
_cell_angle_beta 139.191954
_cell_angle_gamma 90.000000
_cell_volume 1757.553443
_symmetry_space_group_name_H-M "C C"
_symmetry_group_IT_number 9
_symmetry_cell_setting 'monoclinic'
loop_
_space_group_symop_operation_xyz
x,y,z
x,-y,1/2+z
1/2+x,1/2+y,z
1/2+x,1/2-y,1/2+z
loop_
_atom_site_type_symbol
_atom_site_label
_atom_site_fract_x
_atom_site_fract_y
_atom_site_fract_z
Si Si1 0.459300 0.408261 0.366180
Si Si2 0.314856 0.024370 0.387018
Si Si3 0.232580 0.112088 0.990406
Si Si4 0.046358 0.844642 0.636289
Si Si5 0.042995 0.376529 0.211866
Si Si6 0.322964 0.506182 0.927715
Si Si7 0.241186 0.648306 0.522155
Si Si8 0.470914 0.982606 0.819781
O O1 0.595865 0.436606 0.422290
O O2 0.501369 0.326127 0.485619
O O3 0.395973 0.497554 0.382240
O O4 0.349957 0.365990 0.199476
O O5 0.187022 0.094010 0.251127
O O6 0.416430 0.087507 0.540940
O O7 0.400835 0.994157 0.363969
O O8 0.259270 0.930310 0.404395
O O9 0.215942 0.233295 0.981271
O O10 0.360853 0.077622 0.162256
O O11 0.060795 0.742772 0.709540
O O12 0.925492 0.919003 0.572545
O O13 0.179887 0.436052 0.294214
O O14 0.012622 0.415720 0.295714
O O15 0.297136 0.406406 0.970057
O O16 0.104059 0.588365 0.437920
#
# Coordination Sequence:
#
# PCOD9135856 Si02
#       8
#     4   4   4   4   4   4   4   4
#     4  10  22  34  60  87 113 145 193 236 284 325
#     4  11  22  38  57  83 124 148 188 235 287 339
#     4  11  23  37  58  89 114 155 189 237 282 343
#     4  10  21  35  61  84 113 147 190 236 283 330
#     4  10  21  35  58  87 116 145 196 234 283 337
#     4   9  21  37  55  87 116 147 185 241 286 331
#     4  11  22  38  60  86 117 147 195 235 284 341
#     4  10  22  38  57  85 117 154 186 236 285 340
#
# _framework density 18.207128999999998
#
# number of rings (size 3 to 8) (size 9 to 14) (size 15 to 20)
#    0.750    1.000    1.250    3.000    5.250    0.000 
#    0.000    2.500    0.000   10.500    0.000    0.000 
#    0.000    0.000    0.000    0.000    0.000    0.000 
#
# Total GULP energy -89234.627763 kJ/mol
# GULP energy per Si atom -5577.164235 kJ/mol
# Density = 1.816569 g / cm^3
# Si number density = 18.207129 Si / 1000 Ang^3
#
#
#
# Elastic Constant Matrix: (Units=GPa)
#
#
# Indices 1 2 3 4 5 6 
#
# 1 131.8585 55.9834 38.5875 0.0000 1.8070 0.0000
# 2 55.9834 45.4128 24.4650 0.0000 -4.4396 0.0000
# 3 38.5875 24.4650 101.3259 0.0000 16.7213 0.0000
# 4 0.0000 0.0000 0.0000 9.4208 0.0000 6.4416
# 5 1.8070 -4.4396 16.7213 0.0000 26.6074 0.0000
# 6 0.0000 0.0000 0.0000 6.4416 0.0000 -2.5117
#
#
#
# Elastic Compliance Matrix: (Units=1/GPa)
#
#
# Indices 1 2 3 4 5 6 
#
# 1 0.016478 -0.020339 -0.000691 0.000000 -0.004078 0.000000
# 2 -0.020339 0.052509 -0.007371 0.000000 0.014775 0.000000
# 3 -0.000691 -0.007371 0.013508 0.000000 -0.009672 0.000000
# 4 0.000000 0.000000 0.000000 0.038549 0.000000 0.098864
# 5 -0.004078 0.014775 -0.009672 0.000000 0.046404 0.000000
# 6 0.000000 0.000000 0.000000 0.098864 0.000000 -0.144588
#
#
# Mechanical properties :
#
#
# Convention : Reuss Voigt Hill
#
# Bulk Modulus (GPa) = 38.92203 57.40768 48.16485
# Shear Modulus (GPa) = 56.67246 17.34073 37.00659
#
# Velocity S-wave (km/s) = 5.58517 3.08947 4.51325
# Velocity P-wave (km/s) = 7.93825 6.65772 7.32602
#
# Compressibility (1/GPa) = 0.02569239
#
# Stress axis : x y z
#
# Youngs Moduli (GPa) = 60.68862 19.04433 74.02967
#
# Poissons Ratio (x) = 0.38735 0.05116
# Poissons Ratio (y) = 1.23437 0.54565
# Poissons Ratio (z) = 0.04194 0.14037
#
# Static dielectric constant tensor:
#      x y z
#    x 1.644100 0.000000 -0.000430 
#    y 0.000000 1.599430 0.000000 
#    z -0.000430 0.000000 1.630060 
# 
# From -- ./inp_files/25867.got.cif
#   From: 2010.05.17/outbox.cif.g08.bks.cpg/sg9_13_cif.got.tgz:25867.got - 2010.06.03 20:04:27.
