data_PCOD9135620
_publ_section_title
;
Structure prediction by ZEFSAII (Michael W. Deem and Ramdas Pophale) SiO2 
 PCOD9135620
Probable space group: C C
;
_chemical_formula_sum "Si O2"
_cell_formula_units_Z 32
_cell_length_a 4.956265
_cell_length_b 13.585560
_cell_length_c 18.497099
_cell_angle_alpha 90.000000
_cell_angle_beta 101.748372
_cell_angle_gamma 90.000000
_cell_volume 1219.385748
_symmetry_space_group_name_H-M "C C"
_symmetry_group_IT_number 9
_symmetry_cell_setting 'monoclinic'
loop_
_space_group_symop_operation_xyz
x,y,z
x,-y,1/2+z
1/2+x,1/2+y,z
1/2+x,1/2-y,1/2+z
loop_
_atom_site_type_symbol
_atom_site_label
_atom_site_fract_x
_atom_site_fract_y
_atom_site_fract_z
Si Si1 0.761340 0.006178 0.970690
Si Si2 0.080365 0.051360 0.611393
Si Si3 0.581243 0.803426 0.381649
Si Si4 0.700816 0.229662 0.641925
Si Si5 0.877504 0.665434 0.500908
Si Si6 0.467143 0.092411 0.744550
Si Si7 0.434974 0.548765 0.329533
Si Si8 0.912599 0.674043 0.289900
O O1 0.610083 0.103190 0.936186
O O2 0.964488 0.989227 0.913092
O O3 0.885437 0.022511 0.057325
O O4 0.581925 0.905678 0.967461
O O5 0.898174 0.139711 0.631999
O O6 0.256243 0.094258 0.555033
O O7 0.269679 0.021409 0.687768
O O8 0.635353 0.715947 0.442138
O O9 0.369949 0.853926 0.312475
O O10 0.815790 0.765693 0.335693
O O11 0.547259 0.247214 0.557253
O O12 0.496968 0.181829 0.689649
O O13 0.858688 0.305283 0.702140
O O14 0.747121 0.032255 0.777589
O O15 0.716614 0.586147 0.309909
O O16 0.228633 0.643249 0.317638
#
# Coordination Sequence:
#
# PCOD9135620 Si02
#       8
#     4   4   4   4   4   4   4   4
#     4  10  22  42  65  99 134 187 232 291 363 419
#     4  10  21  42  67  90 145 184 227 299 355 418
#     4  10  21  43  66  98 133 180 237 290 354 431
#     4   9  22  40  62  91 135 181 224 286 350 417
#     4  10  20  42  62  94 136 177 232 291 350 420
#     4   9  22  41  66  98 129 185 232 289 358 425
#     4  11  24  42  70 102 138 178 232 292 350 425
#     4  11  24  42  68 102 140 180 230 294 352 419
#
# _framework density 26.242723000000002
#
# number of rings (size 3 to 8) (size 9 to 14) (size 15 to 20)
#    0.000    2.000    1.250    0.750    7.000    1.000 
#    6.750    0.000    0.000    0.000    0.000    0.000 
#    0.000    0.000    0.000    0.000    0.000    0.000 
#
# Total GULP energy -89237.943334 kJ/mol
# GULP energy per Si atom -5577.371458 kJ/mol
# Density = 2.618299 g / cm^3
# Si number density = 26.242723 Si / 1000 Ang^3
#
#
#
# Elastic Constant Matrix: (Units=GPa)
#
#
# Indices 1 2 3 4 5 6 
#
# 1 64.6045 -3.7701 43.5386 0.0000 -3.1232 0.0000
# 2 -3.7701 84.5270 46.9143 0.0000 1.0795 0.0000
# 3 43.5386 46.9143 183.7457 0.0000 29.9227 0.0000
# 4 0.0000 0.0000 0.0000 45.6513 0.0000 -5.6223
# 5 -3.1232 1.0795 29.9227 0.0000 41.5187 0.0000
# 6 0.0000 0.0000 0.0000 -5.6223 0.0000 25.5851
#
#
#
# Elastic Compliance Matrix: (Units=1/GPa)
#
#
# Indices 1 2 3 4 5 6 
#
# 1 0.021041 0.004927 -0.007342 0.000000 0.006746 0.000000
# 2 0.004927 0.015165 -0.005705 0.000000 0.004088 0.000000
# 3 -0.007342 -0.005705 0.009862 0.000000 -0.007512 0.000000
# 4 0.000000 0.000000 0.000000 0.022515 0.000000 0.004948
# 5 0.006746 0.004088 -0.007512 0.000000 0.029900 0.000000
# 6 0.000000 0.000000 0.000000 0.004948 0.000000 0.040173
#
#
# Mechanical properties :
#
#
# Convention : Reuss Voigt Hill
#
# Bulk Modulus (GPa) = 33.52653 56.24922 44.88787
# Shear Modulus (GPa) = 30.33302 38.96397 34.64849
#
# Velocity S-wave (km/s) = 3.40349 3.85743 3.63755
# Velocity P-wave (km/s) = 5.31491 6.42810 5.89783
#
# Compressibility (1/GPa) = 0.02982713
#
# Stress axis : x y z
#
# Youngs Moduli (GPa) = 47.52713 65.94319 101.39988
#
# Poissons Ratio (x) = -0.32493 0.74451
# Poissons Ratio (y) = -0.23419 0.57850
# Poissons Ratio (z) = 0.34896 0.37621
#
# Static dielectric constant tensor:
#      x y z
#    x 2.229950 0.000000 0.066210 
#    y 0.000000 2.206070 0.000000 
#    z 0.066210 0.000000 2.137310 
# 
# From -- ./inp_files/32158.got.cif
#   From: 2010.05.17/outbox.cif.g08.bks.cpg/sg9_17_cif.got.tgz:32158.got - 2010.06.03 20:04:27.
