data_PCOD9135797
_publ_section_title
;
Structure prediction by ZEFSAII (Michael W. Deem and Ramdas Pophale) SiO2 
 PCOD9135797
Probable space group: C C
;
_chemical_formula_sum "Si O2"
_cell_formula_units_Z 28
_cell_length_a 21.717407
_cell_length_b 6.823974
_cell_length_c 14.201597
_cell_angle_alpha 90.000000
_cell_angle_beta 149.696685
_cell_angle_gamma 90.000000
_cell_volume 1061.965640
_symmetry_space_group_name_H-M "C C"
_symmetry_group_IT_number 9
_symmetry_cell_setting 'monoclinic'
loop_
_space_group_symop_operation_xyz
x,y,z
x,-y,1/2+z
1/2+x,1/2+y,z
1/2+x,1/2-y,1/2+z
loop_
_atom_site_type_symbol
_atom_site_label
_atom_site_fract_x
_atom_site_fract_y
_atom_site_fract_z
Si Si1 0.390450 0.975855 0.790050
Si Si2 0.153660 0.989812 0.357773
Si Si3 0.567926 0.911671 0.276250
Si Si4 0.000956 0.124908 0.815707
Si Si5 0.261564 0.483835 0.881885
Si Si6 0.798564 0.566054 0.379223
Si Si7 0.614057 0.777096 0.540936
O O1 0.459480 0.785657 0.837436
O O2 0.325116 0.952560 0.803783
O O3 0.282929 0.040854 0.577642
O O4 0.495838 0.135649 0.936815
O O5 0.067639 0.180835 0.244389
O O6 0.193694 0.958373 0.302986
O O7 0.092117 0.833646 0.347394
O O8 0.649230 0.015117 0.305977
O O9 0.621502 0.893451 0.451300
O O10 0.429881 0.984257 0.097602
O O11 0.877462 0.065642 0.598767
O O12 0.071090 0.943169 0.958059
O O13 0.272005 0.705457 0.860185
O O14 0.233932 0.347074 0.755666
#
# Coordination Sequence:
#
# PCOD9135797 Si02
#       7
#     4   4   4   4   4   4   4
#     4  12  26  46  80 114 148 214 271 327 411 487
#     4  10  23  48  74 104 167 206 254 340 411 475
#     4  10  20  44  75 105 154 206 260 326 400 480
#     4  11  27  51  75 120 158 203 274 341 393 506
#     4  11  23  44  73 111 157 211 256 333 416 479
#     4  11  22  45  77 113 156 214 264 334 414 483
#     4  11  23  48  76 109 156 206 259 337 403 476
#
# _framework density 26.366199000000002
#
# number of rings (size 3 to 8) (size 9 to 14) (size 15 to 20)
#    0.000    1.143    5.714    0.857    4.000    0.000 
#    7.714    1.429    0.000    0.000    0.000    0.000 
#    0.000    0.000    0.000    0.000    0.000    0.000 
#
# Total GULP energy -78377.265997 kJ/mol
# GULP energy per Si atom -5598.376143 kJ/mol
# Density = 2.630619 g / cm^3
# Si number density = 26.366199 Si / 1000 Ang^3
#
#
#
# Elastic Constant Matrix: (Units=GPa)
#
#
# Indices 1 2 3 4 5 6 
#
# 1 234.0379 68.3328 42.0513 0.0000 11.3721 0.0000
# 2 68.3328 112.8266 24.9668 0.0000 -2.5853 0.0000
# 3 42.0513 24.9668 102.0372 0.0000 1.3440 0.0000
# 4 0.0000 0.0000 0.0000 27.7664 0.0000 7.7948
# 5 11.3721 -2.5853 1.3440 0.0000 51.1907 0.0000
# 6 0.0000 0.0000 0.0000 7.7948 0.0000 59.5382
#
#
#
# Elastic Compliance Matrix: (Units=1/GPa)
#
#
# Indices 1 2 3 4 5 6 
#
# 1 0.005491 -0.003023 -0.001506 0.000000 -0.001333 0.000000
# 2 -0.003023 0.011049 -0.001475 0.000000 0.001268 0.000000
# 3 -0.001506 -0.001475 0.010782 0.000000 -0.000023 0.000000
# 4 0.000000 0.000000 0.000000 0.037389 0.000000 -0.004895
# 5 -0.001333 0.001268 -0.000023 0.000000 0.019896 0.000000
# 6 0.000000 0.000000 0.000000 -0.004895 0.000000 0.017437
#
#
# Mechanical properties :
#
#
# Convention : Reuss Voigt Hill
#
# Bulk Modulus (GPa) = 65.29121 79.95594 72.62357
# Shear Modulus (GPa) = 41.96243 48.60245 45.28244
#
# Velocity S-wave (km/s) = 3.99372 4.29810 4.14870
# Velocity P-wave (km/s) = 6.78847 7.41772 7.11006
#
# Compressibility (1/GPa) = 0.01531600
#
# Stress axis : x y z
#
# Youngs Moduli (GPa) = 182.12704 90.50408 92.74772
#
# Poissons Ratio (x) = 0.27357 0.13964
# Poissons Ratio (y) = 0.55053 0.13676
# Poissons Ratio (z) = 0.27422 0.13345
#
# Static dielectric constant tensor:
#      x y z
#    x 2.037650 0.000000 -0.033300 
#    y 0.000000 2.137110 0.000000 
#    z -0.033300 0.000000 2.040790 
# 
# From -- ./inp_files/27316.got.cif
#   From: 2010.05.17/outbox.cif.g08.bks.cpg/sg9_14_cif.got.tgz:27316.got - 2010.06.03 20:04:27.
