data_PCOD9135606
_publ_section_title
;
Structure prediction by ZEFSAII (Michael W. Deem and Ramdas Pophale) SiO2 
 PCOD9135606
Probable space group: C C
;
_chemical_formula_sum "Si O2"
_cell_formula_units_Z 24
_cell_length_a 8.223812
_cell_length_b 13.692241
_cell_length_c 11.657897
_cell_angle_alpha 90.000000
_cell_angle_beta 135.654681
_cell_angle_gamma 90.000000
_cell_volume 917.557711
_symmetry_space_group_name_H-M "C C"
_symmetry_group_IT_number 9
_symmetry_cell_setting 'monoclinic'
loop_
_space_group_symop_operation_xyz
x,y,z
x,-y,1/2+z
1/2+x,1/2+y,z
1/2+x,1/2-y,1/2+z
loop_
_atom_site_type_symbol
_atom_site_label
_atom_site_fract_x
_atom_site_fract_y
_atom_site_fract_z
Si Si1 0.069120 0.106672 0.615010
Si Si2 0.447292 0.819673 0.489584
Si Si3 0.982356 0.858346 0.709486
Si Si4 0.886275 0.210810 0.914668
Si Si5 0.283527 0.995858 0.513181
Si Si6 0.200191 0.605863 0.605477
O O1 0.273913 0.143412 0.802830
O O2 0.193647 0.037378 0.587291
O O3 0.959807 0.203440 0.502489
O O4 0.850188 0.065279 0.576266
O O5 0.716084 0.849413 0.612105
O O6 0.339601 0.880476 0.541996
O O7 0.972410 0.851206 0.566327
O O8 0.135045 0.761075 0.817674
O O9 0.109011 0.948970 0.835495
O O10 0.860908 0.150909 0.785801
O O11 0.048660 0.304583 0.981345
O O12 0.526772 0.037939 0.588273
#
# Coordination Sequence:
#
# PCOD9135606 Si02
#       6
#     4   4   4   4   4   4
#     4  12  26  51  77 114 157 202 262 322 387 471
#     4  12  26  49  79 113 155 211 255 318 404 459
#     4  10  20  41  72 109 157 199 257 323 386 461
#     4   9  18  39  77 111 151 209 256 320 390 467
#     4  11  27  49  75 116 153 202 260 318 394 461
#     4  10  21  43  72 113 151 199 260 313 393 461
#
# _framework density 26.156393000000001
#
# number of rings (size 3 to 8) (size 9 to 14) (size 15 to 20)
#    0.000    1.333    0.000    7.000    2.333    0.000 
#   18.000    1.667    0.000    0.000    0.000    0.000 
#    0.000    0.000    0.000    0.000    0.000    0.000 
#
# Total GULP energy -67227.428751 kJ/mol
# GULP energy per Si atom -5602.285729 kJ/mol
# Density = 2.609686 g / cm^3
# Si number density = 26.156393 Si / 1000 Ang^3
#
#
#
# Elastic Constant Matrix: (Units=GPa)
#
#
# Indices 1 2 3 4 5 6 
#
# 1 202.1776 52.6564 39.3284 0.0000 26.1156 0.0000
# 2 52.6564 88.1323 -6.4537 0.0000 0.5582 0.0000
# 3 39.3284 -6.4537 102.5098 0.0000 9.9521 0.0000
# 4 0.0000 0.0000 0.0000 34.8738 0.0000 2.5343
# 5 26.1156 0.5582 9.9521 0.0000 47.0835 0.0000
# 6 0.0000 0.0000 0.0000 2.5343 0.0000 52.1034
#
#
#
# Elastic Compliance Matrix: (Units=1/GPa)
#
#
# Indices 1 2 3 4 5 6 
#
# 1 0.007024 -0.004370 -0.002651 0.000000 -0.003284 0.000000
# 2 -0.004370 0.014122 0.002396 0.000000 0.001750 0.000000
# 3 -0.002651 0.002396 0.011009 0.000000 -0.000885 0.000000
# 4 0.000000 0.000000 0.000000 0.028776 0.000000 -0.001400
# 5 -0.003284 0.001750 -0.000885 0.000000 0.023227 0.000000
# 6 0.000000 0.000000 0.000000 -0.001400 0.000000 0.019261
#
#
# Mechanical properties :
#
#
# Convention : Reuss Voigt Hill
#
# Bulk Modulus (GPa) = 43.66015 62.65353 53.15684
# Shear Modulus (GPa) = 41.56109 47.29806 44.42958
#
# Velocity S-wave (km/s) = 3.99048 4.25700 4.12589
# Velocity P-wave (km/s) = 6.16118 6.94033 6.56233
#
# Compressibility (1/GPa) = 0.02290418
#
# Stress axis : x y z
#
# Youngs Moduli (GPa) = 142.36418 70.81174 90.83432
#
# Poissons Ratio (x) = 0.30946 0.24082
# Poissons Ratio (y) = 0.62215 -0.21762
# Poissons Ratio (z) = 0.37744 -0.16965
#
# Static dielectric constant tensor:
#      x y z
#    x 2.086480 0.000000 0.016500 
#    y 0.000000 2.132310 0.000000 
#    z 0.016500 0.000000 2.059000 
# 
# From -- ./inp_files/23449.got.cif
#   From: 2010.05.17/outbox.cif.g08.bks.cpg/sg9_12_cif.got.tgz:23449.got - 2010.06.03 20:04:27.
