data_PCOD9135392
_publ_section_title
;
Structure prediction by ZEFSAII (Michael W. Deem and Ramdas Pophale) SiO2 
 PCOD9135392
Probable space group: C C
;
_chemical_formula_sum "Si O2"
_cell_formula_units_Z 24
_cell_length_a 12.423830
_cell_length_b 5.341870
_cell_length_c 24.599702
_cell_angle_alpha 90.000000
_cell_angle_beta 142.852571
_cell_angle_gamma 90.000000
_cell_volume 985.872353
_symmetry_space_group_name_H-M "C C"
_symmetry_group_IT_number 9
_symmetry_cell_setting 'monoclinic'
loop_
_space_group_symop_operation_xyz
x,y,z
x,-y,1/2+z
1/2+x,1/2+y,z
1/2+x,1/2-y,1/2+z
loop_
_atom_site_type_symbol
_atom_site_label
_atom_site_fract_x
_atom_site_fract_y
_atom_site_fract_z
Si Si1 0.117130 0.222577 0.905760
Si Si2 0.940770 0.949700 0.522708
Si Si3 0.425730 0.716256 0.192220
Si Si4 0.809553 0.716257 0.207979
Si Si5 0.294515 0.949689 0.877492
Si Si6 0.618145 0.722566 0.494441
O O1 0.915507 0.280226 0.807063
O O2 0.193326 0.140433 0.877030
O O3 0.267803 0.427354 0.980973
O O4 0.117639 0.000019 0.950105
O O5 0.867657 0.750018 0.450100
O O6 0.099077 0.838834 0.622851
O O7 0.041962 0.140485 0.523182
O O8 0.339034 0.485201 0.191145
O O9 0.636204 0.661164 0.277347
O O10 0.319772 0.719777 0.093135
O O11 0.396253 0.985203 0.209055
O O12 0.467461 0.072683 0.919216
#
# Coordination Sequence:
#
# PCOD9135392 Si02
#       6
#     4   4   4   4   4   4
#     4  10  22  40  69 101 140 185 246 303 359 439
#     4  10  20  40  69  94 141 189 232 299 373 435
#     4  10  20  39  69  97 137 192 237 290 373 440
#     4  10  20  39  69  97 137 192 237 290 373 440
#     4  10  20  40  69  94 141 189 232 299 373 435
#     4  10  22  40  69 101 140 185 246 303 359 439
#
# _framework density 24.343920000000001
#
# number of rings (size 3 to 8) (size 9 to 14) (size 15 to 20)
#    0.000    2.000    3.333    0.000    0.000    1.333 
#    0.000    1.667   14.667    0.000    0.000    0.000 
#    0.000    0.000    0.000    0.000    0.000    0.000 
#
# Total GULP energy -67021.615567 kJ/mol
# GULP energy per Si atom -5585.134631 kJ/mol
# Density = 2.428851 g / cm^3
# Si number density = 24.343920 Si / 1000 Ang^3
#
#
#
# Elastic Constant Matrix: (Units=GPa)
#
#
# Indices 1 2 3 4 5 6 
#
# 1 101.6475 12.9916 58.7351 -0.0002 22.1488 0.0004
# 2 12.9916 101.0380 65.2724 -0.0004 -13.3050 0.0011
# 3 58.7351 65.2724 306.1338 0.0000 4.8661 0.0001
# 4 -0.0002 -0.0004 0.0000 55.8181 0.0001 -4.3195
# 5 22.1488 -13.3050 4.8661 0.0001 48.1139 -0.0002
# 6 0.0004 0.0011 0.0001 -4.3195 -0.0002 59.0171
#
#
#
# Elastic Compliance Matrix: (Units=1/GPa)
#
#
# Indices 1 2 3 4 5 6 
#
# 1 0.012430 -0.001021 -0.002075 0.000000 -0.005794 0.000000
# 2 -0.001021 0.012156 -0.002461 0.000000 0.004080 0.000000
# 3 -0.002075 -0.002461 0.004192 0.000000 -0.000149 0.000000
# 4 0.000000 0.000000 0.000000 0.018017 0.000000 0.001319
# 5 -0.005794 0.004080 -0.000149 0.000000 0.024595 0.000000
# 6 0.000000 0.000000 0.000000 0.001319 0.000000 0.017041
#
#
# Mechanical properties :
#
#
# Convention : Reuss Voigt Hill
#
# Bulk Modulus (GPa) = 56.61214 86.97971 71.79593
# Shear Modulus (GPa) = 47.42420 57.37783 52.40102
#
# Velocity S-wave (km/s) = 4.41851 4.86013 4.64457
# Velocity P-wave (km/s) = 7.02400 8.20375 7.63669
#
# Compressibility (1/GPa) = 0.01766405
#
# Stress axis : x y z
#
# Youngs Moduli (GPa) = 80.45033 82.26728 238.56580
#
# Poissons Ratio (x) = 0.08397 0.49505
# Poissons Ratio (y) = 0.08212 0.58705
# Poissons Ratio (z) = 0.16694 0.20244
#
# Static dielectric constant tensor:
#      x y z
#    x 2.155940 0.000000 0.052530 
#    y 0.000000 2.032500 0.000000 
#    z 0.052530 0.000000 1.972220 
# 
# From -- ./inp_files/31755.got.cif
#   From: 2010.05.17/outbox.cif.g08.bks.cpg/sg9_16_cif.got.tgz:31755.got - 2010.06.03 20:04:27.
