data_PCOD9135402
_publ_section_title
;
Structure prediction by ZEFSAII (Michael W. Deem and Ramdas Pophale) SiO2 
 PCOD9135402
Probable space group: C C
;
_chemical_formula_sum "Si O2"
_cell_formula_units_Z 32
_cell_length_a 10.351722
_cell_length_b 13.166020
_cell_length_c 17.014674
_cell_angle_alpha 90.000000
_cell_angle_beta 31.949692
_cell_angle_gamma 90.000000
_cell_volume 1227.127254
_symmetry_space_group_name_H-M "C C"
_symmetry_group_IT_number 9
_symmetry_cell_setting 'monoclinic'
loop_
_space_group_symop_operation_xyz
x,y,z
x,-y,1/2+z
1/2+x,1/2+y,z
1/2+x,1/2-y,1/2+z
loop_
_atom_site_type_symbol
_atom_site_label
_atom_site_fract_x
_atom_site_fract_y
_atom_site_fract_z
Si Si1 0.466420 0.075999 0.313990
Si Si2 0.290273 0.235551 0.267027
Si Si3 0.787966 0.028133 0.536793
Si Si4 0.703646 0.336108 0.210105
Si Si5 0.306350 0.963646 0.689220
Si Si6 0.006825 0.271971 0.203249
Si Si7 0.342664 0.142208 0.943516
Si Si8 0.829384 0.266306 0.989877
O O1 0.333246 0.154098 0.318780
O O2 0.494953 0.141576 0.376600
O O3 0.719354 0.040265 0.146096
O O4 0.345581 0.969114 0.402545
O O5 0.286036 0.157053 0.195338
O O6 0.079973 0.319814 0.371623
O O7 0.546441 0.291866 0.123812
O O8 0.729330 0.145195 0.589416
O O9 0.062840 0.015450 0.367809
O O10 0.570250 0.993029 0.589532
O O11 0.759023 0.449171 0.149812
O O12 0.821704 0.258909 0.087189
O O13 0.422700 0.319200 0.381193
O O14 0.832340 0.317192 0.226424
O O15 0.865488 0.280156 0.357785
O O16 0.112204 0.167333 0.116331
#
# Coordination Sequence:
#
# PCOD9135402 Si02
#       8
#     4   4   4   4   4   4   4   4
#     4  10  24  45  67 112 148 201 250 317 394 464
#     4  11  24  45  78 105 153 196 253 320 393 467
#     4   9  19  39  69  99 146 193 248 309 391 469
#     4  11  24  42  70  98 148 195 250 315 393 468
#     4  10  20  39  71 104 138 200 251 303 390 474
#     4  10  22  43  66 105 139 194 247 320 380 458
#     4  11  24  44  75 108 148 194 261 315 391 470
#     4  12  25  47  68 107 148 203 254 319 396 478
#
# _framework density 26.077165999999998
#
# number of rings (size 3 to 8) (size 9 to 14) (size 15 to 20)
#    0.000    1.500    2.500    3.000    1.750    2.000 
#    2.250    1.250    0.000    0.000    0.000    0.000 
#    0.000    0.000    0.000    0.000    0.000    0.000 
#
# Total GULP energy -89151.707693 kJ/mol
# GULP energy per Si atom -5571.981731 kJ/mol
# Density = 2.601781 g / cm^3
# Si number density = 26.077166 Si / 1000 Ang^3
#
#
#
# Elastic Constant Matrix: (Units=GPa)
#
#
# Indices 1 2 3 4 5 6 
#
# 1 63.4992 9.8155 44.7218 0.0006 2.0088 -0.0022
# 2 9.8155 87.8802 7.5922 -0.0115 -3.8280 0.0019
# 3 44.7218 7.5922 109.7733 -0.0257 6.2264 0.0030
# 4 0.0006 -0.0115 -0.0257 33.1479 0.0016 6.0998
# 5 2.0088 -3.8280 6.2264 0.0016 49.3080 0.0025
# 6 -0.0022 0.0019 0.0030 6.0998 0.0025 35.9629
#
#
#
# Elastic Compliance Matrix: (Units=1/GPa)
#
#
# Indices 1 2 3 4 5 6 
#
# 1 0.022341 -0.001715 -0.008988 -0.000009 0.000092 0.000004
# 2 -0.001715 0.011628 -0.000162 0.000004 0.000993 -0.000001
# 3 -0.008988 -0.000162 0.012855 0.000011 -0.001270 -0.000003
# 4 -0.000009 0.000004 0.000011 0.031140 -0.000001 -0.005282
# 5 0.000092 0.000993 -0.001270 -0.000001 0.020514 -0.000001
# 6 0.000004 -0.000001 -0.000003 -0.005282 -0.000001 0.028702
#
#
# Mechanical properties :
#
#
# Convention : Reuss Voigt Hill
#
# Bulk Modulus (GPa) = 39.85107 42.82353 41.33730
# Shear Modulus (GPa) = 31.79162 36.95197 34.37179
#
# Velocity S-wave (km/s) = 3.49540 3.76842 3.63448
# Velocity P-wave (km/s) = 5.62189 5.94913 5.78782
#
# Compressibility (1/GPa) = 0.02509343
#
# Stress axis : x y z
#
# Youngs Moduli (GPa) = 44.76134 86.00004 77.79239
#
# Poissons Ratio (x) = 0.14747 0.69922
# Poissons Ratio (y) = 0.07676 0.01260
# Poissons Ratio (z) = 0.40233 0.01393
#
# Static dielectric constant tensor:
#      x y z
#    x 2.186920 0.000000 0.024490 
#    y 0.000000 2.245320 0.000000 
#    z 0.024490 0.000000 1.995290 
# 
# From -- ./inp_files/30160.got.cif
#   From: 2010.05.17/outbox.cif.g08.bks.cpg/sg9_16_cif.got.tgz:30160.got - 2010.06.03 20:04:27.
