data_PCOD9135976
_publ_section_title
;
Structure prediction by ZEFSAII (Michael W. Deem and Ramdas Pophale) SiO2 
 PCOD9135976
Probable space group: C C
;
_chemical_formula_sum "Si O2"
_cell_formula_units_Z 32
_cell_length_a 22.187550
_cell_length_b 5.885294
_cell_length_c 20.576082
_cell_angle_alpha 90.000000
_cell_angle_beta 151.278824
_cell_angle_gamma 90.000000
_cell_volume 1291.149858
_symmetry_space_group_name_H-M "C C"
_symmetry_group_IT_number 9
_symmetry_cell_setting 'monoclinic'
loop_
_space_group_symop_operation_xyz
x,y,z
x,-y,1/2+z
1/2+x,1/2+y,z
1/2+x,1/2-y,1/2+z
loop_
_atom_site_type_symbol
_atom_site_label
_atom_site_fract_x
_atom_site_fract_y
_atom_site_fract_z
Si Si1 0.686060 0.604868 0.143220
Si Si2 0.857690 0.889194 0.515354
Si Si3 0.971023 0.480616 0.916596
Si Si4 0.251747 0.982508 0.985044
Si Si5 0.013538 0.160058 0.567450
Si Si6 0.927809 0.801502 0.204892
Si Si7 0.067329 0.835266 0.913293
Si Si8 0.110755 0.367389 0.784950
O O1 0.835682 0.643614 0.286567
O O2 0.638835 0.464977 0.161465
O O3 0.590625 0.819427 0.045800
O O4 0.650428 0.435767 0.050404
O O5 0.863283 0.645023 0.553561
O O6 0.709931 0.934702 0.368212
O O7 0.925030 0.962932 0.513469
O O8 0.906827 0.047407 0.620179
O O9 0.001846 0.609213 0.877961
O O10 0.961028 0.686619 0.959347
O O11 0.304035 0.152724 0.089751
O O12 0.156375 0.823913 0.934301
O O13 0.189179 0.133984 0.870479
O O14 0.037460 0.329585 0.649454
O O15 0.038245 0.637149 0.284795
O O16 0.966190 0.970010 0.297923
#
# Coordination Sequence:
#
# PCOD9135976 Si02
#       8
#     4   4   4   4   4   4   4   4
#     4  11  27  46  72 106 139 200 258 318 382 444
#     4  10  21  37  68 101 142 185 231 298 372 449
#     4  11  27  49  74 106 147 200 264 320 380 448
#     4  10  22  40  67 104 139 186 238 297 381 455
#     4  10  23  45  68 101 145 192 249 313 375 448
#     4   9  21  39  64 100 140 182 238 295 365 453
#     4  10  25  45  70 101 145 194 251 316 376 449
#     4   9  20  39  61  99 139 177 233 291 367 444
#
# _framework density 24.784109999999998
#
# number of rings (size 3 to 8) (size 9 to 14) (size 15 to 20)
#    0.000    2.000    0.000    0.750    3.500   16.000 
#    0.000    0.000    0.000    0.000    0.000    0.000 
#    0.000    0.000    0.000    0.000    0.000    0.000 
#
# Total GULP energy -89386.173359 kJ/mol
# GULP energy per Si atom -5586.635835 kJ/mol
# Density = 2.472770 g / cm^3
# Si number density = 24.784110 Si / 1000 Ang^3
#
#
#
# Elastic Constant Matrix: (Units=GPa)
#
#
# Indices 1 2 3 4 5 6 
#
# 1 128.4499 53.0744 37.3326 0.0000 1.2587 0.0000
# 2 53.0744 81.2710 34.1845 -0.0003 13.8639 -0.0002
# 3 37.3326 34.1845 88.3580 0.0000 11.8315 0.0000
# 4 0.0000 -0.0003 0.0000 38.1400 -0.0001 -4.1403
# 5 1.2587 13.8639 11.8315 -0.0001 38.5583 0.0000
# 6 0.0000 -0.0002 0.0000 -4.1403 0.0000 50.8153
#
#
#
# Elastic Compliance Matrix: (Units=1/GPa)
#
#
# Indices 1 2 3 4 5 6 
#
# 1 0.011303 -0.006806 -0.002525 0.000000 0.002853 0.000000
# 2 -0.006806 0.019316 -0.003856 0.000000 -0.005540 0.000000
# 3 -0.002525 -0.003856 0.014265 0.000000 -0.002909 0.000000
# 4 0.000000 0.000000 0.000000 0.026453 0.000000 0.002155
# 5 0.002853 -0.005540 -0.002909 0.000000 0.028726 0.000000
# 6 0.000000 0.000000 0.000000 0.002155 0.000000 0.019855
#
#
# Mechanical properties :
#
#
# Convention : Reuss Voigt Hill
#
# Bulk Modulus (GPa) = 54.01926 60.80689 57.41308
# Shear Modulus (GPa) = 32.79492 37.06853 34.93173
#
# Velocity S-wave (km/s) = 3.64156 3.87157 3.75832
# Velocity P-wave (km/s) = 6.28685 6.67632 6.48451
#
# Compressibility (1/GPa) = 0.01851192
#
# Stress axis : x y z
#
# Youngs Moduli (GPa) = 88.46989 51.76974 70.09988
#
# Poissons Ratio (x) = 0.35237 0.17697
# Poissons Ratio (y) = 0.60217 0.27027
# Poissons Ratio (z) = 0.22334 0.19960
#
# Static dielectric constant tensor:
#      x y z
#    x 1.955550 0.000000 0.050090 
#    y 0.000000 1.996730 0.000000 
#    z 0.050090 0.000000 2.010570 
# 
# From -- ./inp_files/34465.got.cif
#   From: 2010.05.17/outbox.cif.g08.bks.cpg/sg9_18_cif.got.tgz:34465.got - 2010.06.03 20:04:27.
