data_PCOD9135503
_publ_section_title
;
Structure prediction by ZEFSAII (Michael W. Deem and Ramdas Pophale) SiO2 
 PCOD9135503
Probable space group: C C
;
_chemical_formula_sum "Si O2"
_cell_formula_units_Z 32
_cell_length_a 11.754166
_cell_length_b 17.104263
_cell_length_c 7.591339
_cell_angle_alpha 90.000000
_cell_angle_beta 115.849687
_cell_angle_gamma 90.000000
_cell_volume 1373.499828
_symmetry_space_group_name_H-M "C C"
_symmetry_group_IT_number 9
_symmetry_cell_setting 'monoclinic'
loop_
_space_group_symop_operation_xyz
x,y,z
x,-y,1/2+z
1/2+x,1/2+y,z
1/2+x,1/2-y,1/2+z
loop_
_atom_site_type_symbol
_atom_site_label
_atom_site_fract_x
_atom_site_fract_y
_atom_site_fract_z
Si Si1 0.097130 0.925475 0.356400
Si Si2 0.544010 0.735074 0.002646
Si Si3 0.986705 0.527078 0.613504
Si Si4 0.229585 0.406361 0.473299
Si Si5 0.821079 0.063105 0.655409
Si Si6 0.754297 0.745259 0.436938
Si Si7 0.567370 0.882025 0.822337
Si Si8 0.721231 0.422445 0.084920
O O1 0.084031 0.853110 0.480939
O O2 0.202559 0.911559 0.280071
O O3 0.959661 0.926892 0.174155
O O4 0.123648 0.009642 0.460572
O O5 0.656815 0.761529 0.209730
O O6 0.404038 0.750146 0.990007
O O7 0.542861 0.790667 0.828710
O O8 0.854698 0.542352 0.616382
O O9 0.097214 0.564555 0.806222
O O10 0.020270 0.434618 0.628733
O O11 0.995365 0.574080 0.436873
O O12 0.284798 0.472097 0.635743
O O13 0.314509 0.406730 0.351379
O O14 0.229357 0.319331 0.546911
O O15 0.713927 0.103138 0.465733
O O16 0.715159 0.661711 0.487949
#
# Coordination Sequence:
#
# PCOD9135503 Si02
#       8
#     4   4   4   4   4   4   4   4
#     4  12  26  43  67 103 143 183 233 288 366 421
#     4  12  24  46  70 100 138 188 234 292 354 420
#     4  10  20  41  62  95 125 176 227 278 337 415
#     4  10  20  40  69  89 129 175 233 278 341 406
#     4  10  20  41  62  95 125 176 227 278 337 415
#     4  12  24  46  70 100 138 188 234 292 354 420
#     4  10  20  40  69  89 129 175 233 278 341 406
#     4  12  26  43  67 103 143 183 233 288 366 421
#
# _framework density 23.298145999999999
#
# number of rings (size 3 to 8) (size 9 to 14) (size 15 to 20)
#    0.000    1.000    5.000    2.250    3.500    0.000 
#    9.000    2.500    0.000    0.000    0.000    0.000 
#    0.000    0.000    0.000    0.000    0.000    0.000 
#
# Total GULP energy -89414.803112 kJ/mol
# GULP energy per Si atom -5588.425194 kJ/mol
# Density = 2.324512 g / cm^3
# Si number density = 23.298146 Si / 1000 Ang^3
#
#
#
# Elastic Constant Matrix: (Units=GPa)
#
#
# Indices 1 2 3 4 5 6 
#
# 1 86.4798 -6.9396 12.0950 0.0000 9.1575 0.0000
# 2 -6.9396 172.0414 8.9973 0.0000 0.2625 0.0000
# 3 12.0950 8.9973 34.2728 0.0000 -4.2734 0.0000
# 4 0.0000 0.0000 0.0000 32.9417 0.0000 -8.0856
# 5 9.1575 0.2625 -4.2734 0.0000 34.2012 0.0000
# 6 0.0000 0.0000 0.0000 -8.0856 0.0000 33.4487
#
#
#
# Elastic Compliance Matrix: (Units=1/GPa)
#
#
# Indices 1 2 3 4 5 6 
#
# 1 0.012792 0.000796 -0.005232 0.000000 -0.004085 0.000000
# 2 0.000796 0.005945 -0.001903 0.000000 -0.000497 0.000000
# 3 -0.005232 -0.001903 0.032202 0.000000 0.005439 0.000000
# 4 0.000000 0.000000 0.000000 0.032271 0.000000 0.007801
# 5 -0.004085 -0.000497 0.005439 0.000000 0.031016 0.000000
# 6 0.000000 0.000000 0.000000 0.007801 0.000000 0.031782
#
#
# Mechanical properties :
#
#
# Convention : Reuss Voigt Hill
#
# Bulk Modulus (GPa) = 26.13796 35.67773 30.90784
# Shear Modulus (GPa) = 29.16449 38.69440 33.92944
#
# Velocity S-wave (km/s) = 3.54191 4.07976 3.82031
# Velocity P-wave (km/s) = 5.28867 6.12694 5.72317
#
# Compressibility (1/GPa) = 0.03825853
#
# Stress axis : x y z
#
# Youngs Moduli (GPa) = 78.17615 168.20972 31.05388
#
# Poissons Ratio (x) = -0.13387 0.16249
# Poissons Ratio (y) = -0.06222 0.05911
# Poissons Ratio (z) = 0.40905 0.32018
#
# Static dielectric constant tensor:
#      x y z
#    x 1.904580 0.000000 -0.027340 
#    y 0.000000 1.929260 0.000000 
#    z -0.027340 0.000000 1.905280 
# 
# From -- ./inp_files/8057.got.cif
#   From: 2010.05.17/outbox.cif.g08.bks.cpg/sg9_5_cif.got.tgz:8057.got - 2010.06.03 20:04:27.
