data_PCOD9135261
_publ_section_title
;
Structure prediction by ZEFSAII (Michael W. Deem and Ramdas Pophale) SiO2 
 PCOD9135261
Probable space group: C C
;
_chemical_formula_sum "Si O2"
_cell_formula_units_Z 28
_cell_length_a 13.443482
_cell_length_b 7.897483
_cell_length_c 12.918310
_cell_angle_alpha 90.000000
_cell_angle_beta 60.252834
_cell_angle_gamma 90.000000
_cell_volume 1190.796740
_symmetry_space_group_name_H-M "C C"
_symmetry_group_IT_number 9
_symmetry_cell_setting 'monoclinic'
loop_
_space_group_symop_operation_xyz
x,y,z
x,-y,1/2+z
1/2+x,1/2+y,z
1/2+x,1/2-y,1/2+z
loop_
_atom_site_type_symbol
_atom_site_label
_atom_site_fract_x
_atom_site_fract_y
_atom_site_fract_z
Si Si1 0.806580 0.507268 0.894040
Si Si2 0.038916 0.330759 0.337082
Si Si3 0.997896 0.195175 0.579280
Si Si4 0.776955 0.971281 0.193537
Si Si5 0.082023 0.820513 0.587072
Si Si6 0.718335 0.206873 0.053196
Si Si7 0.856054 0.675198 0.663533
O O1 0.830019 0.539000 0.761915
O O2 0.926255 0.554569 0.885812
O O3 0.711555 0.645811 0.981503
O O4 0.768480 0.312424 0.931626
O O5 0.022822 0.214472 0.445128
O O6 0.151162 0.440718 0.297804
O O7 0.065906 0.237456 0.214229
O O8 0.083244 0.313457 0.601632
O O9 0.036822 0.010504 0.595386
O O10 0.861773 0.184971 0.660329
O O11 0.768395 0.035020 0.076736
O O12 0.824517 0.138758 0.225109
O O13 0.992040 0.698780 0.570537
O O14 0.764688 0.337262 0.118055
#
# Coordination Sequence:
#
# PCOD9135261 Si02
#       7
#     4   4   4   4   4   4   4
#     4  10  20  38  66  93 125 177 220 264 335 400
#     4  11  22  41  63  98 126 172 225 268 337 403
#     4  10  21  43  64  94 129 180 215 272 343 393
#     4   9  21  45  61  92 140 166 220 285 325 399
#     4   9  20  39  63  88 130 169 212 275 333 391
#     4   9  21  42  61  97 127 176 223 270 331 399
#     4   8  19  40  60  92 129 168 215 270 338 387
#
# _framework density 23.513669
#
# number of rings (size 3 to 8) (size 9 to 14) (size 15 to 20)
#    0.857    1.714    0.000    0.857    0.000    5.714 
#   20.571    0.000    0.000    0.000    0.000    0.000 
#    0.000    0.000    0.000    0.000    0.000    0.000 
#
# Total GULP energy -77956.789264 kJ/mol
# GULP energy per Si atom -5568.342090 kJ/mol
# Density = 2.346015 g / cm^3
# Si number density = 23.513669 Si / 1000 Ang^3
#
#
#
# Elastic Constant Matrix: (Units=GPa)
#
#
# Indices 1 2 3 4 5 6 
#
# 1 154.5124 27.9483 40.8659 0.0000 -29.2054 0.0000
# 2 27.9483 68.0550 32.0916 0.0000 -10.0797 0.0000
# 3 40.8659 32.0916 51.1098 0.0000 -25.4710 0.0000
# 4 0.0000 0.0000 0.0000 30.9632 0.0000 1.0335
# 5 -29.2054 -10.0797 -25.4710 0.0000 44.9472 0.0000
# 6 0.0000 0.0000 0.0000 1.0335 0.0000 13.8075
#
#
#
# Elastic Compliance Matrix: (Units=1/GPa)
#
#
# Indices 1 2 3 4 5 6 
#
# 1 0.008397 -0.000701 -0.005063 0.000000 0.002430 0.000000
# 2 -0.000701 0.021417 -0.014939 0.000000 -0.004119 0.000000
# 3 -0.005063 -0.014939 0.041368 0.000000 0.016803 0.000000
# 4 0.000000 0.000000 0.000000 0.032377 0.000000 -0.002424
# 5 0.002430 -0.004119 0.016803 0.000000 0.032425 0.000000
# 6 0.000000 0.000000 0.000000 -0.002424 0.000000 0.072606
#
#
# Mechanical properties :
#
#
# Convention : Reuss Voigt Hill
#
# Bulk Modulus (GPa) = 33.58532 52.83209 43.20871
# Shear Modulus (GPa) = 19.23652 29.46166 24.34909
#
# Velocity S-wave (km/s) = 2.86335 3.54356 3.22146
# Velocity P-wave (km/s) = 5.02454 6.26577 5.67917
#
# Compressibility (1/GPa) = 0.02977492
#
# Stress axis : x y z
#
# Youngs Moduli (GPa) = 119.08815 46.69262 24.17325
#
# Poissons Ratio (x) = 0.03274 0.12239
# Poissons Ratio (y) = 0.08350 0.36113
# Poissons Ratio (z) = 0.60293 0.69756
#
# Static dielectric constant tensor:
#      x y z
#    x 2.043420 0.000000 -0.000630 
#    y 0.000000 1.892330 0.000000 
#    z -0.000630 0.000000 1.910790 
# 
# From -- ./inp_files/25480.got.cif
#   From: 2010.05.17/outbox.cif.g08.bks.cpg/sg9_13_cif.got.tgz:25480.got - 2010.06.03 20:04:27.
