data_PCOD9135568
_publ_section_title
;
Structure prediction by ZEFSAII (Michael W. Deem and Ramdas Pophale) SiO2 
 PCOD9135568
Probable space group: C C
;
_chemical_formula_sum "Si O2"
_cell_formula_units_Z 24
_cell_length_a 12.363971
_cell_length_b 6.844888
_cell_length_c 24.598984
_cell_angle_alpha 90.000000
_cell_angle_beta 28.294110
_cell_angle_gamma 90.000000
_cell_volume 986.774056
_symmetry_space_group_name_H-M "C C"
_symmetry_group_IT_number 9
_symmetry_cell_setting 'monoclinic'
loop_
_space_group_symop_operation_xyz
x,y,z
x,-y,1/2+z
1/2+x,1/2+y,z
1/2+x,1/2-y,1/2+z
loop_
_atom_site_type_symbol
_atom_site_label
_atom_site_fract_x
_atom_site_fract_y
_atom_site_fract_z
Si Si1 0.906250 0.279640 0.954100
Si Si2 0.674629 0.007145 0.492379
Si Si3 0.469803 0.244319 0.942077
Si Si4 0.351455 0.718734 0.308480
Si Si5 0.447252 0.641831 0.690831
Si Si6 0.337877 0.704807 0.623199
O O1 0.830242 0.188799 0.930497
O O2 0.932229 0.512395 0.947218
O O3 0.142539 0.186696 0.868581
O O4 0.683892 0.241346 0.089844
O O5 0.417335 0.924690 0.607315
O O6 0.774667 0.142111 0.495525
O O7 0.727249 0.114836 0.413730
O O8 0.726327 0.264287 0.805818
O O9 0.450143 0.303059 0.013971
O O10 0.454208 0.550145 0.224369
O O11 0.569906 0.829813 0.234190
O O12 0.419594 0.582736 0.639294
#
# Coordination Sequence:
#
# PCOD9135568 Si02
#       6
#     4   4   4   4   4   4
#     4  10  23  42  64  99 131 170 221 265 329 389
#     4  11  23  42  67  96 128 176 218 268 331 384
#     4  11  22  43  67  97 133 170 220 273 323 390
#     4  11  20  43  66  92 135 171 211 279 324 382
#     4  10  20  41  66  93 130 170 213 270 320 384
#     4  11  22  41  66  95 135 167 219 275 319 391
#
# _framework density 24.321679
#
# number of rings (size 3 to 8) (size 9 to 14) (size 15 to 20)
#    0.000    1.333    6.667    0.000    0.000    1.333 
#    6.000    6.667    0.000    0.000    0.000    0.000 
#    0.000    0.000    0.000    0.000    0.000    0.000 
#
# Total GULP energy -66991.438919 kJ/mol
# GULP energy per Si atom -5582.619910 kJ/mol
# Density = 2.426632 g / cm^3
# Si number density = 24.321679 Si / 1000 Ang^3
#
#
#
# Elastic Constant Matrix: (Units=GPa)
#
#
# Indices 1 2 3 4 5 6 
#
# 1 101.0387 6.4415 -4.7342 -0.0001 -13.4263 0.0002
# 2 6.4415 59.4378 -0.0265 0.0002 -0.7840 0.0002
# 3 -4.7342 -0.0265 76.6520 -0.0015 -34.8004 -0.0005
# 4 -0.0001 0.0002 -0.0015 13.6181 -0.0004 -6.9208
# 5 -13.4263 -0.7840 -34.8004 -0.0004 55.1949 0.0000
# 6 0.0002 0.0002 -0.0005 -6.9208 0.0000 38.5606
#
#
#
# Elastic Compliance Matrix: (Units=1/GPa)
#
#
# Indices 1 2 3 4 5 6 
#
# 1 0.010643 -0.001097 0.002557 0.000001 0.004186 0.000000
# 2 -0.001097 0.016942 -0.000103 0.000000 -0.000091 0.000000
# 3 0.002557 -0.000103 0.018894 0.000003 0.012533 0.000001
# 4 0.000001 0.000000 0.000003 0.080801 0.000002 0.014502
# 5 0.004186 -0.000091 0.012533 0.000002 0.027037 0.000001
# 6 0.000000 0.000000 0.000001 0.014502 0.000001 0.028536
#
#
# Mechanical properties :
#
#
# Convention : Reuss Voigt Hill
#
# Bulk Modulus (GPa) = 20.32812 26.72111 23.52461
# Shear Modulus (GPa) = 25.44044 37.17124 31.30584
#
# Velocity S-wave (km/s) = 3.23770 3.91361 3.59159
# Velocity P-wave (km/s) = 4.72791 5.60644 5.18581
#
# Compressibility (1/GPa) = 0.04919295
#
# Stress axis : x y z
#
# Youngs Moduli (GPa) = 93.95678 59.02509 52.92660
#
# Poissons Ratio (x) = 0.06476 -0.13535
# Poissons Ratio (y) = 0.10308 0.00547
# Poissons Ratio (z) = -0.24028 0.00610
#
# Static dielectric constant tensor:
#      x y z
#    x 1.930340 0.000000 -0.024220 
#    y 0.000000 2.012520 0.000000 
#    z -0.024220 0.000000 1.951160 
# 
# From -- ./inp_files/15836.got.cif
#   From: 2010.05.17/outbox.cif.g08.bks.cpg/sg9_8_cif.got.tgz:15836.got - 2010.06.03 20:04:27.
