data_PCOD9135934
_publ_section_title
;
Structure prediction by ZEFSAII (Michael W. Deem and Ramdas Pophale) SiO2 
 PCOD9135934
Probable space group: C C
;
_chemical_formula_sum "Si O2"
_cell_formula_units_Z 24
_cell_length_a 5.102700
_cell_length_b 22.705206
_cell_length_c 8.736099
_cell_angle_alpha 90.000000
_cell_angle_beta 87.543051
_cell_angle_gamma 90.000000
_cell_volume 1011.215237
_symmetry_space_group_name_H-M "C C"
_symmetry_group_IT_number 9
_symmetry_cell_setting 'monoclinic'
loop_
_space_group_symop_operation_xyz
x,y,z
x,-y,1/2+z
1/2+x,1/2+y,z
1/2+x,1/2-y,1/2+z
loop_
_atom_site_type_symbol
_atom_site_label
_atom_site_fract_x
_atom_site_fract_y
_atom_site_fract_z
Si Si1 0.899640 0.282472 0.666150
Si Si2 0.913801 0.800633 0.451725
Si Si3 0.436170 0.449060 0.096048
Si Si4 0.043574 0.927983 0.510362
Si Si5 0.934910 0.526416 0.801574
Si Si6 0.723851 0.600284 0.327511
O O1 0.909300 0.229714 0.786992
O O2 0.657483 0.281201 0.553152
O O3 0.868162 0.340498 0.774516
O O4 0.156087 0.286441 0.555645
O O5 0.939122 0.870841 0.429758
O O6 0.409303 0.508693 0.993544
O O7 0.680402 0.461403 0.201303
O O8 0.175522 0.447881 0.201567
O O9 0.539176 0.398242 0.981444
O O10 0.348322 0.938681 0.456327
O O11 0.035106 0.913271 0.689029
O O12 0.918804 0.456258 0.835562
#
# Coordination Sequence:
#
# PCOD9135934 Si02
#       6
#     4   4   4   4   4   4
#     4  11  24  44  67  93 127 169 217 266 317 374
#     4  11  24  44  67  93 127 169 217 266 317 374
#     4  10  21  37  60  93 126 158 201 251 311 378
#     4   9  21  39  62  89 125 165 202 253 317 376
#     4  10  21  37  60  93 126 158 201 251 311 378
#     4   9  21  39  62  89 125 165 202 253 317 376
#
# _framework density 23.733820000000001
#
# number of rings (size 3 to 8) (size 9 to 14) (size 15 to 20)
#    0.000    2.000    0.000    2.000    0.000   18.667 
#    0.000    3.333    0.000    0.000    0.000    0.000 
#    0.000    0.000    0.000    0.000    0.000    0.000 
#
# Total GULP energy -67131.386146 kJ/mol
# GULP energy per Si atom -5594.282179 kJ/mol
# Density = 2.367980 g / cm^3
# Si number density = 23.733820 Si / 1000 Ang^3
#
#
#
# Elastic Constant Matrix: (Units=GPa)
#
#
# Indices 1 2 3 4 5 6 
#
# 1 153.9021 19.2846 46.7058 0.0000 -31.5204 0.0000
# 2 19.2846 54.6341 10.5825 0.0000 11.7829 0.0000
# 3 46.7058 10.5825 97.5452 0.0000 -26.5198 0.0000
# 4 0.0000 0.0000 0.0000 42.1818 0.0000 10.9407
# 5 -31.5204 11.7829 -26.5198 0.0000 50.3270 0.0000
# 6 0.0000 0.0000 0.0000 10.9407 0.0000 17.0940
#
#
#
# Elastic Compliance Matrix: (Units=1/GPa)
#
#
# Indices 1 2 3 4 5 6 
#
# 1 0.008729 -0.003711 -0.002398 0.000000 0.005072 0.000000
# 2 -0.003711 0.022195 -0.003123 0.000000 -0.009166 0.000000
# 3 -0.002398 -0.003123 0.013457 0.000000 0.006321 0.000000
# 4 0.000000 0.000000 0.000000 0.028426 0.000000 -0.018193
# 5 0.005072 -0.009166 0.006321 0.000000 0.028524 0.000000
# 6 0.000000 0.000000 0.000000 -0.018193 0.000000 0.070145
#
#
# Mechanical properties :
#
#
# Convention : Reuss Voigt Hill
#
# Bulk Modulus (GPa) = 38.58393 51.02524 44.80459
# Shear Modulus (GPa) = 25.17894 37.22113 31.20004
#
# Velocity S-wave (km/s) = 3.26066 3.96444 3.62965
# Velocity P-wave (km/s) = 5.51979 6.51931 6.04026
#
# Compressibility (1/GPa) = 0.02591752
#
# Stress axis : x y z
#
# Youngs Moduli (GPa) = 114.55801 45.05477 74.31024
#
# Poissons Ratio (x) = 0.16718 0.17820
# Poissons Ratio (y) = 0.42508 0.23209
# Poissons Ratio (z) = 0.27472 0.14072
#
# Static dielectric constant tensor:
#      x y z
#    x 1.942030 0.000000 0.041310 
#    y 0.000000 1.926100 0.000000 
#    z 0.041310 0.000000 1.943950 
# 
# From -- ./inp_files/3860.got.cif
#   From: 2010.05.17/outbox.cif.g08.bks.cpg/sg9_2_cif.got.tgz:3860.got - 2010.06.03 20:04:27.
