data_PCOD9135554
_publ_section_title
;
Structure prediction by ZEFSAII (Michael W. Deem and Ramdas Pophale) SiO2 
 PCOD9135554
Probable space group: C C
;
_chemical_formula_sum "Si O2"
_cell_formula_units_Z 32
_cell_length_a 6.851923
_cell_length_b 21.644004
_cell_length_c 11.366340
_cell_angle_alpha 90.000000
_cell_angle_beta 58.986260
_cell_angle_gamma 90.000000
_cell_volume 1444.686859
_symmetry_space_group_name_H-M "C C"
_symmetry_group_IT_number 9
_symmetry_cell_setting 'monoclinic'
loop_
_space_group_symop_operation_xyz
x,y,z
x,-y,1/2+z
1/2+x,1/2+y,z
1/2+x,1/2-y,1/2+z
loop_
_atom_site_type_symbol
_atom_site_label
_atom_site_fract_x
_atom_site_fract_y
_atom_site_fract_z
Si Si1 0.511780 0.304322 0.038200
Si Si2 0.879185 0.057763 0.367870
Si Si3 0.636424 0.817458 0.959088
Si Si4 0.560020 0.042540 0.679054
Si Si5 0.964930 0.722221 0.281260
Si Si6 0.193085 0.879183 0.162033
Si Si7 0.725874 0.922617 0.363948
Si Si8 0.413116 0.087333 0.191137
O O1 0.479693 0.267930 0.168484
O O2 0.601844 0.371638 0.055639
O O3 0.303773 0.303749 0.014083
O O4 0.712160 0.271127 0.908195
O O5 0.723130 0.116352 0.382601
O O6 0.785516 0.043854 0.528909
O O7 0.139357 0.079089 0.270049
O O8 0.826451 0.992475 0.323356
O O9 0.620153 0.773495 0.850513
O O10 0.388532 0.826486 0.094925
O O11 0.347992 0.065076 0.663524
O O12 0.598036 0.086319 0.779303
O O13 0.501053 0.972861 0.733152
O O14 0.977578 0.652497 0.227637
O O15 0.954949 0.881608 0.307134
O O16 0.545330 0.916595 0.524828
#
# Coordination Sequence:
#
# PCOD9135554 Si02
#       8
#     4   4   4   4   4   4   4   4
#     4  11  25  46  71  98 135 180 234 290 341 407
#     4  10  20  41  64  97 137 180 219 270 348 412
#     4  10  22  45  73  96 129 186 226 281 346 408
#     4  10  22  40  68  97 136 184 223 272 347 419
#     4  11  26  46  70 100 135 181 233 289 343 411
#     4  10  21  41  66  97 130 175 227 272 335 411
#     4  11  23  38  65 103 140 175 221 284 334 421
#     4  11  23  43  63 102 142 175 225 284 342 407
#
# _framework density 22.150130999999998
#
# number of rings (size 3 to 8) (size 9 to 14) (size 15 to 20)
#    0.000    1.500    2.500    2.250    3.500    4.000 
#    4.500    0.000    0.000    0.000    0.000    0.000 
#    0.000    0.000    0.000    0.000    0.000    0.000 
#
# Total GULP energy -89147.841687 kJ/mol
# GULP energy per Si atom -5571.740105 kJ/mol
# Density = 2.209972 g / cm^3
# Si number density = 22.150131 Si / 1000 Ang^3
#
#
#
# Elastic Constant Matrix: (Units=GPa)
#
#
# Indices 1 2 3 4 5 6 
#
# 1 173.1330 45.6844 69.3800 0.0000 6.1130 0.0000
# 2 45.6844 66.0334 26.4346 0.0000 13.3669 0.0000
# 3 69.3800 26.4346 124.7302 0.0000 -16.1891 0.0000
# 4 0.0000 0.0000 0.0000 35.4000 0.0000 10.0969
# 5 6.1130 13.3669 -16.1891 0.0000 40.1364 0.0000
# 6 0.0000 0.0000 0.0000 10.0969 0.0000 17.5751
#
#
#
# Elastic Compliance Matrix: (Units=1/GPa)
#
#
# Indices 1 2 3 4 5 6 
#
# 1 0.008519 -0.003905 -0.004126 0.000000 -0.001661 0.000000
# 2 -0.003905 0.020654 -0.003187 0.000000 -0.007569 0.000000
# 3 -0.004126 -0.003187 0.011827 0.000000 0.006460 0.000000
# 4 0.000000 0.000000 0.000000 0.033785 0.000000 -0.019409
# 5 -0.001661 -0.007569 0.006460 0.000000 0.030295 0.000000
# 6 0.000000 0.000000 0.000000 -0.019409 0.000000 0.068049
#
#
# Mechanical properties :
#
#
# Convention : Reuss Voigt Hill
#
# Bulk Modulus (GPa) = 53.87666 71.87718 62.87692
# Shear Modulus (GPa) = 24.78277 33.44879 29.11578
#
# Velocity S-wave (km/s) = 3.34856 3.89021 3.62950
# Velocity P-wave (km/s) = 6.27110 7.25939 6.78327
#
# Compressibility (1/GPa) = 0.01856091
#
# Stress axis : x y z
#
# Youngs Moduli (GPa) = 117.38991 48.41687 84.55557
#
# Poissons Ratio (x) = 0.18909 0.34890
# Poissons Ratio (y) = 0.45845 0.26951
# Poissons Ratio (z) = 0.48439 0.15432
#
# Static dielectric constant tensor:
#      x y z
#    x 1.834120 0.000000 0.004200 
#    y 0.000000 1.946510 0.000000 
#    z 0.004200 0.000000 1.800070 
# 
# From -- ./inp_files/13879.got.cif
#   From: 2010.05.17/outbox.cif.g08.bks.cpg/sg9_7_cif.got.tgz:13879.got - 2010.06.03 20:04:27.
