data_PCOD9135292
_publ_section_title
;
Structure prediction by ZEFSAII (Michael W. Deem and Ramdas Pophale) SiO2 
 PCOD9135292
Probable space group: C C
;
_chemical_formula_sum "Si O2"
_cell_formula_units_Z 28
_cell_length_a 9.869596
_cell_length_b 21.162454
_cell_length_c 5.595573
_cell_angle_alpha 90.000000
_cell_angle_beta 67.051782
_cell_angle_gamma 90.000000
_cell_volume 1076.223445
_symmetry_space_group_name_H-M "C C"
_symmetry_group_IT_number 9
_symmetry_cell_setting 'monoclinic'
loop_
_space_group_symop_operation_xyz
x,y,z
x,-y,1/2+z
1/2+x,1/2+y,z
1/2+x,1/2-y,1/2+z
loop_
_atom_site_type_symbol
_atom_site_label
_atom_site_fract_x
_atom_site_fract_y
_atom_site_fract_z
Si Si1 0.817450 0.522466 0.011440
Si Si2 0.954667 0.205817 0.506835
Si Si3 0.975385 0.165976 0.995885
Si Si4 0.167556 0.388455 0.678646
Si Si5 0.486930 0.521127 0.148030
Si Si6 0.706160 0.899929 0.153154
Si Si7 0.921388 0.654156 0.057018
O O1 0.886896 0.491904 0.203273
O O2 0.652918 0.496748 0.085363
O O3 0.812881 0.597301 0.069277
O O4 0.028221 0.203096 0.194091
O O5 0.840136 0.148724 0.564971
O O6 0.878041 0.273622 0.585511
O O7 0.037438 0.190226 0.699514
O O8 0.794675 0.165987 0.094787
O O9 0.000267 0.091825 0.033426
O O10 0.198416 0.429527 0.420700
O O11 0.005352 0.361268 0.748808
O O12 0.190643 0.426952 0.901368
O O13 0.425412 0.518735 0.464137
O O14 0.557636 0.856243 0.280598
#
# Coordination Sequence:
#
# PCOD9135292 Si02
#       7
#     4   4   4   4   4   4   4
#     4  10  24  41  59  84 115 152 204 246 280 345
#     4  10  21  34  59  87 121 149 186 236 290 354
#     4  10  20  39  57  87 118 150 188 240 287 340
#     4   8  18  34  55  77 119 141 178 240 270 335
#     4  10  21  41  63  84 117 154 197 246 283 339
#     4   8  18  34  51  79 115 145 180 228 274 338
#     4  10  22  37  62  82 119 157 187 236 304 337
#
# _framework density 26.0169
#
# number of rings (size 3 to 8) (size 9 to 14) (size 15 to 20)
#    0.857    1.714    0.000    0.857    4.000    1.143 
#    2.571    1.429    0.000    0.000    0.000    0.000 
#    0.000    0.000    0.000    0.000    0.000    0.000 
#
# Total GULP energy -77989.867174 kJ/mol
# GULP energy per Si atom -5570.704798 kJ/mol
# Density = 2.595768 g / cm^3
# Si number density = 26.016900 Si / 1000 Ang^3
#
#
#
# Elastic Constant Matrix: (Units=GPa)
#
#
# Indices 1 2 3 4 5 6 
#
# 1 66.8665 18.6401 46.3552 0.0000 28.1815 0.0000
# 2 18.6401 154.4061 44.1220 0.0000 40.2852 0.0000
# 3 46.3552 44.1220 223.8783 0.0000 97.8250 0.0000
# 4 0.0000 0.0000 0.0000 22.6947 0.0000 5.5974
# 5 28.1815 40.2852 97.8250 0.0000 52.5519 0.0000
# 6 0.0000 0.0000 0.0000 5.5974 0.0000 18.6302
#
#
#
# Elastic Compliance Matrix: (Units=1/GPa)
#
#
# Indices 1 2 3 4 5 6 
#
# 1 0.019878 0.001475 0.003994 0.000000 -0.019226 0.000000
# 2 0.001475 0.010038 0.007633 0.000000 -0.022694 0.000000
# 3 0.003994 0.007633 0.030159 0.000000 -0.064134 0.000000
# 4 0.000000 0.000000 0.000000 0.047590 0.000000 -0.014298
# 5 -0.019226 -0.022694 -0.064134 0.000000 0.166122 0.000000
# 6 0.000000 0.000000 0.000000 -0.014298 0.000000 0.057972
#
#
# Mechanical properties :
#
#
# Convention : Reuss Voigt Hill
#
# Bulk Modulus (GPa) = 11.59023 73.70949 42.64986
# Shear Modulus (GPa) = 14.95597 41.17761 28.06679
#
# Velocity S-wave (km/s) = 2.40022 3.98266 3.28806
# Velocity P-wave (km/s) = 3.48510 7.03859 5.55372
#
# Compressibility (1/GPa) = 0.08627957
#
# Stress axis : x y z
#
# Youngs Moduli (GPa) = 50.30733 99.61811 33.15720
#
# Poissons Ratio (x) = -0.14694 -0.13244
# Poissons Ratio (y) = -0.07421 -0.25308
# Poissons Ratio (z) = -0.20095 -0.76035
#
# Static dielectric constant tensor:
#      x y z
#    x 2.080180 0.000000 -0.008120 
#    y 0.000000 1.995340 0.000000 
#    z -0.008120 0.000000 2.219570 
# 
# From -- ./inp_files/1826.got.cif
#   From: 2010.05.17/outbox.cif.g08.bks.cpg/sg9_1_cif.got.tgz:1826.got - 2010.06.03 20:04:27.
