data_PCOD9135449
_publ_section_title
;
Structure prediction by ZEFSAII (Michael W. Deem and Ramdas Pophale) SiO2 
 PCOD9135449
Probable space group: C C
;
_chemical_formula_sum "Si O2"
_cell_formula_units_Z 32
_cell_length_a 13.493116
_cell_length_b 6.550220
_cell_length_c 25.667269
_cell_angle_alpha 90.000000
_cell_angle_beta 146.927930
_cell_angle_gamma 90.000000
_cell_volume 1237.931488
_symmetry_space_group_name_H-M "C C"
_symmetry_group_IT_number 9
_symmetry_cell_setting 'monoclinic'
loop_
_space_group_symop_operation_xyz
x,y,z
x,-y,1/2+z
1/2+x,1/2+y,z
1/2+x,1/2-y,1/2+z
loop_
_atom_site_type_symbol
_atom_site_label
_atom_site_fract_x
_atom_site_fract_y
_atom_site_fract_z
Si Si1 0.043220 0.522953 0.212530
Si Si2 0.063351 0.035240 0.881269
Si Si3 0.439966 0.687131 0.424656
Si Si4 0.833964 0.900869 0.469203
Si Si5 0.919615 0.231066 0.569202
Si Si6 0.552647 0.026766 0.551706
Si Si7 0.719892 0.287166 0.711168
Si Si8 0.929114 0.350121 0.268606
O O1 0.229263 0.645108 0.312156
O O2 0.085594 0.337307 0.190836
O O3 0.928805 0.691280 0.131243
O O4 0.932672 0.419865 0.210432
O O5 0.063134 0.886693 0.931411
O O6 0.977082 0.887611 0.798672
O O7 0.905764 0.199788 0.817246
O O8 0.244554 0.169722 0.963416
O O9 0.440999 0.526239 0.472433
O O10 0.516226 0.901611 0.481815
O O11 0.908022 0.990718 0.555673
O O12 0.871903 0.665763 0.476980
O O13 0.623052 0.941077 0.372592
O O14 0.073263 0.345400 0.602931
O O15 0.687073 0.196904 0.637551
O O16 0.772094 0.527987 0.730306
#
# Coordination Sequence:
#
# PCOD9135449 Si02
#       8
#     4   4   4   4   4   4   4   4
#     4   9  22  42  65  94 132 176 219 284 340 403
#     4  11  22  39  64  91 134 169 218 278 336 402
#     4   9  22  39  62  92 129 169 214 273 336 397
#     4  10  20  40  65  86 124 175 214 272 337 403
#     4  10  20  40  65  92 130 168 223 272 333 409
#     4  10  21  40  66  92 129 173 220 268 341 405
#     4  10  23  42  61  98 132 167 224 284 330 416
#     4  11  22  40  64  93 126 177 220 273 347 401
#
# _framework density 25.849574
#
# number of rings (size 3 to 8) (size 9 to 14) (size 15 to 20)
#    0.000    2.000    2.500    0.000    0.000    9.000 
#    2.250    5.000    0.000    0.000    0.000    0.000 
#    0.000    0.000    0.000    0.000    0.000    0.000 
#
# Total GULP energy -89097.605414 kJ/mol
# GULP energy per Si atom -5568.600338 kJ/mol
# Density = 2.579074 g / cm^3
# Si number density = 25.849574 Si / 1000 Ang^3
#
#
#
# Elastic Constant Matrix: (Units=GPa)
#
#
# Indices 1 2 3 4 5 6 
#
# 1 39.4524 10.6551 -6.8663 0.0000 -18.1521 0.0000
# 2 10.6551 119.2889 18.1297 0.0000 -17.4287 0.0000
# 3 -6.8663 18.1297 75.5353 0.0000 -12.6141 0.0000
# 4 0.0000 0.0000 0.0000 38.8247 0.0000 -0.8919
# 5 -18.1521 -17.4287 -12.6141 0.0000 26.2832 0.0000
# 6 0.0000 0.0000 0.0000 -0.8919 0.0000 12.9664
#
#
#
# Elastic Compliance Matrix: (Units=1/GPa)
#
#
# Indices 1 2 3 4 5 6 
#
# 1 0.042704 -0.000324 0.009620 0.000000 0.033895 0.000000
# 2 -0.000324 0.009405 -0.001394 0.000000 0.005343 0.000000
# 3 0.009620 -0.001394 0.016745 0.000000 0.013756 0.000000
# 4 0.000000 0.000000 0.000000 0.025798 0.000000 0.001775
# 5 0.033895 0.005343 0.013756 0.000000 0.071601 0.000000
# 6 0.000000 0.000000 0.000000 0.001775 0.000000 0.077244
#
#
# Mechanical properties :
#
#
# Convention : Reuss Voigt Hill
#
# Bulk Modulus (GPa) = 11.81247 30.90151 21.35699
# Shear Modulus (GPa) = 19.53791 29.77208 24.65499
#
# Velocity S-wave (km/s) = 2.75222 3.39742 3.09170
# Velocity P-wave (km/s) = 3.83135 5.23166 4.58527
#
# Compressibility (1/GPa) = 0.08465629
#
# Stress axis : x y z
#
# Youngs Moduli (GPa) = 23.41703 106.33144 59.71874
#
# Poissons Ratio (x) = 0.03448 -0.57450
# Poissons Ratio (y) = 0.00759 0.08327
# Poissons Ratio (z) = -0.22527 0.14827
#
# Static dielectric constant tensor:
#      x y z
#    x 2.070910 0.000000 0.052550 
#    y 0.000000 2.092670 0.000000 
#    z 0.052550 0.000000 2.151260 
# 
# From -- ./inp_files/37490.got.cif
#   From: 2010.05.17/outbox.cif.g08.bks.cpg/sg9_19_cif.got.tgz:37490.got - 2010.06.03 20:04:27.
