data_PCOD9135021
_publ_section_title
;
Structure prediction by ZEFSAII (Michael W. Deem and Ramdas Pophale) SiO2 
 PCOD9135021
Probable space group: C C
;
_chemical_formula_sum "Si O2"
_cell_formula_units_Z 32
_cell_length_a 9.321046
_cell_length_b 26.623426
_cell_length_c 8.922857
_cell_angle_alpha 90.000000
_cell_angle_beta 145.716949
_cell_angle_gamma 90.000000
_cell_volume 1247.263261
_symmetry_space_group_name_H-M "C C"
_symmetry_group_IT_number 9
_symmetry_cell_setting 'monoclinic'
loop_
_space_group_symop_operation_xyz
x,y,z
x,-y,1/2+z
1/2+x,1/2+y,z
1/2+x,1/2-y,1/2+z
loop_
_atom_site_type_symbol
_atom_site_label
_atom_site_fract_x
_atom_site_fract_y
_atom_site_fract_z
Si Si1 0.809610 0.989770 0.179700
Si Si2 0.577479 0.933970 0.710526
Si Si3 0.159360 0.220953 0.925172
Si Si4 0.665192 0.681305 0.259165
Si Si5 0.104964 0.123809 0.673186
Si Si6 0.617375 0.236900 0.987041
Si Si7 0.994830 0.636409 0.746167
Si Si8 0.926743 0.930085 0.556554
O O1 0.960137 0.953299 0.421794
O O2 0.643996 0.023770 0.147012
O O3 0.983353 0.026882 0.227932
O O4 0.625955 0.957967 0.914109
O O5 0.301789 0.912487 0.432289
O O6 0.816223 0.894970 0.903010
O O7 0.453964 0.237001 0.201197
O O8 0.094391 0.203378 0.039485
O O9 0.110601 0.173596 0.776531
O O10 0.626355 0.725195 0.351131
O O11 0.951495 0.664181 0.550031
O O12 0.544572 0.625311 0.166477
O O13 0.242273 0.130191 0.629993
O O14 0.328980 0.246474 0.784440
O O15 0.644819 0.178916 0.969418
O O16 0.131598 0.584291 0.836447
#
# Coordination Sequence:
#
# PCOD9135021 Si02
#       8
#     4   4   4   4   4   4   4   4
#     4  10  24  46  74 104 149 185 259 307 381 444
#     4  11  25  49  71 108 139 200 242 318 368 455
#     4  12  28  48  73 110 151 199 246 306 372 451
#     4  11  24  42  72 103 141 191 248 307 361 442
#     4  12  27  47  73 102 156 192 249 299 385 453
#     4  10  20  36  61  97 131 171 228 286 337 412
#     4  11  24  40  70 103 142 194 242 302 365 440
#     4  11  22  46  68 107 141 196 238 315 367 445
#
# _framework density 25.656172000000002
#
# number of rings (size 3 to 8) (size 9 to 14) (size 15 to 20)
#    0.000    1.000    2.500    3.750    3.500    3.000 
#    9.000    0.000    0.000    0.000    0.000    0.000 
#    0.000    0.000    0.000    0.000    0.000    0.000 
#
# Total GULP energy -89486.684414 kJ/mol
# GULP energy per Si atom -5592.917776 kJ/mol
# Density = 2.559778 g / cm^3
# Si number density = 25.656172 Si / 1000 Ang^3
#
#
#
# Elastic Constant Matrix: (Units=GPa)
#
#
# Indices 1 2 3 4 5 6 
#
# 1 73.9880 34.7993 38.1996 0.0000 -22.9558 0.0000
# 2 34.7993 113.9043 29.1397 0.0000 -13.3299 0.0000
# 3 38.1996 29.1397 90.9197 0.0000 -16.0058 0.0000
# 4 0.0000 0.0000 0.0000 49.2551 0.0000 -13.6856
# 5 -22.9558 -13.3299 -16.0058 0.0000 44.6022 0.0000
# 6 0.0000 0.0000 0.0000 -13.6856 0.0000 30.9484
#
#
#
# Elastic Compliance Matrix: (Units=1/GPa)
#
#
# Indices 1 2 3 4 5 6 
#
# 1 0.020838 -0.003921 -0.006209 0.000000 0.007325 0.000000
# 2 -0.003921 0.010451 -0.001609 0.000000 0.000528 0.000000
# 3 -0.006209 -0.001609 0.014385 0.000000 0.001485 0.000000
# 4 0.000000 0.000000 0.000000 0.023146 0.000000 0.010235
# 5 0.007325 0.000528 0.001485 0.000000 0.026881 0.000000
# 6 0.000000 0.000000 0.000000 0.010235 0.000000 0.036838
#
#
# Mechanical properties :
#
#
# Convention : Reuss Voigt Hill
#
# Bulk Modulus (GPa) = 45.05391 53.67660 49.36525
# Shear Modulus (GPa) = 30.59688 36.73935 33.66811
#
# Velocity S-wave (km/s) = 3.45711 3.78827 3.62647
# Velocity P-wave (km/s) = 5.79088 6.33258 6.06778
#
# Compressibility (1/GPa) = 0.02219563
#
# Stress axis : x y z
#
# Youngs Moduli (GPa) = 47.98901 95.68842 69.51850
#
# Poissons Ratio (x) = 0.37516 0.43164
# Poissons Ratio (y) = 0.18815 0.11187
# Poissons Ratio (z) = 0.29796 0.15398
#
# Static dielectric constant tensor:
#      x y z
#    x 2.127140 0.000000 0.102750 
#    y 0.000000 2.012710 0.000000 
#    z 0.102750 0.000000 2.126650 
# 
# From -- ./inp_files/6458.got.cif
#   From: 2010.05.17/outbox.cif.g08.bks.cpg/sg9_4_cif.got.tgz:6458.got - 2010.06.03 20:04:27.
