data_PCOD9135514
_publ_section_title
;
Structure prediction by ZEFSAII (Michael W. Deem and Ramdas Pophale) SiO2 
 PCOD9135514
Probable space group: C C
;
_chemical_formula_sum "Si O2"
_cell_formula_units_Z 28
_cell_length_a 29.161406
_cell_length_b 4.950689
_cell_length_c 8.329901
_cell_angle_alpha 90.000000
_cell_angle_beta 126.176537
_cell_angle_gamma 90.000000
_cell_volume 970.725030
_symmetry_space_group_name_H-M "C C"
_symmetry_group_IT_number 9
_symmetry_cell_setting 'monoclinic'
loop_
_space_group_symop_operation_xyz
x,y,z
x,-y,1/2+z
1/2+x,1/2+y,z
1/2+x,1/2-y,1/2+z
loop_
_atom_site_type_symbol
_atom_site_label
_atom_site_fract_x
_atom_site_fract_y
_atom_site_fract_z
Si Si1 0.224320 0.993427 0.640940
Si Si2 0.050765 0.732795 0.322010
Si Si3 0.981215 0.166435 0.959469
Si Si4 0.225168 0.373992 0.908104
Si Si5 0.327856 0.717613 0.186980
Si Si6 0.621969 0.801210 0.257677
Si Si7 0.402013 0.682382 0.064460
O O1 0.226034 0.087197 0.824938
O O2 0.284892 0.095047 0.696576
O O3 0.165895 0.120562 0.449793
O O4 0.223206 0.680897 0.595801
O O5 0.079768 0.491220 0.279131
O O6 0.094031 0.851045 0.546902
O O7 0.006456 0.641641 0.370925
O O8 0.023554 0.965194 0.151270
O O9 0.943359 0.972417 0.771414
O O10 0.941119 0.313895 0.006662
O O11 0.164803 0.500151 0.754728
O O12 0.283699 0.520974 0.005270
O O13 0.363509 0.844512 0.112779
O O14 0.365590 0.537583 0.386390
#
# Coordination Sequence:
#
# PCOD9135514 Si02
#       7
#     4   4   4   4   4   4   4
#     4  11  25  40  64 103 137 176 226 274 335 438
#     4  11  24  44  68 101 136 179 239 286 346 408
#     4   9  22  41  76  98 128 183 240 287 346 406
#     4  11  25  40  64 103 137 176 226 274 335 438
#     4  10  20  40  70  94 140 176 216 276 358 412
#     4  11  26  43  68  98 140 185 224 281 352 406
#     4   9  18  40  72  95 130 179 221 290 356 404
#
# _framework density 28.844417
#
# number of rings (size 3 to 8) (size 9 to 14) (size 15 to 20)
#    0.000    1.714    2.857    0.000    6.000    2.286 
#    0.000    0.000   47.143    0.000    0.000    0.000 
#    0.000    0.000    0.000    0.000    0.000    0.000 
#
# Total GULP energy -78208.456501 kJ/mol
# GULP energy per Si atom -5586.318322 kJ/mol
# Density = 2.877877 g / cm^3
# Si number density = 28.844417 Si / 1000 Ang^3
#
#
#
# Elastic Constant Matrix: (Units=GPa)
#
#
# Indices 1 2 3 4 5 6 
#
# 1 254.8636 40.5147 56.3858 0.0000 -48.9271 0.0000
# 2 40.5147 33.6616 40.4200 0.0000 -3.0403 0.0000
# 3 56.3858 40.4200 224.6631 0.0000 7.5159 0.0000
# 4 0.0000 0.0000 0.0000 59.2001 0.0000 -4.8741
# 5 -48.9271 -3.0403 7.5159 0.0000 47.3093 0.0000
# 6 0.0000 0.0000 0.0000 -4.8741 0.0000 29.6316
#
#
#
# Elastic Compliance Matrix: (Units=1/GPa)
#
#
# Indices 1 2 3 4 5 6 
#
# 1 0.006228 -0.006144 -0.000664 0.000000 0.006152 0.000000
# 2 -0.006144 0.044552 -0.006391 0.000000 -0.002475 0.000000
# 3 -0.000664 -0.006391 0.005835 0.000000 -0.002024 0.000000
# 4 0.000000 0.000000 0.000000 0.017124 0.000000 0.002817
# 5 0.006152 -0.002475 -0.002024 0.000000 0.027662 0.000000
# 6 0.000000 0.000000 0.000000 0.002817 0.000000 0.034211
#
#
# Mechanical properties :
#
#
# Convention : Reuss Voigt Hill
#
# Bulk Modulus (GPa) = 33.09132 87.53660 60.31396
# Shear Modulus (GPa) = 29.05599 52.28605 40.67102
#
# Velocity S-wave (km/s) = 3.17730 4.26219 3.75909
# Velocity P-wave (km/s) = 4.99575 7.39158 6.30845
#
# Compressibility (1/GPa) = 0.03021941
#
# Stress axis : x y z
#
# Youngs Moduli (GPa) = 160.56350 22.44555 171.37450
#
# Poissons Ratio (x) = 0.13790 0.11372
# Poissons Ratio (y) = 0.98644 1.09523
# Poissons Ratio (z) = 0.10655 0.14345
#
# Static dielectric constant tensor:
#      x y z
#    x 2.351930 0.000000 0.087280 
#    y 0.000000 2.201810 0.000000 
#    z 0.087280 0.000000 2.195660 
# 
# From -- ./inp_files/11920.got.cif
#   From: 2010.05.17/outbox.cif.g08.bks.cpg/sg9_6_cif.got.tgz:11920.got - 2010.06.03 20:04:27.
