data_PCOD9135159
_publ_section_title
;
Structure prediction by ZEFSAII (Michael W. Deem and Ramdas Pophale) SiO2 
 PCOD9135159
Probable space group: C C
;
_chemical_formula_sum "Si O2"
_cell_formula_units_Z 20
_cell_length_a 8.074417
_cell_length_b 19.530731
_cell_length_c 5.402685
_cell_angle_alpha 90.000000
_cell_angle_beta 87.645243
_cell_angle_gamma 90.000000
_cell_volume 851.280020
_symmetry_space_group_name_H-M "C C"
_symmetry_group_IT_number 9
_symmetry_cell_setting 'monoclinic'
loop_
_space_group_symop_operation_xyz
x,y,z
x,-y,1/2+z
1/2+x,1/2+y,z
1/2+x,1/2-y,1/2+z
loop_
_atom_site_type_symbol
_atom_site_label
_atom_site_fract_x
_atom_site_fract_y
_atom_site_fract_z
Si Si1 0.706680 0.187595 0.743290
Si Si2 0.002256 0.987570 0.579299
Si Si3 0.576912 0.253335 0.243588
Si Si4 0.221401 0.898805 0.286058
Si Si5 0.088782 0.456941 0.319514
O O1 0.624634 0.212335 0.490340
O O2 0.714600 0.105658 0.760333
O O3 0.888738 0.220204 0.755400
O O4 0.606826 0.211230 0.992096
O O5 0.099995 0.917453 0.524964
O O6 0.907700 0.989917 0.840266
O O7 0.143620 0.046285 0.598251
O O8 0.692462 0.320847 0.221633
O O9 0.408707 0.919351 0.315512
O O10 0.092537 0.489609 0.592385
#
# Coordination Sequence:
#
# PCOD9135159 Si02
#       5
#     4   4   4   4   4
#     4  12  28  50  71 110 142 198 242 302 371 423
#     4   8  16  30  50  92 126 166 216 262 326 416
#     4  12  27  48  76 104 150 188 247 304 359 446
#     4  10  20  37  66  99 135 180 233 277 353 423
#     4  12  23  43  69 101 145 188 232 295 357 438
#
# _framework density 23.494032000000001
#
# number of rings (size 3 to 8) (size 9 to 14) (size 15 to 20)
#    1.200    0.000    2.000    4.800    2.800    0.000 
#    3.600    0.000    0.000    0.000    0.000    0.000 
#    0.000    0.000    0.000    0.000    0.000    0.000 
#
# Total GULP energy -55907.999542 kJ/mol
# GULP energy per Si atom -5590.799954 kJ/mol
# Density = 2.344056 g / cm^3
# Si number density = 23.494032 Si / 1000 Ang^3
#
#
#
# Elastic Constant Matrix: (Units=GPa)
#
#
# Indices 1 2 3 4 5 6 
#
# 1 105.1491 14.7031 48.4699 0.0000 11.4151 0.0000
# 2 14.7031 124.7603 38.0201 0.0000 6.6625 0.0000
# 3 48.4699 38.0201 153.7365 0.0000 0.6418 0.0000
# 4 0.0000 0.0000 0.0000 38.9549 0.0000 5.2652
# 5 11.4151 6.6625 0.6418 0.0000 28.2255 0.0000
# 6 0.0000 0.0000 0.0000 5.2652 0.0000 47.5438
#
#
#
# Elastic Compliance Matrix: (Units=1/GPa)
#
#
# Indices 1 2 3 4 5 6 
#
# 1 0.011708 -0.000014 -0.003668 0.000000 -0.004648 0.000000
# 2 -0.000014 0.008783 -0.002159 0.000000 -0.002019 0.000000
# 3 -0.003668 -0.002159 0.008188 0.000000 0.001807 0.000000
# 4 0.000000 0.000000 0.000000 0.026061 0.000000 -0.002886
# 5 -0.004648 -0.002019 0.001807 0.000000 0.037744 0.000000
# 6 0.000000 0.000000 0.000000 -0.002886 0.000000 0.021353
#
#
# Mechanical properties :
#
#
# Convention : Reuss Voigt Hill
#
# Bulk Modulus (GPa) = 58.83888 65.11467 61.97678
# Shear Modulus (GPa) = 38.11435 41.77506 39.94470
#
# Velocity S-wave (km/s) = 4.03215 4.22134 4.12783
# Velocity P-wave (km/s) = 6.83931 7.17880 7.01111
#
# Compressibility (1/GPa) = 0.01699556
#
# Stress axis : x y z
#
# Youngs Moduli (GPa) = 85.41266 113.85874 122.13443
#
# Poissons Ratio (x) = 0.00155 0.44805
# Poissons Ratio (y) = 0.00116 0.26373
# Poissons Ratio (z) = 0.31333 0.24586
#
# Static dielectric constant tensor:
#      x y z
#    x 1.908590 0.000000 0.013400 
#    y 0.000000 1.829490 0.000000 
#    z 0.013400 0.000000 1.935830 
# 
# From -- ./inp_files/622.got.cif
#   From: 2010.05.17/outbox.cif.g08.bks.cpg/sg9_1_cif.got.tgz:622.got - 2010.06.03 20:04:27.
