data_PCOD9135913
_publ_section_title
;
Structure prediction by ZEFSAII (Michael W. Deem and Ramdas Pophale) SiO2 
 PCOD9135913
Probable space group: C C
;
_chemical_formula_sum "Si O2"
_cell_formula_units_Z 32
_cell_length_a 14.879491
_cell_length_b 18.325138
_cell_length_c 14.169987
_cell_angle_alpha 90.000000
_cell_angle_beta 159.243591
_cell_angle_gamma 90.000000
_cell_volume 1369.282787
_symmetry_space_group_name_H-M "C C"
_symmetry_group_IT_number 9
_symmetry_cell_setting 'monoclinic'
loop_
_space_group_symop_operation_xyz
x,y,z
x,-y,1/2+z
1/2+x,1/2+y,z
1/2+x,1/2-y,1/2+z
loop_
_atom_site_type_symbol
_atom_site_label
_atom_site_fract_x
_atom_site_fract_y
_atom_site_fract_z
Si Si1 0.591590 0.977249 0.193810
Si Si2 0.238185 0.282350 0.074447
Si Si3 0.094651 0.447322 0.973180
Si Si4 0.947998 0.226276 0.042763
Si Si5 0.274197 0.857878 0.975944
Si Si6 0.597656 0.462832 0.958143
Si Si7 0.871057 0.778414 0.987695
Si Si8 0.091717 0.063333 0.675450
O O1 0.863955 0.010482 0.484109
O O2 0.588311 0.952154 0.081100
O O3 0.499422 0.910621 0.166742
O O4 0.365420 0.037278 0.980118
O O5 0.516819 0.271869 0.391354
O O6 0.139620 0.364589 0.986015
O O7 0.292588 0.262552 0.018347
O O8 0.333541 0.497024 0.177534
O O9 0.832321 0.480981 0.677851
O O10 0.182022 0.271934 0.229703
O O11 0.063639 0.149220 0.185170
O O12 0.376536 0.224968 0.566509
O O13 0.149884 0.892073 0.945430
O O14 0.596031 0.440684 0.066155
O O15 0.093901 0.725860 0.166697
O O16 0.004832 0.856521 0.118065
#
# Coordination Sequence:
#
# PCOD9135913 Si02
#       8
#     4   4   4   4   4   4   4   4
#     4  10  23  36  62  81 121 138 199 219 293 322
#     4  10  21  37  58  82 112 145 191 230 276 336
#     4  10  22  41  53  90 111 153 178 247 266 349
#     4   8  20  36  52  80 120 132 192 226 264 332
#     4  10  22  38  60  88 106 162 172 246 264 348
#     4  10  23  36  62  81 121 138 199 219 293 322
#     4  10  21  37  58  82 112 145 191 230 276 336
#     4  10  22  41  53  90 111 153 178 247 266 349
#
# _framework density 23.369897999999999
#
# number of rings (size 3 to 8) (size 9 to 14) (size 15 to 20)
#    0.750    1.500    0.000    1.500    7.000    0.000 
#    4.500    0.000    0.000    0.000    0.000    0.000 
#    0.000    0.000    0.000    0.000    0.000    0.000 
#
# Total GULP energy -89324.657751 kJ/mol
# GULP energy per Si atom -5582.791109 kJ/mol
# Density = 2.331671 g / cm^3
# Si number density = 23.369898 Si / 1000 Ang^3
#
#
#
# Elastic Constant Matrix: (Units=GPa)
#
#
# Indices 1 2 3 4 5 6 
#
# 1 65.9312 3.4551 32.0423 0.0002 14.8377 0.0003
# 2 3.4551 73.5302 20.5858 0.0009 22.9417 0.0003
# 3 32.0423 20.5858 120.7217 0.0062 51.4263 0.0012
# 4 0.0002 0.0009 0.0062 36.5516 0.0013 14.5425
# 5 14.8377 22.9417 51.4263 0.0013 35.2362 0.0004
# 6 0.0003 0.0003 0.0012 14.5425 0.0004 32.5707
#
#
#
# Elastic Compliance Matrix: (Units=1/GPa)
#
#
# Indices 1 2 3 4 5 6 
#
# 1 0.017505 0.001042 -0.003687 0.000001 -0.002669 0.000000
# 2 0.001042 0.018260 0.004920 -0.000001 -0.019508 0.000000
# 3 -0.003687 0.004920 0.024126 -0.000003 -0.036862 0.000001
# 4 0.000001 -0.000001 -0.000003 0.033268 0.000004 -0.014854
# 5 -0.002669 -0.019508 -0.036862 0.000004 0.096005 -0.000002
# 6 0.000000 0.000000 0.000001 -0.014854 -0.000002 0.037335
#
#
# Mechanical properties :
#
#
# Convention : Reuss Voigt Hill
#
# Bulk Modulus (GPa) = 15.51791 41.37218 28.44505
# Shear Modulus (GPa) = 20.53981 34.47835 27.50908
#
# Velocity S-wave (km/s) = 2.96784 3.84517 3.43463
# Velocity P-wave (km/s) = 4.28937 6.12008 5.28460
#
# Compressibility (1/GPa) = 0.06444165
#
# Stress axis : x y z
#
# Youngs Moduli (GPa) = 57.12576 54.76398 41.44876
#
# Poissons Ratio (x) = -0.05708 0.15283
# Poissons Ratio (y) = -0.05954 -0.20393
# Poissons Ratio (z) = 0.21064 -0.26944
#
# Static dielectric constant tensor:
#      x y z
#    x 1.881340 0.000000 -0.012000 
#    y 0.000000 1.857070 0.000000 
#    z -0.012000 0.000000 1.993540 
# 
# From -- ./inp_files/26141.got.cif
#   From: 2010.05.17/outbox.cif.g08.bks.cpg/sg9_14_cif.got.tgz:26141.got - 2010.06.03 20:04:27.
