data_PCOD9135566
_publ_section_title
;
Structure prediction by ZEFSAII (Michael W. Deem and Ramdas Pophale) SiO2 
 PCOD9135566
Probable space group: C C
;
_chemical_formula_sum "Si O2"
_cell_formula_units_Z 32
_cell_length_a 11.265548
_cell_length_b 14.739679
_cell_length_c 9.162350
_cell_angle_alpha 90.000000
_cell_angle_beta 105.887563
_cell_angle_gamma 90.000000
_cell_volume 1463.296517
_symmetry_space_group_name_H-M "C C"
_symmetry_group_IT_number 9
_symmetry_cell_setting 'monoclinic'
loop_
_space_group_symop_operation_xyz
x,y,z
x,-y,1/2+z
1/2+x,1/2+y,z
1/2+x,1/2-y,1/2+z
loop_
_atom_site_type_symbol
_atom_site_label
_atom_site_fract_x
_atom_site_fract_y
_atom_site_fract_z
Si Si1 0.332670 0.642213 0.179990
Si Si2 0.125778 0.619385 0.338987
Si Si3 0.800059 0.052486 0.610876
Si Si4 0.336525 0.895257 0.777534
Si Si5 0.098292 0.814528 0.316146
Si Si6 0.007455 0.145926 0.484064
Si Si7 0.209753 0.004268 0.969895
Si Si8 0.825760 0.807277 0.350756
O O1 0.205182 0.617865 0.218990
O O2 0.374597 0.539237 0.162997
O O3 0.436445 0.687178 0.319390
O O4 0.312008 0.689962 0.019523
O O5 0.178953 0.546742 0.470448
O O6 0.155471 0.722937 0.401315
O O7 0.979476 0.610186 0.279222
O O8 0.766015 0.108839 0.743996
O O9 0.892950 0.108098 0.539111
O O10 0.259099 0.950814 0.633857
O O11 0.290249 0.791701 0.779703
O O12 0.314588 0.947252 0.921898
O O13 0.077625 0.798438 0.134934
O O14 0.168040 0.908684 0.360751
O O15 0.969112 0.822639 0.357228
O O16 0.098358 0.065861 0.462773
#
# Coordination Sequence:
#
# PCOD9135566 Si02
#       8
#     4   4   4   4   4   4   4   4
#     4  11  22  38  71  94 126 162 229 276 329 390
#     4  10  24  43  60  92 131 178 215 265 330 397
#     4  10  20  41  66  91 128 165 222 274 330 384
#     4  11  27  42  62  97 141 182 220 271 342 414
#     4  10  21  41  64  90 135 169 215 273 332 388
#     4  10  21  38  65  99 118 163 216 277 323 383
#     4  12  23  42  68  93 137 177 225 269 339 407
#     4  10  22  41  66 104 130 164 226 289 337 385
#
# _framework density 21.868431000000001
#
# number of rings (size 3 to 8) (size 9 to 14) (size 15 to 20)
#    0.000    1.500    1.250    4.500    5.250    1.000 
#    0.000    0.000    0.000    0.000    0.000    0.000 
#    0.000    0.000    0.000    0.000    0.000    0.000 
#
# Total GULP energy -89251.749420 kJ/mol
# GULP energy per Si atom -5578.234339 kJ/mol
# Density = 2.181866 g / cm^3
# Si number density = 21.868431 Si / 1000 Ang^3
#
#
#
# Elastic Constant Matrix: (Units=GPa)
#
#
# Indices 1 2 3 4 5 6 
#
# 1 63.2594 10.0149 36.0926 0.0000 -3.8317 0.0000
# 2 10.0149 46.4280 4.0969 0.0000 -0.1603 0.0000
# 3 36.0926 4.0969 108.5275 0.0000 -14.6797 0.0000
# 4 0.0000 0.0000 0.0000 29.6036 0.0000 -0.3210
# 5 -3.8317 -0.1603 -14.6797 0.0000 20.0551 0.0000
# 6 0.0000 0.0000 0.0000 -0.3210 0.0000 15.1756
#
#
#
# Elastic Compliance Matrix: (Units=1/GPa)
#
#
# Indices 1 2 3 4 5 6 
#
# 1 0.020167 -0.003762 -0.006712 0.000000 -0.001090 0.000000
# 2 -0.003762 0.022316 0.000372 0.000000 -0.000268 0.000000
# 3 -0.006712 0.000372 0.012497 0.000000 0.007868 0.000000
# 4 0.000000 0.000000 0.000000 0.033787 0.000000 0.000715
# 5 -0.001090 -0.000268 0.007868 0.000000 0.055411 0.000000
# 6 0.000000 0.000000 0.000000 0.000715 0.000000 0.065910
#
#
# Mechanical properties :
#
#
# Convention : Reuss Voigt Hill
#
# Bulk Modulus (GPa) = 28.75478 35.40263 32.07871
# Shear Modulus (GPa) = 20.67098 24.16756 22.41927
#
# Velocity S-wave (km/s) = 3.07782 3.32796 3.20533
# Velocity P-wave (km/s) = 5.08017 5.56697 5.32913
#
# Compressibility (1/GPa) = 0.03477683
#
# Stress axis : x y z
#
# Youngs Moduli (GPa) = 49.58554 44.81012 80.02101
#
# Poissons Ratio (x) = 0.16856 0.53713
# Poissons Ratio (y) = 0.18653 -0.02980
# Poissons Ratio (z) = 0.33284 -0.01669
#
# Static dielectric constant tensor:
#      x y z
#    x 1.806330 0.000000 0.016940 
#    y 0.000000 1.901630 0.000000 
#    z 0.016940 0.000000 1.863860 
# 
# From -- ./inp_files/7409.got.cif
#   From: 2010.05.17/outbox.cif.g08.bks.cpg/sg9_4_cif.got.tgz:7409.got - 2010.06.03 20:04:27.
