data_PCOD9135924
_publ_section_title
;
Structure prediction by ZEFSAII (Michael W. Deem and Ramdas Pophale) SiO2 
 PCOD9135924
Probable space group: C C
;
_chemical_formula_sum "Si O2"
_cell_formula_units_Z 28
_cell_length_a 13.548534
_cell_length_b 19.065603
_cell_length_c 9.649059
_cell_angle_alpha 90.000000
_cell_angle_beta 144.663845
_cell_angle_gamma 90.000000
_cell_volume 1441.569074
_symmetry_space_group_name_H-M "C C"
_symmetry_group_IT_number 9
_symmetry_cell_setting 'monoclinic'
loop_
_space_group_symop_operation_xyz
x,y,z
x,-y,1/2+z
1/2+x,1/2+y,z
1/2+x,1/2-y,1/2+z
loop_
_atom_site_type_symbol
_atom_site_label
_atom_site_fract_x
_atom_site_fract_y
_atom_site_fract_z
Si Si1 0.281030 0.159450 0.467130
Si Si2 0.888591 0.645833 0.885044
Si Si3 0.558043 0.083850 0.616855
Si Si4 0.594676 0.724069 0.700092
Si Si5 0.888980 0.187079 0.991299
Si Si6 0.339988 0.325709 0.124425
Si Si7 0.086681 0.550998 0.332435
O O1 0.357763 0.123746 0.693296
O O2 0.379009 0.119879 0.454951
O O3 0.338961 0.240690 0.511115
O O4 0.075329 0.158143 0.248865
O O5 0.714446 0.676236 0.746953
O O6 0.011774 0.713535 0.017929
O O7 0.963319 0.593145 0.084667
O O8 0.535271 0.052965 0.435324
O O9 0.602841 0.024099 0.780124
O O10 0.719622 0.137725 0.805627
O O11 0.457218 0.679913 0.624898
O O12 0.697747 0.766505 0.935312
O O13 0.920424 0.195207 0.862171
O O14 0.258326 0.402372 0.032306
#
# Coordination Sequence:
#
# PCOD9135924 Si02
#       7
#     4   4   4   4   4   4   4
#     4  12  23  40  65  98 135 166 215 269 322 383
#     4  10  21  37  59  95 126 169 211 256 328 373
#     4  11  25  46  67  92 134 171 219 267 319 389
#     4   9  18  33  60  90 128 160 209 267 314 375
#     4  11  23  38  67  98 129 171 213 267 328 375
#     4   9  19  35  61  92 122 166 214 264 315 382
#     4  10  23  45  65  89 126 177 211 262 328 381
#
# _framework density 19.423279999999998
#
# number of rings (size 3 to 8) (size 9 to 14) (size 15 to 20)
#    0.000    1.714    1.429    2.571    8.000    0.000 
#   10.286    1.429    0.000    0.000    0.000    0.000 
#    0.000    0.000    0.000    0.000    0.000    0.000 
#
# Total GULP energy -78019.326539 kJ/mol
# GULP energy per Si atom -5572.809038 kJ/mol
# Density = 1.937907 g / cm^3
# Si number density = 19.423280 Si / 1000 Ang^3
#
#
#
# Elastic Constant Matrix: (Units=GPa)
#
#
# Indices 1 2 3 4 5 6 
#
# 1 -2915.6829 137.7080 -72.6494 0.0000 118.6852 0.0000
# 2 137.7080 56.0513 4.4604 0.0000 -10.6989 0.0000
# 3 -72.6494 4.4604 69.8369 0.0000 -13.2295 0.0000
# 4 0.0000 0.0000 0.0000 13.3298 0.0000 -5.7366
# 5 118.6852 -10.6989 -13.2295 0.0000 34.8802 0.0000
# 6 0.0000 0.0000 0.0000 -5.7366 0.0000 27.4259
#
#
#
# Elastic Compliance Matrix: (Units=1/GPa)
#
#
# Indices 1 2 3 4 5 6 
#
# 1 -0.000256 0.000845 -0.000114 0.000000 0.001087 0.000000
# 2 0.000845 0.016159 0.000260 0.000000 0.002179 0.000000
# 3 -0.000114 0.000260 0.015377 0.000000 0.006301 0.000000
# 4 0.000000 0.000000 0.000000 0.082441 0.000000 0.017244
# 5 0.001087 0.002179 0.006301 0.000000 0.028030 0.000000
# 6 0.000000 0.000000 0.000000 0.017244 0.000000 0.040069
#
#
# Mechanical properties :
#
#
# Convention : Reuss Voigt Hill
#
# Bulk Modulus (GPa) = 30.06401 -294.52852 -132.23226
# Shear Modulus (GPa) = 26.18837 -175.49372 -74.65268
#
# Velocity S-wave (km/s) = 3.67590 -9.51569 -6.20629
# Velocity P-wave (km/s) = 5.79036 16.51355 10.93547
#
# Compressibility (1/GPa) = 0.03326237
#
# Stress axis : x y z
#
# Youngs Moduli (GPa) = -3906.95096 61.88514 65.03149
#
# Poissons Ratio (x) = -0.05232 0.00744
# Poissons Ratio (y) = 3.30290 -0.01691
# Poissons Ratio (z) = -0.44683 -0.01609
#
# Static dielectric constant tensor:
#      x y z
#    x 1.906510 0.000000 -0.094680 
#    y 0.000000 1.671270 0.000000 
#    z -0.094680 0.000000 1.771790 
# 
# From -- ./inp_files/7815.got.cif
#   From: 2010.05.17/outbox.cif.g08.bks.cpg/sg9_4_cif.got.tgz:7815.got - 2010.06.03 20:04:27.
