data_PCOD9135883
_publ_section_title
;
Structure prediction by ZEFSAII (Michael W. Deem and Ramdas Pophale) SiO2 
 PCOD9135883
Probable space group: C C
;
_chemical_formula_sum "Si O2"
_cell_formula_units_Z 32
_cell_length_a 10.525670
_cell_length_b 21.889050
_cell_length_c 8.873268
_cell_angle_alpha 90.000000
_cell_angle_beta 56.719079
_cell_angle_gamma 90.000000
_cell_volume 1709.076153
_symmetry_space_group_name_H-M "C C"
_symmetry_group_IT_number 9
_symmetry_cell_setting 'monoclinic'
loop_
_space_group_symop_operation_xyz
x,y,z
x,-y,1/2+z
1/2+x,1/2+y,z
1/2+x,1/2-y,1/2+z
loop_
_atom_site_type_symbol
_atom_site_label
_atom_site_fract_x
_atom_site_fract_y
_atom_site_fract_z
Si Si1 0.372480 0.310615 0.728270
Si Si2 0.286576 0.602751 0.012033
Si Si3 0.860740 0.567939 0.640560
Si Si4 0.195294 0.597768 0.736623
Si Si5 0.473294 0.424178 0.832984
Si Si6 0.548139 0.816345 0.104471
Si Si7 0.553114 0.474924 0.462223
Si Si8 0.015274 0.516753 0.281139
O O1 0.338421 0.342218 0.588259
O O2 0.479453 0.356931 0.755390
O O3 0.455291 0.246070 0.670303
O O4 0.207935 0.306561 0.915197
O O5 0.270592 0.616546 0.845459
O O6 0.412419 0.550886 0.957440
O O7 0.129280 0.572120 0.171370
O O8 0.697360 0.565672 0.823895
O O9 0.943140 0.632842 0.593148
O O10 0.870676 0.541753 0.466234
O O11 0.961377 0.521379 0.673516
O O12 0.313808 0.580197 0.526637
O O13 0.091859 0.651905 0.735886
O O14 0.103249 0.535107 0.819995
O O15 0.500359 0.465928 0.667603
O O16 0.580071 0.455671 0.888884
#
# Coordination Sequence:
#
# PCOD9135883 Si02
#       8
#     4   4   4   4   4   4   4   4
#     4  10  23  41  63  88 120 171 217 254 306 377
#     4  11  21  37  66  92 123 163 208 258 314 381
#     4  11  23  38  60  94 126 161 201 267 320 376
#     4  10  21  38  65  94 122 161 205 262 317 382
#     4  10  21  36  60  91 123 161 199 257 312 375
#     4  10  23  42  65  85 122 170 217 250 316 375
#     4  11  22  34  59  95 129 157 204 256 326 373
#     4  11  20  36  60  91 123 156 201 254 325 383
#
# _framework density 18.723566000000002
#
# number of rings (size 3 to 8) (size 9 to 14) (size 15 to 20)
#    0.000    1.500    3.750    1.500    7.000    0.000 
#    0.000    2.500    5.500    0.000    0.000    0.000 
#    0.000    0.000    0.000    0.000    0.000    0.000 
#
# Total GULP energy -89144.570928 kJ/mol
# GULP energy per Si atom -5571.535683 kJ/mol
# Density = 1.868095 g / cm^3
# Si number density = 18.723566 Si / 1000 Ang^3
#
#
#
# Elastic Constant Matrix: (Units=GPa)
#
#
# Indices 1 2 3 4 5 6 
#
# 1 42.0761 34.5266 33.6409 0.0000 0.4796 0.0000
# 2 34.5266 125.9148 62.2936 0.0000 14.3776 0.0000
# 3 33.6409 62.2936 112.8778 0.0000 3.8661 0.0000
# 4 0.0000 0.0000 0.0000 17.5091 0.0000 -11.6184
# 5 0.4796 14.3776 3.8661 0.0000 23.2169 0.0000
# 6 0.0000 0.0000 0.0000 -11.6184 0.0000 35.1311
#
#
#
# Elastic Compliance Matrix: (Units=1/GPa)
#
#
# Indices 1 2 3 4 5 6 
#
# 1 0.034603 -0.006640 -0.006804 0.000000 0.004530 0.000000
# 2 -0.006640 0.013033 -0.004970 0.000000 -0.007106 0.000000
# 3 -0.006804 -0.004970 0.013597 0.000000 0.000954 0.000000
# 4 0.000000 0.000000 0.000000 0.073170 0.000000 0.024199
# 5 0.004530 -0.007106 0.000954 0.000000 0.047220 0.000000
# 6 0.000000 0.000000 0.000000 0.024199 0.000000 0.036468
#
#
# Mechanical properties :
#
#
# Convention : Reuss Voigt Hill
#
# Bulk Modulus (GPa) = 40.97387 60.19898 50.58642
# Shear Modulus (GPa) = 19.00759 25.19860 22.10309
#
# Velocity S-wave (km/s) = 3.18963 3.67253 3.43956
# Velocity P-wave (km/s) = 5.95786 7.08551 6.54601
#
# Compressibility (1/GPa) = 0.02440580
#
# Stress axis : x y z
#
# Youngs Moduli (GPa) = 28.89943 76.72952 73.54551
#
# Poissons Ratio (x) = 0.50945 0.50037
# Poissons Ratio (y) = 0.19188 0.36554
# Poissons Ratio (z) = 0.19662 0.38136
#
# Static dielectric constant tensor:
#      x y z
#    x 1.682700 0.000000 0.013270 
#    y 0.000000 1.645020 0.000000 
#    z 0.013270 0.000000 1.664050 
# 
# From -- ./inp_files/8214.got.cif
#   From: 2010.05.17/outbox.cif.g08.bks.cpg/sg9_5_cif.got.tgz:8214.got - 2010.06.03 20:04:27.
