data_PCOD9135115
_publ_section_title
;
Structure prediction by ZEFSAII (Michael W. Deem and Ramdas Pophale) SiO2 
 PCOD9135115
Probable space group: C C
;
_chemical_formula_sum "Si O2"
_cell_formula_units_Z 32
_cell_length_a 12.263157
_cell_length_b 9.692891
_cell_length_c 17.220499
_cell_angle_alpha 90.000000
_cell_angle_beta 32.531316
_cell_angle_gamma 90.000000
_cell_volume 1100.753935
_symmetry_space_group_name_H-M "C C"
_symmetry_group_IT_number 9
_symmetry_cell_setting 'monoclinic'
loop_
_space_group_symop_operation_xyz
x,y,z
x,-y,1/2+z
1/2+x,1/2+y,z
1/2+x,1/2-y,1/2+z
loop_
_atom_site_type_symbol
_atom_site_label
_atom_site_fract_x
_atom_site_fract_y
_atom_site_fract_z
Si Si1 0.694710 0.919154 0.599280
Si Si2 0.115918 0.983038 0.526915
Si Si3 0.674355 0.697893 0.220459
Si Si4 0.132092 0.483037 0.302882
Si Si5 0.553290 0.580845 0.730522
Si Si6 0.573651 0.802108 0.109339
Si Si7 0.609421 0.724351 0.847602
Si Si8 0.138583 0.724352 0.982197
O O1 0.584271 0.975824 0.742152
O O2 0.627439 0.794827 0.583107
O O3 0.924535 0.873684 0.483268
O O4 0.666807 0.046805 0.555467
O O5 0.163735 0.024177 0.587647
O O6 0.188555 0.114869 0.433172
O O7 0.874005 0.000001 0.664898
O O8 0.153847 0.817989 0.502623
O O9 0.581198 0.546806 0.274332
O O10 0.624001 0.750000 0.164900
O O11 0.914964 0.687534 0.088574
O O12 0.594161 0.817989 0.327175
O O13 0.059456 0.614868 0.396624
O O14 0.620561 0.705174 0.746695
O O15 0.323466 0.626314 0.846533
O O16 0.333042 0.812468 0.241223
#
# Coordination Sequence:
#
# PCOD9135115 Si02
#       8
#     4   4   4   4   4   4   4   4
#     4  10  20  37  62  93 124 163 207 258 322 374
#     4   9  19  39  62  86 122 164 210 262 309 371
#     4   9  19  39  62  86 122 164 210 262 309 371
#     4   9  19  39  62  86 122 164 210 262 309 371
#     4  10  20  37  62  93 124 163 207 258 322 374
#     4   9  19  39  62  86 122 164 210 262 309 371
#     4  10  20  37  62  93 124 163 207 258 322 374
#     4  10  20  37  62  93 124 163 207 258 322 374
#
# _framework density 29.070983999999999
#
# number of rings (size 3 to 8) (size 9 to 14) (size 15 to 20)
#    0.000    2.500    0.000    1.500    0.000    0.000 
#    0.000   72.500    0.000    3.000    0.000    0.000 
#    0.000    0.000    0.000    0.000    0.000    0.000 
#
# Total GULP energy -89443.369343 kJ/mol
# GULP energy per Si atom -5590.210584 kJ/mol
# Density = 2.900482 g / cm^3
# Si number density = 29.070984 Si / 1000 Ang^3
#
#
#
# Elastic Constant Matrix: (Units=GPa)
#
#
# Indices 1 2 3 4 5 6 
#
# 1 104.2172 -10.7791 40.1843 0.0000 -35.3072 0.0000
# 2 -10.7791 263.3079 36.8665 -0.0009 -17.3432 0.0000
# 3 40.1843 36.8665 128.6585 -0.0038 -37.0867 0.0005
# 4 0.0000 -0.0009 -0.0038 33.7483 0.0002 -12.0258
# 5 -35.3072 -17.3432 -37.0867 0.0002 75.7206 0.0002
# 6 0.0000 0.0000 0.0005 -12.0258 0.0002 44.6398
#
#
#
# Elastic Compliance Matrix: (Units=1/GPa)
#
#
# Indices 1 2 3 4 5 6 
#
# 1 0.012410 0.001218 -0.002884 0.000000 0.004653 0.000000
# 2 0.001218 0.004087 -0.001302 0.000000 0.000867 0.000000
# 3 -0.002884 -0.001302 0.009982 0.000001 0.003246 0.000000
# 4 0.000000 0.000000 0.000001 0.032778 0.000000 0.008830
# 5 0.004653 0.000867 0.003246 0.000000 0.017164 0.000000
# 6 0.000000 0.000000 0.000000 0.008830 0.000000 0.024780
#
#
# Mechanical properties :
#
#
# Convention : Reuss Voigt Hill
#
# Bulk Modulus (GPa) = 48.67606 69.85857 59.26731
# Shear Modulus (GPa) = 43.86587 59.48254 51.67420
#
# Velocity S-wave (km/s) = 3.88870 4.52831 4.22064
# Velocity P-wave (km/s) = 6.07806 7.17100 6.64703
#
# Compressibility (1/GPa) = 0.02054398
#
# Stress axis : x y z
#
# Youngs Moduli (GPa) = 80.58245 244.67474 100.18053
#
# Poissons Ratio (x) = -0.29808 0.28890
# Poissons Ratio (y) = -0.09817 0.13042
# Poissons Ratio (z) = 0.23238 0.31853
#
# Static dielectric constant tensor:
#      x y z
#    x 2.311520 0.000000 0.070060 
#    y 0.000000 2.387590 0.000000 
#    z 0.070060 0.000000 2.242560 
# 
# From -- ./inp_files/36713.got.cif
#   From: 2010.05.17/outbox.cif.g08.bks.cpg/sg9_19_cif.got.tgz:36713.got - 2010.06.03 20:04:27.
