data_PCOD9135443
_publ_section_title
;
Structure prediction by ZEFSAII (Michael W. Deem and Ramdas Pophale) SiO2 
 PCOD9135443
Probable space group: C C
;
_chemical_formula_sum "Si O2"
_cell_formula_units_Z 32
_cell_length_a 13.232457
_cell_length_b 8.255125
_cell_length_c 21.233421
_cell_angle_alpha 90.000000
_cell_angle_beta 139.929139
_cell_angle_gamma 90.000000
_cell_volume 1493.106963
_symmetry_space_group_name_H-M "C C"
_symmetry_group_IT_number 9
_symmetry_cell_setting 'monoclinic'
loop_
_space_group_symop_operation_xyz
x,y,z
x,-y,1/2+z
1/2+x,1/2+y,z
1/2+x,1/2-y,1/2+z
loop_
_atom_site_type_symbol
_atom_site_label
_atom_site_fract_x
_atom_site_fract_y
_atom_site_fract_z
Si Si1 0.287890 0.357657 0.241020
Si Si2 0.765020 0.294324 0.077801
Si Si3 0.291169 0.793495 0.476255
Si Si4 0.152134 0.212977 0.776829
Si Si5 0.807893 0.330191 0.619723
Si Si6 0.591067 0.601546 0.382232
Si Si7 0.598013 0.671754 0.247471
Si Si8 0.648188 0.172049 0.150134
O O1 0.283904 0.253456 0.175307
O O2 0.446707 0.470300 0.318858
O O3 0.245767 0.250312 0.281773
O O4 0.147698 0.485121 0.167335
O O5 0.764883 0.481676 0.099902
O O6 0.727908 0.189344 0.121235
O O7 0.936816 0.233344 0.138797
O O8 0.629884 0.288555 0.960757
O O9 0.223779 0.734315 0.377589
O O10 0.235668 0.748791 0.521178
O O11 0.474852 0.758085 0.561039
O O12 0.244863 0.984079 0.451456
O O13 0.238660 0.246463 0.752112
O O14 0.993293 0.315248 0.696706
O O15 0.110347 0.023234 0.754579
O O16 0.584041 0.706884 0.315476
#
# Coordination Sequence:
#
# PCOD9135443 Si02
#       8
#     4   4   4   4   4   4   4   4
#     4  12  22  42  67  94 131 177 213 276 333 390
#     4  11  23  43  63  97 133 169 220 274 329 397
#     4   9  20  39  62  90 126 167 208 274 320 393
#     4  10  20  42  64  94 130 166 221 268 330 393
#     4  10  20  40  64  91 129 170 206 272 325 386
#     4  10  22  44  63  93 137 168 226 279 322 402
#     4  11  22  43  68  94 130 175 216 276 333 393
#     4  11  23  39  65  93 130 174 212 275 332 398
#
# _framework density 21.431820999999999
#
# number of rings (size 3 to 8) (size 9 to 14) (size 15 to 20)
#    0.000    1.500    3.750    3.000    1.750    0.000 
#   15.750    3.750    0.000    0.000    0.000    0.000 
#    0.000    0.000    0.000    0.000    0.000    0.000 
#
# Total GULP energy -89098.410243 kJ/mol
# GULP energy per Si atom -5568.650640 kJ/mol
# Density = 2.138304 g / cm^3
# Si number density = 21.431821 Si / 1000 Ang^3
#
#
#
# Elastic Constant Matrix: (Units=GPa)
#
#
# Indices 1 2 3 4 5 6 
#
# 1 89.0994 17.9647 40.1386 0.0000 -16.5712 0.0000
# 2 17.9647 41.5202 15.6831 0.0000 -3.3562 0.0000
# 3 40.1386 15.6831 130.9559 0.0000 -22.5536 0.0000
# 4 0.0000 0.0000 0.0000 27.8534 0.0000 1.9435
# 5 -16.5712 -3.3562 -22.5536 0.0000 22.7684 0.0000
# 6 0.0000 0.0000 0.0000 1.9435 0.0000 27.4419
#
#
#
# Elastic Compliance Matrix: (Units=1/GPa)
#
#
# Indices 1 2 3 4 5 6 
#
# 1 0.014770 -0.004780 -0.002682 0.000000 0.007388 0.000000
# 2 -0.004780 0.026787 -0.002004 0.000000 -0.001515 0.000000
# 3 -0.002682 -0.002004 0.010021 0.000000 0.007679 0.000000
# 4 0.000000 0.000000 0.000000 0.036081 0.000000 -0.002555
# 5 0.007388 -0.001515 0.007679 0.000000 0.056681 0.000000
# 6 0.000000 0.000000 0.000000 -0.002555 0.000000 0.036622
#
#
# Mechanical properties :
#
#
# Convention : Reuss Voigt Hill
#
# Bulk Modulus (GPa) = 30.63219 45.46092 38.04655
# Shear Modulus (GPa) = 23.72207 28.13200 25.92703
#
# Velocity S-wave (km/s) = 3.33056 3.62695 3.48191
# Velocity P-wave (km/s) = 5.39575 6.22877 5.82716
#
# Compressibility (1/GPa) = 0.03264540
#
# Stress axis : x y z
#
# Youngs Moduli (GPa) = 67.70683 37.33106 99.79402
#
# Poissons Ratio (x) = 0.17845 0.26766
# Poissons Ratio (y) = 0.32365 0.19997
# Poissons Ratio (z) = 0.18159 0.07481
#
# Static dielectric constant tensor:
#      x y z
#    x 1.893760 0.000000 -0.051120 
#    y 0.000000 1.750260 0.000000 
#    z -0.051120 0.000000 1.845800 
# 
# From -- ./inp_files/33633.got.cif
#   From: 2010.05.17/outbox.cif.g08.bks.cpg/sg9_17_cif.got.tgz:33633.got - 2010.06.03 20:04:27.
