data_PCOD9135445
_publ_section_title
;
Structure prediction by ZEFSAII (Michael W. Deem and Ramdas Pophale) SiO2 
 PCOD9135445
Probable space group: C C
;
_chemical_formula_sum "Si O2"
_cell_formula_units_Z 28
_cell_length_a 7.578716
_cell_length_b 17.203643
_cell_length_c 10.209107
_cell_angle_alpha 90.000000
_cell_angle_beta 67.551054
_cell_angle_gamma 90.000000
_cell_volume 1230.209985
_symmetry_space_group_name_H-M "C C"
_symmetry_group_IT_number 9
_symmetry_cell_setting 'monoclinic'
loop_
_space_group_symop_operation_xyz
x,y,z
x,-y,1/2+z
1/2+x,1/2+y,z
1/2+x,1/2-y,1/2+z
loop_
_atom_site_type_symbol
_atom_site_label
_atom_site_fract_x
_atom_site_fract_y
_atom_site_fract_z
Si Si1 0.663350 0.349718 0.721550
Si Si2 0.537067 0.938407 0.997980
Si Si3 0.651215 0.185871 0.666007
Si Si4 0.338297 0.194986 0.436442
Si Si5 0.025577 0.177364 0.732311
Si Si6 0.175791 0.978874 0.286594
Si Si7 0.928574 0.414454 0.434933
O O1 0.584547 0.275317 0.662842
O O2 0.697075 0.312885 0.854251
O O3 0.588718 0.436633 0.777276
O O4 0.853267 0.370921 0.584685
O O5 0.657554 0.875265 0.044416
O O6 0.366050 0.965502 0.144048
O O7 0.452700 0.885595 0.906538
O O8 0.590727 0.021489 0.922833
O O9 0.859152 0.186094 0.672721
O O10 0.507477 0.147615 0.810889
O O11 0.475816 0.265641 0.364922
O O12 0.221490 0.199365 0.603576
O O13 0.039841 0.090449 0.780919
O O14 0.253145 0.960486 0.411734
#
# Coordination Sequence:
#
# PCOD9135445 Si02
#       7
#     4   4   4   4   4   4   4
#     4  10  21  36  65  88 123 166 205 254 315 375
#     4   9  19  40  65  88 124 166 212 256 312 384
#     4  10  23  38  63  94 128 159 217 261 312 368
#     4  10  21  40  64  89 124 165 208 257 317 369
#     4  10  23  40  64  93 128 163 208 268 309 375
#     4   9  19  40  65  88 122 167 217 248 316 383
#     4  10  20  40  64  92 119 174 209 254 317 380
#
# _framework density 22.760342000000001
#
# number of rings (size 3 to 8) (size 9 to 14) (size 15 to 20)
#    0.000    2.286    1.429    0.000   10.000    0.000 
#    2.571    0.000    0.000    0.000    0.000    0.000 
#    0.000    0.000    0.000    0.000    0.000    0.000 
#
# Total GULP energy -77995.924525 kJ/mol
# GULP energy per Si atom -5571.137466 kJ/mol
# Density = 2.270854 g / cm^3
# Si number density = 22.760342 Si / 1000 Ang^3
#
#
#
# Elastic Constant Matrix: (Units=GPa)
#
#
# Indices 1 2 3 4 5 6 
#
# 1 27.1237 30.5368 15.4042 0.0000 10.1680 0.0000
# 2 30.5368 218.4638 41.3794 0.0000 -8.7702 0.0000
# 3 15.4042 41.3794 63.3940 0.0000 0.7614 0.0000
# 4 0.0000 0.0000 0.0000 29.2329 0.0000 1.8082
# 5 10.1680 -8.7702 0.7614 0.0000 21.2780 0.0000
# 6 0.0000 0.0000 0.0000 1.8082 0.0000 30.1562
#
#
#
# Elastic Compliance Matrix: (Units=1/GPa)
#
#
# Indices 1 2 3 4 5 6 
#
# 1 0.064915 -0.008601 -0.009749 0.000000 -0.034217 0.000000
# 2 -0.008601 0.006475 -0.002219 0.000000 0.006858 0.000000
# 3 -0.009749 -0.002219 0.019555 0.000000 0.003044 0.000000
# 4 0.000000 0.000000 0.000000 0.034335 0.000000 -0.002059
# 5 -0.034217 0.006858 0.003044 0.000000 0.066066 0.000000
# 6 0.000000 0.000000 0.000000 -0.002059 0.000000 0.033284
#
#
# Mechanical properties :
#
#
# Convention : Reuss Voigt Hill
#
# Bulk Modulus (GPa) = 20.07716 53.73581 36.90649
# Shear Modulus (GPa) = 17.70725 30.91083 24.30904
#
# Velocity S-wave (km/s) = 2.79227 3.68924 3.27164
# Velocity P-wave (km/s) = 4.38588 6.46591 5.52467
#
# Compressibility (1/GPa) = 0.04980785
#
# Stress axis : x y z
#
# Youngs Moduli (GPa) = 15.40483 154.43320 51.13754
#
# Poissons Ratio (x) = 1.32826 0.49852
# Poissons Ratio (y) = 0.13250 0.11348
# Poissons Ratio (z) = 0.15018 0.34270
#
# Static dielectric constant tensor:
#      x y z
#    x 1.912340 0.000000 0.026100 
#    y 0.000000 1.891360 0.000000 
#    z 0.026100 0.000000 1.862150 
# 
# From -- ./inp_files/14387.got.cif
#   From: 2010.05.17/outbox.cif.g08.bks.cpg/sg9_8_cif.got.tgz:14387.got - 2010.06.03 20:04:27.
