data_PCOD9135363
_publ_section_title
;
Structure prediction by ZEFSAII (Michael W. Deem and Ramdas Pophale) SiO2 
 PCOD9135363
Probable space group: C C
;
_chemical_formula_sum "Si O2"
_cell_formula_units_Z 28
_cell_length_a 19.130442
_cell_length_b 8.561958
_cell_length_c 23.443111
_cell_angle_alpha 90.000000
_cell_angle_beta 160.079277
_cell_angle_gamma 90.000000
_cell_volume 1308.309450
_symmetry_space_group_name_H-M "C C"
_symmetry_group_IT_number 9
_symmetry_cell_setting 'monoclinic'
loop_
_space_group_symop_operation_xyz
x,y,z
x,-y,1/2+z
1/2+x,1/2+y,z
1/2+x,1/2-y,1/2+z
loop_
_atom_site_type_symbol
_atom_site_label
_atom_site_fract_x
_atom_site_fract_y
_atom_site_fract_z
Si Si1 0.174690 0.949526 0.432530
Si Si2 0.899149 0.860830 0.118123
Si Si3 0.639950 0.410955 0.090524
Si Si4 0.494961 0.457895 0.590814
Si Si5 0.556920 0.180093 0.729042
Si Si6 0.043651 0.384634 0.347303
Si Si7 0.896266 0.874667 0.803004
O O1 0.294242 0.802519 0.550424
O O2 0.080304 0.896502 0.300311
O O3 0.356387 0.075592 0.562898
O O4 0.978464 0.999544 0.320791
O O5 0.976145 0.882610 0.112551
O O6 0.725606 0.994545 0.988287
O O7 0.639544 0.506586 0.148345
O O8 0.824950 0.464726 0.190964
O O9 0.688629 0.225541 0.137558
O O10 0.435146 0.428888 0.896659
O O11 0.557953 0.324017 0.685290
O O12 0.273981 0.409570 0.395087
O O13 0.535848 0.208677 0.781519
O O14 0.056704 0.265459 0.409913
#
# Coordination Sequence:
#
# PCOD9135363 Si02
#       7
#     4   4   4   4   4   4   4
#     4  12  22  40  66 101 123 175 223 283 320 388
#     4  11  23  37  67  95 135 161 229 280 323 387
#     4  10  23  40  65  95 132 173 222 268 335 400
#     4  11  24  44  64  99 133 175 220 275 338 402
#     4  11  22  41  72  92 130 178 230 269 330 401
#     4   9  20  41  67  98 122 176 227 274 319 401
#     4  10  20  39  67  86 129 170 219 265 331 395
#
# _framework density 21.401667
#
# number of rings (size 3 to 8) (size 9 to 14) (size 15 to 20)
#    0.857    0.571    1.429    6.000    0.000    2.286 
#    2.571    1.429    0.000    0.000    0.000    0.000 
#    0.000    0.000    0.000    0.000    0.000    0.000 
#
# Total GULP energy -77988.222522 kJ/mol
# GULP energy per Si atom -5570.587323 kJ/mol
# Density = 2.135296 g / cm^3
# Si number density = 21.401667 Si / 1000 Ang^3
#
#
#
# Elastic Constant Matrix: (Units=GPa)
#
#
# Indices 1 2 3 4 5 6 
#
# 1 120.9090 33.5159 21.1797 -0.0045 -12.3317 -0.0003
# 2 33.5159 64.4764 11.2076 0.0026 -11.6978 0.0019
# 3 21.1797 11.2076 80.8541 0.0128 -21.6354 0.0016
# 4 -0.0045 0.0026 0.0128 28.2698 0.0016 -4.9577
# 5 -12.3317 -11.6978 -21.6354 0.0016 21.7049 -0.0014
# 6 -0.0003 0.0019 0.0016 -4.9577 -0.0014 27.8186
#
#
#
# Elastic Compliance Matrix: (Units=1/GPa)
#
#
# Indices 1 2 3 4 5 6 
#
# 1 0.009990 -0.004627 -0.001533 0.000003 0.001655 0.000001
# 2 -0.004627 0.019334 0.000841 -0.000004 0.008630 -0.000002
# 3 -0.001533 0.000841 0.017103 -0.000009 0.016631 -0.000002
# 4 0.000003 -0.000004 -0.000009 0.036515 -0.000012 0.006507
# 5 0.001655 0.008630 0.016631 -0.000012 0.068241 0.000000
# 6 0.000001 -0.000002 -0.000002 0.006507 0.000000 0.037107
#
#
# Mechanical properties :
#
#
# Convention : Reuss Voigt Hill
#
# Bulk Modulus (GPa) = 27.94009 44.22734 36.08371
# Shear Modulus (GPa) = 23.71276 28.91443 26.31359
#
# Velocity S-wave (km/s) = 3.33225 3.67963 3.51024
# Velocity P-wave (km/s) = 5.28097 6.22601 5.77286
#
# Compressibility (1/GPa) = 0.03579087
#
# Stress axis : x y z
#
# Youngs Moduli (GPa) = 100.09568 51.72242 58.46904
#
# Poissons Ratio (x) = 0.23930 0.08963
# Poissons Ratio (y) = 0.46310 -0.04918
# Poissons Ratio (z) = 0.15344 -0.04351
#
# Static dielectric constant tensor:
#      x y z
#    x 1.786430 0.000000 0.016470 
#    y 0.000000 1.832600 0.000000 
#    z 0.016470 0.000000 1.823780 
# 
# From -- ./inp_files/36943.got.cif
#   From: 2010.05.17/outbox.cif.g08.bks.cpg/sg9_19_cif.got.tgz:36943.got - 2010.06.03 20:04:27.
