data_PCOD9135423
_publ_section_title
;
Structure prediction by ZEFSAII (Michael W. Deem and Ramdas Pophale) SiO2 
 PCOD9135423
Probable space group: C C
;
_chemical_formula_sum "Si O2"
_cell_formula_units_Z 32
_cell_length_a 6.655272
_cell_length_b 8.932204
_cell_length_c 21.842072
_cell_angle_alpha 90.000000
_cell_angle_beta 65.079176
_cell_angle_gamma 90.000000
_cell_volume 1177.533675
_symmetry_space_group_name_H-M "C C"
_symmetry_group_IT_number 9
_symmetry_cell_setting 'monoclinic'
loop_
_space_group_symop_operation_xyz
x,y,z
x,-y,1/2+z
1/2+x,1/2+y,z
1/2+x,1/2-y,1/2+z
loop_
_atom_site_type_symbol
_atom_site_label
_atom_site_fract_x
_atom_site_fract_y
_atom_site_fract_z
Si Si1 0.194510 0.342166 0.656340
Si Si2 0.161002 0.259191 0.435415
Si Si3 0.077021 0.384363 0.957010
Si Si4 0.642453 0.284296 0.675634
Si Si5 0.291260 0.949692 0.094912
Si Si6 0.441034 0.107835 0.306629
Si Si7 0.857539 0.740509 0.826145
Si Si8 0.900399 0.057639 0.558572
O O1 0.423131 0.333887 0.666645
O O2 0.149052 0.168132 0.651206
O O3 0.268751 0.402428 0.579600
O O4 0.012982 0.401636 0.726857
O O5 0.379241 0.208212 0.447854
O O6 0.245223 0.213258 0.356879
O O7 0.104816 0.435736 0.442539
O O8 0.970250 0.161867 0.493608
O O9 0.294626 0.309408 0.899981
O O10 0.013756 0.383249 0.037141
O O11 0.817890 0.411476 0.635696
O O12 0.568048 0.271342 0.755026
O O13 0.749865 0.140803 0.629480
O O14 0.141222 0.985876 0.055549
O O15 0.658077 0.180445 0.311853
O O16 0.363366 0.939392 0.333265
#
# Coordination Sequence:
#
# PCOD9135423 Si02
#       8
#     4   4   4   4   4   4   4   4
#     4  10  22  38  63  94 130 170 225 271 339 397
#     4  10  22  42  67  92 136 176 227 276 345 402
#     4  10  22  43  64  96 134 178 223 282 338 409
#     4  10  20  40  62  90 129 171 217 277 329 401
#     4  10  22  38  63  94 130 170 225 271 339 397
#     4  10  22  43  64  96 134 178 223 282 338 409
#     4  10  22  42  67  92 136 176 227 276 345 402
#     4  10  20  40  62  90 129 171 217 277 329 401
#
# _framework density 27.175443000000001
#
# number of rings (size 3 to 8) (size 9 to 14) (size 15 to 20)
#    0.000    2.000    2.500    0.000    3.500    1.000 
#    0.000    5.000    0.000    0.000    0.000    0.000 
#    0.000    0.000    0.000    0.000    0.000    0.000 
#
# Total GULP energy -89292.443872 kJ/mol
# GULP energy per Si atom -5580.777742 kJ/mol
# Density = 2.711359 g / cm^3
# Si number density = 27.175443 Si / 1000 Ang^3
#
#
#
# Elastic Constant Matrix: (Units=GPa)
#
#
# Indices 1 2 3 4 5 6 
#
# 1 108.4408 2.3976 34.6168 0.0000 -17.0820 0.0000
# 2 2.3976 160.7496 62.8330 0.0000 -5.8303 0.0000
# 3 34.6168 62.8330 234.8108 0.0000 -9.6814 0.0000
# 4 0.0000 0.0000 0.0000 63.8914 0.0000 -8.8668
# 5 -17.0820 -5.8303 -9.6814 0.0000 51.5290 0.0000
# 6 0.0000 0.0000 0.0000 -8.8668 0.0000 27.3698
#
#
#
# Elastic Compliance Matrix: (Units=1/GPa)
#
#
# Indices 1 2 3 4 5 6 
#
# 1 0.010192 0.000557 -0.001522 0.000000 0.003156 0.000000
# 2 0.000557 0.006988 -0.001927 0.000000 0.000613 0.000000
# 3 -0.001522 -0.001927 0.005008 0.000000 0.000218 0.000000
# 4 0.000000 0.000000 0.000000 0.016388 0.000000 0.005309
# 5 0.003156 0.000613 0.000218 0.000000 0.020563 0.000000
# 6 0.000000 0.000000 0.000000 0.005309 0.000000 0.038257
#
#
# Mechanical properties :
#
#
# Convention : Reuss Voigt Hill
#
# Bulk Modulus (GPa) = 60.95529 78.18846 69.57188
# Shear Modulus (GPa) = 46.02078 55.50162 50.76120
#
# Velocity S-wave (km/s) = 4.11964 4.52413 4.32662
# Velocity P-wave (km/s) = 6.71622 7.49163 7.11450
#
# Compressibility (1/GPa) = 0.01640547
#
# Stress axis : x y z
#
# Youngs Moduli (GPa) = 98.11485 143.10432 199.69465
#
# Poissons Ratio (x) = -0.07973 0.30384
# Poissons Ratio (y) = -0.05467 0.38476
# Poissons Ratio (z) = 0.14929 0.27573
#
# Static dielectric constant tensor:
#      x y z
#    x 2.352840 0.000000 0.030290 
#    y 0.000000 2.089520 0.000000 
#    z 0.030290 0.000000 2.051830 
# 
# From -- ./inp_files/32303.got.cif
#   From: 2010.05.17/outbox.cif.g08.bks.cpg/sg9_17_cif.got.tgz:32303.got - 2010.06.03 20:04:27.
