data_PCOD9135214
_publ_section_title
;
Structure prediction by ZEFSAII (Michael W. Deem and Ramdas Pophale) SiO2 
 PCOD9135214
Probable space group: C C
;
_chemical_formula_sum "Si O2"
_cell_formula_units_Z 28
_cell_length_a 11.470455
_cell_length_b 18.511110
_cell_length_c 8.847205
_cell_angle_alpha 90.000000
_cell_angle_beta 141.322969
_cell_angle_gamma 90.000000
_cell_volume 1173.952143
_symmetry_space_group_name_H-M "C C"
_symmetry_group_IT_number 9
_symmetry_cell_setting 'monoclinic'
loop_
_space_group_symop_operation_xyz
x,y,z
x,-y,1/2+z
1/2+x,1/2+y,z
1/2+x,1/2-y,1/2+z
loop_
_atom_site_type_symbol
_atom_site_label
_atom_site_fract_x
_atom_site_fract_y
_atom_site_fract_z
Si Si1 0.261220 0.387217 0.922260
Si Si2 0.542485 0.346890 0.960971
Si Si3 0.020905 0.024080 0.193618
Si Si4 0.371901 0.854069 0.848138
Si Si5 0.751533 0.881954 0.248532
Si Si6 0.832215 0.589012 0.974154
Si Si7 0.526008 0.716293 0.153636
O O1 0.368812 0.344924 0.900016
O O2 0.052725 0.410613 0.667487
O O3 0.387731 0.456259 0.087773
O O4 0.254679 0.351059 0.081314
O O5 0.525143 0.418487 0.835124
O O6 0.558451 0.278764 0.865121
O O7 0.724319 0.361456 0.245121
O O8 0.222212 0.987818 0.364823
O O9 0.909718 0.058447 0.939258
O O10 0.312120 0.875410 0.620360
O O11 0.188078 0.837415 0.758130
O O12 0.540481 0.908620 0.063279
O O13 0.489156 0.780878 0.000618
O O14 0.823652 0.822577 0.439626
#
# Coordination Sequence:
#
# PCOD9135214 Si02
#       7
#     4   4   4   4   4   4   4
#     4  10  20  38  62  93 134 167 217 273 341 396
#     4  10  23  39  61  96 135 170 217 281 335 387
#     4  10  21  38  63  97 136 174 215 273 334 400
#     4  11  23  42  69  92 127 182 236 269 330 403
#     4  10  22  40  66  95 127 179 227 273 330 403
#     4  10  23  41  64  98 130 173 222 275 339 398
#     4  11  22  42  67  89 129 175 232 278 327 391
#
# _framework density 23.851057000000001
#
# number of rings (size 3 to 8) (size 9 to 14) (size 15 to 20)
#    0.000    1.714    1.429    3.429    0.000   10.286 
#    0.000    2.857    0.000    0.000    0.000    0.000 
#    0.000    0.000    0.000    0.000    0.000    0.000 
#
# Total GULP energy -78018.744136 kJ/mol
# GULP energy per Si atom -5572.767438 kJ/mol
# Density = 2.379677 g / cm^3
# Si number density = 23.851057 Si / 1000 Ang^3
#
#
#
# Elastic Constant Matrix: (Units=GPa)
#
#
# Indices 1 2 3 4 5 6 
#
# 1 126.4363 24.4985 57.3594 0.0000 10.5683 0.0000
# 2 24.4985 39.4373 21.5708 0.0000 -9.0595 0.0000
# 3 57.3594 21.5708 168.2716 0.0000 15.6031 0.0000
# 4 0.0000 0.0000 0.0000 25.2047 0.0000 -7.7445
# 5 10.5683 -9.0595 15.6031 0.0000 42.0493 0.0000
# 6 0.0000 0.0000 0.0000 -7.7445 0.0000 26.3701
#
#
#
# Elastic Compliance Matrix: (Units=1/GPa)
#
#
# Indices 1 2 3 4 5 6 
#
# 1 0.010422 -0.005751 -0.002545 0.000000 -0.002914 0.000000
# 2 -0.005751 0.032883 -0.003154 0.000000 0.009701 0.000000
# 3 -0.002545 -0.003154 0.007476 0.000000 -0.002814 0.000000
# 4 0.000000 0.000000 0.000000 0.043611 0.000000 0.012808
# 5 -0.002914 0.009701 -0.002814 0.000000 0.027648 0.000000
# 6 0.000000 0.000000 0.000000 0.012808 0.000000 0.041683
#
#
# Mechanical properties :
#
#
# Convention : Reuss Voigt Hill
#
# Bulk Modulus (GPa) = 35.86920 60.11140 47.99030
# Shear Modulus (GPa) = 25.52106 34.10592 29.81349
#
# Velocity S-wave (km/s) = 3.27466 3.78558 3.53935
# Velocity P-wave (km/s) = 5.41935 6.66070 6.07183
#
# Compressibility (1/GPa) = 0.02787907
#
# Stress axis : x y z
#
# Youngs Moduli (GPa) = 95.95405 30.41069 133.76903
#
# Poissons Ratio (x) = 0.17490 0.34044
# Poissons Ratio (y) = 0.55186 0.42195
# Poissons Ratio (z) = 0.24420 0.09593
#
# Static dielectric constant tensor:
#      x y z
#    x 1.957610 0.000000 0.044830 
#    y 0.000000 2.142680 0.000000 
#    z 0.044830 0.000000 1.881020 
# 
# From -- ./inp_files/8400.got.cif
#   From: 2010.05.17/outbox.cif.g08.bks.cpg/sg9_5_cif.got.tgz:8400.got - 2010.06.03 20:04:27.
