data_PCOD9135066
_publ_section_title
;
Structure prediction by ZEFSAII (Michael W. Deem and Ramdas Pophale) SiO2 
 PCOD9135066
Probable space group: C C
;
_chemical_formula_sum "Si O2"
_cell_formula_units_Z 28
_cell_length_a 7.336371
_cell_length_b 11.532376
_cell_length_c 13.773930
_cell_angle_alpha 90.000000
_cell_angle_beta 70.662748
_cell_angle_gamma 90.000000
_cell_volume 1099.611759
_symmetry_space_group_name_H-M "C C"
_symmetry_group_IT_number 9
_symmetry_cell_setting 'monoclinic'
loop_
_space_group_symop_operation_xyz
x,y,z
x,-y,1/2+z
1/2+x,1/2+y,z
1/2+x,1/2-y,1/2+z
loop_
_atom_site_type_symbol
_atom_site_label
_atom_site_fract_x
_atom_site_fract_y
_atom_site_fract_z
Si Si1 0.495840 0.479967 0.072880
Si Si2 0.348873 0.696706 0.439650
Si Si3 0.936692 0.446887 0.472337
Si Si4 0.638381 0.386561 0.244665
Si Si5 0.594546 0.168393 0.333965
Si Si6 0.505928 0.272345 0.629987
Si Si7 0.842858 0.384465 0.694289
O O1 0.420820 0.402910 0.998183
O O2 0.712764 0.517559 0.008886
O O3 0.510821 0.406089 0.170409
O O4 0.409569 0.604806 0.116066
O O5 0.465480 0.817080 0.426604
O O6 0.317010 0.667295 0.332780
O O7 0.131778 0.723568 0.517142
O O8 0.033711 0.550748 0.399137
O O9 0.967568 0.433999 0.582043
O O10 0.548972 0.308685 0.345896
O O11 0.835094 0.317828 0.180518
O O12 0.712683 0.512581 0.261473
O O13 0.491835 0.154480 0.248301
O O14 0.685328 0.297075 0.673770
#
# Coordination Sequence:
#
# PCOD9135066 Si02
#       7
#     4   4   4   4   4   4   4
#     4   9  20  39  62  83 112 152 195 241 297 351
#     4  10  20  37  57  84 116 150 193 243 292 343
#     4   9  21  40  58  83 120 155 192 243 294 345
#     4  10  20  37  57  84 116 150 193 243 292 343
#     4  12  22  36  62  88 118 158 200 240 290 352
#     4   9  20  39  62  83 112 152 195 241 297 351
#     4   9  21  40  58  83 120 155 192 243 294 345
#
# _framework density 25.463533000000002
#
# number of rings (size 3 to 8) (size 9 to 14) (size 15 to 20)
#    0.000    2.857    0.000    4.286    0.000    4.571 
#    0.000    7.143    0.000    0.000    0.000    0.000 
#    0.000    0.000    0.000    0.000    0.000    0.000 
#
# Total GULP energy -78045.488549 kJ/mol
# GULP energy per Si atom -5574.677753 kJ/mol
# Density = 2.540558 g / cm^3
# Si number density = 25.463533 Si / 1000 Ang^3
#
#
#
# Elastic Constant Matrix: (Units=GPa)
#
#
# Indices 1 2 3 4 5 6 
#
# 1 52.2522 29.0170 24.0946 0.0000 25.7545 0.0000
# 2 29.0170 108.7474 26.1943 0.0000 22.1627 0.0000
# 3 24.0946 26.1943 77.7293 0.0000 40.0979 0.0000
# 4 0.0000 0.0000 0.0000 44.5342 0.0000 1.0559
# 5 25.7545 22.1627 40.0979 0.0000 51.2146 0.0000
# 6 0.0000 0.0000 0.0000 1.0559 0.0000 23.5322
#
#
#
# Elastic Compliance Matrix: (Units=1/GPa)
#
#
# Indices 1 2 3 4 5 6 
#
# 1 0.027809 -0.004885 -0.001427 0.000000 -0.010753 0.000000
# 2 -0.004885 0.011118 -0.001707 0.000000 -0.001018 0.000000
# 3 -0.001427 -0.001707 0.022029 0.000000 -0.015791 0.000000
# 4 0.000000 0.000000 0.000000 0.022479 0.000000 -0.001009
# 5 -0.010753 -0.001018 -0.015791 0.000000 0.037737 0.000000
# 6 0.000000 0.000000 0.000000 -0.001009 0.000000 0.042540
#
#
# Mechanical properties :
#
#
# Convention : Reuss Voigt Hill
#
# Bulk Modulus (GPa) = 22.26303 44.14894 33.20599
# Shear Modulus (GPa) = 25.67769 34.48440 30.08105
#
# Velocity S-wave (km/s) = 3.17899 3.68403 3.44079
# Velocity P-wave (km/s) = 4.71559 5.95582 5.37162
#
# Compressibility (1/GPa) = 0.04491752
#
# Stress axis : x y z
#
# Youngs Moduli (GPa) = 35.95984 89.94617 45.39525
#
# Poissons Ratio (x) = 0.43939 0.06476
# Poissons Ratio (y) = 0.17566 0.07750
# Poissons Ratio (z) = 0.05130 0.15356
#
# Static dielectric constant tensor:
#      x y z
#    x 1.997970 0.000000 -0.065050 
#    y 0.000000 2.057340 0.000000 
#    z -0.065050 0.000000 2.250800 
# 
# From -- ./inp_files/22599.got.cif
#   From: 2010.05.17/outbox.cif.g08.bks.cpg/sg9_12_cif.got.tgz:22599.got - 2010.06.03 20:04:27.
