data_PCOD9135586
_publ_section_title
;
Structure prediction by ZEFSAII (Michael W. Deem and Ramdas Pophale) SiO2 
 PCOD9135586
Probable space group: C C
;
_chemical_formula_sum "Si O2"
_cell_formula_units_Z 24
_cell_length_a 8.507384
_cell_length_b 24.547265
_cell_length_c 5.357823
_cell_angle_alpha 90.000000
_cell_angle_beta 64.941902
_cell_angle_gamma 90.000000
_cell_volume 1013.578988
_symmetry_space_group_name_H-M "C C"
_symmetry_group_IT_number 9
_symmetry_cell_setting 'monoclinic'
loop_
_space_group_symop_operation_xyz
x,y,z
x,-y,1/2+z
1/2+x,1/2+y,z
1/2+x,1/2-y,1/2+z
loop_
_atom_site_type_symbol
_atom_site_label
_atom_site_fract_x
_atom_site_fract_y
_atom_site_fract_z
Si Si1 0.360250 0.333158 0.306210
Si Si2 0.801555 0.647075 0.135342
Si Si3 0.641678 0.600750 0.750667
Si Si4 0.464238 0.967455 0.027403
Si Si5 0.022874 0.724605 0.260222
Si Si6 0.100201 0.357834 0.102353
O O1 0.436413 0.389789 0.358521
O O2 0.201457 0.303413 0.552069
O O3 0.513740 0.289042 0.241753
O O4 0.289748 0.343076 0.074086
O O5 0.715914 0.619919 0.431579
O O6 0.863638 0.705808 0.190138
O O7 0.690925 0.636087 0.963309
O O8 0.988453 0.624351 0.920753
O O9 0.757160 0.546432 0.700486
O O10 0.566866 0.909788 0.953689
O O11 0.506059 0.001022 0.247309
O O12 0.009815 0.695561 0.539475
#
# Coordination Sequence:
#
# PCOD9135586 Si02
#       6
#     4   4   4   4   4   4
#     4  11  27  40  70 102 152 186 232 281 350 423
#     4  10  20  41  68  92 142 175 231 278 335 410
#     4  11  23  43  69 103 137 177 230 296 345 409
#     4  11  23  44  78 100 131 184 242 294 358 412
#     4  11  23  42  65 104 139 199 222 278 346 426
#     4  10  24  44  68 105 143 181 241 291 344 416
#
# _framework density 23.678471999999999
#
# number of rings (size 3 to 8) (size 9 to 14) (size 15 to 20)
#    0.000    1.333    3.333    3.000    7.000    1.333 
#    0.000    1.667    0.000    0.000    0.000    0.000 
#    0.000    0.000    0.000    0.000    0.000    0.000 
#
# Total GULP energy -66827.930505 kJ/mol
# GULP energy per Si atom -5568.994209 kJ/mol
# Density = 2.362458 g / cm^3
# Si number density = 23.678472 Si / 1000 Ang^3
#
#
#
# Elastic Constant Matrix: (Units=GPa)
#
#
# Indices 1 2 3 4 5 6 
#
# 1 92.6187 23.7177 36.1931 0.0000 28.8937 0.0000
# 2 23.7177 66.8035 19.8381 0.0000 21.6028 0.0000
# 3 36.1931 19.8381 121.5470 0.0000 21.8710 0.0000
# 4 0.0000 0.0000 0.0000 28.1329 0.0000 9.2178
# 5 28.8937 21.6028 21.8710 0.0000 52.0434 0.0000
# 6 0.0000 0.0000 0.0000 9.2178 0.0000 35.8662
#
#
#
# Elastic Compliance Matrix: (Units=1/GPa)
#
#
# Indices 1 2 3 4 5 6 
#
# 1 0.014313 -0.002374 -0.002836 0.000000 -0.005769 0.000000
# 2 -0.002374 0.017997 -0.001215 0.000000 -0.005642 0.000000
# 3 -0.002836 -0.001215 0.009624 0.000000 -0.001965 0.000000
# 4 0.000000 0.000000 0.000000 0.038814 0.000000 -0.009975
# 5 -0.005769 -0.005642 -0.001965 0.000000 0.025585 0.000000
# 6 0.000000 0.000000 0.000000 -0.009975 0.000000 0.030445
#
#
# Mechanical properties :
#
#
# Convention : Reuss Voigt Hill
#
# Bulk Modulus (GPa) = 34.38432 48.94079 41.66256
# Shear Modulus (GPa) = 31.38254 36.62320 34.00287
#
# Velocity S-wave (km/s) = 3.64450 3.93706 3.79360
# Velocity P-wave (km/s) = 5.68003 6.43281 6.06810
#
# Compressibility (1/GPa) = 0.02908302
#
# Stress axis : x y z
#
# Youngs Moduli (GPa) = 69.86679 55.56345 103.90842
#
# Poissons Ratio (x) = 0.13189 0.29473
# Poissons Ratio (y) = 0.16585 0.12629
# Poissons Ratio (z) = 0.19818 0.06753
#
# Static dielectric constant tensor:
#      x y z
#    x 1.994640 0.000000 -0.017010 
#    y 0.000000 1.921600 0.000000 
#    z -0.017010 0.000000 1.987300 
# 
# From -- ./inp_files/767.got.cif
#   From: 2010.05.17/outbox.cif.g08.bks.cpg/sg9_1_cif.got.tgz:767.got - 2010.06.03 20:04:27.
