data_PCOD9135125
_publ_section_title
;
Structure prediction by ZEFSAII (Michael W. Deem and Ramdas Pophale) SiO2 
 PCOD9135125
Probable space group: C C
;
_chemical_formula_sum "Si O2"
_cell_formula_units_Z 32
_cell_length_a 12.339701
_cell_length_b 8.861491
_cell_length_c 10.337568
_cell_angle_alpha 90.000000
_cell_angle_beta 101.801102
_cell_angle_gamma 90.000000
_cell_volume 1106.501308
_symmetry_space_group_name_H-M "C C"
_symmetry_group_IT_number 9
_symmetry_cell_setting 'monoclinic'
loop_
_space_group_symop_operation_xyz
x,y,z
x,-y,1/2+z
1/2+x,1/2+y,z
1/2+x,1/2-y,1/2+z
loop_
_atom_site_type_symbol
_atom_site_label
_atom_site_fract_x
_atom_site_fract_y
_atom_site_fract_z
Si Si1 0.686030 0.696361 0.031250
Si Si2 0.423469 0.945809 0.797592
Si Si3 0.867818 0.190301 0.990457
Si Si4 0.056848 0.369156 0.172416
Si Si5 0.699339 0.570360 0.712899
Si Si6 0.506363 0.559734 0.830668
Si Si7 0.121876 0.336826 0.538237
Si Si8 0.912295 0.206039 0.561210
O O1 0.665138 0.774395 0.165059
O O2 0.695693 0.521916 0.076975
O O3 0.786110 0.780858 0.988892
O O4 0.576910 0.698727 0.916126
O O5 0.382261 0.825416 0.891318
O O6 0.414665 0.856356 0.658609
O O7 0.535017 0.043692 0.800555
O O8 0.324687 0.065264 0.785599
O O9 0.919116 0.043121 0.927419
O O10 0.739988 0.164142 0.994350
O O11 0.951745 0.257496 0.120690
O O12 0.077988 0.499974 0.070498
O O13 0.616131 0.489028 0.793089
O O14 0.657856 0.737914 0.674683
O O15 0.436686 0.585566 0.681846
O O16 0.011364 0.234616 0.483759
#
# Coordination Sequence:
#
# PCOD9135125 Si02
#       8
#     4   4   4   4   4   4   4   4
#     4  10  21  40  69  95 135 170 222 291 342 408
#     4   9  18  35  63  85 120 163 217 267 318 405
#     4  10  20  39  63  91 128 178 219 278 342 409
#     4  10  21  41  63  94 126 169 224 269 344 406
#     4  10  20  37  63  93 127 172 217 274 343 410
#     4   9  20  38  63  88 133 174 213 273 349 399
#     4  10  20  38  65  89 127 172 219 278 337 398
#     4   8  18  38  61  91 126 166 215 272 331 407
#
# _framework density 28.919983999999999
#
# number of rings (size 3 to 8) (size 9 to 14) (size 15 to 20)
#    0.000    2.500    1.250    0.750    1.750    0.000 
#   15.750    0.000    5.500    0.000    0.000    0.000 
#    0.000    0.000    0.000    0.000    0.000    0.000 
#
# Total GULP energy -89115.947602 kJ/mol
# GULP energy per Si atom -5569.746725 kJ/mol
# Density = 2.885416 g / cm^3
# Si number density = 28.919984 Si / 1000 Ang^3
#
#
#
# Elastic Constant Matrix: (Units=GPa)
#
#
# Indices 1 2 3 4 5 6 
#
# 1 198.7042 12.9994 9.1564 0.0000 -36.5496 0.0000
# 2 12.9994 95.5750 -5.1557 0.0000 -11.2326 0.0000
# 3 9.1564 -5.1557 84.7689 0.0000 -23.6513 0.0000
# 4 0.0000 0.0000 0.0000 27.8262 0.0000 -4.7307
# 5 -36.5496 -11.2326 -23.6513 0.0000 40.9843 0.0000
# 6 0.0000 0.0000 0.0000 -4.7307 0.0000 34.0680
#
#
#
# Elastic Compliance Matrix: (Units=1/GPa)
#
#
# Indices 1 2 3 4 5 6 
#
# 1 0.006094 -0.000069 0.001011 0.000000 0.005999 0.000000
# 2 -0.000069 0.011039 0.001795 0.000000 0.004000 0.000000
# 3 0.001011 0.001795 0.014524 0.000000 0.009775 0.000000
# 4 0.000000 0.000000 0.000000 0.036806 0.000000 0.005111
# 5 0.005999 0.004000 0.009775 0.000000 0.036487 0.000000
# 6 0.000000 0.000000 0.000000 0.005111 0.000000 0.030063
#
#
# Mechanical properties :
#
#
# Convention : Reuss Voigt Hill
#
# Bulk Modulus (GPa) = 26.93138 45.89426 36.41282
# Shear Modulus (GPa) = 35.23191 44.71224 39.97207
#
# Velocity S-wave (km/s) = 3.49414 3.93627 3.72178
# Velocity P-wave (km/s) = 5.06076 6.04672 5.57558
#
# Compressibility (1/GPa) = 0.03713140
#
# Stress axis : x y z
#
# Youngs Moduli (GPa) = 164.09465 90.58565 68.85095
#
# Poissons Ratio (x) = 0.00627 -0.06964
# Poissons Ratio (y) = 0.01136 -0.12357
# Poissons Ratio (z) = -0.16597 -0.16258
#
# Static dielectric constant tensor:
#      x y z
#    x 2.251950 0.000000 0.013310 
#    y 0.000000 2.613130 0.000000 
#    z 0.013310 0.000000 2.370230 
# 
# From -- ./inp_files/16220.got.cif
#   From: 2010.05.17/outbox.cif.g08.bks.cpg/sg9_9_cif.got.tgz:16220.got - 2010.06.03 20:04:27.
