data_PCOD9135859
_publ_section_title
;
Structure prediction by ZEFSAII (Michael W. Deem and Ramdas Pophale) SiO2 
 PCOD9135859
Probable space group: C C
;
_chemical_formula_sum "Si O2"
_cell_formula_units_Z 28
_cell_length_a 18.577322
_cell_length_b 7.919605
_cell_length_c 9.613318
_cell_angle_alpha 90.000000
_cell_angle_beta 100.798678
_cell_angle_gamma 90.000000
_cell_volume 1389.313825
_symmetry_space_group_name_H-M "C C"
_symmetry_group_IT_number 9
_symmetry_cell_setting 'monoclinic'
loop_
_space_group_symop_operation_xyz
x,y,z
x,-y,1/2+z
1/2+x,1/2+y,z
1/2+x,1/2-y,1/2+z
loop_
_atom_site_type_symbol
_atom_site_label
_atom_site_fract_x
_atom_site_fract_y
_atom_site_fract_z
Si Si1 0.592570 0.701639 0.319170
Si Si2 0.397932 0.175440 0.098030
Si Si3 0.121525 0.050318 0.045942
Si Si4 0.951985 0.404651 0.319335
Si Si5 0.673967 0.037752 0.246584
Si Si6 0.536711 0.773857 0.807099
Si Si7 0.243123 0.670023 0.534539
O O1 0.622954 0.630432 0.474706
O O2 0.507737 0.757657 0.294737
O O3 0.639764 0.862701 0.290974
O O4 0.604610 0.563592 0.202149
O O5 0.469462 0.272067 0.182869
O O6 0.324764 0.277249 0.103460
O O7 0.404477 0.994272 0.180798
O O8 0.406400 0.145916 0.937246
O O9 0.058726 0.143823 0.933093
O O10 0.193088 0.163812 0.041532
O O11 0.007489 0.558828 0.378056
O O12 0.708646 0.981251 0.113818
O O13 0.605261 0.164320 0.239343
O O14 0.734557 0.112355 0.372395
#
# Coordination Sequence:
#
# PCOD9135859 Si02
#       7
#     4   4   4   4   4   4   4
#     4  10  21  35  61  90 114 155 202 251 288 351
#     4  10  21  37  62  87 120 155 201 245 306 354
#     4  10  21  36  59  90 120 149 204 255 288 348
#     4   9  20  37  61  82 115 159 196 240 303 360
#     4   9  20  38  64  84 115 160 204 237 301 360
#     4   8  19  36  64  84 115 155 206 246 287 360
#     4  10  22  41  59  87 119 159 195 252 301 359
#
# _framework density 20.153832999999999
#
# number of rings (size 3 to 8) (size 9 to 14) (size 15 to 20)
#    0.857    1.714    0.000    0.857    8.000    3.429 
#    2.571    1.429    0.000    0.000    0.000    0.000 
#    0.000    0.000    0.000    0.000    0.000    0.000 
#
# Total GULP energy -78023.639560 kJ/mol
# GULP energy per Si atom -5573.117111 kJ/mol
# Density = 2.010796 g / cm^3
# Si number density = 20.153833 Si / 1000 Ang^3
#
#
#
# Elastic Constant Matrix: (Units=GPa)
#
#
# Indices 1 2 3 4 5 6 
#
# 1 80.5168 9.5349 25.7576 0.0000 17.0347 0.0000
# 2 9.5349 33.1794 10.4433 0.0000 1.2570 0.0000
# 3 25.7576 10.4433 68.2720 0.0000 -3.7398 0.0000
# 4 0.0000 0.0000 0.0000 37.6318 0.0000 9.2986
# 5 17.0347 1.2570 -3.7398 0.0000 26.2081 0.0000
# 6 0.0000 0.0000 0.0000 9.2986 0.0000 20.1164
#
#
#
# Elastic Compliance Matrix: (Units=1/GPa)
#
#
# Indices 1 2 3 4 5 6 
#
# 1 0.017505 -0.002392 -0.006909 0.000000 -0.012249 0.000000
# 2 -0.002392 0.032120 -0.004042 0.000000 -0.000563 0.000000
# 3 -0.006909 -0.004042 0.018272 0.000000 0.007292 0.000000
# 4 0.000000 0.000000 0.000000 0.030000 0.000000 -0.013867
# 5 -0.012249 -0.000563 0.007292 0.000000 0.047185 0.000000
# 6 0.000000 0.000000 0.000000 -0.013867 0.000000 0.056121
#
#
# Mechanical properties :
#
#
# Convention : Reuss Voigt Hill
#
# Bulk Modulus (GPa) = 24.26535 30.38218 27.32376
# Shear Modulus (GPa) = 20.69326 25.87344 23.28335
#
# Velocity S-wave (km/s) = 3.20779 3.58690 3.40263
# Velocity P-wave (km/s) = 5.07800 5.67999 5.38741
#
# Compressibility (1/GPa) = 0.04121103
#
# Stress axis : x y z
#
# Youngs Moduli (GPa) = 57.12722 31.13328 54.72929
#
# Poissons Ratio (x) = 0.07446 0.37814
# Poissons Ratio (y) = 0.13663 0.22120
# Poissons Ratio (z) = 0.39471 0.12583
#
# Static dielectric constant tensor:
#      x y z
#    x 1.685480 0.000000 0.005840 
#    y 0.000000 1.771870 0.000000 
#    z 0.005840 0.000000 1.724810 
# 
# From -- ./inp_files/11219.got.cif
#   From: 2010.05.17/outbox.cif.g08.bks.cpg/sg9_6_cif.got.tgz:11219.got - 2010.06.03 20:04:27.
