data_PCOD9135420
_publ_section_title
;
Structure prediction by ZEFSAII (Michael W. Deem and Ramdas Pophale) SiO2 
 PCOD9135420
Probable space group: C C
;
_chemical_formula_sum "Si O2"
_cell_formula_units_Z 32
_cell_length_a 11.276507
_cell_length_b 11.273908
_cell_length_c 18.022319
_cell_angle_alpha 90.000000
_cell_angle_beta 47.229377
_cell_angle_gamma 90.000000
_cell_volume 1681.907245
_symmetry_space_group_name_H-M "C C"
_symmetry_group_IT_number 9
_symmetry_cell_setting 'monoclinic'
loop_
_space_group_symop_operation_xyz
x,y,z
x,-y,1/2+z
1/2+x,1/2+y,z
1/2+x,1/2-y,1/2+z
loop_
_atom_site_type_symbol
_atom_site_label
_atom_site_fract_x
_atom_site_fract_y
_atom_site_fract_z
Si Si1 0.287580 0.143600 0.371800
Si Si2 0.428586 0.352448 0.050450
Si Si3 0.673854 0.677860 0.095629
Si Si4 0.077735 0.955146 0.399426
Si Si5 0.817196 0.579536 0.527968
Si Si6 0.955989 0.843768 0.211348
Si Si7 0.604682 0.218673 0.469871
Si Si8 0.426392 0.431973 0.814984
O O1 0.342024 0.120083 0.432404
O O2 0.403914 0.227083 0.276721
O O3 0.106350 0.200196 0.454637
O O4 0.246673 0.020153 0.347700
O O5 0.287053 0.286565 0.069294
O O6 0.404728 0.341232 0.147742
O O7 0.453501 0.487307 0.012395
O O8 0.784314 0.560706 0.040306
O O9 0.550205 0.646235 0.213870
O O10 0.590390 0.709698 0.053196
O O11 0.093935 0.816637 0.408445
O O12 0.013926 0.005809 0.348369
O O13 0.648801 0.635680 0.628309
O O14 0.962627 0.624873 0.516298
O O15 0.877554 0.957543 0.284050
O O16 0.774226 0.149113 0.399349
#
# Coordination Sequence:
#
# PCOD9135420 Si02
#       8
#     4   4   4   4   4   4   4   4
#     4   9  18  37  64  87 121 168 203 256 311 358
#     4   9  20  38  66  87 123 169 200 266 312 362
#     4  11  22  44  62  92 129 160 218 259 311 377
#     4  10  20  40  63  91 129 164 209 260 305 372
#     4  10  23  39  63  91 128 168 203 266 308 370
#     4  10  20  40  61  94 125 160 218 252 311 378
#     4  12  23  42  67  91 131 168 207 260 319 368
#     4  11  24  38  64  93 126 169 208 263 311 377
#
# _framework density 19.026019000000002
#
# number of rings (size 3 to 8) (size 9 to 14) (size 15 to 20)
#    0.750    1.000    2.500    2.250    1.750    3.000 
#    0.000    1.250    0.000    0.000    0.000    0.000 
#    0.000    0.000    0.000    0.000    0.000    0.000 
#
# Total GULP energy -89198.267532 kJ/mol
# GULP energy per Si atom -5574.891721 kJ/mol
# Density = 1.898272 g / cm^3
# Si number density = 19.026019 Si / 1000 Ang^3
#
#
#
# Elastic Constant Matrix: (Units=GPa)
#
#
# Indices 1 2 3 4 5 6 
#
# 1 94.4969 37.0690 27.5245 0.0000 13.1608 0.0000
# 2 37.0690 37.8033 15.9794 0.0000 1.4617 0.0000
# 3 27.5245 15.9794 64.7350 0.0000 23.7686 0.0000
# 4 0.0000 0.0000 0.0000 23.4283 0.0000 -1.7535
# 5 13.1608 1.4617 23.7686 0.0000 12.1702 0.0000
# 6 0.0000 0.0000 0.0000 -1.7535 0.0000 31.2069
#
#
#
# Elastic Compliance Matrix: (Units=1/GPa)
#
#
# Indices 1 2 3 4 5 6 
#
# 1 0.025853 -0.031313 0.019869 0.000000 -0.063000 0.000000
# 2 -0.031313 0.073360 -0.049457 0.000000 0.121641 0.000000
# 3 0.019869 -0.049457 0.088067 0.000000 -0.187541 0.000000
# 4 0.000000 0.000000 0.000000 0.042864 0.000000 0.002409
# 5 -0.063000 0.121641 -0.187541 0.000000 0.501955 0.000000
# 6 0.000000 0.000000 0.000000 0.002409 0.000000 0.032180
#
#
# Mechanical properties :
#
#
# Convention : Reuss Voigt Hill
#
# Bulk Modulus (GPa) = 15.27274 39.79789 27.53532
# Shear Modulus (GPa) = 5.50718 21.12524 13.31621
#
# Velocity S-wave (km/s) = 1.70318 3.33578 2.64842
# Velocity P-wave (km/s) = 3.45145 5.98328 4.88427
#
# Compressibility (1/GPa) = 0.06547615
#
# Stress axis : x y z
#
# Youngs Moduli (GPa) = 38.68059 13.63142 11.35502
#
# Poissons Ratio (x) = 0.42684 -0.22561
# Poissons Ratio (y) = 1.21121 0.56159
# Poissons Ratio (z) = -0.76853 0.67417
#
# Static dielectric constant tensor:
#      x y z
#    x 1.670870 0.000000 0.014810 
#    y 0.000000 1.668240 0.000000 
#    z 0.014810 0.000000 1.664080 
# 
# From -- ./inp_files/30019.got.cif
#   From: 2010.05.17/outbox.cif.g08.bks.cpg/sg9_16_cif.got.tgz:30019.got - 2010.06.03 20:04:27.
