data_PCOD9135868
_publ_section_title
;
Structure prediction by ZEFSAII (Michael W. Deem and Ramdas Pophale) SiO2 
 PCOD9135868
Probable space group: C C
;
_chemical_formula_sum "Si O2"
_cell_formula_units_Z 32
_cell_length_a 9.482917
_cell_length_b 18.937427
_cell_length_c 12.332868
_cell_angle_alpha 90.000000
_cell_angle_beta 140.256808
_cell_angle_gamma 90.000000
_cell_volume 1416.002670
_symmetry_space_group_name_H-M "C C"
_symmetry_group_IT_number 9
_symmetry_cell_setting 'monoclinic'
loop_
_space_group_symop_operation_xyz
x,y,z
x,-y,1/2+z
1/2+x,1/2+y,z
1/2+x,1/2-y,1/2+z
loop_
_atom_site_type_symbol
_atom_site_label
_atom_site_fract_x
_atom_site_fract_y
_atom_site_fract_z
Si Si1 0.071840 0.861525 0.605060
Si Si2 0.736301 0.981236 0.769958
Si Si3 0.273524 0.600688 0.630062
Si Si4 0.430946 0.779983 0.963252
Si Si5 0.606038 0.720018 0.463248
Si Si6 0.248759 0.361525 0.605056
Si Si7 0.597086 0.600689 0.630061
Si Si8 0.414102 0.981237 0.769959
O O1 0.247241 0.814856 0.778255
O O2 0.215120 0.925178 0.644694
O O3 0.971608 0.802723 0.466446
O O4 0.883054 0.887010 0.577812
O O5 0.684746 0.925177 0.644691
O O6 0.922937 0.944872 0.954271
O O7 0.525159 0.994408 0.719916
O O8 0.811177 0.053608 0.758414
O O9 0.489040 0.609196 0.683797
O O10 0.149357 0.673820 0.578680
O O11 0.096091 0.555128 0.454271
O O12 0.330601 0.785010 0.025359
O O13 0.419749 0.685144 0.278251
O O14 0.571764 0.802723 0.466442
O O15 0.618481 0.673821 0.578676
O O16 0.816139 0.553609 0.758414
#
# Coordination Sequence:
#
# PCOD9135868 Si02
#       8
#     4   4   4   4   4   4   4   4
#     4   9  18  33  52  74 102 135 170 209 253 302
#     4  10  21  36  54  77 105 137 174 215 258 306
#     4  10  21  36  54  77 105 137 174 215 258 306
#     4   9  18  33  52  74 102 135 170 209 253 302
#     4   9  18  33  52  74 102 135 170 209 253 302
#     4   9  18  33  52  74 102 135 170 209 253 302
#     4  10  21  36  54  77 105 137 174 215 258 306
#     4  10  21  36  54  77 105 137 174 215 258 306
#
# _framework density 22.598825999999999
#
# number of rings (size 3 to 8) (size 9 to 14) (size 15 to 20)
#    0.000    2.500    0.000    1.500    0.000    6.000 
#    0.000    5.000    0.000    0.000    0.000    0.000 
#    0.000    0.000    0.000    0.000    0.000    0.000 
#
# Total GULP energy -89494.691581 kJ/mol
# GULP energy per Si atom -5593.418224 kJ/mol
# Density = 2.254739 g / cm^3
# Si number density = 22.598826 Si / 1000 Ang^3
#
#
#
# Elastic Constant Matrix: (Units=GPa)
#
#
# Indices 1 2 3 4 5 6 
#
# 1 107.4249 50.6496 20.8904 -0.0001 -4.3410 -0.0001
# 2 50.6496 102.0592 6.2108 0.0000 -3.4500 0.0000
# 3 20.8904 6.2108 52.4132 0.0000 0.0688 -0.0001
# 4 -0.0001 0.0000 0.0000 45.2133 0.0000 0.5133
# 5 -4.3410 -3.4500 0.0688 0.0000 15.6528 -0.0001
# 6 -0.0001 0.0000 -0.0001 0.5133 -0.0001 38.5952
#
#
#
# Elastic Compliance Matrix: (Units=1/GPa)
#
#
# Indices 1 2 3 4 5 6 
#
# 1 0.013207 -0.006200 -0.004532 0.000000 0.002316 0.000000
# 2 -0.006200 0.012855 0.000947 0.000000 0.001110 0.000000
# 3 -0.004532 0.000947 0.020775 0.000000 -0.001140 0.000000
# 4 0.000000 0.000000 0.000000 0.022121 0.000000 -0.000294
# 5 0.002316 0.001110 -0.001140 0.000000 0.064778 0.000000
# 6 0.000000 0.000000 0.000000 -0.000294 0.000000 0.025914
#
#
# Mechanical properties :
#
#
# Convention : Reuss Voigt Hill
#
# Bulk Modulus (GPa) = 36.67694 46.37766 41.52730
# Shear Modulus (GPa) = 26.55183 32.16867 29.36025
#
# Velocity S-wave (km/s) = 3.43143 3.77698 3.60834
# Velocity P-wave (km/s) = 5.65371 6.29186 5.98130
#
# Compressibility (1/GPa) = 0.02726509
#
# Stress axis : x y z
#
# Youngs Moduli (GPa) = 75.71638 77.78945 48.13489
#
# Poissons Ratio (x) = 0.48232 0.21816
# Poissons Ratio (y) = 0.46947 -0.04556
# Poissons Ratio (z) = 0.34317 -0.07363
#
# Static dielectric constant tensor:
#      x y z
#    x 1.782580 0.000000 0.010300 
#    y 0.000000 1.813180 0.000000 
#    z 0.010300 0.000000 1.915220 
# 
# From -- ./inp_files/5601.got.cif
#   From: 2010.05.17/outbox.cif.g08.bks.cpg/sg9_3_cif.got.tgz:5601.got - 2010.06.03 20:04:27.
