data_PCOD9135284
_publ_section_title
;
Structure prediction by ZEFSAII (Michael W. Deem and Ramdas Pophale) SiO2 
 PCOD9135284
Probable space group: C C
;
_chemical_formula_sum "Si O2"
_cell_formula_units_Z 32
_cell_length_a 9.274139
_cell_length_b 27.801894
_cell_length_c 11.496422
_cell_angle_alpha 90.000000
_cell_angle_beta 148.865656
_cell_angle_gamma 90.000000
_cell_volume 1532.640439
_symmetry_space_group_name_H-M "C C"
_symmetry_group_IT_number 9
_symmetry_cell_setting 'monoclinic'
loop_
_space_group_symop_operation_xyz
x,y,z
x,-y,1/2+z
1/2+x,1/2+y,z
1/2+x,1/2-y,1/2+z
loop_
_atom_site_type_symbol
_atom_site_label
_atom_site_fract_x
_atom_site_fract_y
_atom_site_fract_z
Si Si1 0.373590 0.895106 0.413250
Si Si2 0.137406 0.743522 0.856628
Si Si3 0.820893 0.394855 0.634207
Si Si4 0.712558 0.861265 0.455404
Si Si5 0.357054 0.461078 0.018309
Si Si6 0.811490 0.338388 0.856106
Si Si7 0.685860 0.916267 0.221274
Si Si8 0.253659 0.510880 0.186513
O O1 0.378010 0.875394 0.545709
O O2 0.485691 0.857591 0.398155
O O3 0.587450 0.940027 0.553945
O O4 0.075527 0.917768 0.181372
O O5 0.200843 0.688006 0.874237
O O6 0.287092 0.783163 0.877394
O O7 0.806304 0.749678 0.596802
O O8 0.808621 0.352185 0.718985
O O9 0.515356 0.418582 0.425392
O O10 0.051988 0.436058 0.815221
O O11 0.643393 0.906702 0.327653
O O12 0.031306 0.862918 0.717500
O O13 0.397342 0.482152 0.914753
O O14 0.387405 0.495672 0.153508
O O15 0.067235 0.369388 0.078009
O O16 0.558704 0.964859 0.083139
#
# Coordination Sequence:
#
# PCOD9135284 Si02
#       8
#     4   4   4   4   4   4   4   4
#     4  11  24  41  61  92 138 179 225 277 347 409
#     4  10  20  40  67 103 136 166 220 292 348 420
#     4  10  21  40  62  90 126 176 221 275 345 410
#     4  10  23  38  63 101 132 171 224 281 349 411
#     4  11  24  41  60  91 132 183 228 288 337 408
#     4  10  20  38  69  96 127 168 222 280 346 409
#     4  11  20  39  65  91 128 173 224 280 335 400
#     4  11  24  37  61  90 131 178 236 277 333 405
#
# _framework density 20.878999
#
# number of rings (size 3 to 8) (size 9 to 14) (size 15 to 20)
#    0.000    1.500    3.750    0.750    1.750    4.000 
#    0.000    0.000    0.000    9.000    0.000    0.000 
#    0.000    0.000    0.000    0.000    0.000    0.000 
#
# Total GULP energy -89070.516414 kJ/mol
# GULP energy per Si atom -5566.907276 kJ/mol
# Density = 2.083148 g / cm^3
# Si number density = 20.878999 Si / 1000 Ang^3
#
#
#
# Elastic Constant Matrix: (Units=GPa)
#
#
# Indices 1 2 3 4 5 6 
#
# 1 108.6564 20.9188 45.7856 0.0000 -9.9690 0.0000
# 2 20.9188 75.2310 14.2654 0.0000 -6.3248 0.0000
# 3 45.7856 14.2654 96.5617 0.0000 -7.0591 0.0000
# 4 0.0000 0.0000 0.0000 21.2716 0.0000 -4.9708
# 5 -9.9690 -6.3248 -7.0591 0.0000 25.6699 0.0000
# 6 0.0000 0.0000 0.0000 -4.9708 0.0000 17.4566
#
#
#
# Elastic Compliance Matrix: (Units=1/GPa)
#
#
# Indices 1 2 3 4 5 6 
#
# 1 0.012057 -0.002137 -0.005202 0.000000 0.002725 0.000000
# 2 -0.002137 0.014265 -0.000916 0.000000 0.002433 0.000000
# 3 -0.005202 -0.000916 0.013056 0.000000 0.001344 0.000000
# 4 0.000000 0.000000 0.000000 0.050362 0.000000 0.014341
# 5 0.002725 0.002433 0.001344 0.000000 0.040984 0.000000
# 6 0.000000 0.000000 0.000000 0.014341 0.000000 0.061369
#
#
# Mechanical properties :
#
#
# Convention : Reuss Voigt Hill
#
# Bulk Modulus (GPa) = 43.73007 49.15430 46.44219
# Shear Modulus (GPa) = 23.12405 26.17824 24.65114
#
# Velocity S-wave (km/s) = 3.33156 3.54476 3.43981
# Velocity P-wave (km/s) = 5.98240 6.35195 6.16994
#
# Compressibility (1/GPa) = 0.02286756
#
# Stress axis : x y z
#
# Youngs Moduli (GPa) = 82.94109 70.10226 76.59169
#
# Poissons Ratio (x) = 0.14981 0.39842
# Poissons Ratio (y) = 0.17725 0.07018
# Poissons Ratio (z) = 0.43145 0.06423
#
# Static dielectric constant tensor:
#      x y z
#    x 1.770970 0.000000 -0.045870 
#    y 0.000000 1.769380 0.000000 
#    z -0.045870 0.000000 1.860370 
# 
# From -- ./inp_files/1315.got.cif
#   From: 2010.05.17/outbox.cif.g08.bks.cpg/sg9_1_cif.got.tgz:1315.got - 2010.06.03 20:04:27.
