data_PCOD9135866
_publ_section_title
;
Structure prediction by ZEFSAII (Michael W. Deem and Ramdas Pophale) SiO2 
 PCOD9135866
Probable space group: C C
;
_chemical_formula_sum "Si O2"
_cell_formula_units_Z 32
_cell_length_a 23.678608
_cell_length_b 5.319880
_cell_length_c 14.000693
_cell_angle_alpha 90.000000
_cell_angle_beta 132.312317
_cell_angle_gamma 90.000000
_cell_volume 1304.180575
_symmetry_space_group_name_H-M "C C"
_symmetry_group_IT_number 9
_symmetry_cell_setting 'monoclinic'
loop_
_space_group_symop_operation_xyz
x,y,z
x,-y,1/2+z
1/2+x,1/2+y,z
1/2+x,1/2-y,1/2+z
loop_
_atom_site_type_symbol
_atom_site_label
_atom_site_fract_x
_atom_site_fract_y
_atom_site_fract_z
Si Si1 0.333210 0.013388 0.012120
Si Si2 0.437988 0.020611 0.963042
Si Si3 0.118824 0.663417 0.003447
Si Si4 0.350697 0.730307 0.720827
Si Si5 0.171812 0.114776 0.383463
Si Si6 0.186079 0.167810 0.092661
Si Si7 0.512406 0.496751 0.624577
Si Si8 0.453266 0.653428 0.252629
O O1 0.397297 0.834721 0.131010
O O2 0.327481 0.231274 0.084330
O O3 0.365451 0.090619 0.947278
O O4 0.251542 0.878998 0.920037
O O5 0.403307 0.955027 0.820764
O O6 0.495967 0.247484 0.048853
O O7 0.471751 0.751065 0.035440
O O8 0.158370 0.656830 0.942449
O O9 0.031494 0.730474 0.882153
O O10 0.132262 0.393485 0.064371
O O11 0.273810 0.740343 0.695971
O O12 0.404229 0.488825 0.776988
O O13 0.100626 0.072410 0.235252
O O14 0.171749 0.895048 0.463878
O O15 0.162363 0.893696 0.105605
O O16 0.482996 0.532848 0.701046
#
# Coordination Sequence:
#
# PCOD9135866 Si02
#       8
#     4   4   4   4   4   4   4   4
#     4  10  21  41  65  95 122 176 211 274 320 391
#     4  11  25  41  64  93 131 168 216 266 322 384
#     4   9  19  33  58  93 124 157 211 257 318 382
#     4  11  23  40  66  94 133 171 224 267 329 388
#     4   8  19  34  64  87 123 161 212 250 326 374
#     4   9  20  34  58  92 121 165 206 265 315 378
#     4  10  22  40  62  93 127 169 207 269 321 387
#     4  10  21  35  67  93 131 165 227 262 331 390
#
# _framework density 24.536477000000001
#
# number of rings (size 3 to 8) (size 9 to 14) (size 15 to 20)
#    0.750    1.500    1.250    0.750    8.750    0.000 
#    0.000    1.250    0.000    0.000    0.000    0.000 
#    0.000    0.000    0.000    0.000    0.000    0.000 
#
# Total GULP energy -89322.738794 kJ/mol
# GULP energy per Si atom -5582.671175 kJ/mol
# Density = 2.448063 g / cm^3
# Si number density = 24.536477 Si / 1000 Ang^3
#
#
#
# Elastic Constant Matrix: (Units=GPa)
#
#
# Indices 1 2 3 4 5 6 
#
# 1 61.7193 -7.8440 21.6187 0.0001 13.1337 0.0000
# 2 -7.8440 111.2570 2.6512 0.0001 0.7531 0.0008
# 3 21.6187 2.6512 48.2447 0.0000 2.5312 0.0000
# 4 0.0001 0.0001 0.0000 16.9286 0.0000 6.1410
# 5 13.1337 0.7531 2.5312 0.0000 41.7024 0.0001
# 6 0.0000 0.0008 0.0000 6.1410 0.0001 26.4549
#
#
#
# Elastic Compliance Matrix: (Units=1/GPa)
#
#
# Indices 1 2 3 4 5 6 
#
# 1 0.020918 0.001734 -0.009151 0.000000 -0.006064 0.000000
# 2 0.001734 0.009144 -0.001246 0.000000 -0.000636 0.000000
# 3 -0.009151 -0.001246 0.024823 0.000000 0.001398 0.000000
# 4 0.000000 0.000000 0.000000 0.064503 0.000000 -0.014973
# 5 -0.006064 -0.000636 0.001398 0.000000 0.025816 0.000000
# 6 0.000000 0.000000 0.000000 -0.014973 0.000000 0.041276
#
#
# Mechanical properties :
#
#
# Convention : Reuss Voigt Hill
#
# Bulk Modulus (GPa) = 26.62395 28.23032 27.42714
# Shear Modulus (GPa) = 23.11313 30.67020 26.89166
#
# Velocity S-wave (km/s) = 3.07252 3.53935 3.31416
# Velocity P-wave (km/s) = 4.84370 5.31348 5.08402
#
# Compressibility (1/GPa) = 0.03756016
#
# Stress axis : x y z
#
# Youngs Moduli (GPa) = 47.80471 109.35602 40.28471
#
# Poissons Ratio (x) = -0.18962 0.36864
# Poissons Ratio (y) = -0.08289 0.05020
# Poissons Ratio (z) = 0.43745 0.13628
#
# Static dielectric constant tensor:
#      x y z
#    x 2.012320 0.000000 -0.037090 
#    y 0.000000 1.987600 0.000000 
#    z -0.037090 0.000000 1.934730 
# 
# From -- ./inp_files/27160.got.cif
#   From: 2010.05.17/outbox.cif.g08.bks.cpg/sg9_14_cif.got.tgz:27160.got - 2010.06.03 20:04:27.
