data_PCOD9135843
_publ_section_title
;
Structure prediction by ZEFSAII (Michael W. Deem and Ramdas Pophale) SiO2 
 PCOD9135843
Probable space group: C C
;
_chemical_formula_sum "Si O2"
_cell_formula_units_Z 24
_cell_length_a 11.434655
_cell_length_b 15.477742
_cell_length_c 5.462564
_cell_angle_alpha 90.000000
_cell_angle_beta 75.169227
_cell_angle_gamma 90.000000
_cell_volume 934.571772
_symmetry_space_group_name_H-M "C C"
_symmetry_group_IT_number 9
_symmetry_cell_setting 'monoclinic'
loop_
_space_group_symop_operation_xyz
x,y,z
x,-y,1/2+z
1/2+x,1/2+y,z
1/2+x,1/2-y,1/2+z
loop_
_atom_site_type_symbol
_atom_site_label
_atom_site_fract_x
_atom_site_fract_y
_atom_site_fract_z
Si Si1 0.405910 0.659728 0.625000
Si Si2 0.741496 0.312707 0.278225
Si Si3 0.559902 0.907063 0.836682
Si Si4 0.476235 0.685611 0.085609
Si Si5 0.324145 0.859022 0.735481
Si Si6 0.643465 0.099063 0.792072
O O1 0.443719 0.625715 0.870958
O O2 0.387279 0.763263 0.678355
O O3 0.274986 0.622908 0.631263
O O4 0.489207 0.645274 0.346806
O O5 0.608940 0.280200 0.432439
O O6 0.776759 0.374746 0.488453
O O7 0.732765 0.352105 0.011704
O O8 0.854953 0.245528 0.189766
O O9 0.429276 0.919767 0.784045
O O10 0.626848 0.860436 0.571636
O O11 0.626862 0.997575 0.839265
O O12 0.552189 0.875324 0.122175
#
# Coordination Sequence:
#
# PCOD9135843 Si02
#       6
#     4   4   4   4   4   4
#     4  10  21  34  55  88 127 164 205 268 330 372
#     4  10  21  36  55  86 129 172 206 255 328 395
#     4  10  21  38  61  92 126 166 218 269 313 377
#     4  10  21  36  55  86 129 172 206 255 328 395
#     4  10  21  34  55  88 127 164 205 268 330 372
#     4  10  21  38  61  92 126 166 218 269 313 377
#
# _framework density 25.680212000000001
#
# number of rings (size 3 to 8) (size 9 to 14) (size 15 to 20)
#    0.000    2.000    0.000    3.000    0.000   16.000 
#    0.000    0.000    0.000    0.000    0.000   93.333 
#    0.000    0.000    0.000    0.000    0.000    0.000 
#
# Total GULP energy -66880.968818 kJ/mol
# GULP energy per Si atom -5573.414068 kJ/mol
# Density = 2.562176 g / cm^3
# Si number density = 25.680212 Si / 1000 Ang^3
#
#
#
# Elastic Constant Matrix: (Units=GPa)
#
#
# Indices 1 2 3 4 5 6 
#
# 1 133.5348 18.5154 52.0980 0.0000 -8.1094 0.0000
# 2 18.5154 33.5055 0.6936 0.0000 -8.8084 0.0000
# 3 52.0980 0.6936 270.0405 0.0000 19.0819 0.0000
# 4 0.0000 0.0000 0.0000 14.8957 0.0000 -2.3406
# 5 -8.1094 -8.8084 19.0819 0.0000 72.6028 0.0000
# 6 0.0000 0.0000 0.0000 -2.3406 0.0000 23.4341
#
#
#
# Elastic Compliance Matrix: (Units=1/GPa)
#
#
# Indices 1 2 3 4 5 6 
#
# 1 0.008873 -0.004632 -0.001763 0.000000 0.000892 0.000000
# 2 -0.004632 0.033280 0.000570 0.000000 0.003370 0.000000
# 3 -0.001763 0.000570 0.004127 0.000000 -0.001213 0.000000
# 4 0.000000 0.000000 0.000000 0.068204 0.000000 0.006812
# 5 0.000892 0.003370 -0.001213 0.000000 0.014601 0.000000
# 6 0.000000 0.000000 0.000000 0.006812 0.000000 0.043353
#
#
# Mechanical properties :
#
#
# Convention : Reuss Voigt Hill
#
# Bulk Modulus (GPa) = 28.87666 64.41054 46.64360
# Shear Modulus (GPa) = 25.55821 46.57145 36.06483
#
# Velocity S-wave (km/s) = 3.15818 4.26316 3.75157
# Velocity P-wave (km/s) = 4.95660 7.02630 6.08017
#
# Compressibility (1/GPa) = 0.03463004
#
# Stress axis : x y z
#
# Youngs Moduli (GPa) = 112.70166 30.04824 242.27754
#
# Poissons Ratio (x) = 0.13919 0.42714
# Poissons Ratio (y) = 0.52205 -0.13810
# Poissons Ratio (z) = 0.19869 -0.01713
#
# Static dielectric constant tensor:
#      x y z
#    x 2.066800 0.000000 0.046580 
#    y 0.000000 2.083730 0.000000 
#    z 0.046580 0.000000 2.158120 
# 
# From -- ./inp_files/1616.got.cif
#   From: 2010.05.17/outbox.cif.g08.bks.cpg/sg9_1_cif.got.tgz:1616.got - 2010.06.03 20:04:27.
