data_PCOD9135472
_publ_section_title
;
Structure prediction by ZEFSAII (Michael W. Deem and Ramdas Pophale) SiO2 
 PCOD9135472
Probable space group: C C
;
_chemical_formula_sum "Si O2"
_cell_formula_units_Z 24
_cell_length_a 26.827035
_cell_length_b 7.002356
_cell_length_c 9.195116
_cell_angle_alpha 90.000000
_cell_angle_beta 141.343407
_cell_angle_gamma 90.000000
_cell_volume 1078.975720
_symmetry_space_group_name_H-M "C C"
_symmetry_group_IT_number 9
_symmetry_cell_setting 'monoclinic'
loop_
_space_group_symop_operation_xyz
x,y,z
x,-y,1/2+z
1/2+x,1/2+y,z
1/2+x,1/2-y,1/2+z
loop_
_atom_site_type_symbol
_atom_site_label
_atom_site_fract_x
_atom_site_fract_y
_atom_site_fract_z
Si Si1 0.286760 0.767839 0.657680
Si Si2 0.876554 0.911209 0.917985
Si Si3 0.582882 0.668099 0.379786
Si Si4 0.229047 0.087287 0.318893
Si Si5 0.479630 0.437898 0.906770
Si Si6 0.698053 0.903858 0.477097
O O1 0.360964 0.625625 0.818116
O O2 0.283697 0.836258 0.815589
O O3 0.211206 0.623675 0.465449
O O4 0.277108 0.944227 0.531257
O O5 0.922802 0.818488 0.887847
O O6 0.785840 0.849024 0.745130
O O7 0.928457 0.930622 0.179474
O O8 0.655923 0.526638 0.582543
O O9 0.531725 0.683774 0.410556
O O10 0.625091 0.857989 0.415365
O O11 0.534078 0.564615 0.138813
O O12 0.194863 0.265117 0.331929
#
# Coordination Sequence:
#
# PCOD9135472 Si02
#       6
#     4   4   4   4   4   4
#     4  10  25  37  70 103 135 177 232 296 333 405
#     4   9  22  39  66 102 130 186 223 284 345 409
#     4  11  21  38  66 100 130 187 224 277 339 419
#     4  12  21  41  65 106 133 174 231 297 336 398
#     4  10  20  40  66  95 141 187 215 273 375 398
#     4  10  23  39  67 106 129 181 239 285 330 413
#
# _framework density 22.243317999999999
#
# number of rings (size 3 to 8) (size 9 to 14) (size 15 to 20)
#    1.000    0.667    3.333    1.000    4.667    0.000 
#    0.000    0.000    0.000   36.000    0.000    0.000 
#    0.000    0.000    0.000    0.000    0.000    0.000 
#
# Total GULP energy -66961.985788 kJ/mol
# GULP energy per Si atom -5580.165482 kJ/mol
# Density = 2.219269 g / cm^3
# Si number density = 22.243318 Si / 1000 Ang^3
#
#
#
# Elastic Constant Matrix: (Units=GPa)
#
#
# Indices 1 2 3 4 5 6 
#
# 1 141.8011 17.3479 29.7824 0.0000 -17.2053 0.0000
# 2 17.3479 75.3992 3.1421 0.0000 -16.7822 0.0000
# 3 29.7824 3.1421 90.6945 0.0000 -13.0231 0.0000
# 4 0.0000 0.0000 0.0000 22.2241 0.0000 1.6576
# 5 -17.2053 -16.7822 -13.0231 0.0000 34.2128 0.0000
# 6 0.0000 0.0000 0.0000 1.6576 0.0000 16.7154
#
#
#
# Elastic Compliance Matrix: (Units=1/GPa)
#
#
# Indices 1 2 3 4 5 6 
#
# 1 0.007973 -0.001164 -0.002205 0.000000 0.002599 0.000000
# 2 -0.001164 0.015085 0.000887 0.000000 0.007152 0.000000
# 3 -0.002205 0.000887 0.012295 0.000000 0.004006 0.000000
# 4 0.000000 0.000000 0.000000 0.045332 0.000000 -0.004495
# 5 0.002599 0.007152 0.004006 0.000000 0.035569 0.000000
# 6 0.000000 0.000000 0.000000 -0.004495 0.000000 0.060271
#
#
# Mechanical properties :
#
#
# Convention : Reuss Voigt Hill
#
# Bulk Modulus (GPa) = 32.90676 45.38220 39.14448
# Shear Modulus (GPa) = 26.09357 31.80528 28.94943
#
# Velocity S-wave (km/s) = 3.42877 3.78548 3.61153
# Velocity P-wave (km/s) = 5.52280 6.28915 5.91839
#
# Compressibility (1/GPa) = 0.03038889
#
# Stress axis : x y z
#
# Youngs Moduli (GPa) = 125.42405 66.28899 81.33709
#
# Poissons Ratio (x) = 0.07716 0.17932
# Poissons Ratio (y) = 0.14599 -0.07211
# Poissons Ratio (z) = 0.27651 -0.05877
#
# Static dielectric constant tensor:
#      x y z
#    x 1.858150 0.000000 0.016940 
#    y 0.000000 1.806880 0.000000 
#    z 0.016940 0.000000 1.826370 
# 
# From -- ./inp_files/10304.got.cif
#   From: 2010.05.17/outbox.cif.g08.bks.cpg/sg9_6_cif.got.tgz:10304.got - 2010.06.03 20:04:27.
