data_PCOD9135095
_publ_section_title
;
Structure prediction by ZEFSAII (Michael W. Deem and Ramdas Pophale) SiO2 
 PCOD9135095
Probable space group: C C
;
_chemical_formula_sum "Si O2"
_cell_formula_units_Z 32
_cell_length_a 12.130575
_cell_length_b 13.942755
_cell_length_c 7.959238
_cell_angle_alpha 90.000000
_cell_angle_beta 83.784926
_cell_angle_gamma 90.000000
_cell_volume 1338.262735
_symmetry_space_group_name_H-M "C C"
_symmetry_group_IT_number 9
_symmetry_cell_setting 'monoclinic'
loop_
_space_group_symop_operation_xyz
x,y,z
x,-y,1/2+z
1/2+x,1/2+y,z
1/2+x,1/2-y,1/2+z
loop_
_atom_site_type_symbol
_atom_site_label
_atom_site_fract_x
_atom_site_fract_y
_atom_site_fract_z
Si Si1 0.073100 0.529047 0.117200
Si Si2 0.323543 0.282543 0.713250
Si Si3 0.891257 0.257558 0.723426
Si Si4 0.237503 0.371488 0.058801
Si Si5 0.082998 0.197834 0.150306
Si Si6 0.920981 0.580066 0.435956
Si Si7 0.780946 0.606501 0.958896
Si Si8 0.112654 0.725815 0.012224
O O1 0.188390 0.474963 0.099431
O O2 0.029664 0.572479 0.297183
O O3 0.075179 0.615327 0.981283
O O4 0.976410 0.452565 0.097622
O O5 0.451670 0.303869 0.649783
O O6 0.225085 0.291367 0.595410
O O7 0.299262 0.355193 0.873420
O O8 0.305415 0.176099 0.797444
O O9 0.880731 0.314042 0.899580
O O10 0.847473 0.339011 0.598528
O O11 0.016843 0.234241 0.651434
O O12 0.815039 0.166938 0.696902
O O13 0.136808 0.294882 0.067266
O O14 0.154031 0.115464 0.044864
O O15 0.111128 0.210509 0.344850
O O16 0.825788 0.500370 0.423532
#
# Coordination Sequence:
#
# PCOD9135095 Si02
#       8
#     4   4   4   4   4   4   4   4
#     4  11  21  33  67  97 129 160 225 282 323 384
#     4  10  20  37  61  87 127 168 216 266 326 405
#     4   9  19  36  62  88 129 159 213 270 328 386
#     4  10  20  37  60  93 128 164 203 281 342 372
#     4  10  20  39  58  85 133 170 211 271 327 398
#     4  11  19  38  62  96 126 165 222 274 326 391
#     4  10  20  40  58  90 131 166 211 279 331 381
#     4  11  19  38  62  94 123 174 219 265 333 391
#
# _framework density 23.911595999999999
#
# number of rings (size 3 to 8) (size 9 to 14) (size 15 to 20)
#    0.000    2.000    5.000    3.000    0.000    0.000 
#   18.000    0.000    5.500    3.000    3.250    0.000 
#    0.000    0.000    0.000    0.000    0.000    0.000 
#
# Total GULP energy -89373.694537 kJ/mol
# GULP energy per Si atom -5585.855909 kJ/mol
# Density = 2.385717 g / cm^3
# Si number density = 23.911596 Si / 1000 Ang^3
#
#
#
# Elastic Constant Matrix: (Units=GPa)
#
#
# Indices 1 2 3 4 5 6 
#
# 1 171.1654 33.8563 45.5681 0.0000 -22.9166 0.0000
# 2 33.8563 76.1951 23.0183 0.0000 -14.2448 0.0000
# 3 45.5681 23.0183 67.6666 0.0000 -13.6319 0.0000
# 4 0.0000 0.0000 0.0000 24.6374 0.0000 -0.3219
# 5 -22.9166 -14.2448 -13.6319 0.0000 53.9418 0.0000
# 6 0.0000 0.0000 0.0000 -0.3219 0.0000 41.8860
#
#
#
# Elastic Compliance Matrix: (Units=1/GPa)
#
#
# Indices 1 2 3 4 5 6 
#
# 1 0.007516 -0.001781 -0.004116 0.000000 0.001682 0.000000
# 2 -0.001781 0.015446 -0.003567 0.000000 0.002421 0.000000
# 3 -0.004116 -0.003567 0.019199 0.000000 0.002161 0.000000
# 4 0.000000 0.000000 0.000000 0.040593 0.000000 0.000312
# 5 0.001682 0.002421 0.002161 0.000000 0.020439 0.000000
# 6 0.000000 0.000000 0.000000 0.000312 0.000000 0.023877
#
#
# Mechanical properties :
#
#
# Convention : Reuss Voigt Hill
#
# Bulk Modulus (GPa) = 43.04545 57.76805 50.40675
# Shear Modulus (GPa) = 32.52197 38.26531 35.39364
#
# Velocity S-wave (km/s) = 3.69194 4.00469 3.85149
# Velocity P-wave (km/s) = 6.01788 6.75240 6.39569
#
# Compressibility (1/GPa) = 0.02323126
#
# Stress axis : x y z
#
# Youngs Moduli (GPa) = 133.05337 64.74213 52.08569
#
# Poissons Ratio (x) = 0.11534 0.21440
# Poissons Ratio (y) = 0.23703 0.18579
# Poissons Ratio (z) = 0.54770 0.23093
#
# Static dielectric constant tensor:
#      x y z
#    x 1.970940 0.000000 0.018620 
#    y 0.000000 1.936940 0.000000 
#    z 0.018620 0.000000 2.015340 
# 
# From -- ./inp_files/7891.got.cif
#   From: 2010.05.17/outbox.cif.g08.bks.cpg/sg9_4_cif.got.tgz:7891.got - 2010.06.03 20:04:27.
