data_PCOD9135380
_publ_section_title
;
Structure prediction by ZEFSAII (Michael W. Deem and Ramdas Pophale) SiO2 
 PCOD9135380
Probable space group: C C
;
_chemical_formula_sum "Si O2"
_cell_formula_units_Z 28
_cell_length_a 7.457695
_cell_length_b 16.181366
_cell_length_c 9.069636
_cell_angle_alpha 90.000000
_cell_angle_beta 97.805973
_cell_angle_gamma 90.000000
_cell_volume 1084.342766
_symmetry_space_group_name_H-M "C C"
_symmetry_group_IT_number 9
_symmetry_cell_setting 'monoclinic'
loop_
_space_group_symop_operation_xyz
x,y,z
x,-y,1/2+z
1/2+x,1/2+y,z
1/2+x,1/2-y,1/2+z
loop_
_atom_site_type_symbol
_atom_site_label
_atom_site_fract_x
_atom_site_fract_y
_atom_site_fract_z
Si Si1 0.518620 0.000941 0.291180
Si Si2 0.032480 0.192910 0.652873
Si Si3 0.893326 0.644588 0.083162
Si Si4 0.857068 0.093028 0.382998
Si Si5 0.139323 0.676075 0.827052
Si Si6 0.134633 0.054190 0.885289
Si Si7 0.391116 0.286686 0.616181
O O1 0.480160 0.060546 0.150508
O O2 0.663375 0.054176 0.398815
O O3 0.620395 0.916274 0.262284
O O4 0.324293 0.982621 0.343450
O O5 0.046994 0.112624 0.754142
O O6 0.237322 0.217867 0.638583
O O7 0.943747 0.279581 0.694750
O O8 0.914807 0.163668 0.501550
O O9 0.689976 0.616428 0.024480
O O10 0.989140 0.671729 0.941886
O O11 0.860862 0.134632 0.220814
O O12 0.005053 0.020559 0.410366
O O13 0.072043 0.741092 0.696614
O O14 0.322247 0.691155 0.942993
#
# Coordination Sequence:
#
# PCOD9135380 Si02
#       7
#     4   4   4   4   4   4   4
#     4  11  23  41  66  97 134 169 218 279 333 390
#     4  11  20  41  69  90 129 186 213 269 340 401
#     4  10  20  39  68  91 129 179 215 265 340 393
#     4  12  24  39  70  93 131 173 221 273 338 397
#     4  10  21  37  68  96 129 176 225 268 329 404
#     4  11  25  40  65 100 129 169 227 278 330 394
#     4  11  19  41  66  95 129 182 219 262 342 405
#
# _framework density 25.822095000000001
#
# number of rings (size 3 to 8) (size 9 to 14) (size 15 to 20)
#    0.000    1.143    8.571    0.857    2.000    0.000 
#    0.000    1.429    3.143    0.000    0.000    0.000 
#    0.000    0.000    0.000    0.000    0.000    0.000 
#
# Total GULP energy -78283.983267 kJ/mol
# GULP energy per Si atom -5591.713090 kJ/mol
# Density = 2.576332 g / cm^3
# Si number density = 25.822095 Si / 1000 Ang^3
#
#
#
# Elastic Constant Matrix: (Units=GPa)
#
#
# Indices 1 2 3 4 5 6 
#
# 1 101.7654 23.4262 39.9930 0.0000 20.6505 0.0000
# 2 23.4262 172.5364 83.2891 0.0000 8.7065 0.0000
# 3 39.9930 83.2891 140.2442 0.0000 38.7011 0.0000
# 4 0.0000 0.0000 0.0000 74.1112 0.0000 17.1436
# 5 20.6505 8.7065 38.7011 0.0000 36.3695 0.0000
# 6 0.0000 0.0000 0.0000 17.1436 0.0000 37.0635
#
#
#
# Elastic Compliance Matrix: (Units=1/GPa)
#
#
# Indices 1 2 3 4 5 6 
#
# 1 0.011555 -0.000504 -0.001725 0.000000 -0.004604 0.000000
# 2 -0.000504 0.008707 -0.006415 0.000000 0.005028 0.000000
# 3 -0.001725 -0.006415 0.015202 0.000000 -0.013661 0.000000
# 4 0.000000 0.000000 0.000000 0.015110 0.000000 -0.006989
# 5 -0.004604 0.005028 -0.013661 0.000000 0.043443 0.000000
# 6 0.000000 0.000000 0.000000 -0.006989 0.000000 0.030213
#
#
# Mechanical properties :
#
#
# Convention : Reuss Voigt Hill
#
# Bulk Modulus (GPa) = 55.01675 78.66250 66.83962
# Shear Modulus (GPa) = 33.88050 47.36469 40.62260
#
# Velocity S-wave (km/s) = 3.62619 4.28748 3.97063
# Velocity P-wave (km/s) = 6.23575 7.41886 6.85288
#
# Compressibility (1/GPa) = 0.01817628
#
# Stress axis : x y z
#
# Youngs Moduli (GPa) = 86.54397 114.84695 65.78048
#
# Poissons Ratio (x) = 0.05784 0.11350
# Poissons Ratio (y) = 0.04358 0.42198
# Poissons Ratio (z) = 0.14932 0.73673
#
# Static dielectric constant tensor:
#      x y z
#    x 2.099000 0.000000 -0.022320 
#    y 0.000000 1.972430 0.000000 
#    z -0.022320 0.000000 2.063400 
# 
# From -- ./inp_files/14469.got.cif
#   From: 2010.05.17/outbox.cif.g08.bks.cpg/sg9_8_cif.got.tgz:14469.got - 2010.06.03 20:04:27.
