data_PCOD9135657
_publ_section_title
;
Structure prediction by ZEFSAII (Michael W. Deem and Ramdas Pophale) SiO2 
 PCOD9135657
Probable space group: C C
;
_chemical_formula_sum "Si O2"
_cell_formula_units_Z 32
_cell_length_a 13.786326
_cell_length_b 11.314225
_cell_length_c 9.150626
_cell_angle_alpha 90.000000
_cell_angle_beta 91.755685
_cell_angle_gamma 90.000000
_cell_volume 1426.659181
_symmetry_space_group_name_H-M "C C"
_symmetry_group_IT_number 9
_symmetry_cell_setting 'monoclinic'
loop_
_space_group_symop_operation_xyz
x,y,z
x,-y,1/2+z
1/2+x,1/2+y,z
1/2+x,1/2-y,1/2+z
loop_
_atom_site_type_symbol
_atom_site_label
_atom_site_fract_x
_atom_site_fract_y
_atom_site_fract_z
Si Si1 0.763200 0.937094 0.892280
Si Si2 0.870295 0.846398 0.437275
Si Si3 0.072400 0.860124 0.608724
Si Si4 0.930688 0.463319 0.069109
Si Si5 0.142413 0.600021 0.672096
Si Si6 0.346171 0.123992 0.272546
Si Si7 0.654548 0.529713 0.817297
Si Si8 0.778159 0.278563 0.182437
O O1 0.784447 0.816530 0.809972
O O2 0.686737 0.023183 0.805155
O O3 0.719610 0.910248 0.046544
O O4 0.858027 0.017197 0.906588
O O5 0.858287 0.762915 0.297098
O O6 0.782484 0.799971 0.536638
O O7 0.970247 0.828354 0.528721
O O8 0.117430 0.739945 0.678259
O O9 0.134054 0.918180 0.477018
O O10 0.068203 0.958336 0.735440
O O11 0.879072 0.584267 0.114549
O O12 0.867668 0.368270 0.160310
O O13 0.041405 0.459400 0.119318
O O14 0.917319 0.431418 0.899552
O O15 0.243798 0.064467 0.313109
O O16 0.687376 0.638624 0.715681
#
# Coordination Sequence:
#
# PCOD9135657 Si02
#       8
#     4   4   4   4   4   4   4   4
#     4  12  25  42  69  93 133 177 212 268 335 391
#     4  11  24  43  65  92 136 169 213 269 329 389
#     4  12  25  43  67  98 131 169 225 270 325 384
#     4  10  21  39  68  92 130 166 209 276 317 386
#     4  12  24  41  68  99 131 169 225 269 326 388
#     4  10  20  42  67  92 130 169 212 262 334 378
#     4  11  24  41  71  95 128 172 220 272 322 392
#     4  10  21  43  63  89 131 167 210 264 330 380
#
# _framework density 22.430026000000002
#
# number of rings (size 3 to 8) (size 9 to 14) (size 15 to 20)
#    0.000    1.000    5.000    3.750    1.750    0.000 
#    0.000    0.000    5.500    0.000    0.000    0.000 
#    0.000    0.000    0.000    0.000    0.000    0.000 
#
# Total GULP energy -89373.726887 kJ/mol
# GULP energy per Si atom -5585.857930 kJ/mol
# Density = 2.237897 g / cm^3
# Si number density = 22.430026 Si / 1000 Ang^3
#
#
#
# Elastic Constant Matrix: (Units=GPa)
#
#
# Indices 1 2 3 4 5 6 
#
# 1 24.5616 -11.1283 4.3784 0.0000 8.8837 0.0000
# 2 -11.1283 88.8578 6.7299 0.0000 0.8660 0.0000
# 3 4.3784 6.7299 29.9470 0.0000 4.2423 0.0000
# 4 0.0000 0.0000 0.0000 42.7641 0.0000 9.4994
# 5 8.8837 0.8660 4.2423 0.0000 25.9960 0.0000
# 6 0.0000 0.0000 0.0000 9.4994 0.0000 16.9938
#
#
#
# Elastic Compliance Matrix: (Units=1/GPa)
#
#
# Indices 1 2 3 4 5 6 
#
# 1 0.051123 0.007073 -0.006711 0.000000 -0.016611 0.000000
# 2 0.007073 0.012427 -0.003507 0.000000 -0.002259 0.000000
# 3 -0.006711 -0.003507 0.035644 0.000000 -0.003407 0.000000
# 4 0.000000 0.000000 0.000000 0.026699 0.000000 -0.014925
# 5 -0.016611 -0.002259 -0.003407 0.000000 0.044775 0.000000
# 6 0.000000 0.000000 0.000000 -0.014925 0.000000 0.067188
#
#
# Mechanical properties :
#
#
# Convention : Reuss Voigt Hill
#
# Bulk Modulus (GPa) = 10.76377 15.92515 13.34446
# Shear Modulus (GPa) = 18.17426 26.70987 22.44206
#
# Velocity S-wave (km/s) = 2.84960 3.45455 3.16656
# Velocity P-wave (km/s) = 3.95427 4.79867 4.39679
#
# Compressibility (1/GPa) = 0.09290423
#
# Stress axis : x y z
#
# Youngs Moduli (GPa) = 19.56079 80.46788 28.05503
#
# Poissons Ratio (x) = -0.56912 0.18827
# Poissons Ratio (y) = -0.13835 0.09839
# Poissons Ratio (z) = 0.13127 0.28219
#
# Static dielectric constant tensor:
#      x y z
#    x 1.845460 0.000000 0.024730 
#    y 0.000000 1.888840 0.000000 
#    z 0.024730 0.000000 1.832040 
# 
# From -- ./inp_files/9129.got.cif
#   From: 2010.05.17/outbox.cif.g08.bks.cpg/sg9_5_cif.got.tgz:9129.got - 2010.06.03 20:04:27.
