data_PCOD9135788
_publ_section_title
;
Structure prediction by ZEFSAII (Michael W. Deem and Ramdas Pophale) SiO2 
 PCOD9135788
Probable space group: C C
;
_chemical_formula_sum "Si O2"
_cell_formula_units_Z 28
_cell_length_a 7.129117
_cell_length_b 12.018539
_cell_length_c 13.661528
_cell_angle_alpha 90.000000
_cell_angle_beta 76.395121
_cell_angle_gamma 90.000000
_cell_volume 1137.696931
_symmetry_space_group_name_H-M "C C"
_symmetry_group_IT_number 9
_symmetry_cell_setting 'monoclinic'
loop_
_space_group_symop_operation_xyz
x,y,z
x,-y,1/2+z
1/2+x,1/2+y,z
1/2+x,1/2-y,1/2+z
loop_
_atom_site_type_symbol
_atom_site_label
_atom_site_fract_x
_atom_site_fract_y
_atom_site_fract_z
Si Si1 0.040100 0.341887 0.524690
Si Si2 0.877141 0.776988 0.334120
Si Si3 0.705160 0.558079 0.393482
Si Si4 0.344117 0.305381 0.636237
Si Si5 0.827183 0.561975 0.596523
Si Si6 0.687502 0.678051 0.947344
Si Si7 0.461799 0.507506 0.258985
O O1 0.209121 0.321856 0.426625
O O2 0.131615 0.303348 0.615542
O O3 0.987175 0.471254 0.548822
O O4 0.853439 0.280684 0.500552
O O5 0.809356 0.653244 0.318368
O O6 0.890280 0.880589 0.259094
O O7 0.077230 0.764134 0.371052
O O8 0.782812 0.431977 0.387487
O O9 0.498537 0.538854 0.368019
O O10 0.396689 0.175121 0.639676
O O11 0.506883 0.350626 0.540413
O O12 0.349965 0.392698 0.722653
O O13 0.726776 0.592887 0.504297
O O14 0.671458 0.501322 0.682863
#
# Coordination Sequence:
#
# PCOD9135788 Si02
#       7
#     4   4   4   4   4   4   4
#     4  10  21  42  71  96 132 182 229 271 344 414
#     4  10  22  45  67 102 138 180 230 283 347 402
#     4  10  20  44  71  94 140 179 221 282 347 393
#     4  11  22  45  67 102 133 181 229 276 345 403
#     4  11  23  47  71  98 139 186 228 280 347 409
#     4   9  19  42  68  96 135 171 228 281 325 408
#     4  11  25  45  67 104 147 171 231 303 319 413
#
# _framework density 24.611127
#
# number of rings (size 3 to 8) (size 9 to 14) (size 15 to 20)
#    0.000    1.714    5.714    0.000    0.000    2.286 
#   30.857    0.000    0.000    0.000    0.000    0.000 
#    0.000    0.000    0.000    0.000    0.000    0.000 
#
# Total GULP energy -78058.782251 kJ/mol
# GULP energy per Si atom -5575.627304 kJ/mol
# Density = 2.455511 g / cm^3
# Si number density = 24.611127 Si / 1000 Ang^3
#
#
#
# Elastic Constant Matrix: (Units=GPa)
#
#
# Indices 1 2 3 4 5 6 
#
# 1 90.1272 36.9743 9.9276 0.0000 -3.1197 0.0000
# 2 36.9743 145.9266 31.5515 0.0000 -7.0366 0.0000
# 3 9.9276 31.5515 48.4770 0.0000 -7.2367 0.0000
# 4 0.0000 0.0000 0.0000 39.4339 0.0000 -5.3149
# 5 -3.1197 -7.0366 -7.2367 0.0000 25.6768 0.0000
# 6 0.0000 0.0000 0.0000 -5.3149 0.0000 30.9487
#
#
#
# Elastic Compliance Matrix: (Units=1/GPa)
#
#
# Indices 1 2 3 4 5 6 
#
# 1 0.012404 -0.003008 -0.000501 0.000000 0.000541 0.000000
# 2 -0.003008 0.008719 -0.004965 0.000000 0.000624 0.000000
# 3 -0.000501 -0.004965 0.024794 0.000000 0.005566 0.000000
# 4 0.000000 0.000000 0.000000 0.025960 0.000000 0.004458
# 5 0.000541 0.000624 0.005566 0.000000 0.040751 0.000000
# 6 0.000000 0.000000 0.000000 0.004458 0.000000 0.033077
#
#
# Mechanical properties :
#
#
# Convention : Reuss Voigt Hill
#
# Bulk Modulus (GPa) = 34.52330 49.04862 41.78596
# Shear Modulus (GPa) = 29.01763 32.95040 30.98401
#
# Velocity S-wave (km/s) = 3.43745 3.66299 3.55201
# Velocity P-wave (km/s) = 5.46010 6.15327 5.81702
#
# Compressibility (1/GPa) = 0.02896595
#
# Stress axis : x y z
#
# Youngs Moduli (GPa) = 80.62233 114.69653 40.33296
#
# Poissons Ratio (x) = 0.34504 0.02022
# Poissons Ratio (y) = 0.24253 0.20027
# Poissons Ratio (z) = 0.04042 0.56950
#
# Static dielectric constant tensor:
#      x y z
#    x 1.978070 0.000000 0.045380 
#    y 0.000000 1.987180 0.000000 
#    z 0.045380 0.000000 2.029370 
# 
# From -- ./inp_files/29064.got.cif
#   From: 2010.05.17/outbox.cif.g08.bks.cpg/sg9_15_cif.got.tgz:29064.got - 2010.06.03 20:04:27.
