data_PCOD9135393
_publ_section_title
;
Structure prediction by ZEFSAII (Michael W. Deem and Ramdas Pophale) SiO2 
 PCOD9135393
Probable space group: C C
;
_chemical_formula_sum "Si O2"
_cell_formula_units_Z 28
_cell_length_a 9.662632
_cell_length_b 25.727329
_cell_length_c 5.016023
_cell_angle_alpha 90.000000
_cell_angle_beta 112.622483
_cell_angle_gamma 90.000000
_cell_volume 1151.010496
_symmetry_space_group_name_H-M "C C"
_symmetry_group_IT_number 9
_symmetry_cell_setting 'monoclinic'
loop_
_space_group_symop_operation_xyz
x,y,z
x,-y,1/2+z
1/2+x,1/2+y,z
1/2+x,1/2-y,1/2+z
loop_
_atom_site_type_symbol
_atom_site_label
_atom_site_fract_x
_atom_site_fract_y
_atom_site_fract_z
Si Si1 0.842130 0.648654 0.718230
Si Si2 0.413753 0.625254 0.256724
Si Si3 0.561223 0.340780 0.374033
Si Si4 0.378396 0.033441 0.578992
Si Si5 0.505026 0.767482 0.049960
Si Si6 0.135533 0.307529 0.638789
Si Si7 0.239202 0.530814 0.860954
O O1 0.720738 0.664884 0.848538
O O2 0.818422 0.590445 0.599011
O O3 0.867853 0.693496 0.513135
O O4 0.007413 0.649722 0.979567
O O5 0.469805 0.623335 0.600294
O O6 0.322941 0.578573 0.057756
O O7 0.552267 0.635662 0.161930
O O8 0.297467 0.673297 0.176743
O O9 0.483183 0.285102 0.371089
O O10 0.334032 0.009963 0.262574
O O11 0.559576 0.038030 0.729878
O O12 0.620114 0.796861 0.938561
O O13 0.581054 0.761848 0.397606
O O14 0.276820 0.482666 0.084926
#
# Coordination Sequence:
#
# PCOD9135393 Si02
#       7
#     4   4   4   4   4   4   4
#     4  10  26  46  71 100 143 185 229 297 341 422
#     4  12  25  45  64 108 136 182 224 295 340 427
#     4  12  28  42  70  97 152 178 233 280 372 409
#     4  10  22  39  71 105 131 176 240 291 338 407
#     4  10  24  43  71  96 130 185 235 283 331 420
#     4  10  23  42  74  90 137 171 240 271 350 386
#     4  10  20  39  69  98 131 175 233 287 342 407
#
# _framework density 24.326453000000001
#
# number of rings (size 3 to 8) (size 9 to 14) (size 15 to 20)
#    0.857    0.571    1.429    2.571    6.000    2.286 
#    0.000    4.286    0.000    0.000    0.000    0.000 
#    0.000    0.000    0.000    0.000    0.000    0.000 
#
# Total GULP energy -78206.363563 kJ/mol
# GULP energy per Si atom -5586.168826 kJ/mol
# Density = 2.427108 g / cm^3
# Si number density = 24.326453 Si / 1000 Ang^3
#
#
#
# Elastic Constant Matrix: (Units=GPa)
#
#
# Indices 1 2 3 4 5 6 
#
# 1 126.5050 39.4824 36.0912 0.0000 -30.0996 0.0000
# 2 39.4824 66.5759 2.4484 0.0000 -11.1542 0.0000
# 3 36.0912 2.4484 83.0936 0.0000 -19.8346 0.0000
# 4 0.0000 0.0000 0.0000 33.7870 0.0000 0.3711
# 5 -30.0996 -11.1542 -19.8346 0.0000 41.7884 0.0000
# 6 0.0000 0.0000 0.0000 0.3711 0.0000 26.2667
#
#
#
# Elastic Compliance Matrix: (Units=1/GPa)
#
#
# Indices 1 2 3 4 5 6 
#
# 1 0.012203 -0.006206 -0.003851 0.000000 0.005305 0.000000
# 2 -0.006206 0.018907 0.002567 0.000000 0.001795 0.000000
# 3 -0.003851 0.002567 0.014811 0.000000 0.004941 0.000000
# 4 0.000000 0.000000 0.000000 0.029602 0.000000 -0.000418
# 5 0.005305 0.001795 0.004941 0.000000 0.030576 0.000000
# 6 0.000000 0.000000 0.000000 -0.000418 0.000000 0.038077
#
#
# Mechanical properties :
#
#
# Convention : Reuss Voigt Hill
#
# Bulk Modulus (GPa) = 32.31997 48.02429 40.17213
# Shear Modulus (GPa) = 29.50376 33.57858 31.54117
#
# Velocity S-wave (km/s) = 3.48634 3.71931 3.60471
# Velocity P-wave (km/s) = 5.43331 6.18295 5.82021
#
# Compressibility (1/GPa) = 0.03094062
#
# Stress axis : x y z
#
# Youngs Moduli (GPa) = 81.94880 52.88936 67.51669
#
# Poissons Ratio (x) = 0.32825 0.26001
# Poissons Ratio (y) = 0.50860 -0.17332
# Poissons Ratio (z) = 0.31558 -0.13577
#
# Static dielectric constant tensor:
#      x y z
#    x 1.904630 0.000000 0.025650 
#    y 0.000000 1.950400 0.000000 
#    z 0.025650 0.000000 1.899970 
# 
# From -- ./inp_files/1073.got.cif
#   From: 2010.05.17/outbox.cif.g08.bks.cpg/sg9_1_cif.got.tgz:1073.got - 2010.06.03 20:04:27.
