data_PCOD9135837
_publ_section_title
;
Structure prediction by ZEFSAII (Michael W. Deem and Ramdas Pophale) SiO2 
 PCOD9135837
Probable space group: C C
;
_chemical_formula_sum "Si O2"
_cell_formula_units_Z 24
_cell_length_a 26.204181
_cell_length_b 9.837296
_cell_length_c 18.035411
_cell_angle_alpha 90.000000
_cell_angle_beta 11.635704
_cell_angle_gamma 90.000000
_cell_volume 937.676633
_symmetry_space_group_name_H-M "C C"
_symmetry_group_IT_number 9
_symmetry_cell_setting 'monoclinic'
loop_
_space_group_symop_operation_xyz
x,y,z
x,-y,1/2+z
1/2+x,1/2+y,z
1/2+x,1/2-y,1/2+z
loop_
_atom_site_type_symbol
_atom_site_label
_atom_site_fract_x
_atom_site_fract_y
_atom_site_fract_z
Si Si1 0.824650 0.839563 0.515390
Si Si2 0.880130 0.607369 0.763303
Si Si3 0.074421 0.880106 0.299457
Si Si4 0.632151 0.336801 0.475065
Si Si5 0.999671 0.111341 0.609436
Si Si6 0.232053 0.389539 0.332994
O O1 0.598542 0.896138 0.887504
O O2 0.788203 0.680733 0.547696
O O3 0.070301 0.855114 0.217060
O O4 0.833306 0.901437 0.421481
O O5 0.892183 0.748944 0.790708
O O6 0.988520 0.489332 0.663182
O O7 0.641820 0.619038 0.047144
O O8 0.849699 0.775299 0.647616
O O9 0.971638 0.030979 0.456077
O O10 0.653891 0.470282 0.393460
O O11 0.167227 0.245274 0.387887
O O12 0.834184 0.120929 0.771405
#
# Coordination Sequence:
#
# PCOD9135837 Si02
#       6
#     4   4   4   4   4   4
#     4   9  18  31  55  77 100 130 173 213 254 303
#     4   9  18  37  55  74 103 149 177 198 253 333
#     4   9  18  38  55  71 100 146 175 196 253 338
#     4   9  17  31  57  77 101 136 178 209 249 311
#     4  12  20  31  53  85 106 127 174 236 260 283
#     4  10  21  32  51  78 108 138 175 212 263 312
#
# _framework density 25.595177
#
# number of rings (size 3 to 8) (size 9 to 14) (size 15 to 20)
#    0.000    2.667    0.000    6.000    0.000    0.000 
#    0.000    0.000    0.000   80.000    0.000    0.000 
#    0.000    0.000    0.000    0.000    0.000    0.000 
#
# Total GULP energy -66911.979269 kJ/mol
# GULP energy per Si atom -5575.998272 kJ/mol
# Density = 2.553692 g / cm^3
# Si number density = 25.595177 Si / 1000 Ang^3
#
#
#
# Elastic Constant Matrix: (Units=GPa)
#
#
# Indices 1 2 3 4 5 6 
#
# 1 266.3588 87.0616 27.5324 -0.0043 -24.1556 -0.0029
# 2 87.0616 185.5125 11.5202 -0.0076 -17.3269 -0.0065
# 3 27.5324 11.5202 17.0006 -0.0132 -8.5143 -0.0140
# 4 -0.0043 -0.0076 -0.0132 27.9055 0.0052 -3.0721
# 5 -24.1556 -17.3269 -8.5143 0.0052 49.7602 0.0006
# 6 -0.0029 -0.0065 -0.0140 -3.0721 0.0006 65.5249
#
#
#
# Elastic Compliance Matrix: (Units=1/GPa)
#
#
# Indices 1 2 3 4 5 6 
#
# 1 0.005137 -0.001933 -0.006669 -0.000003 0.000679 -0.000002
# 2 -0.001933 0.006449 -0.000639 0.000001 0.001198 0.000000
# 3 -0.006669 -0.000639 0.074727 0.000034 0.009326 0.000017
# 4 -0.000003 0.000001 0.000034 0.036021 0.000001 0.001689
# 5 0.000679 0.001198 0.009326 0.000001 0.022439 0.000002
# 6 -0.000002 0.000000 0.000017 0.001689 0.000002 0.015341
#
#
# Mechanical properties :
#
#
# Convention : Reuss Voigt Hill
#
# Bulk Modulus (GPa) = 14.74299 80.12228 47.43263
# Shear Modulus (GPa) = 24.84992 51.48864 38.16928
#
# Velocity S-wave (km/s) = 3.11928 4.49001 3.86588
# Velocity P-wave (km/s) = 4.32964 7.63229 6.20474
#
# Compressibility (1/GPa) = 0.06782886
#
# Stress axis : x y z
#
# Youngs Moduli (GPa) = 194.65631 155.05413 13.38212
#
# Poissons Ratio (x) = 0.29977 0.08925
# Poissons Ratio (y) = 0.37633 0.00856
# Poissons Ratio (z) = 1.29824 0.09915
#
# Static dielectric constant tensor:
#      x y z
#    x 2.023800 0.000000 -0.041870 
#    y 0.000000 2.183510 0.000010 
#    z -0.041870 0.000010 2.379440 
# 
# From -- ./inp_files/21093.got.cif
#   From: 2010.05.17/outbox.cif.g08.bks.cpg/sg9_11_cif.got.tgz:21093.got - 2010.06.03 20:04:27.
