data_PCOD9135737
_publ_section_title
;
Structure prediction by ZEFSAII (Michael W. Deem and Ramdas Pophale) SiO2 
 PCOD9135737
Probable space group: C C
;
_chemical_formula_sum "Si O2"
_cell_formula_units_Z 32
_cell_length_a 7.008689
_cell_length_b 14.293695
_cell_length_c 11.687832
_cell_angle_alpha 90.000000
_cell_angle_beta 84.746765
_cell_angle_gamma 90.000000
_cell_volume 1165.969735
_symmetry_space_group_name_H-M "C C"
_symmetry_group_IT_number 9
_symmetry_cell_setting 'monoclinic'
loop_
_space_group_symop_operation_xyz
x,y,z
x,-y,1/2+z
1/2+x,1/2+y,z
1/2+x,1/2-y,1/2+z
loop_
_atom_site_type_symbol
_atom_site_label
_atom_site_fract_x
_atom_site_fract_y
_atom_site_fract_z
Si Si1 0.800130 0.743926 0.521980
Si Si2 0.248992 0.684352 0.801829
Si Si3 0.753134 0.985742 0.908988
Si Si4 0.792669 0.692619 0.832920
Si Si5 0.282598 0.020212 0.251574
Si Si6 0.183967 0.366089 0.704335
Si Si7 0.355876 0.689577 0.538356
Si Si8 0.824117 0.454933 0.004730
O O1 0.856996 0.752708 0.387112
O O2 0.799407 0.846863 0.580817
O O3 0.575749 0.718849 0.528602
O O4 0.889280 0.645613 0.555182
O O5 0.304430 0.582780 0.846754
O O6 0.293116 0.702281 0.670122
O O7 0.022345 0.701169 0.818429
O O8 0.794891 0.917631 0.798715
O O9 0.528082 0.999673 0.955897
O O10 0.830800 0.919543 0.005803
O O11 0.694538 0.758934 0.745533
O O12 0.762327 0.586602 0.797324
O O13 0.747281 0.737360 0.960078
O O14 0.484879 0.076331 0.215255
O O15 0.225250 0.061088 0.383650
O O16 0.222835 0.008712 0.117629
#
# Coordination Sequence:
#
# PCOD9135737 Si02
#       8
#     4   4   4   4   4   4   4   4
#     4  11  25  41  63 101 143 176 232 312 364 438
#     4  11  22  41  72  97 137 189 234 301 368 440
#     4  10  22  41  72  95 128 189 243 287 364 456
#     4  10  20  43  67 103 134 178 241 304 352 444
#     4  11  22  40  71 101 137 188 240 300 363 448
#     4  10  21  38  69  99 133 172 242 298 354 437
#     4  10  25  41  64  99 143 181 234 302 375 435
#     4  11  23  41  72 101 135 187 248 296 366 444
#
# _framework density 27.444965
#
# number of rings (size 3 to 8) (size 9 to 14) (size 15 to 20)
#    0.000    1.500    3.750    1.500    7.000    0.000 
#    2.250    0.000    2.750    0.000    0.000    0.000 
#    0.000    0.000    0.000    0.000    0.000    0.000 
#
# Total GULP energy -89113.691052 kJ/mol
# GULP energy per Si atom -5569.605691 kJ/mol
# Density = 2.738250 g / cm^3
# Si number density = 27.444965 Si / 1000 Ang^3
#
#
#
# Elastic Constant Matrix: (Units=GPa)
#
#
# Indices 1 2 3 4 5 6 
#
# 1 70.2087 8.1222 20.9404 0.0000 5.2127 0.0000
# 2 8.1222 132.7255 31.3608 0.0000 6.1659 0.0000
# 3 20.9404 31.3608 216.0641 0.0000 6.1301 0.0000
# 4 0.0000 0.0000 0.0000 38.6357 0.0000 -0.1472
# 5 5.2127 6.1659 6.1301 0.0000 33.8337 0.0000
# 6 0.0000 0.0000 0.0000 -0.1472 0.0000 31.7113
#
#
#
# Elastic Compliance Matrix: (Units=1/GPa)
#
#
# Indices 1 2 3 4 5 6 
#
# 1 0.014838 -0.000508 -0.001309 0.000000 -0.001956 0.000000
# 2 -0.000508 0.007870 -0.001060 0.000000 -0.001164 0.000000
# 3 -0.001309 -0.001060 0.004923 0.000000 -0.000497 0.000000
# 4 0.000000 0.000000 0.000000 0.025883 0.000000 0.000120
# 5 -0.001956 -0.001164 -0.000497 0.000000 0.030160 0.000000
# 6 0.000000 0.000000 0.000000 0.000120 0.000000 0.031535
#
#
# Mechanical properties :
#
#
# Convention : Reuss Voigt Hill
#
# Bulk Modulus (GPa) = 45.70966 59.98280 52.84623
# Shear Modulus (GPa) = 38.98493 44.74114 41.86303
#
# Velocity S-wave (km/s) = 3.77301 4.04197 3.90980
# Velocity P-wave (km/s) = 5.97260 6.60957 6.29915
#
# Compressibility (1/GPa) = 0.02187721
#
# Stress axis : x y z
#
# Youngs Moduli (GPa) = 67.39628 127.06533 203.12531
#
# Poissons Ratio (x) = 0.06453 0.26585
# Poissons Ratio (y) = 0.03423 0.21532
# Poissons Ratio (z) = 0.08821 0.13470
#
# Static dielectric constant tensor:
#      x y z
#    x 2.223940 0.000000 -0.005880 
#    y 0.000000 2.232790 0.000000 
#    z -0.005880 0.000000 2.275940 
# 
# From -- ./inp_files/14565.got.cif
#   From: 2010.05.17/outbox.cif.g08.bks.cpg/sg9_8_cif.got.tgz:14565.got - 2010.06.03 20:04:27.
