data_PCOD9135914
_publ_section_title
;
Structure prediction by ZEFSAII (Michael W. Deem and Ramdas Pophale) SiO2 
 PCOD9135914
Probable space group: C C
;
_chemical_formula_sum "Si O2"
_cell_formula_units_Z 24
_cell_length_a 12.481974
_cell_length_b 12.653256
_cell_length_c 9.423049
_cell_angle_alpha 90.000000
_cell_angle_beta 130.697187
_cell_angle_gamma 90.000000
_cell_volume 1128.343999
_symmetry_space_group_name_H-M "C C"
_symmetry_group_IT_number 9
_symmetry_cell_setting 'monoclinic'
loop_
_space_group_symop_operation_xyz
x,y,z
x,-y,1/2+z
1/2+x,1/2+y,z
1/2+x,1/2-y,1/2+z
loop_
_atom_site_type_symbol
_atom_site_label
_atom_site_fract_x
_atom_site_fract_y
_atom_site_fract_z
Si Si1 0.954530 0.481586 0.806620
Si Si2 0.661928 0.018413 0.728124
Si Si3 0.307441 0.181390 0.620908
Si Si4 0.309018 0.318609 0.913837
Si Si5 0.525293 0.250158 0.335551
Si Si6 0.591166 0.250158 0.699194
O O1 0.823229 0.558525 0.678403
O O2 0.935976 0.356135 0.801376
O O3 0.058230 0.499999 0.767374
O O4 0.058228 0.521790 0.017372
O O5 0.680482 0.143863 0.733369
O O6 0.793228 0.941474 0.856339
O O7 0.308230 0.249999 0.767373
O O8 0.445196 0.215134 0.648311
O O9 0.178818 0.194762 0.400183
O O10 0.171263 0.284865 0.886434
O O11 0.437641 0.305239 0.134562
O O12 0.558230 0.302754 0.517373
#
# Coordination Sequence:
#
# PCOD9135914 Si02
#       6
#     4   4   4   4   4   4
#     4   9  18  34  56  81 111 150 189 224 277 347
#     4   9  18  34  56  81 111 150 189 224 277 347
#     4  11  20  35  59  89 116 150 194 241 284 339
#     4  11  20  35  59  89 116 150 194 241 284 339
#     4  10  21  37  58  84 116 154 192 235 287 344
#     4  10  21  37  58  84 116 154 192 235 287 344
#
# _framework density 21.270109000000001
#
# number of rings (size 3 to 8) (size 9 to 14) (size 15 to 20)
#    0.000    2.000    0.000    6.000    0.000    0.000 
#    0.000    1.667    0.000   10.000    0.000    0.000 
#    0.000    0.000    0.000    0.000    0.000    0.000 
#
# Total GULP energy -66840.357915 kJ/mol
# GULP energy per Si atom -5570.029826 kJ/mol
# Density = 2.122170 g / cm^3
# Si number density = 21.270109 Si / 1000 Ang^3
#
#
#
# Elastic Constant Matrix: (Units=GPa)
#
#
# Indices 1 2 3 4 5 6 
#
# 1 65.4221 -2.7006 29.2653 0.0000 -26.4438 0.0000
# 2 -2.7006 39.7705 26.7089 0.0000 -0.9686 0.0000
# 3 29.2653 26.7089 178.0138 0.0000 -28.4627 0.0000
# 4 0.0000 0.0000 0.0000 26.5888 0.0000 17.9949
# 5 -26.4438 -0.9686 -28.4627 0.0000 46.0089 0.0000
# 6 0.0000 0.0000 0.0000 17.9949 0.0000 8.4420
#
#
#
# Elastic Compliance Matrix: (Units=1/GPa)
#
#
# Indices 1 2 3 4 5 6 
#
# 1 0.020671 0.003120 -0.002171 0.000000 0.010604 0.000000
# 2 0.003120 0.028640 -0.004913 0.000000 -0.000643 0.000000
# 3 -0.002171 -0.004913 0.007209 0.000000 0.003108 0.000000
# 4 0.000000 0.000000 0.000000 -0.084966 0.000000 0.181115
# 5 0.010604 -0.000643 0.003108 0.000000 0.029739 0.000000
# 6 0.000000 0.000000 0.000000 0.181115 0.000000 -0.267610
#
#
# Mechanical properties :
#
#
# Convention : Reuss Voigt Hill
#
# Bulk Modulus (GPa) = 20.57958 43.30594 31.94276
# Shear Modulus (GPa) = -20.64469 31.53678 5.44604
#
# Velocity S-wave (km/s) = -3.11882 3.85474 1.60187
# Velocity P-wave (km/s) = 1.80915 6.34162 4.29786
#
# Compressibility (1/GPa) = 0.04859185
#
# Stress axis : x y z
#
# Youngs Moduli (GPa) = 48.37620 34.91647 138.72419
#
# Poissons Ratio (x) = -0.10894 0.30118
# Poissons Ratio (y) = -0.15093 0.68153
# Poissons Ratio (z) = 0.10503 0.17154
#
# Static dielectric constant tensor:
#      x y z
#    x 1.741910 0.000000 0.003640 
#    y 0.000000 2.061480 0.000000 
#    z 0.003640 0.000000 1.801420 
# 
# From -- ./inp_files/6930.got.cif
#   From: 2010.05.17/outbox.cif.g08.bks.cpg/sg9_4_cif.got.tgz:6930.got - 2010.06.03 20:04:27.
