data_PCOD9135064
_publ_section_title
;
Structure prediction by ZEFSAII (Michael W. Deem and Ramdas Pophale) SiO2 
 PCOD9135064
Probable space group: C C
;
_chemical_formula_sum "Si O2"
_cell_formula_units_Z 28
_cell_length_a 22.773059
_cell_length_b 9.387567
_cell_length_c 5.369953
_cell_angle_alpha 90.000000
_cell_angle_beta 87.372354
_cell_angle_gamma 90.000000
_cell_volume 1146.800921
_symmetry_space_group_name_H-M "C C"
_symmetry_group_IT_number 9
_symmetry_cell_setting 'monoclinic'
loop_
_space_group_symop_operation_xyz
x,y,z
x,-y,1/2+z
1/2+x,1/2+y,z
1/2+x,1/2-y,1/2+z
loop_
_atom_site_type_symbol
_atom_site_label
_atom_site_fract_x
_atom_site_fract_y
_atom_site_fract_z
Si Si1 0.579580 0.855546 0.019460
Si Si2 0.976175 0.041880 0.334014
Si Si3 0.126488 0.322194 0.509481
Si Si4 0.843645 0.572936 0.017333
Si Si5 0.248645 0.412066 0.589080
Si Si6 0.451729 0.151764 0.728104
Si Si7 0.371053 0.322153 0.357302
O O1 0.606573 0.768997 0.244981
O O2 0.588016 0.779160 0.754471
O O3 0.513186 0.896536 0.103304
O O4 0.613847 0.006401 0.990227
O O5 0.914283 0.955518 0.296202
O O6 0.006458 0.969683 0.561119
O O7 0.967538 0.207217 0.386708
O O8 0.195268 0.303613 0.550835
O O9 0.819375 0.521956 0.752816
O O10 0.913231 0.559141 0.926997
O O11 0.844658 0.734014 0.126410
O O12 0.241993 0.472319 0.867781
O O13 0.314473 0.359951 0.531589
O O14 0.410709 0.219704 0.520778
#
# Coordination Sequence:
#
# PCOD9135064 Si02
#       7
#     4   4   4   4   4   4   4
#     4  10  21  34  56  82 132 163 216 257 330 392
#     4  10  20  37  56  86 129 158 216 251 324 393
#     4  10  20  39  55  93 126 171 214 276 330 373
#     4  12  26  41  57  88 132 171 227 254 331 400
#     4  12  22  39  67  97 135 169 221 281 341 394
#     4  11  24  39  61  95 131 185 211 268 339 396
#     4  11  25  41  64  97 131 179 213 279 343 394
#
# _framework density 24.415747
#
# number of rings (size 3 to 8) (size 9 to 14) (size 15 to 20)
#    0.000    1.143    5.714    1.714    8.000    0.000 
#    0.000    0.000    0.000    0.000    0.000   12.000 
#    0.000    0.000    0.000    0.000    0.000    0.000 
#
# Total GULP energy -78132.588055 kJ/mol
# GULP energy per Si atom -5580.899147 kJ/mol
# Density = 2.436018 g / cm^3
# Si number density = 24.415747 Si / 1000 Ang^3
#
#
#
# Elastic Constant Matrix: (Units=GPa)
#
#
# Indices 1 2 3 4 5 6 
#
# 1 90.6052 10.3016 2.8704 0.0000 -6.5215 0.0000
# 2 10.3016 32.8924 1.8779 0.0000 -3.3772 0.0000
# 3 2.8704 1.8779 132.4639 0.0000 16.3486 0.0000
# 4 0.0000 0.0000 0.0000 27.9941 0.0000 1.3210
# 5 -6.5215 -3.3772 16.3486 0.0000 36.8821 0.0000
# 6 0.0000 0.0000 0.0000 1.3210 0.0000 12.9755
#
#
#
# Elastic Compliance Matrix: (Units=1/GPa)
#
#
# Indices 1 2 3 4 5 6 
#
# 1 0.011577 -0.003402 -0.000441 0.000000 0.001931 0.000000
# 2 -0.003402 0.031777 -0.000700 0.000000 0.002618 0.000000
# 3 -0.000441 -0.000700 0.008025 0.000000 -0.003699 0.000000
# 4 0.000000 0.000000 0.000000 0.035894 0.000000 -0.003654
# 5 0.001931 0.002618 -0.003699 0.000000 0.029334 0.000000
# 6 0.000000 0.000000 0.000000 -0.003654 0.000000 0.077440
#
#
# Mechanical properties :
#
#
# Convention : Reuss Voigt Hill
#
# Bulk Modulus (GPa) = 23.64501 31.78459 27.71480
# Shear Modulus (GPa) = 23.01694 31.63110 27.32402
#
# Velocity S-wave (km/s) = 3.07369 3.60324 3.34895
# Velocity P-wave (km/s) = 4.72251 5.50976 5.13125
#
# Compressibility (1/GPa) = 0.04229222
#
# Stress axis : x y z
#
# Youngs Moduli (GPa) = 86.38056 31.46977 124.60615
#
# Poissons Ratio (x) = 0.10707 0.05494
# Poissons Ratio (y) = 0.29389 0.08721
# Poissons Ratio (z) = 0.03809 0.02203
#
# Static dielectric constant tensor:
#      x y z
#    x 1.959790 0.000000 0.038620 
#    y 0.000000 2.034450 0.000000 
#    z 0.038620 0.000000 2.089510 
# 
# From -- ./inp_files/3124.got.cif
#   From: 2010.05.17/outbox.cif.g08.bks.cpg/sg9_2_cif.got.tgz:3124.got - 2010.06.03 20:04:27.
