data_PCOD9135998
_publ_section_title
;
Structure prediction by ZEFSAII (Michael W. Deem and Ramdas Pophale) SiO2 
 PCOD9135998
Probable space group: C C
;
_chemical_formula_sum "Si O2"
_cell_formula_units_Z 32
_cell_length_a 8.270907
_cell_length_b 14.428332
_cell_length_c 19.418721
_cell_angle_alpha 90.000000
_cell_angle_beta 138.304941
_cell_angle_gamma 90.000000
_cell_volume 1541.416152
_symmetry_space_group_name_H-M "C C"
_symmetry_group_IT_number 9
_symmetry_cell_setting 'monoclinic'
loop_
_space_group_symop_operation_xyz
x,y,z
x,-y,1/2+z
1/2+x,1/2+y,z
1/2+x,1/2-y,1/2+z
loop_
_atom_site_type_symbol
_atom_site_label
_atom_site_fract_x
_atom_site_fract_y
_atom_site_fract_z
Si Si1 0.535450 0.129200 0.991960
Si Si2 0.277147 0.723565 0.612254
Si Si3 0.613558 0.775468 0.844863
Si Si4 0.711958 0.268918 0.145371
Si Si5 0.519817 0.577500 0.485547
Si Si6 0.001676 0.891600 0.568501
Si Si7 0.355137 0.929303 0.962531
Si Si8 0.673529 0.330908 0.777771
O O1 0.302652 0.192713 0.909572
O O2 0.486526 0.022047 0.980654
O O3 0.646840 0.165664 0.098783
O O4 0.729713 0.146237 0.993561
O O5 0.416384 0.739225 0.728213
O O6 0.503937 0.705339 0.633620
O O7 0.147535 0.823616 0.564222
O O8 0.066185 0.646405 0.545806
O O9 0.451504 0.796111 0.859671
O O10 0.769900 0.870039 0.882598
O O11 0.668455 0.341247 0.070881
O O12 0.998948 0.254310 0.244600
O O13 0.491593 0.493018 0.530763
O O14 0.682807 0.550316 0.472549
O O15 0.108568 0.879643 0.682150
O O16 0.182049 0.899040 0.844721
#
# Coordination Sequence:
#
# PCOD9135998 Si02
#       8
#     4   4   4   4   4   4   4   4
#     4  10  21  38  60  87 120 159 203 254 309 364
#     4  11  22  40  64  90 123 163 204 255 313 371
#     4  10  21  40  62  90 123 159 205 258 310 371
#     4  10  21  39  60  87 121 159 203 255 310 367
#     4  11  22  40  63  92 124 163 209 258 310 369
#     4  10  22  41  64  91 123 161 207 259 312 368
#     4  12  23  38  62  92 125 165 207 254 312 374
#     4  10  22  40  61  89 125 163 206 257 312 372
#
# _framework density 20.76013
#
# number of rings (size 3 to 8) (size 9 to 14) (size 15 to 20)
#    0.000    1.500    0.000    7.500    0.000    3.000 
#    0.000    8.750    0.000    0.000    0.000    0.000 
#    0.000    0.000    0.000    0.000    0.000    0.000 
#
# Total GULP energy -89105.807262 kJ/mol
# GULP energy per Si atom -5569.112954 kJ/mol
# Density = 2.071288 g / cm^3
# Si number density = 20.760130 Si / 1000 Ang^3
#
#
#
# Elastic Constant Matrix: (Units=GPa)
#
#
# Indices 1 2 3 4 5 6 
#
# 1 113.2964 4.0631 18.7797 0.0000 8.3149 0.0000
# 2 4.0631 79.1933 23.4673 0.0000 5.7676 0.0000
# 3 18.7797 23.4673 48.3020 -0.0001 3.7793 0.0000
# 4 0.0000 0.0000 -0.0001 13.6089 0.0000 -1.0111
# 5 8.3149 5.7676 3.7793 0.0000 33.5437 0.0000
# 6 0.0000 0.0000 0.0000 -1.0111 0.0000 23.1319
#
#
#
# Elastic Compliance Matrix: (Units=1/GPa)
#
#
# Indices 1 2 3 4 5 6 
#
# 1 0.009609 0.000838 -0.003980 0.000000 -0.002077 0.000000
# 2 0.000838 0.014926 -0.007426 0.000000 -0.001937 0.000000
# 3 -0.003980 -0.007426 0.025910 0.000000 -0.000656 0.000000
# 4 0.000000 0.000000 0.000000 0.073721 0.000000 0.003222
# 5 -0.002077 -0.001937 -0.000656 0.000000 0.030734 0.000000
# 6 0.000000 0.000000 0.000000 0.003222 0.000000 0.043371
#
#
# Mechanical properties :
#
#
# Convention : Reuss Voigt Hill
#
# Bulk Modulus (GPa) = 34.12087 37.04576 35.58332
# Shear Modulus (GPa) = 21.81730 27.02233 24.41982
#
# Velocity S-wave (km/s) = 3.24531 3.61175 3.43342
# Velocity P-wave (km/s) = 5.52396 5.93939 5.73544
#
# Compressibility (1/GPa) = 0.02930757
#
# Stress axis : x y z
#
# Youngs Moduli (GPa) = 104.07358 66.99744 38.59556
#
# Poissons Ratio (x) = -0.05613 0.15362
# Poissons Ratio (y) = -0.08719 0.28660
# Poissons Ratio (z) = 0.41424 0.49751
#
# Static dielectric constant tensor:
#      x y z
#    x 1.906770 0.000000 0.028280 
#    y 0.000000 1.722840 0.000000 
#    z 0.028280 0.000000 1.861320 
# 
# From -- ./inp_files/32747.got.cif
#   From: 2010.05.17/outbox.cif.g08.bks.cpg/sg9_17_cif.got.tgz:32747.got - 2010.06.03 20:04:27.
