data_PCOD9135226
_publ_section_title
;
Structure prediction by ZEFSAII (Michael W. Deem and Ramdas Pophale) SiO2 
 PCOD9135226
Probable space group: C C
;
_chemical_formula_sum "Si O2"
_cell_formula_units_Z 32
_cell_length_a 11.733626
_cell_length_b 13.822535
_cell_length_c 13.724355
_cell_angle_alpha 90.000000
_cell_angle_beta 40.289990
_cell_angle_gamma 90.000000
_cell_volume 1439.413420
_symmetry_space_group_name_H-M "C C"
_symmetry_group_IT_number 9
_symmetry_cell_setting 'monoclinic'
loop_
_space_group_symop_operation_xyz
x,y,z
x,-y,1/2+z
1/2+x,1/2+y,z
1/2+x,1/2-y,1/2+z
loop_
_atom_site_type_symbol
_atom_site_label
_atom_site_fract_x
_atom_site_fract_y
_atom_site_fract_z
Si Si1 0.465940 0.631220 0.401390
Si Si2 0.825535 0.019777 0.646459
Si Si3 0.214548 0.806628 0.568478
Si Si4 0.417545 0.993546 0.917005
Si Si5 0.799570 0.374546 0.812943
Si Si6 0.010440 0.201874 0.630400
Si Si7 0.527568 0.674283 0.998133
Si Si8 0.728797 0.332357 0.168041
O O1 0.340381 0.544451 0.520200
O O2 0.349104 0.722747 0.513765
O O3 0.549237 0.666443 0.245753
O O4 0.643745 0.597688 0.341881
O O5 0.624574 0.998009 0.801065
O O6 0.947459 0.927440 0.586843
O O7 0.895794 0.112417 0.662620
O O8 0.133567 0.777277 0.517433
O O9 0.329581 0.902358 0.480951
O O10 0.381301 0.952945 0.831402
O O11 0.324628 0.923925 0.056426
O O12 0.932365 0.307693 0.668408
O O13 0.695208 0.303391 0.954099
O O14 0.059304 0.187366 0.710958
O O15 0.365758 0.743457 0.074470
O O16 0.658637 0.656320 0.822922
#
# Coordination Sequence:
#
# PCOD9135226 Si02
#       8
#     4   4   4   4   4   4   4   4
#     4  11  23  41  66  94 128 173 216 270 329 387
#     4  11  24  42  65  98 133 168 215 269 326 398
#     4  12  24  43  65  93 130 172 222 276 330 391
#     4  11  24  42  65  98 133 168 215 269 326 398
#     4  10  20  38  63  93 125 163 207 261 320 384
#     4  10  20  38  63  93 125 163 207 261 320 384
#     4  12  24  43  65  93 130 172 222 276 330 391
#     4  11  23  41  66  94 128 173 216 270 329 387
#
# _framework density 22.231276999999999
#
# number of rings (size 3 to 8) (size 9 to 14) (size 15 to 20)
#    0.000    1.000    0.000    9.750    0.000    0.000 
#    0.000    2.500    0.000    0.000    0.000    0.000 
#    0.000    0.000    0.000    0.000    0.000    0.000 
#
# Total GULP energy -89341.811120 kJ/mol
# GULP energy per Si atom -5583.863195 kJ/mol
# Density = 2.218068 g / cm^3
# Si number density = 22.231277 Si / 1000 Ang^3
#
#
#
# Elastic Constant Matrix: (Units=GPa)
#
#
# Indices 1 2 3 4 5 6 
#
# 1 98.0471 20.4546 33.6442 -0.0001 2.9802 0.0001
# 2 20.4546 82.5397 -3.5152 -0.0001 -23.0445 0.0000
# 3 33.6442 -3.5152 74.0523 -0.0002 -12.0582 0.0001
# 4 -0.0001 -0.0001 -0.0002 35.2323 0.0001 -8.1060
# 5 2.9802 -23.0445 -12.0582 0.0001 34.1029 -0.0001
# 6 0.0001 0.0000 0.0001 -8.1060 -0.0001 32.6660
#
#
#
# Elastic Compliance Matrix: (Units=1/GPa)
#
#
# Indices 1 2 3 4 5 6 
#
# 1 0.014653 -0.006370 -0.008350 0.000000 -0.008538 0.000000
# 2 -0.006370 0.018150 0.006201 0.000000 0.015014 0.000000
# 3 -0.008350 0.006201 0.019517 0.000000 0.011820 0.000000
# 4 0.000000 0.000000 0.000000 0.030102 0.000000 0.007470
# 5 -0.008538 0.015014 0.011820 0.000000 0.044394 0.000000
# 6 0.000000 0.000000 0.000000 0.007470 0.000000 0.032466
#
#
# Mechanical properties :
#
#
# Convention : Reuss Voigt Hill
#
# Bulk Modulus (GPa) = 28.34477 39.53404 33.93941
# Shear Modulus (GPa) = 26.58435 34.00394 30.29415
#
# Velocity S-wave (km/s) = 3.46180 3.91519 3.69546
# Velocity P-wave (km/s) = 5.36250 6.18547 5.78863
#
# Compressibility (1/GPa) = 0.03527987
#
# Stress axis : x y z
#
# Youngs Moduli (GPa) = 68.24599 55.09696 51.23832
#
# Poissons Ratio (x) = 0.35099 0.42783
# Poissons Ratio (y) = 0.43476 -0.31771
# Poissons Ratio (z) = 0.56984 -0.34163
#
# Static dielectric constant tensor:
#      x y z
#    x 1.874670 0.000000 0.062740 
#    y 0.000000 1.814640 0.000000 
#    z 0.062740 0.000000 1.833870 
# 
# From -- ./inp_files/24906.got.cif
#   From: 2010.05.17/outbox.cif.g08.bks.cpg/sg9_13_cif.got.tgz:24906.got - 2010.06.03 20:04:27.
