data_PCOD9135876
_publ_section_title
;
Structure prediction by ZEFSAII (Michael W. Deem and Ramdas Pophale) SiO2 
 PCOD9135876
Probable space group: C C
;
_chemical_formula_sum "Si O2"
_cell_formula_units_Z 32
_cell_length_a 18.522082
_cell_length_b 17.479309
_cell_length_c 5.025321
_cell_angle_alpha 90.000000
_cell_angle_beta 100.349473
_cell_angle_gamma 90.000000
_cell_volume 1600.493486
_symmetry_space_group_name_H-M "C C"
_symmetry_group_IT_number 9
_symmetry_cell_setting 'monoclinic'
loop_
_space_group_symop_operation_xyz
x,y,z
x,-y,1/2+z
1/2+x,1/2+y,z
1/2+x,1/2-y,1/2+z
loop_
_atom_site_type_symbol
_atom_site_label
_atom_site_fract_x
_atom_site_fract_y
_atom_site_fract_z
Si Si1 0.363530 0.277648 0.036770
Si Si2 0.786965 0.546796 0.344119
Si Si3 0.115656 0.299637 0.247703
Si Si4 0.347796 0.453467 0.111860
Si Si5 0.019687 0.699988 0.214713
Si Si6 0.269890 0.220814 0.473085
Si Si7 0.170725 0.544440 0.515649
Si Si8 0.463995 0.955331 0.947303
O O1 0.370461 0.369306 0.036536
O O2 0.444293 0.241645 0.086523
O O3 0.322998 0.254020 0.280778
O O4 0.310771 0.244445 0.771602
O O5 0.764230 0.481370 0.538200
O O6 0.762942 0.629932 0.425075
O O7 0.875815 0.550671 0.393251
O O8 0.066823 0.310199 0.478726
O O9 0.189855 0.257433 0.386095
O O10 0.141604 0.378227 0.124018
O O11 0.068212 0.259959 0.979793
O O12 0.371332 0.482059 0.416792
O O13 0.258932 0.450984 0.064998
O O14 0.995198 0.621176 0.341215
O O15 0.148452 0.523511 0.202222
O O16 0.485286 0.023799 0.760916
#
# Coordination Sequence:
#
# PCOD9135876 Si02
#       8
#     4   4   4   4   4   4   4   4
#     4  12  24  42  69  94 123 170 218 264 309 371
#     4  10  21  38  64  94 123 157 211 269 312 362
#     4  12  26  41  60  91 132 169 206 259 318 373
#     4  10  21  38  64  94 123 157 211 269 312 362
#     4  12  26  41  60  91 132 169 206 259 318 373
#     4  12  24  42  69  94 123 170 218 264 309 371
#     4  10  21  36  59  88 126 168 206 242 302 380
#     4  10  21  36  59  88 126 168 206 242 302 380
#
# _framework density 19.993832999999999
#
# number of rings (size 3 to 8) (size 9 to 14) (size 15 to 20)
#    0.000    1.000    2.500    4.500    7.000    3.000 
#    0.000    0.000    0.000    4.500    0.000    0.000 
#    0.000    0.000    0.000    0.000    0.000    0.000 
#
# Total GULP energy -89446.581485 kJ/mol
# GULP energy per Si atom -5590.411343 kJ/mol
# Density = 1.994833 g / cm^3
# Si number density = 19.993833 Si / 1000 Ang^3
#
#
#
# Elastic Constant Matrix: (Units=GPa)
#
#
# Indices 1 2 3 4 5 6 
#
# 1 94.6920 42.8075 26.8945 0.0000 3.7836 0.0000
# 2 42.8075 106.2422 8.9286 0.0000 -5.8405 0.0000
# 3 26.8945 8.9286 92.4960 0.0000 -1.9564 0.0000
# 4 0.0000 0.0000 0.0000 24.2975 0.0000 -2.6032
# 5 3.7836 -5.8405 -1.9564 0.0000 29.5904 0.0000
# 6 0.0000 0.0000 0.0000 -2.6032 0.0000 16.8000
#
#
#
# Elastic Compliance Matrix: (Units=1/GPa)
#
#
# Indices 1 2 3 4 5 6 
#
# 1 0.014270 -0.005615 -0.003674 0.000000 -0.003176 0.000000
# 2 -0.005615 0.011798 0.000559 0.000000 0.003084 0.000000
# 3 -0.003674 0.000559 0.011854 0.000000 0.001364 0.000000
# 4 0.000000 0.000000 0.000000 0.041851 0.000000 0.006485
# 5 -0.003176 0.003084 0.001364 0.000000 0.034900 0.000000
# 6 0.000000 0.000000 0.000000 0.006485 0.000000 0.060529
#
#
# Mechanical properties :
#
#
# Convention : Reuss Voigt Hill
#
# Bulk Modulus (GPa) = 48.87402 50.07683 49.47542
# Shear Modulus (GPa) = 25.06489 28.45756 26.76122
#
# Velocity S-wave (km/s) = 3.54451 3.77678 3.66248
# Velocity P-wave (km/s) = 6.42254 6.64223 6.53331
#
# Compressibility (1/GPa) = 0.02046077
#
# Stress axis : x y z
#
# Youngs Moduli (GPa) = 70.07937 84.76341 84.35638
#
# Poissons Ratio (x) = 0.47598 0.30994
# Poissons Ratio (y) = 0.39352 -0.04717
# Poissons Ratio (z) = 0.25748 -0.04739
#
# Static dielectric constant tensor:
#      x y z
#    x 1.709020 0.000000 0.022940 
#    y 0.000000 1.719800 0.000000 
#    z 0.022940 0.000000 1.711600 
# 
# From -- ./inp_files/2935.got.cif
#   From: 2010.05.17/outbox.cif.g08.bks.cpg/sg9_2_cif.got.tgz:2935.got - 2010.06.03 20:04:27.
