data_PCOD9135413
_publ_section_title
;
Structure prediction by ZEFSAII (Michael W. Deem and Ramdas Pophale) SiO2 
 PCOD9135413
Probable space group: C C
;
_chemical_formula_sum "Si O2"
_cell_formula_units_Z 20
_cell_length_a 23.050488
_cell_length_b 7.560125
_cell_length_c 13.779527
_cell_angle_alpha 90.000000
_cell_angle_beta 21.939539
_cell_angle_gamma 90.000000
_cell_volume 897.186650
_symmetry_space_group_name_H-M "C C"
_symmetry_group_IT_number 9
_symmetry_cell_setting 'monoclinic'
loop_
_space_group_symop_operation_xyz
x,y,z
x,-y,1/2+z
1/2+x,1/2+y,z
1/2+x,1/2-y,1/2+z
loop_
_atom_site_type_symbol
_atom_site_label
_atom_site_fract_x
_atom_site_fract_y
_atom_site_fract_z
Si Si1 0.546210 0.382488 0.262790
Si Si2 0.362675 0.715011 0.736000
Si Si3 0.483604 0.240612 0.837547
Si Si4 0.844331 0.807234 0.743863
Si Si5 0.345278 0.987398 0.394585
O O1 0.460940 0.550290 0.346431
O O2 0.420907 0.278037 0.519965
O O3 0.678706 0.265958 0.005600
O O4 0.662845 0.479639 0.159484
O O5 0.450531 0.777364 0.503148
O O6 0.379576 0.506918 0.721343
O O7 0.413463 0.825656 0.752291
O O8 0.379453 0.099206 0.943292
O O9 0.658934 0.204729 0.532537
O O10 0.900709 0.658545 0.730541
#
# Coordination Sequence:
#
# PCOD9135413 Si02
#       5
#     4   4   4   4   4
#     4   8  20  40  55  86 119 147 196 239 278 351
#     4   9  21  40  58  84 120 153 193 240 284 349
#     4  10  20  40  61  86 120 155 192 244 287 342
#     4  10  20  40  60  82 120 152 195 244 286 340
#     4   9  21  40  60  84 123 155 190 239 295 342
#
# _framework density 22.291906000000001
#
# number of rings (size 3 to 8) (size 9 to 14) (size 15 to 20)
#    1.200    1.600    0.000    0.000    2.800    1.600 
#   25.200    0.000    0.000    0.000    0.000    0.000 
#    0.000    0.000    0.000    0.000    0.000    0.000 
#
# Total GULP energy -55676.078579 kJ/mol
# GULP energy per Si atom -5567.607858 kJ/mol
# Density = 2.224117 g / cm^3
# Si number density = 22.291906 Si / 1000 Ang^3
#
#
#
# Elastic Constant Matrix: (Units=GPa)
#
#
# Indices 1 2 3 4 5 6 
#
# 1 8.7165 -10.4107 -3.2359 0.0000 -2.9717 0.0000
# 2 -10.4107 80.9596 3.8628 0.0000 1.2530 0.0000
# 3 -3.2359 3.8628 126.7632 0.0000 19.5967 0.0000
# 4 0.0000 0.0000 0.0000 30.4929 0.0000 7.1041
# 5 -2.9717 1.2530 19.5967 0.0000 11.8251 0.0000
# 6 0.0000 0.0000 0.0000 7.1041 0.0000 22.7106
#
#
#
# Elastic Compliance Matrix: (Units=1/GPa)
#
#
# Indices 1 2 3 4 5 6 
#
# 1 0.149928 0.018794 -0.003042 0.000000 0.040727 0.000000
# 2 0.018794 0.014733 -0.000616 0.000000 0.004183 0.000000
# 3 -0.003042 -0.000616 0.010672 0.000000 -0.018385 0.000000
# 4 0.000000 0.000000 0.000000 0.035372 0.000000 -0.011065
# 5 0.040727 0.004183 -0.018385 0.000000 0.124826 0.000000
# 6 0.000000 0.000000 0.000000 -0.011065 0.000000 0.047493
#
#
# Mechanical properties :
#
#
# Convention : Reuss Voigt Hill
#
# Bulk Modulus (GPa) = 4.86365 21.87462 13.36914
# Shear Modulus (GPa) = 11.86842 28.08727 19.97785
#
# Velocity S-wave (km/s) = 2.30990 3.55347 2.99690
# Velocity P-wave (km/s) = 3.04971 5.16433 4.24093
#
# Compressibility (1/GPa) = 0.20560688
#
# Stress axis : x y z
#
# Youngs Moduli (GPa) = 6.66988 67.87358 93.70297
#
# Poissons Ratio (x) = -1.27563 0.28500
# Poissons Ratio (y) = -0.12536 0.05770
# Poissons Ratio (z) = 0.02029 0.04179
#
# Static dielectric constant tensor:
#      x y z
#    x 1.871490 0.000000 -0.011380 
#    y 0.000000 1.887940 0.000000 
#    z -0.011380 0.000000 1.809970 
# 
# From -- ./inp_files/13973.got.cif
#   From: 2010.05.17/outbox.cif.g08.bks.cpg/sg9_7_cif.got.tgz:13973.got - 2010.06.03 20:04:27.
