data_PCOD9135489
_publ_section_title
;
Structure prediction by ZEFSAII (Michael W. Deem and Ramdas Pophale) SiO2 
 PCOD9135489
Probable space group: C C
;
_chemical_formula_sum "Si O2"
_cell_formula_units_Z 32
_cell_length_a 20.178781
_cell_length_b 9.888239
_cell_length_c 12.283697
_cell_angle_alpha 90.000000
_cell_angle_beta 28.714674
_cell_angle_gamma 90.000000
_cell_volume 1177.577454
_symmetry_space_group_name_H-M "C C"
_symmetry_group_IT_number 9
_symmetry_cell_setting 'monoclinic'
loop_
_space_group_symop_operation_xyz
x,y,z
x,-y,1/2+z
1/2+x,1/2+y,z
1/2+x,1/2-y,1/2+z
loop_
_atom_site_type_symbol
_atom_site_label
_atom_site_fract_x
_atom_site_fract_y
_atom_site_fract_z
Si Si1 0.013470 0.635731 0.340290
Si Si2 0.124181 0.491545 0.979843
Si Si3 0.755338 0.519596 0.815133
Si Si4 0.021248 0.303948 0.457799
Si Si5 0.512395 0.363628 0.185029
Si Si6 0.731796 0.219118 0.470614
Si Si7 0.539235 0.361670 0.458256
Si Si8 0.418799 0.572402 0.470884
O O1 0.948068 0.754921 0.360736
O O2 0.902296 0.527259 0.542612
O O3 0.078736 0.718092 0.345388
O O4 0.114307 0.567727 0.110333
O O5 0.020042 0.565032 0.044432
O O6 0.268933 0.525284 0.719611
O O7 0.131957 0.340063 0.017496
O O8 0.680047 0.380721 0.955921
O O9 0.749696 0.621258 0.924550
O O10 0.655076 0.584214 0.870028
O O11 0.995675 0.190505 0.588004
O O12 0.167340 0.310779 0.181689
O O13 0.937882 0.228858 0.477543
O O14 0.450421 0.508329 0.307344
O O15 0.884388 0.164979 0.225031
O O16 0.522699 0.478720 0.391830
#
# Coordination Sequence:
#
# PCOD9135489 Si02
#       8
#     4   4   4   4   4   4   4   4
#     4   9  22  41  60  97 140 167 228 281 342 409
#     4  10  24  42  63  98 138 174 221 284 336 412
#     4  11  20  40  69  92 132 179 226 285 336 409
#     4  11  22  39  68  97 128 177 227 276 347 406
#     4  10  21  40  66  97 126 176 225 273 337 407
#     4  10  23  41  63  97 135 171 227 276 337 421
#     4   9  20  39  65  92 122 182 217 277 343 394
#     4  10  20  40  68  94 129 174 227 270 332 420
#
# _framework density 27.174434000000002
#
# number of rings (size 3 to 8) (size 9 to 14) (size 15 to 20)
#    0.000    2.000    2.500    0.750    1.750    3.000 
#    6.750    0.000    2.750    0.000    0.000    0.000 
#    0.000    0.000    0.000    0.000    0.000    0.000 
#
# Total GULP energy -89246.700807 kJ/mol
# GULP energy per Si atom -5577.918800 kJ/mol
# Density = 2.711258 g / cm^3
# Si number density = 27.174434 Si / 1000 Ang^3
#
#
#
# Elastic Constant Matrix: (Units=GPa)
#
#
# Indices 1 2 3 4 5 6 
#
# 1 80.4484 17.3332 29.9596 0.0000 25.6397 0.0000
# 2 17.3332 84.6972 19.0357 0.0000 -1.6728 0.0000
# 3 29.9596 19.0357 120.1466 0.0000 39.7391 0.0000
# 4 0.0000 0.0000 0.0000 49.9861 0.0000 13.6848
# 5 25.6397 -1.6728 39.7391 0.0000 22.6830 0.0000
# 6 0.0000 0.0000 0.0000 13.6848 0.0000 33.9559
#
#
#
# Elastic Compliance Matrix: (Units=1/GPa)
#
#
# Indices 1 2 3 4 5 6 
#
# 1 0.026168 -0.008974 0.011649 0.000000 -0.050648 0.000000
# 2 -0.008974 0.016406 -0.009790 0.000000 0.028504 0.000000
# 3 0.011649 -0.009790 0.027497 0.000000 -0.062061 0.000000
# 4 0.000000 0.000000 0.000000 0.022487 0.000000 -0.009062
# 5 -0.050648 0.028504 -0.062061 0.000000 0.212166 0.000000
# 6 0.000000 0.000000 0.000000 -0.009062 0.000000 0.033102
#
#
# Mechanical properties :
#
#
# Convention : Reuss Voigt Hill
#
# Bulk Modulus (GPa) = 17.90764 46.43881 32.17322
# Shear Modulus (GPa) = 13.48916 35.92260 24.70588
#
# Velocity S-wave (km/s) = 2.23040 3.63977 3.01850
# Velocity P-wave (km/s) = 3.63828 5.89832 4.90037
#
# Compressibility (1/GPa) = 0.05584208
#
# Stress axis : x y z
#
# Youngs Moduli (GPa) = 38.21492 60.95185 36.36816
#
# Poissons Ratio (x) = 0.54696 -0.42365
# Poissons Ratio (y) = 0.34293 0.35603
# Poissons Ratio (z) = -0.44516 0.59669
#
# Static dielectric constant tensor:
#      x y z
#    x 2.187060 0.000000 -0.070220 
#    y 0.000000 2.284660 0.000000 
#    z -0.070220 0.000000 2.151230 
# 
# From -- ./inp_files/20267.got.cif
#   From: 2010.05.17/outbox.cif.g08.bks.cpg/sg9_11_cif.got.tgz:20267.got - 2010.06.03 20:04:27.
