data_PCOD9135086
_publ_section_title
;
Structure prediction by ZEFSAII (Michael W. Deem and Ramdas Pophale) SiO2 
 PCOD9135086
Probable space group: C C
;
_chemical_formula_sum "Si O2"
_cell_formula_units_Z 32
_cell_length_a 12.988798
_cell_length_b 6.551438
_cell_length_c 17.770525
_cell_angle_alpha 90.000000
_cell_angle_beta 117.465728
_cell_angle_gamma 90.000000
_cell_volume 1341.744777
_symmetry_space_group_name_H-M "C C"
_symmetry_group_IT_number 9
_symmetry_cell_setting 'monoclinic'
loop_
_space_group_symop_operation_xyz
x,y,z
x,-y,1/2+z
1/2+x,1/2+y,z
1/2+x,1/2-y,1/2+z
loop_
_atom_site_type_symbol
_atom_site_label
_atom_site_fract_x
_atom_site_fract_y
_atom_site_fract_z
Si Si1 0.501280 0.184452 0.780850
Si Si2 0.111605 0.993395 0.627543
Si Si3 0.330064 0.371640 0.438599
Si Si4 0.213713 0.061345 0.305100
Si Si5 0.026150 0.801600 0.964076
Si Si6 0.372352 0.582162 0.114653
Si Si7 0.621316 0.880489 0.033972
Si Si8 0.617385 0.816601 0.866776
O O1 0.611516 0.270802 0.771869
O O2 0.518472 0.275945 0.871249
O O3 0.399517 0.286183 0.697722
O O4 0.510178 0.938969 0.792971
O O5 0.099401 0.760470 0.597234
O O6 0.990266 0.045090 0.630739
O O7 0.216670 0.016212 0.721083
O O8 0.126195 0.109008 0.553294
O O9 0.422715 0.544574 0.449189
O O10 0.348498 0.292954 0.529499
O O11 0.212413 0.502972 0.401938
O O12 0.318557 0.185517 0.376975
O O13 0.170057 0.872525 0.340236
O O14 0.033933 0.570369 0.997121
O O15 0.255856 0.449594 0.084239
O O16 0.600241 0.761118 0.948063
#
# Coordination Sequence:
#
# PCOD9135086 Si02
#       8
#     4   4   4   4   4   4   4   4
#     4   9  19  37  60  84 121 166 210 273 323 381
#     4  10  22  38  60  92 125 170 217 269 338 393
#     4   9  20  36  59  89 126 168 208 267 333 389
#     4  10  20  37  60  86 122 167 216 268 326 396
#     4  10  21  38  60  91 127 166 216 272 323 389
#     4   9  20  39  60  88 122 170 212 263 336 383
#     4  10  21  39  64  90 129 170 217 274 328 400
#     4   9  19  38  61  88 122 165 214 262 331 389
#
# _framework density 23.849544999999999
#
# number of rings (size 3 to 8) (size 9 to 14) (size 15 to 20)
#    0.000    2.500    0.000    1.500    1.750    5.000 
#    0.000   10.000    0.000    0.000    0.000    0.000 
#    0.000    0.000    0.000    0.000    0.000    0.000 
#
# Total GULP energy -89158.975224 kJ/mol
# GULP energy per Si atom -5572.435951 kJ/mol
# Density = 2.379526 g / cm^3
# Si number density = 23.849545 Si / 1000 Ang^3
#
#
#
# Elastic Constant Matrix: (Units=GPa)
#
#
# Indices 1 2 3 4 5 6 
#
# 1 78.3805 23.9925 16.6742 0.0000 -0.4335 0.0000
# 2 23.9925 75.3514 66.6697 0.0000 -20.2540 0.0000
# 3 16.6742 66.6697 156.1163 0.0000 -23.7999 0.0000
# 4 0.0000 0.0000 0.0000 22.2484 0.0000 -10.3139
# 5 -0.4335 -20.2540 -23.7999 0.0000 26.0418 0.0000
# 6 0.0000 0.0000 0.0000 -10.3139 0.0000 40.5538
#
#
#
# Elastic Compliance Matrix: (Units=1/GPa)
#
#
# Indices 1 2 3 4 5 6 
#
# 1 0.014514 -0.006109 0.000431 0.000000 -0.004116 0.000000
# 2 -0.006109 0.026191 -0.008647 0.000000 0.012366 0.000000
# 3 0.000431 -0.008647 0.010490 0.000000 0.002868 0.000000
# 4 0.000000 0.000000 0.000000 0.050955 0.000000 0.012959
# 5 -0.004116 0.012366 0.002868 0.000000 0.050570 0.000000
# 6 0.000000 0.000000 0.000000 0.012959 0.000000 0.027954
#
#
# Mechanical properties :
#
#
# Convention : Reuss Voigt Hill
#
# Bulk Modulus (GPa) = 44.35751 58.28009 51.31880
# Shear Modulus (GPa) = 23.05862 31.26959 27.16410
#
# Velocity S-wave (km/s) = 3.11277 3.62487 3.37854
# Velocity P-wave (km/s) = 5.61769 6.48145 6.06496
#
# Compressibility (1/GPa) = 0.02254410
#
# Stress axis : x y z
#
# Youngs Moduli (GPa) = 68.89993 38.18072 95.33309
#
# Poissons Ratio (x) = 0.23326 -0.04112
# Poissons Ratio (y) = 0.42093 0.82438
# Poissons Ratio (z) = -0.02972 0.33016
#
# Static dielectric constant tensor:
#      x y z
#    x 1.971500 0.000000 0.052470 
#    y 0.000000 1.909690 0.000000 
#    z 0.052470 0.000000 2.016140 
# 
# From -- ./inp_files/30497.got.cif
#   From: 2010.05.17/outbox.cif.g08.bks.cpg/sg9_16_cif.got.tgz:30497.got - 2010.06.03 20:04:27.
