data_PCOD9135816
_publ_section_title
;
Structure prediction by ZEFSAII (Michael W. Deem and Ramdas Pophale) SiO2 
 PCOD9135816
Probable space group: C C
;
_chemical_formula_sum "Si O2"
_cell_formula_units_Z 20
_cell_length_a 5.035621
_cell_length_b 15.563534
_cell_length_c 9.189576
_cell_angle_alpha 90.000000
_cell_angle_beta 87.641223
_cell_angle_gamma 90.000000
_cell_volume 719.595759
_symmetry_space_group_name_H-M "C C"
_symmetry_group_IT_number 9
_symmetry_cell_setting 'monoclinic'
loop_
_space_group_symop_operation_xyz
x,y,z
x,-y,1/2+z
1/2+x,1/2+y,z
1/2+x,1/2-y,1/2+z
loop_
_atom_site_type_symbol
_atom_site_label
_atom_site_fract_x
_atom_site_fract_y
_atom_site_fract_z
Si Si1 0.524890 0.218698 0.411620
Si Si2 0.673211 0.565394 0.466740
Si Si3 0.454541 0.912643 0.520058
Si Si4 0.945753 0.826896 0.673626
Si Si5 0.080523 0.098800 0.789554
O O1 0.297331 0.149195 0.391259
O O2 0.799149 0.187673 0.331632
O O3 0.518771 0.239839 0.583403
O O4 0.458490 0.309569 0.336511
O O5 0.940058 0.514736 0.515396
O O6 0.537398 0.587742 0.620989
O O7 0.522802 0.493903 0.370552
O O8 0.700397 0.870063 0.589939
O O9 0.377151 0.888612 0.355438
O O10 0.193860 0.885512 0.618506
#
# Coordination Sequence:
#
# PCOD9135816 Si02
#       5
#     4   4   4   4   4
#     4  11  22  43  76 109 152 202 262 316 397 469
#     4  10  20  45  73 103 154 202 252 329 386 465
#     4   9  24  44  72 105 151 190 262 311 392 460
#     4  11  23  47  70 108 152 198 257 324 381 474
#     4   9  21  41  71 105 149 196 261 312 396 458
#
# _framework density 27.793381
#
# number of rings (size 3 to 8) (size 9 to 14) (size 15 to 20)
#    1.200    0.800    2.000    1.200    0.000    3.200 
#    7.200    4.000    0.000    0.000    0.000    0.000 
#    0.000    0.000    0.000    0.000    0.000    0.000 
#
# Total GULP energy -55780.553924 kJ/mol
# GULP energy per Si atom -5578.055392 kJ/mol
# Density = 2.773012 g / cm^3
# Si number density = 27.793381 Si / 1000 Ang^3
#
#
#
# Elastic Constant Matrix: (Units=GPa)
#
#
# Indices 1 2 3 4 5 6 
#
# 1 133.3605 34.2411 36.6161 0.0000 -24.6181 0.0000
# 2 34.2411 181.7878 51.3916 0.0000 -21.6373 0.0000
# 3 36.6161 51.3916 177.7043 0.0000 -25.7441 0.0000
# 4 0.0000 0.0000 0.0000 39.6639 0.0000 -11.4624
# 5 -24.6181 -21.6373 -25.7441 0.0000 38.5451 0.0000
# 6 0.0000 0.0000 0.0000 -11.4624 0.0000 23.5382
#
#
#
# Elastic Compliance Matrix: (Units=1/GPa)
#
#
# Indices 1 2 3 4 5 6 
#
# 1 0.008806 -0.000862 -0.000908 0.000000 0.004534 0.000000
# 2 -0.000862 0.006290 -0.001339 0.000000 0.002086 0.000000
# 3 -0.000908 -0.001339 0.006653 0.000000 0.003111 0.000000
# 4 0.000000 0.000000 0.000000 0.029341 0.000000 0.014288
# 5 0.004534 0.002086 0.003111 0.000000 0.032088 0.000000
# 6 0.000000 0.000000 0.000000 0.014288 0.000000 0.049442
#
#
# Mechanical properties :
#
#
# Convention : Reuss Voigt Hill
#
# Bulk Modulus (GPa) = 64.39539 81.92782 73.16160
# Shear Modulus (GPa) = 34.71830 45.05635 39.88732
#
# Velocity S-wave (km/s) = 3.53818 4.03068 3.79243
# Velocity P-wave (km/s) = 6.31753 7.15565 6.74961
#
# Compressibility (1/GPa) = 0.01552906
#
# Stress axis : x y z
#
# Youngs Moduli (GPa) = 113.55670 158.97711 150.31867
#
# Poissons Ratio (x) = 0.13709 0.13654
# Poissons Ratio (y) = 0.09792 0.20132
# Poissons Ratio (z) = 0.10315 0.21291
#
# Static dielectric constant tensor:
#      x y z
#    x 2.305390 0.000000 0.111030 
#    y 0.000000 2.267610 0.000000 
#    z 0.111030 0.000000 2.358200 
# 
# From -- ./inp_files/12911.got.cif
#   From: 2010.05.17/outbox.cif.g08.bks.cpg/sg9_7_cif.got.tgz:12911.got - 2010.06.03 20:04:27.
