data_PCOD9135776
_publ_section_title
;
Structure prediction by ZEFSAII (Michael W. Deem and Ramdas Pophale) SiO2 
 PCOD9135776
Probable space group: C C
;
_chemical_formula_sum "Si O2"
_cell_formula_units_Z 32
_cell_length_a 12.346455
_cell_length_b 7.900406
_cell_length_c 14.000725
_cell_angle_alpha 90.000000
_cell_angle_beta 114.866700
_cell_angle_gamma 90.000000
_cell_volume 1239.046629
_symmetry_space_group_name_H-M "C C"
_symmetry_group_IT_number 9
_symmetry_cell_setting 'monoclinic'
loop_
_space_group_symop_operation_xyz
x,y,z
x,-y,1/2+z
1/2+x,1/2+y,z
1/2+x,1/2-y,1/2+z
loop_
_atom_site_type_symbol
_atom_site_label
_atom_site_fract_x
_atom_site_fract_y
_atom_site_fract_z
Si Si1 0.329150 0.381569 0.168770
Si Si2 0.602827 0.619483 0.500521
Si Si3 0.196828 0.293790 0.367477
Si Si4 0.634417 0.627568 0.169196
Si Si5 0.917460 0.698511 0.023440
Si Si6 0.080936 0.810498 0.356836
Si Si7 0.163378 0.611547 0.227706
Si Si8 0.448224 0.829705 0.973514
O O1 0.252904 0.226508 0.182385
O O2 0.339919 0.323131 0.061695
O O3 0.462625 0.373358 0.258017
O O4 0.260812 0.547309 0.185760
O O5 0.670697 0.764792 0.468597
O O6 0.637587 0.553350 0.618687
O O7 0.467884 0.685554 0.457176
O O8 0.619954 0.450537 0.446509
O O9 0.138444 0.140281 0.284306
O O10 0.146572 0.452710 0.292827
O O11 0.338723 0.292879 0.409802
O O12 0.524859 0.737564 0.084934
O O13 0.038767 0.646681 0.127815
O O14 0.887596 0.508911 0.977906
O O15 0.178286 0.754817 0.314799
O O16 0.033040 0.662359 0.411828
#
# Coordination Sequence:
#
# PCOD9135776 Si02
#       8
#     4   4   4   4   4   4   4   4
#     4  10  20  44  69  99 138 192 247 297 380 437
#     4  11  26  43  65 111 149 188 250 316 376 456
#     4  11  22  44  72 102 145 194 254 301 382 451
#     4  10  22  44  69 100 149 185 247 317 365 449
#     4  11  23  42  71 107 147 193 250 307 380 456
#     4  10  22  42  71  98 147 184 251 310 363 456
#     4  10  21  44  73  96 142 199 243 304 381 446
#     4  11  20  43  72 105 141 197 244 304 379 449
#
# _framework density 25.826308000000001
#
# number of rings (size 3 to 8) (size 9 to 14) (size 15 to 20)
#    0.000    1.500    5.000    1.500    3.500    0.000 
#   11.250    0.000    0.000    0.000    0.000    0.000 
#    0.000    0.000    0.000    0.000    0.000    0.000 
#
# Total GULP energy -89332.398128 kJ/mol
# GULP energy per Si atom -5583.274883 kJ/mol
# Density = 2.576753 g / cm^3
# Si number density = 25.826308 Si / 1000 Ang^3
#
#
#
# Elastic Constant Matrix: (Units=GPa)
#
#
# Indices 1 2 3 4 5 6 
#
# 1 113.4961 35.8129 21.8352 0.0000 -18.4798 0.0000
# 2 35.8129 90.1087 28.8010 0.0000 -17.6142 0.0000
# 3 21.8352 28.8010 94.7506 0.0000 -14.1678 0.0000
# 4 0.0000 0.0000 0.0000 37.5767 0.0000 -21.0807
# 5 -18.4798 -17.6142 -14.1678 0.0000 48.1650 0.0000
# 6 0.0000 0.0000 0.0000 -21.0807 0.0000 39.8881
#
#
#
# Elastic Compliance Matrix: (Units=1/GPa)
#
#
# Indices 1 2 3 4 5 6 
#
# 1 0.010470 -0.003347 -0.001023 0.000000 0.002492 0.000000
# 2 -0.003347 0.013972 -0.003037 0.000000 0.002932 0.000000
# 3 -0.001023 -0.003037 0.012017 0.000000 0.002032 0.000000
# 4 0.000000 0.000000 0.000000 0.037828 0.000000 0.019992
# 5 0.002492 0.002932 0.002032 0.000000 0.023388 0.000000
# 6 0.000000 0.000000 0.000000 0.019992 0.000000 0.035636
#
#
# Mechanical properties :
#
#
# Convention : Reuss Voigt Hill
#
# Bulk Modulus (GPa) = 46.20172 52.36151 49.28161
# Shear Modulus (GPa) = 32.18783 39.25304 35.72043
#
# Velocity S-wave (km/s) = 3.53416 3.90280 3.72304
# Velocity P-wave (km/s) = 5.88064 6.37398 6.13227
#
# Compressibility (1/GPa) = 0.02164422
#
# Stress axis : x y z
#
# Youngs Moduli (GPa) = 95.51542 71.57239 83.21753
#
# Poissons Ratio (x) = 0.23955 0.08511
# Poissons Ratio (y) = 0.31969 0.25275
# Poissons Ratio (z) = 0.09768 0.21738
#
# Static dielectric constant tensor:
#      x y z
#    x 2.059810 0.000000 -0.003380 
#    y 0.000000 2.104530 0.000000 
#    z -0.003380 0.000000 2.115320 
# 
# From -- ./inp_files/24408.got.cif
#   From: 2010.05.17/outbox.cif.g08.bks.cpg/sg9_13_cif.got.tgz:24408.got - 2010.06.03 20:04:27.
