data_PCOD9135686
_publ_section_title
;
Structure prediction by ZEFSAII (Michael W. Deem and Ramdas Pophale) SiO2 
 PCOD9135686
Probable space group: C C
;
_chemical_formula_sum "Si O2"
_cell_formula_units_Z 20
_cell_length_a 7.742930
_cell_length_b 21.285188
_cell_length_c 5.324279
_cell_angle_alpha 90.000000
_cell_angle_beta 58.659418
_cell_angle_gamma 90.000000
_cell_volume 749.458508
_symmetry_space_group_name_H-M "C C"
_symmetry_group_IT_number 9
_symmetry_cell_setting 'monoclinic'
loop_
_space_group_symop_operation_xyz
x,y,z
x,-y,1/2+z
1/2+x,1/2+y,z
1/2+x,1/2-y,1/2+z
loop_
_atom_site_type_symbol
_atom_site_label
_atom_site_fract_x
_atom_site_fract_y
_atom_site_fract_z
Si Si1 0.886200 0.295321 0.008100
Si Si2 0.217663 0.848298 0.627577
Si Si3 0.427278 0.028004 0.761432
Si Si4 0.882329 0.020839 0.882610
Si Si5 0.831349 0.843610 0.612361
O O1 0.796418 0.298913 0.357130
O O2 0.900079 0.221644 0.932523
O O3 0.763127 0.327836 0.875328
O O4 0.100746 0.330202 0.856176
O O5 0.346595 0.909568 0.454186
O O6 0.982876 0.856009 0.730595
O O7 0.370191 0.024698 0.512084
O O8 0.672565 0.019213 0.557697
O O9 0.843617 0.094592 0.931934
O O10 0.993221 0.999361 0.049212
#
# Coordination Sequence:
#
# PCOD9135686 Si02
#       5
#     4   4   4   4   4
#     4  12  28  48  73 111 153 200 254 309 369 445
#     4  12  28  49  77 109 155 200 252 309 374 450
#     4  10  20  42  70 105 141 189 238 304 369 432
#     4  10  22  42  70 105 142 190 241 302 369 434
#     4  12  28  49  80 110 155 201 251 310 379 451
#
# _framework density 26.685932000000001
#
# number of rings (size 3 to 8) (size 9 to 14) (size 15 to 20)
#    0.000    0.800    2.000    6.000    2.800    6.400 
#    0.000    0.000    0.000    0.000    0.000    0.000 
#    0.000    0.000    0.000    0.000    0.000    0.000 
#
# Total GULP energy -56036.473583 kJ/mol
# GULP energy per Si atom -5603.647358 kJ/mol
# Density = 2.662519 g / cm^3
# Si number density = 26.685932 Si / 1000 Ang^3
#
#
#
# Elastic Constant Matrix: (Units=GPa)
#
#
# Indices 1 2 3 4 5 6 
#
# 1 162.2066 18.7250 38.7855 0.0000 -4.2473 0.0000
# 2 18.7250 146.0614 3.9935 0.0000 5.6942 0.0000
# 3 38.7855 3.9935 125.2633 0.0000 10.5599 0.0000
# 4 0.0000 0.0000 0.0000 44.2069 0.0000 -0.0660
# 5 -4.2473 5.6942 10.5599 0.0000 43.6315 0.0000
# 6 0.0000 0.0000 0.0000 -0.0660 0.0000 40.2170
#
#
#
# Elastic Compliance Matrix: (Units=1/GPa)
#
#
# Indices 1 2 3 4 5 6 
#
# 1 0.006824 -0.000866 -0.002196 0.000000 0.001309 0.000000
# 2 -0.000866 0.006994 0.000132 0.000000 -0.001029 0.000000
# 3 -0.002196 0.000132 0.008859 0.000000 -0.002375 0.000000
# 4 0.000000 0.000000 0.000000 0.022621 0.000000 0.000037
# 5 0.001309 -0.001029 -0.002375 0.000000 0.023756 0.000000
# 6 0.000000 0.000000 0.000000 0.000037 0.000000 0.024865
#
#
# Mechanical properties :
#
#
# Convention : Reuss Voigt Hill
#
# Bulk Modulus (GPa) = 59.46072 61.83771 60.64921
# Shear Modulus (GPa) = 47.44532 50.41288 48.92910
#
# Velocity S-wave (km/s) = 4.22111 4.35111 4.28660
# Velocity P-wave (km/s) = 6.78874 6.96173 6.87578
#
# Compressibility (1/GPa) = 0.01681782
#
# Stress axis : x y z
#
# Youngs Moduli (GPa) = 146.53685 142.98085 112.87868
#
# Poissons Ratio (x) = 0.12380 0.24785
# Poissons Ratio (y) = 0.12688 -0.01488
# Poissons Ratio (z) = 0.32175 -0.01885
#
# Static dielectric constant tensor:
#      x y z
#    x 2.170920 0.000000 0.000620 
#    y 0.000000 2.095110 0.000000 
#    z 0.000620 0.000000 2.088710 
# 
# From -- ./inp_files/589.got.cif
#   From: 2010.05.17/outbox.cif.g08.bks.cpg/sg9_1_cif.got.tgz:589.got - 2010.06.03 20:04:27.
