data_PCOD9135544
_publ_section_title
;
Structure prediction by ZEFSAII (Michael W. Deem and Ramdas Pophale) SiO2 
 PCOD9135544
Probable space group: C C
;
_chemical_formula_sum "Si O2"
_cell_formula_units_Z 28
_cell_length_a 7.338199
_cell_length_b 30.325138
_cell_length_c 7.500808
_cell_angle_alpha 90.000000
_cell_angle_beta 132.566137
_cell_angle_gamma 90.000000
_cell_volume 1229.337998
_symmetry_space_group_name_H-M "C C"
_symmetry_group_IT_number 9
_symmetry_cell_setting 'monoclinic'
loop_
_space_group_symop_operation_xyz
x,y,z
x,-y,1/2+z
1/2+x,1/2+y,z
1/2+x,1/2-y,1/2+z
loop_
_atom_site_type_symbol
_atom_site_label
_atom_site_fract_x
_atom_site_fract_y
_atom_site_fract_z
Si Si1 0.339790 0.814454 0.257150
Si Si2 0.464290 0.557850 0.578344
Si Si3 0.693695 0.742944 0.366979
Si Si4 0.607053 0.356981 0.408574
Si Si5 0.177491 0.612059 0.847532
Si Si6 0.531574 0.539745 0.234733
Si Si7 0.455252 0.915511 0.826439
O O1 0.552394 0.777181 0.405706
O O2 0.160463 0.817992 0.306903
O O3 0.484440 0.860265 0.333047
O O4 0.198604 0.803237 0.978375
O O5 0.550600 0.599608 0.749878
O O6 0.602423 0.553032 0.482491
O O7 0.478244 0.511867 0.691645
O O8 0.172859 0.565587 0.350901
O O9 0.992782 0.754880 0.569698
O O10 0.386749 0.354744 0.405385
O O11 0.851003 0.370222 0.678536
O O12 0.057602 0.593538 0.589729
O O13 0.306768 0.571934 0.033598
O O14 0.734676 0.550942 0.219652
#
# Coordination Sequence:
#
# PCOD9135544 Si02
#       7
#     4   4   4   4   4   4   4
#     4  10  20  41  64  90 128 166 216 264 339 386
#     4  11  23  38  58  88 123 165 212 262 317 372
#     4   8  20  38  64  94 126 168 208 276 324 400
#     4  10  22  38  61  92 119 167 212 258 319 391
#     4  10  22  38  61  92 119 167 212 258 319 391
#     4  11  23  38  58  88 123 165 212 262 317 372
#     4  10  22  39  56  86 122 158 210 262 307 382
#
# _framework density 22.776485999999998
#
# number of rings (size 3 to 8) (size 9 to 14) (size 15 to 20)
#    0.857    1.143    0.000    4.286    0.000   11.429 
#    0.000    1.429    0.000    0.000    0.000    0.000 
#    0.000    0.000    0.000    0.000    0.000    0.000 
#
# Total GULP energy -78040.356769 kJ/mol
# GULP energy per Si atom -5574.311198 kJ/mol
# Density = 2.272465 g / cm^3
# Si number density = 22.776486 Si / 1000 Ang^3
#
#
#
# Elastic Constant Matrix: (Units=GPa)
#
#
# Indices 1 2 3 4 5 6 
#
# 1 85.1831 3.2497 12.2631 0.0000 0.2616 0.0000
# 2 3.2497 49.5716 14.6006 0.0000 9.0480 0.0000
# 3 12.2631 14.6006 80.7296 0.0000 -0.9682 0.0000
# 4 0.0000 0.0000 0.0000 20.7976 0.0000 -4.0334
# 5 0.2616 9.0480 -0.9682 0.0000 27.0787 0.0000
# 6 0.0000 0.0000 0.0000 -4.0334 0.0000 13.5488
#
#
#
# Elastic Compliance Matrix: (Units=1/GPa)
#
#
# Indices 1 2 3 4 5 6 
#
# 1 0.012005 -0.000245 -0.001781 0.000000 -0.000098 0.000000
# 2 -0.000245 0.022842 -0.004187 0.000000 -0.007780 0.000000
# 3 -0.001781 -0.004187 0.013438 0.000000 0.001897 0.000000
# 4 0.000000 0.000000 0.000000 0.051028 0.000000 0.015191
# 5 -0.000098 -0.007780 0.001897 0.000000 0.039598 0.000000
# 6 0.000000 0.000000 0.000000 0.015191 0.000000 0.078329
#
#
# Mechanical properties :
#
#
# Convention : Reuss Voigt Hill
#
# Bulk Modulus (GPa) = 27.88629 30.63457 29.26043
# Shear Modulus (GPa) = 20.69372 24.64309 22.66840
#
# Velocity S-wave (km/s) = 3.01750 3.29287 3.15819
# Velocity P-wave (km/s) = 4.94069 5.28551 5.11601
#
# Compressibility (1/GPa) = 0.03585991
#
# Stress axis : x y z
#
# Youngs Moduli (GPa) = 83.29592 43.77864 74.41824
#
# Poissons Ratio (x) = 0.01071 0.13251
# Poissons Ratio (y) = 0.02038 0.31161
# Poissons Ratio (z) = 0.14831 0.18332
#
# Static dielectric constant tensor:
#      x y z
#    x 1.854790 0.000000 0.059680 
#    y 0.000000 1.846730 0.000000 
#    z 0.059680 0.000000 1.903890 
# 
# From -- ./inp_files/6573.got.cif
#   From: 2010.05.17/outbox.cif.g08.bks.cpg/sg9_4_cif.got.tgz:6573.got - 2010.06.03 20:04:27.
