data_PCOD9135401
_publ_section_title
;
Structure prediction by ZEFSAII (Michael W. Deem and Ramdas Pophale) SiO2 
 PCOD9135401
Probable space group: C C
;
_chemical_formula_sum "Si O2"
_cell_formula_units_Z 32
_cell_length_a 8.684614
_cell_length_b 16.745733
_cell_length_c 12.593637
_cell_angle_alpha 90.000000
_cell_angle_beta 126.875929
_cell_angle_gamma 90.000000
_cell_volume 1465.080707
_symmetry_space_group_name_H-M "C C"
_symmetry_group_IT_number 9
_symmetry_cell_setting 'monoclinic'
loop_
_space_group_symop_operation_xyz
x,y,z
x,-y,1/2+z
1/2+x,1/2+y,z
1/2+x,1/2-y,1/2+z
loop_
_atom_site_type_symbol
_atom_site_label
_atom_site_fract_x
_atom_site_fract_y
_atom_site_fract_z
Si Si1 0.321240 0.656602 0.971970
Si Si2 0.077305 0.343271 0.738112
Si Si3 0.673915 0.270141 0.080577
Si Si4 0.962002 0.927623 0.914646
Si Si5 0.530656 0.877885 0.175486
Si Si6 0.491647 0.198029 0.439826
Si Si7 0.132826 0.093467 0.258536
Si Si8 0.777661 0.471570 0.625602
O O1 0.204954 0.615379 0.829376
O O2 0.475362 0.713742 0.977808
O O3 0.170866 0.708910 0.980468
O O4 0.445978 0.612162 0.111944
O O5 0.129524 0.278299 0.669968
O O6 0.236856 0.413477 0.807484
O O7 0.077395 0.308547 0.857995
O O8 0.873617 0.387678 0.632716
O O9 0.888008 0.307992 0.159565
O O10 0.536935 0.346525 0.004142
O O11 0.057144 0.932290 0.839166
O O12 0.059051 0.004173 0.008188
O O13 0.406055 0.958148 0.131050
O O14 0.578021 0.855169 0.072476
O O15 0.270094 0.169239 0.334431
O O16 0.270222 0.032880 0.250929
#
# Coordination Sequence:
#
# PCOD9135401 Si02
#       8
#     4   4   4   4   4   4   4   4
#     4  11  20  35  69  97 121 174 225 269 343 413
#     4  11  24  41  69 104 136 177 231 287 342 404
#     4  10  20  39  70  99 130 174 227 282 342 410
#     4  11  22  45  67  95 139 180 221 287 353 406
#     4  10  21  42  66  95 134 183 223 270 352 416
#     4  10  21  41  66  93 139 167 215 293 339 393
#     4  11  21  41  65  92 131 176 221 277 341 409
#     4  10  25  42  62  97 136 177 227 277 338 409
#
# _framework density 21.841799999999999
#
# number of rings (size 3 to 8) (size 9 to 14) (size 15 to 20)
#    0.000    1.500    5.000    2.250    1.750    4.000 
#    2.250    2.500    0.000    0.000    0.000    0.000 
#    0.000    0.000    0.000    0.000    0.000    0.000 
#
# Total GULP energy -89236.016159 kJ/mol
# GULP energy per Si atom -5577.251010 kJ/mol
# Density = 2.179209 g / cm^3
# Si number density = 21.841800 Si / 1000 Ang^3
#
#
#
# Elastic Constant Matrix: (Units=GPa)
#
#
# Indices 1 2 3 4 5 6 
#
# 1 63.4946 19.0683 27.7276 0.0000 -31.4893 0.0000
# 2 19.0683 47.6368 36.7243 0.0000 -16.2663 0.0000
# 3 27.7276 36.7243 130.6241 0.0000 -8.7578 0.0000
# 4 0.0000 0.0000 0.0000 57.5861 0.0000 39.9572
# 5 -31.4893 -16.2663 -8.7578 0.0000 54.6911 0.0000
# 6 0.0000 0.0000 0.0000 39.9572 0.0000 99.8868
#
#
#
# Elastic Compliance Matrix: (Units=1/GPa)
#
#
# Indices 1 2 3 4 5 6 
#
# 1 0.024406 -0.002682 -0.003576 0.000000 0.012682 0.000000
# 2 -0.002682 0.029889 -0.007421 0.000000 0.006157 0.000000
# 3 -0.003576 -0.007421 0.010326 0.000000 -0.002613 0.000000
# 4 0.000000 0.000000 0.000000 0.024037 0.000000 -0.009615
# 5 0.012682 0.006157 -0.002613 0.000000 0.026999 0.000000
# 6 0.000000 0.000000 0.000000 -0.009615 0.000000 0.013858
#
#
# Mechanical properties :
#
#
# Convention : Reuss Voigt Hill
#
# Bulk Modulus (GPa) = 26.83668 45.42178 36.12923
# Shear Modulus (GPa) = 29.53430 52.98183 41.25807
#
# Velocity S-wave (km/s) = 3.68121 4.93049 4.35092
# Velocity P-wave (km/s) = 5.51198 7.29753 6.46668
#
# Compressibility (1/GPa) = 0.03726244
#
# Stress axis : x y z
#
# Youngs Moduli (GPa) = 40.97368 33.45687 96.84326
#
# Poissons Ratio (x) = 0.08972 0.34635
# Poissons Ratio (y) = 0.10988 0.71869
# Poissons Ratio (z) = 0.14654 0.24829
#
# Static dielectric constant tensor:
#      x y z
#    x 1.803040 0.000000 0.041520 
#    y 0.000000 0.511300 0.000000 
#    z 0.041520 0.000000 1.807440 
# 
# From -- ./inp_files/15181.got.cif
#   From: 2010.05.17/outbox.cif.g08.bks.cpg/sg9_8_cif.got.tgz:15181.got - 2010.06.03 20:04:27.
