data_PCOD9135187
_publ_section_title
;
Structure prediction by ZEFSAII (Michael W. Deem and Ramdas Pophale) SiO2 
 PCOD9135187
Probable space group: C C
;
_chemical_formula_sum "Si O2"
_cell_formula_units_Z 24
_cell_length_a 7.121277
_cell_length_b 27.984696
_cell_length_c 8.569782
_cell_angle_alpha 90.000000
_cell_angle_beta 37.907079
_cell_angle_gamma 90.000000
_cell_volume 1049.269905
_symmetry_space_group_name_H-M "C C"
_symmetry_group_IT_number 9
_symmetry_cell_setting 'monoclinic'
loop_
_space_group_symop_operation_xyz
x,y,z
x,-y,1/2+z
1/2+x,1/2+y,z
1/2+x,1/2-y,1/2+z
loop_
_atom_site_type_symbol
_atom_site_label
_atom_site_fract_x
_atom_site_fract_y
_atom_site_fract_z
Si Si1 0.598260 0.864482 0.260750
Si Si2 0.770540 0.720671 0.815354
Si Si3 0.045881 0.550698 0.318030
Si Si4 0.383630 0.721228 0.753466
Si Si5 0.719442 0.475258 0.331271
Si Si6 0.686221 0.580951 0.268038
O O1 0.399507 0.830137 0.282268
O O2 0.075477 0.784400 0.285813
O O3 0.385667 0.901226 0.493098
O O4 0.877398 0.889793 0.991066
O O5 0.051374 0.755767 0.588584
O O6 0.245721 0.671571 0.789338
O O7 0.937497 0.499146 0.317898
O O8 0.898570 0.554891 0.584514
O O9 0.895972 0.585889 0.288461
O O10 0.410486 0.550704 0.085319
O O11 0.108796 0.757282 0.975553
O O12 0.613463 0.524590 0.314535
#
# Coordination Sequence:
#
# PCOD9135187 Si02
#       6
#     4   4   4   4   4   4
#     4  12  20  39  58  88 122 154 184 256 304 339
#     4  10  21  37  59  85 116 158 201 233 281 361
#     4  10  20  38  60  82 112 153 195 244 292 357
#     4  10  21  37  59  85 116 158 201 233 281 361
#     4  10  20  38  60  82 112 153 195 244 292 357
#     4  10  24  35  60  84 122 144 196 244 302 353
#
# _framework density 22.873048000000001
#
# number of rings (size 3 to 8) (size 9 to 14) (size 15 to 20)
#    1.000    0.667    0.000    6.000    0.000    0.000 
#    0.000   10.000    0.000    0.000    0.000    0.000 
#    0.000    0.000    0.000    0.000    0.000    0.000 
#
# Total GULP energy -67120.661685 kJ/mol
# GULP energy per Si atom -5593.388474 kJ/mol
# Density = 2.282099 g / cm^3
# Si number density = 22.873048 Si / 1000 Ang^3
#
#
#
# Elastic Constant Matrix: (Units=GPa)
#
#
# Indices 1 2 3 4 5 6 
#
# 1 90.6268 10.9435 23.8130 0.0000 -21.3664 0.0000
# 2 10.9435 79.5934 14.8459 0.0000 -19.3112 0.0000
# 3 23.8130 14.8459 149.4247 0.0000 -34.1363 0.0000
# 4 0.0000 0.0000 0.0000 29.6217 0.0000 -1.2657
# 5 -21.3664 -19.3112 -34.1363 0.0000 27.4861 0.0000
# 6 0.0000 0.0000 0.0000 -1.2657 0.0000 81.9966
#
#
#
# Elastic Compliance Matrix: (Units=1/GPa)
#
#
# Indices 1 2 3 4 5 6 
#
# 1 0.013575 0.000895 0.000422 0.000000 0.011705 0.000000
# 2 0.000895 0.015386 0.001336 0.000000 0.013165 0.000000
# 3 0.000422 0.001336 0.009468 0.000000 0.013026 0.000000
# 4 0.000000 0.000000 0.000000 0.033781 0.000000 0.000521
# 5 0.011705 0.013165 0.013026 0.000000 0.070907 0.000000
# 6 0.000000 0.000000 0.000000 0.000521 0.000000 0.012204
#
#
# Mechanical properties :
#
#
# Convention : Reuss Voigt Hill
#
# Bulk Modulus (GPa) = 22.86531 46.53886 34.70208
# Shear Modulus (GPa) = 30.37787 45.82372 38.10079
#
# Velocity S-wave (km/s) = 3.64827 4.48078 4.08579
# Velocity P-wave (km/s) = 5.26924 6.86736 6.12068
#
# Compressibility (1/GPa) = 0.04373438
#
# Stress axis : x y z
#
# Youngs Moduli (GPa) = 73.66488 64.99552 105.61814
#
# Poissons Ratio (x) = -0.05816 -0.04454
# Poissons Ratio (y) = -0.06591 -0.14114
# Poissons Ratio (z) = -0.03107 -0.08685
#
# Static dielectric constant tensor:
#      x y z
#    x 1.860960 0.000000 0.028410 
#    y 0.000000 1.792420 0.000000 
#    z 0.028410 0.000000 1.804820 
# 
# From -- ./inp_files/1110.got.cif
#   From: 2010.05.17/outbox.cif.g08.bks.cpg/sg9_1_cif.got.tgz:1110.got - 2010.06.03 20:04:27.
