data_PCOD9135633
_publ_section_title
;
Structure prediction by ZEFSAII (Michael W. Deem and Ramdas Pophale) SiO2 
 PCOD9135633
Probable space group: C C
;
_chemical_formula_sum "Si O2"
_cell_formula_units_Z 32
_cell_length_a 20.207666
_cell_length_b 8.675764
_cell_length_c 14.846998
_cell_angle_alpha 90.000000
_cell_angle_beta 28.563589
_cell_angle_gamma 90.000000
_cell_volume 1244.548971
_symmetry_space_group_name_H-M "C C"
_symmetry_group_IT_number 9
_symmetry_cell_setting 'monoclinic'
loop_
_space_group_symop_operation_xyz
x,y,z
x,-y,1/2+z
1/2+x,1/2+y,z
1/2+x,1/2-y,1/2+z
loop_
_atom_site_type_symbol
_atom_site_label
_atom_site_fract_x
_atom_site_fract_y
_atom_site_fract_z
Si Si1 0.262050 0.406782 0.024560
Si Si2 0.075012 0.425819 0.420290
Si Si3 0.031523 0.792635 0.754733
Si Si4 0.687241 0.611952 0.537922
Si Si5 0.282647 0.017463 0.746819
Si Si6 0.787489 0.140678 0.237462
Si Si7 0.390806 0.722294 0.911603
Si Si8 0.518459 0.601647 0.476780
O O1 0.197894 0.398685 0.201980
O O2 0.131168 0.352451 0.124661
O O3 0.389422 0.288396 0.870360
O O4 0.329191 0.573372 0.931521
O O5 0.140649 0.555536 0.404776
O O6 0.035132 0.261776 0.510872
O O7 0.940521 0.490412 0.529907
O O8 0.996754 0.832712 0.901601
O O9 0.114818 0.946449 0.631788
O O10 0.753661 0.605912 0.360153
O O11 0.556470 0.726283 0.707685
O O12 0.805266 0.639634 0.470514
O O13 0.274761 0.190699 0.794017
O O14 0.163007 0.988368 0.816946
O O15 0.846479 0.186595 0.067226
O O16 0.897320 0.017901 0.145029
#
# Coordination Sequence:
#
# PCOD9135633 Si02
#       8
#     4   4   4   4   4   4   4   4
#     4   9  20  37  67  96 122 169 224 290 327 408
#     4  10  22  40  64 100 132 177 230 276 363 405
#     4  10  20  42  64  97 130 166 228 281 346 408
#     4  11  25  46  61 101 140 183 227 290 359 416
#     4  12  27  38  66  98 142 183 226 296 356 418
#     4  11  22  46  72 105 131 187 244 297 341 433
#     4  10  23  45  72  95 136 184 243 285 351 424
#     4  11  21  42  70  98 131 175 232 299 335 418
#
# _framework density 25.712125
#
# number of rings (size 3 to 8) (size 9 to 14) (size 15 to 20)
#    0.000    1.500    3.750    2.250   10.500    1.000 
#    9.000    0.000    0.000    0.000    0.000    0.000 
#    0.000    0.000    0.000    0.000    0.000    0.000 
#
# Total GULP energy -89471.414108 kJ/mol
# GULP energy per Si atom -5591.963382 kJ/mol
# Density = 2.565360 g / cm^3
# Si number density = 25.712125 Si / 1000 Ang^3
#
#
#
# Elastic Constant Matrix: (Units=GPa)
#
#
# Indices 1 2 3 4 5 6 
#
# 1 65.4069 8.5058 34.3167 0.0000 1.2053 0.0000
# 2 8.5058 98.4816 37.0799 0.0000 -25.1006 0.0000
# 3 34.3167 37.0799 83.8333 0.0000 -34.2658 0.0000
# 4 0.0000 0.0000 0.0000 41.5787 0.0000 -16.1806
# 5 1.2053 -25.1006 -34.2658 0.0000 44.6613 0.0000
# 6 0.0000 0.0000 0.0000 -16.1806 0.0000 33.1122
#
#
#
# Elastic Compliance Matrix: (Units=1/GPa)
#
#
# Indices 1 2 3 4 5 6 
#
# 1 0.022855 0.000502 -0.014153 0.000000 -0.011193 0.000000
# 2 0.000502 0.012693 -0.004238 0.000000 0.003868 0.000000
# 3 -0.014153 -0.004238 0.027359 0.000000 0.018990 0.000000
# 4 0.000000 0.000000 0.000000 0.029698 0.000000 0.014512
# 5 -0.011193 0.003868 0.018990 0.000000 0.039437 0.000000
# 6 0.000000 0.000000 0.000000 0.014512 0.000000 0.037292
#
#
# Mechanical properties :
#
#
# Convention : Reuss Voigt Hill
#
# Bulk Modulus (GPa) = 36.86259 45.28074 41.07167
# Shear Modulus (GPa) = 23.34756 35.05841 29.20299
#
# Velocity S-wave (km/s) = 3.01663 3.69656 3.37377
# Velocity P-wave (km/s) = 5.14793 5.98902 5.58433
#
# Compressibility (1/GPa) = 0.02712777
#
# Stress axis : x y z
#
# Youngs Moduli (GPa) = 43.75332 78.78653 36.55161
#
# Poissons Ratio (x) = -0.03954 0.51731
# Poissons Ratio (y) = -0.02196 0.15492
# Poissons Ratio (z) = 0.61923 0.33393
#
# Static dielectric constant tensor:
#      x y z
#    x 2.087720 0.000000 0.056470 
#    y 0.000000 2.048770 0.000000 
#    z 0.056470 0.000000 2.007870 
# 
# From -- ./inp_files/34599.got.cif
#   From: 2010.05.17/outbox.cif.g08.bks.cpg/sg9_18_cif.got.tgz:34599.got - 2010.06.03 20:04:27.
