data_PCOD9135598
_publ_section_title
;
Structure prediction by ZEFSAII (Michael W. Deem and Ramdas Pophale) SiO2 
 PCOD9135598
Probable space group: C C
;
_chemical_formula_sum "Si O2"
_cell_formula_units_Z 32
_cell_length_a 8.134426
_cell_length_b 15.978779
_cell_length_c 11.472857
_cell_angle_alpha 90.000000
_cell_angle_beta 126.813316
_cell_angle_gamma 90.000000
_cell_volume 1193.859998
_symmetry_space_group_name_H-M "C C"
_symmetry_group_IT_number 9
_symmetry_cell_setting 'monoclinic'
loop_
_space_group_symop_operation_xyz
x,y,z
x,-y,1/2+z
1/2+x,1/2+y,z
1/2+x,1/2-y,1/2+z
loop_
_atom_site_type_symbol
_atom_site_label
_atom_site_fract_x
_atom_site_fract_y
_atom_site_fract_z
Si Si1 0.682640 0.024337 0.385530
Si Si2 0.296975 0.904308 0.623655
Si Si3 0.479794 0.980751 0.000744
Si Si4 0.588455 0.509718 0.232550
Si Si5 0.215250 0.763581 0.154409
Si Si6 0.039517 0.167953 0.821975
Si Si7 0.461693 0.637009 0.365406
Si Si8 0.611005 0.851848 0.219051
O O1 0.502806 0.096932 0.291838
O O2 0.695129 0.998970 0.527141
O O3 0.880608 0.074996 0.429839
O O4 0.668814 0.938209 0.309334
O O5 0.104605 0.939646 0.616917
O O6 0.204934 0.833667 0.498357
O O7 0.390546 0.970892 0.572336
O O8 0.512191 0.886247 0.057371
O O9 0.332549 0.017305 0.836882
O O10 0.503204 0.427444 0.261540
O O11 0.591947 0.582458 0.331784
O O12 0.120913 0.790659 0.238323
O O13 0.273786 0.668297 0.205219
O O14 0.435334 0.804710 0.215496
O O15 0.072422 0.790112 0.985863
O O16 0.819375 0.197698 0.778029
#
# Coordination Sequence:
#
# PCOD9135598 Si02
#       8
#     4   4   4   4   4   4   4   4
#     4  10  21  39  73 104 137 194 245 307 366 440
#     4   9  20  36  64 109 139 172 240 307 367 428
#     4   9  17  36  63 100 137 171 236 304 359 416
#     4  10  20  41  71 101 142 186 242 311 357 443
#     4  12  29  50  71 106 157 197 247 312 369 451
#     4  11  23  41  72 105 143 185 248 310 368 438
#     4  12  27  50  70 106 153 203 243 303 383 439
#     4  11  21  41  70 103 134 188 243 300 373 427
#
# _framework density 26.803813000000002
#
# number of rings (size 3 to 8) (size 9 to 14) (size 15 to 20)
#    0.000    1.500    2.500    3.750    3.500    2.000 
#    4.500    1.250    0.000    0.000    0.000    0.000 
#    0.000    0.000    0.000    0.000    0.000    0.000 
#
# Total GULP energy -89122.507465 kJ/mol
# GULP energy per Si atom -5570.156717 kJ/mol
# Density = 2.674281 g / cm^3
# Si number density = 26.803813 Si / 1000 Ang^3
#
#
#
# Elastic Constant Matrix: (Units=GPa)
#
#
# Indices 1 2 3 4 5 6 
#
# 1 143.2257 14.7720 15.7932 0.0000 -37.9051 0.0000
# 2 14.7720 34.5638 23.2051 0.0000 -9.5019 0.0000
# 3 15.7932 23.2051 86.4409 0.0000 -5.4929 0.0000
# 4 0.0000 0.0000 0.0000 39.2226 0.0000 7.9833
# 5 -37.9051 -9.5019 -5.4929 0.0000 37.2392 0.0000
# 6 0.0000 0.0000 0.0000 7.9833 0.0000 44.4248
#
#
#
# Elastic Compliance Matrix: (Units=1/GPa)
#
#
# Indices 1 2 3 4 5 6 
#
# 1 0.009691 -0.000912 -0.000922 0.000000 0.009495 0.000000
# 2 -0.000912 0.037697 -0.009490 0.000000 0.007291 0.000000
# 3 -0.000922 -0.009490 0.014204 0.000000 -0.001265 0.000000
# 4 0.000000 0.000000 0.000000 0.026463 0.000000 -0.004756
# 5 0.009495 0.007291 -0.001265 0.000000 0.038192 0.000000
# 6 0.000000 0.000000 0.000000 -0.004756 0.000000 0.023365
#
#
# Mechanical properties :
#
#
# Convention : Reuss Voigt Hill
#
# Bulk Modulus (GPa) = 25.67816 41.30791 33.49304
# Shear Modulus (GPa) = 26.99165 38.20797 32.59981
#
# Velocity S-wave (km/s) = 3.17678 3.77963 3.49124
# Velocity P-wave (km/s) = 4.80175 5.87300 5.36418
#
# Compressibility (1/GPa) = 0.03894360
#
# Stress axis : x y z
#
# Youngs Moduli (GPa) = 103.19175 26.52704 70.40120
#
# Poissons Ratio (x) = 0.02420 0.06493
# Poissons Ratio (y) = 0.09412 0.66810
# Poissons Ratio (z) = 0.09518 0.25174
#
# Static dielectric constant tensor:
#      x y z
#    x 2.313600 0.000000 0.057820 
#    y 0.000000 1.995090 0.000000 
#    z 0.057820 0.000000 2.458020 
# 
# From -- ./inp_files/15188.got.cif
#   From: 2010.05.17/outbox.cif.g08.bks.cpg/sg9_8_cif.got.tgz:15188.got - 2010.06.03 20:04:27.
