data_PCOD9135342
_publ_section_title
;
Structure prediction by ZEFSAII (Michael W. Deem and Ramdas Pophale) SiO2 
 PCOD9135342
Probable space group: C C
;
_chemical_formula_sum "Si O2"
_cell_formula_units_Z 32
_cell_length_a 9.168810
_cell_length_b 13.462914
_cell_length_c 14.273222
_cell_angle_alpha 90.000000
_cell_angle_beta 53.096266
_cell_angle_gamma 90.000000
_cell_volume 1408.872129
_symmetry_space_group_name_H-M "C C"
_symmetry_group_IT_number 9
_symmetry_cell_setting 'monoclinic'
loop_
_space_group_symop_operation_xyz
x,y,z
x,-y,1/2+z
1/2+x,1/2+y,z
1/2+x,1/2-y,1/2+z
loop_
_atom_site_type_symbol
_atom_site_label
_atom_site_fract_x
_atom_site_fract_y
_atom_site_fract_z
Si Si1 0.585900 0.922362 0.897390
Si Si2 0.237487 0.108482 0.652964
Si Si3 0.088062 0.694130 0.745947
Si Si4 0.182719 0.376239 0.402310
Si Si5 0.291435 0.687103 0.053170
Si Si6 0.516517 0.978144 0.720706
Si Si7 0.278519 0.101144 0.142710
Si Si8 0.687320 0.294671 0.370834
O O1 0.481048 0.962531 0.845409
O O2 0.670862 0.817417 0.839544
O O3 0.725249 0.007138 0.875404
O O4 0.446774 0.903579 0.036224
O O5 0.188374 0.211235 0.620093
O O6 0.207168 0.133565 0.773521
O O7 0.169575 0.998275 0.653083
O O8 0.203349 0.672572 0.794222
O O9 0.083691 0.592869 0.686025
O O10 0.161263 0.799076 0.681418
O O11 0.874653 0.702533 0.854449
O O12 0.292094 0.321183 0.440292
O O13 0.969146 0.378455 0.515176
O O14 0.503519 0.685276 0.999111
O O15 0.185666 0.592269 0.130546
O O16 0.355809 0.935226 0.715963
#
# Coordination Sequence:
#
# PCOD9135342 Si02
#       8
#     4   4   4   4   4   4   4   4
#     4   9  20  38  66  88 133 172 220 280 324 395
#     4  10  20  39  64  95 126 175 218 274 336 399
#     4  11  24  41  68  98 139 171 226 285 333 406
#     4   9  22  43  63  98 125 176 222 273 335 399
#     4  10  22  39  74  93 131 177 224 275 340 415
#     4  10  20  44  67  94 132 180 224 281 335 397
#     4  10  22  41  66  92 136 176 221 281 340 395
#     4  11  22  39  64 102 132 177 217 277 343 398
#
# _framework density 22.713204000000001
#
# number of rings (size 3 to 8) (size 9 to 14) (size 15 to 20)
#    0.000    2.000    2.500    0.000    3.500    3.000 
#    2.250    2.500   13.750    0.000    0.000    0.000 
#    0.000    0.000    0.000    0.000    0.000    0.000 
#
# Total GULP energy -89167.009117 kJ/mol
# GULP energy per Si atom -5572.938070 kJ/mol
# Density = 2.266151 g / cm^3
# Si number density = 22.713204 Si / 1000 Ang^3
#
#
#
# Elastic Constant Matrix: (Units=GPa)
#
#
# Indices 1 2 3 4 5 6 
#
# 1 51.2316 27.9999 22.8513 0.0000 -3.9965 0.0000
# 2 27.9999 197.6336 25.0427 0.0000 -15.7124 0.0000
# 3 22.8513 25.0427 51.9897 0.0000 -3.4439 0.0000
# 4 0.0000 0.0000 0.0000 27.8525 0.0000 0.4772
# 5 -3.9965 -15.7124 -3.4439 0.0000 39.4134 0.0000
# 6 0.0000 0.0000 0.0000 0.4772 0.0000 14.1600
#
#
#
# Elastic Compliance Matrix: (Units=1/GPa)
#
#
# Indices 1 2 3 4 5 6 
#
# 1 0.025256 -0.002253 -0.009963 0.000000 0.000792 0.000000
# 2 -0.002253 0.005740 -0.001648 0.000000 0.001916 0.000000
# 3 -0.009963 -0.001648 0.024439 0.000000 0.000468 0.000000
# 4 0.000000 0.000000 0.000000 0.035924 0.000000 -0.001211
# 5 0.000792 0.001916 0.000468 0.000000 0.026257 0.000000
# 6 0.000000 0.000000 0.000000 -0.001211 0.000000 0.070662
#
#
# Mechanical properties :
#
#
# Convention : Reuss Voigt Hill
#
# Bulk Modulus (GPa) = 36.09197 50.29364 43.19280
# Shear Modulus (GPa) = 22.19833 31.28258 26.74046
#
# Velocity S-wave (km/s) = 3.12962 3.71521 3.43492
# Velocity P-wave (km/s) = 5.38370 6.37139 5.89826
#
# Compressibility (1/GPa) = 0.02770700
#
# Stress axis : x y z
#
# Youngs Moduli (GPa) = 39.59409 174.21135 40.91883
#
# Poissons Ratio (x) = 0.39245 0.40769
# Poissons Ratio (y) = 0.08919 0.06743
# Poissons Ratio (z) = 0.39449 0.28708
#
# Static dielectric constant tensor:
#      x y z
#    x 1.884420 0.000000 0.029090 
#    y 0.000000 1.903830 0.000000 
#    z 0.029090 0.000000 1.847560 
# 
# From -- ./inp_files/23369.got.cif
#   From: 2010.05.17/outbox.cif.g08.bks.cpg/sg9_12_cif.got.tgz:23369.got - 2010.06.03 20:04:27.
