data_PCOD9135065
_publ_section_title
;
Structure prediction by ZEFSAII (Michael W. Deem and Ramdas Pophale) SiO2 
 PCOD9135065
Probable space group: C C
;
_chemical_formula_sum "Si O2"
_cell_formula_units_Z 32
_cell_length_a 12.886659
_cell_length_b 12.749762
_cell_length_c 21.990992
_cell_angle_alpha 90.000000
_cell_angle_beta 150.578017
_cell_angle_gamma 90.000000
_cell_volume 1774.921593
_symmetry_space_group_name_H-M "C C"
_symmetry_group_IT_number 9
_symmetry_cell_setting 'monoclinic'
loop_
_space_group_symop_operation_xyz
x,y,z
x,-y,1/2+z
1/2+x,1/2+y,z
1/2+x,1/2-y,1/2+z
loop_
_atom_site_type_symbol
_atom_site_label
_atom_site_fract_x
_atom_site_fract_y
_atom_site_fract_z
Si Si1 0.659340 0.628750 0.148040
Si Si2 0.701130 0.551267 0.893231
Si Si3 0.545817 0.630233 0.406536
Si Si4 0.590008 0.953068 0.662858
Si Si5 0.197773 0.304045 0.393451
Si Si6 0.353343 0.953441 0.159136
Si Si7 0.850541 0.379091 0.879136
Si Si8 0.250425 0.636384 0.652385
O O1 0.755018 0.542590 0.151720
O O2 0.760577 0.619540 0.266090
O O3 0.714570 0.746033 0.155329
O O4 0.404318 0.628416 0.015870
O O5 0.622764 0.465619 0.902723
O O6 0.772671 0.483921 0.872482
O O7 0.498575 0.618425 0.772915
O O8 0.905015 0.602473 0.029229
O O9 0.293953 0.617614 0.279716
O O10 0.625045 0.734517 0.413640
O O11 0.664616 0.611036 0.530392
O O12 0.490553 0.994712 0.674678
O O13 0.661399 0.053772 0.657755
O O14 0.262399 0.220921 0.372889
O O15 0.008712 0.376469 0.274261
O O16 0.103739 0.378107 0.018123
#
# Coordination Sequence:
#
# PCOD9135065 Si02
#       8
#     4   4   4   4   4   4   4   4
#     4  11  22  34  53  81 111 143 177 219 270 320
#     4   8  16  31  55  80 104 138 182 224 263 310
#     4   9  18  35  59  80 103 142 185 221 262 318
#     4   9  17  34  57  81 109 142 181 222 263 312
#     4  10  20  37  57  77 103 145 186 220 263 321
#     4  11  21  34  53  82 111 138 175 226 271 314
#     4   9  18  33  53  77 104 137 183 224 261 315
#     4   9  18  34  55  78 105 145 183 216 263 320
#
# _framework density 18.028966
#
# number of rings (size 3 to 8) (size 9 to 14) (size 15 to 20)
#    0.000    2.500    0.000    4.500    0.000    6.000 
#    0.000    6.250    0.000    0.000    0.000    0.000 
#    0.000    0.000    0.000    0.000    0.000    0.000 
#
# Total GULP energy -89198.540595 kJ/mol
# GULP energy per Si atom -5574.908787 kJ/mol
# Density = 1.798793 g / cm^3
# Si number density = 18.028966 Si / 1000 Ang^3
#
#
#
# Elastic Constant Matrix: (Units=GPa)
#
#
# Indices 1 2 3 4 5 6 
#
# 1 66.0141 27.1354 71.2476 0.0001 -8.9216 0.0001
# 2 27.1354 48.2819 59.9808 0.0001 1.3056 0.0000
# 3 71.2476 59.9808 212.8074 0.0006 2.3637 0.0001
# 4 0.0001 0.0001 0.0006 23.2182 0.0002 1.9169
# 5 -8.9216 1.3056 2.3637 0.0002 34.4213 0.0001
# 6 0.0001 0.0000 0.0001 1.9169 0.0001 14.0566
#
#
#
# Elastic Compliance Matrix: (Units=1/GPa)
#
#
# Indices 1 2 3 4 5 6 
#
# 1 0.026491 -0.006110 -0.007231 0.000000 0.007594 0.000000
# 2 -0.006110 0.033293 -0.007312 0.000000 -0.002345 0.000000
# 3 -0.007231 -0.007312 0.009206 0.000000 -0.002229 0.000000
# 4 0.000000 0.000000 0.000000 0.043560 0.000000 -0.005940
# 5 0.007594 -0.002345 -0.002229 0.000000 0.031262 0.000000
# 6 0.000000 0.000000 0.000000 -0.005940 0.000000 0.071951
#
#
# Mechanical properties :
#
#
# Convention : Reuss Voigt Hill
#
# Bulk Modulus (GPa) = 36.12406 71.53678 53.83042
# Shear Modulus (GPa) = 18.77598 25.58853 22.18225
#
# Velocity S-wave (km/s) = 3.23063 3.77145 3.51146
# Velocity P-wave (km/s) = 5.83062 7.66355 6.80904
#
# Compressibility (1/GPa) = 0.02768238
#
# Stress axis : x y z
#
# Youngs Moduli (GPa) = 37.74889 30.03631 108.62765
#
# Poissons Ratio (x) = 0.18353 0.78551
# Poissons Ratio (y) = 0.23066 0.79429
# Poissons Ratio (z) = 0.27297 0.21963
#
# Static dielectric constant tensor:
#      x y z
#    x 1.619390 0.000000 0.015210 
#    y 0.000000 1.594590 0.000000 
#    z 0.015210 0.000000 1.651360 
# 
# From -- ./inp_files/16504.got.cif
#   From: 2010.05.17/outbox.cif.g08.bks.cpg/sg9_9_cif.got.tgz:16504.got - 2010.06.03 20:04:27.
