data_PCOD9135752
_publ_section_title
;
Structure prediction by ZEFSAII (Michael W. Deem and Ramdas Pophale) SiO2 
 PCOD9135752
Probable space group: C C
;
_chemical_formula_sum "Si O2"
_cell_formula_units_Z 28
_cell_length_a 11.128206
_cell_length_b 11.182682
_cell_length_c 17.578683
_cell_angle_alpha 90.000000
_cell_angle_beta 30.318387
_cell_angle_gamma 90.000000
_cell_volume 1104.284135
_symmetry_space_group_name_H-M "C C"
_symmetry_group_IT_number 9
_symmetry_cell_setting 'monoclinic'
loop_
_space_group_symop_operation_xyz
x,y,z
x,-y,1/2+z
1/2+x,1/2+y,z
1/2+x,1/2-y,1/2+z
loop_
_atom_site_type_symbol
_atom_site_label
_atom_site_fract_x
_atom_site_fract_y
_atom_site_fract_z
Si Si1 0.313210 0.898673 0.260500
Si Si2 0.079129 0.923632 0.789478
Si Si3 0.977835 0.190933 0.649380
Si Si4 0.386703 0.315658 0.356028
Si Si5 0.078761 0.334182 0.261880
Si Si6 0.905410 0.787898 0.594162
Si Si7 0.692394 0.440052 0.561073
O O1 0.226478 0.030507 0.282409
O O2 0.514886 0.873368 0.212328
O O3 0.421563 0.844366 0.123052
O O4 0.082546 0.828708 0.427628
O O5 0.939125 0.044996 0.845627
O O6 0.966441 0.791733 0.854645
O O7 0.214411 0.898931 0.635568
O O8 0.177156 0.287000 0.527359
O O9 0.803521 0.208101 0.815308
O O10 0.845959 0.167597 0.643046
O O11 0.117313 0.075580 0.600394
O O12 0.619534 0.226382 0.235349
O O13 0.944606 0.432289 0.384227
O O14 0.997590 0.870782 0.614414
#
# Coordination Sequence:
#
# PCOD9135752 Si02
#       7
#     4   4   4   4   4   4   4
#     4  10  22  43  78 115 147 207 254 319 393 464
#     4  10  22  48  73 109 148 197 259 320 388 455
#     4  11  26  44  71 105 150 198 256 317 383 459
#     4  10  23  45  70 109 145 201 257 313 385 460
#     4  11  25  47  73 111 155 197 265 316 388 465
#     4  10  20  43  73 106 149 198 259 309 385 465
#     4  10  24  46  72 103 150 210 250 326 386 454
#
# _framework density 25.355792000000001
#
# number of rings (size 3 to 8) (size 9 to 14) (size 15 to 20)
#    0.000    1.714    1.429    1.714    4.000    2.286 
#   10.286    1.429    0.000    0.000    0.000    0.000 
#    0.000    0.000    0.000    0.000    0.000    0.000 
#
# Total GULP energy -77960.980204 kJ/mol
# GULP energy per Si atom -5568.641443 kJ/mol
# Density = 2.529808 g / cm^3
# Si number density = 25.355792 Si / 1000 Ang^3
#
#
#
# Elastic Constant Matrix: (Units=GPa)
#
#
# Indices 1 2 3 4 5 6 
#
# 1 134.0457 10.1272 14.7214 0.0002 8.3687 -0.0001
# 2 10.1272 53.6126 -2.6859 -0.0017 15.4397 0.0006
# 3 14.7214 -2.6859 53.1447 -0.0078 7.8354 0.0016
# 4 0.0002 -0.0017 -0.0078 26.5825 0.0012 -0.2892
# 5 8.3687 15.4397 7.8354 0.0012 19.1151 0.0000
# 6 -0.0001 0.0006 0.0016 -0.2892 0.0000 45.0660
#
#
#
# Elastic Compliance Matrix: (Units=1/GPa)
#
#
# Indices 1 2 3 4 5 6 
#
# 1 0.007868 -0.001077 -0.001974 -0.000001 -0.001766 0.000000
# 2 -0.001077 0.025455 0.004839 0.000004 -0.022073 0.000000
# 3 -0.001974 0.004839 0.021347 0.000007 -0.011795 -0.000001
# 4 -0.000001 0.000004 0.000007 0.037621 -0.000008 0.000241
# 5 -0.001766 -0.022073 -0.011795 -0.000008 0.075751 0.000001
# 6 0.000000 0.000000 -0.000001 0.000241 0.000001 0.022191
#
#
# Mechanical properties :
#
#
# Convention : Reuss Voigt Hill
#
# Bulk Modulus (GPa) = 17.16809 31.68094 24.42451
# Shear Modulus (GPa) = 24.26336 32.72872 28.49604
#
# Velocity S-wave (km/s) = 3.09676 3.59664 3.35602
# Velocity P-wave (km/s) = 4.42404 5.45614 4.96697
#
# Compressibility (1/GPa) = 0.05824761
#
# Stress axis : x y z
#
# Youngs Moduli (GPa) = 127.08905 39.28546 46.84549
#
# Poissons Ratio (x) = 0.04229 0.09245
# Poissons Ratio (y) = 0.13681 -0.22668
# Poissons Ratio (z) = 0.25082 -0.19010
#
# Static dielectric constant tensor:
#      x y z
#    x 2.118990 0.000000 -0.015440 
#    y 0.000000 2.077120 0.000000 
#    z -0.015440 0.000000 2.021410 
# 
# From -- ./inp_files/30041.got.cif
#   From: 2010.05.17/outbox.cif.g08.bks.cpg/sg9_16_cif.got.tgz:30041.got - 2010.06.03 20:04:27.
