data_PCOD9135129
_publ_section_title
;
Structure prediction by ZEFSAII (Michael W. Deem and Ramdas Pophale) SiO2 
 PCOD9135129
Probable space group: C C
;
_chemical_formula_sum "Si O2"
_cell_formula_units_Z 32
_cell_length_a 14.400128
_cell_length_b 19.816474
_cell_length_c 9.099458
_cell_angle_alpha 90.000000
_cell_angle_beta 41.518430
_cell_angle_gamma 90.000000
_cell_volume 1721.197388
_symmetry_space_group_name_H-M "C C"
_symmetry_group_IT_number 9
_symmetry_cell_setting 'monoclinic'
loop_
_space_group_symop_operation_xyz
x,y,z
x,-y,1/2+z
1/2+x,1/2+y,z
1/2+x,1/2-y,1/2+z
loop_
_atom_site_type_symbol
_atom_site_label
_atom_site_fract_x
_atom_site_fract_y
_atom_site_fract_z
Si Si1 0.548300 0.043018 0.863560
Si Si2 0.656605 0.236294 0.652278
Si Si3 0.739327 0.869345 0.307823
Si Si4 0.503471 0.196278 0.275979
Si Si5 0.921994 0.452513 0.219498
Si Si6 0.310405 0.904464 0.838436
Si Si7 0.042735 0.168790 0.534421
Si Si8 0.416085 0.197696 0.710854
O O1 0.682370 0.062847 0.799085
O O2 0.545321 0.047214 0.694246
O O3 0.424722 0.093300 0.069615
O O4 0.492118 0.970675 0.981476
O O5 0.712182 0.184272 0.708978
O O6 0.603961 0.299400 0.811663
O O7 0.528916 0.209231 0.706124
O O8 0.784941 0.254490 0.394977
O O9 0.639414 0.845585 0.559951
O O10 0.898090 0.868270 0.170357
O O11 0.372666 0.150593 0.376282
O O12 0.488021 0.207349 0.467419
O O13 0.510092 0.267260 0.180043
O O14 0.822498 0.516850 0.373885
O O15 0.859557 0.378971 0.287861
O O16 0.160226 0.879596 0.964182
#
# Coordination Sequence:
#
# PCOD9135129 Si02
#       8
#     4   4   4   4   4   4   4   4
#     4   9  19  37  62  84 112 155 208 243 286 365
#     4  11  23  38  61  93 121 159 203 255 304 361
#     4  10  20  38  61  86 121 162 199 245 302 364
#     4  10  22  37  58  92 123 159 203 247 304 363
#     4  10  20  37  64  84 115 158 211 246 287 365
#     4   9  21  36  62  86 114 161 209 237 298 358
#     4  11  21  38  61  89 124 162 199 250 304 363
#     4  12  24  39  63  92 126 154 204 261 307 347
#
# _framework density 18.591709000000002
#
# number of rings (size 3 to 8) (size 9 to 14) (size 15 to 20)
#    0.750    1.000    2.500    3.000    5.250    0.000 
#    0.000    0.000    8.250    0.000    0.000    0.000 
#    0.000    0.000    0.000    0.000    0.000    0.000 
#
# Total GULP energy -89145.706107 kJ/mol
# GULP energy per Si atom -5571.606632 kJ/mol
# Density = 1.854939 g / cm^3
# Si number density = 18.591709 Si / 1000 Ang^3
#
#
#
# Elastic Constant Matrix: (Units=GPa)
#
#
# Indices 1 2 3 4 5 6 
#
# 1 98.8308 25.3177 35.3190 0.0000 -21.9996 0.0000
# 2 25.3177 69.1677 11.0735 0.0000 -10.8725 0.0000
# 3 35.3190 11.0735 59.1892 0.0000 5.4675 0.0000
# 4 0.0000 0.0000 0.0000 13.2153 0.0000 3.4428
# 5 -21.9996 -10.8725 5.4675 0.0000 42.5824 0.0000
# 6 0.0000 0.0000 0.0000 3.4428 0.0000 24.5031
#
#
#
# Elastic Compliance Matrix: (Units=1/GPa)
#
#
# Indices 1 2 3 4 5 6 
#
# 1 0.016532 -0.003001 -0.010142 0.000000 0.009077 0.000000
# 2 -0.003001 0.016235 -0.001504 0.000000 0.002788 0.000000
# 3 -0.010142 -0.001504 0.024033 0.000000 -0.008710 0.000000
# 4 0.000000 0.000000 0.000000 0.078545 0.000000 -0.011036
# 5 0.009077 0.002788 -0.008710 0.000000 0.030004 0.000000
# 6 0.000000 0.000000 0.000000 -0.011036 0.000000 0.042362
#
#
# Mechanical properties :
#
#
# Convention : Reuss Voigt Hill
#
# Bulk Modulus (GPa) = 36.35594 41.17868 38.76731
# Shear Modulus (GPa) = 20.31094 26.42533 23.36814
#
# Velocity S-wave (km/s) = 3.30884 3.77417 3.54914
# Velocity P-wave (km/s) = 5.84767 6.41791 6.13941
#
# Compressibility (1/GPa) = 0.02750583
#
# Stress axis : x y z
#
# Youngs Moduli (GPa) = 60.48902 61.59495 41.60987
#
# Poissons Ratio (x) = 0.18483 0.42200
# Poissons Ratio (y) = 0.18151 0.06260
# Poissons Ratio (z) = 0.61347 0.09266
#
# Static dielectric constant tensor:
#      x y z
#    x 1.622590 0.000000 0.019720 
#    y 0.000000 1.685360 0.000000 
#    z 0.019720 0.000000 1.627820 
# 
# From -- ./inp_files/8381.got.cif
#   From: 2010.05.17/outbox.cif.g08.bks.cpg/sg9_5_cif.got.tgz:8381.got - 2010.06.03 20:04:27.
