data_PCOD9135928
_publ_section_title
;
Structure prediction by ZEFSAII (Michael W. Deem and Ramdas Pophale) SiO2 
 PCOD9135928
Probable space group: C C
;
_chemical_formula_sum "Si O2"
_cell_formula_units_Z 32
_cell_length_a 7.296793
_cell_length_b 36.716228
_cell_length_c 5.177919
_cell_angle_alpha 90.000000
_cell_angle_beta 101.353744
_cell_angle_gamma 90.000000
_cell_volume 1360.072682
_symmetry_space_group_name_H-M "C C"
_symmetry_group_IT_number 9
_symmetry_cell_setting 'monoclinic'
loop_
_space_group_symop_operation_xyz
x,y,z
x,-y,1/2+z
1/2+x,1/2+y,z
1/2+x,1/2-y,1/2+z
loop_
_atom_site_type_symbol
_atom_site_label
_atom_site_fract_x
_atom_site_fract_y
_atom_site_fract_z
Si Si1 0.644140 0.790266 0.695670
Si Si2 0.196064 0.020706 0.524359
Si Si3 0.645868 0.979949 0.168500
Si Si4 0.135327 0.673611 0.687241
Si Si5 0.029480 0.099469 0.445085
Si Si6 0.689558 0.322938 0.003939
Si Si7 0.294005 0.402103 0.380849
Si Si8 0.199362 0.214155 0.003153
O O1 0.713756 0.798250 0.425040
O O2 0.420501 0.792300 0.598995
O O3 0.679749 0.752815 0.856720
O O4 0.713174 0.820364 0.920546
O O5 0.420884 0.018546 0.594828
O O6 0.141939 0.061996 0.450969
O O7 0.127473 0.993587 0.281598
O O8 0.699917 0.939927 0.275162
O O9 0.712731 0.008720 0.403079
O O10 0.167210 0.633221 0.799176
O O11 0.913737 0.680098 0.593735
O O12 0.140484 0.136256 0.410184
O O13 0.962276 0.102076 0.722135
O O14 0.861787 0.097015 0.193434
O O15 0.622160 0.294013 0.768132
O O16 0.617469 0.313674 0.269711
#
# Coordination Sequence:
#
# PCOD9135928 Si02
#       8
#     4   4   4   4   4   4   4   4
#     4  10  21  37  60  87 114 150 193 241 293 346
#     4  10  22  41  64  88 118 160 202 239 290 357
#     4  10  22  41  64  88 118 160 202 239 290 357
#     4  10  22  41  60  82 117 158 197 235 287 356
#     4  12  25  39  60  91 122 155 196 248 302 343
#     4  10  22  41  60  82 117 158 197 235 287 356
#     4  12  25  39  60  91 122 155 196 248 302 343
#     4  10  21  37  60  87 114 150 193 241 293 346
#
# _framework density 23.528153
#
# number of rings (size 3 to 8) (size 9 to 14) (size 15 to 20)
#    0.000    1.500    0.000    4.500    0.000    6.000 
#    0.000   10.000    0.000    0.000    0.000    0.000 
#    0.000    0.000    0.000    0.000    0.000    0.000 
#
# Total GULP energy -89519.825144 kJ/mol
# GULP energy per Si atom -5594.989071 kJ/mol
# Density = 2.347460 g / cm^3
# Si number density = 23.528153 Si / 1000 Ang^3
#
#
#
# Elastic Constant Matrix: (Units=GPa)
#
#
# Indices 1 2 3 4 5 6 
#
# 1 33.1153 -11.0015 26.5832 0.0000 5.1739 0.0000
# 2 -11.0015 148.0134 76.0254 0.0000 15.8766 0.0000
# 3 26.5832 76.0254 147.5889 0.0000 3.8407 0.0000
# 4 0.0000 0.0000 0.0000 49.7411 0.0000 6.2361
# 5 5.1739 15.8766 3.8407 0.0000 34.3069 0.0000
# 6 0.0000 0.0000 0.0000 6.2361 0.0000 25.7034
#
#
#
# Elastic Compliance Matrix: (Units=1/GPa)
#
#
# Indices 1 2 3 4 5 6 
#
# 1 0.047785 0.012277 -0.014638 0.000000 -0.011249 0.000000
# 2 0.012277 0.012844 -0.008650 0.000000 -0.006827 0.000000
# 3 -0.014638 -0.008650 0.013746 0.000000 0.004672 0.000000
# 4 0.000000 0.000000 0.000000 0.020735 0.000000 -0.005031
# 5 -0.011249 -0.006827 0.004672 0.000000 0.033482 0.000000
# 6 0.000000 0.000000 0.000000 -0.005031 0.000000 0.040126
#
#
# Mechanical properties :
#
#
# Convention : Reuss Voigt Hill
#
# Bulk Modulus (GPa) = 19.10109 56.88133 37.99121
# Shear Modulus (GPa) = 24.01659 37.75766 30.88713
#
# Velocity S-wave (km/s) = 3.19840 4.01032 3.62715
# Velocity P-wave (km/s) = 4.66644 6.75810 5.80722
#
# Compressibility (1/GPa) = 0.05235304
#
# Stress axis : x y z
#
# Youngs Moduli (GPa) = 20.92723 77.85858 72.74738
#
# Poissons Ratio (x) = -0.95588 1.06489
# Poissons Ratio (y) = -0.25693 0.62924
# Poissons Ratio (z) = 0.30634 0.67345
#
# Static dielectric constant tensor:
#      x y z
#    x 1.906070 0.000000 -0.025690 
#    y 0.000000 1.868070 0.000000 
#    z -0.025690 0.000000 1.875980 
# 
# From -- ./inp_files/1241.got.cif
#   From: 2010.05.17/outbox.cif.g08.bks.cpg/sg9_1_cif.got.tgz:1241.got - 2010.06.03 20:04:27.
