data_PCOD9135893
_publ_section_title
;
Structure prediction by ZEFSAII (Michael W. Deem and Ramdas Pophale) SiO2 
 PCOD9135893
Probable space group: C C
;
_chemical_formula_sum "Si O2"
_cell_formula_units_Z 32
_cell_length_a 15.707925
_cell_length_b 16.608038
_cell_length_c 11.347004
_cell_angle_alpha 90.000000
_cell_angle_beta 31.037455
_cell_angle_gamma 90.000000
_cell_volume 1526.264626
_symmetry_space_group_name_H-M "C C"
_symmetry_group_IT_number 9
_symmetry_cell_setting 'monoclinic'
loop_
_space_group_symop_operation_xyz
x,y,z
x,-y,1/2+z
1/2+x,1/2+y,z
1/2+x,1/2-y,1/2+z
loop_
_atom_site_type_symbol
_atom_site_label
_atom_site_fract_x
_atom_site_fract_y
_atom_site_fract_z
Si Si1 0.481510 0.793190 0.948880
Si Si2 0.819627 0.706168 0.272395
Si Si3 0.692610 0.009048 0.392635
Si Si4 0.669551 0.716551 0.935073
Si Si5 0.158581 0.441235 0.667313
Si Si6 0.843126 0.142745 0.359544
Si Si7 0.182470 0.349672 0.294418
Si Si8 0.467275 0.661419 0.778725
O O1 0.582730 0.777890 0.947314
O O2 0.571388 0.854741 0.757846
O O3 0.465045 0.706737 0.907236
O O4 0.305581 0.827541 0.195335
O O5 0.756190 0.762798 0.240787
O O6 0.658891 0.657112 0.509385
O O7 0.880712 0.770983 0.297794
O O8 0.983759 0.656488 0.042910
O O9 0.596166 0.995346 0.631747
O O10 0.752171 0.918114 0.298595
O O11 0.623346 0.032889 0.345248
O O12 0.817761 0.077775 0.286643
O O13 0.763121 0.772801 0.915359
O O14 0.534952 0.659451 0.151201
O O15 0.354863 0.418835 0.422850
O O16 0.747728 0.121947 0.591032
#
# Coordination Sequence:
#
# PCOD9135893 Si02
#       8
#     4   4   4   4   4   4   4   4
#     4  11  18  35  63  94 119 152 207 264 306 359
#     4  10  21  36  64  96 117 157 212 262 304 361
#     4  12  24  40  64  88 126 174 200 244 318 378
#     4  10  21  36  64  96 117 157 212 262 304 361
#     4  12  22  40  64  86 130 164 204 252 312 378
#     4  11  22  41  65  89 127 165 206 255 313 371
#     4  11  22  41  65  89 127 165 206 255 313 371
#     4  11  18  35  63  94 119 152 207 264 306 359
#
# _framework density 20.966221000000001
#
# number of rings (size 3 to 8) (size 9 to 14) (size 15 to 20)
#    0.000    1.000    6.250    2.250    0.000    0.000 
#    0.000    1.250    5.500    0.000    0.000    0.000 
#    0.000    0.000    0.000    0.000    0.000    0.000 
#
# Total GULP energy -89124.097042 kJ/mol
# GULP energy per Si atom -5570.256065 kJ/mol
# Density = 2.091850 g / cm^3
# Si number density = 20.966221 Si / 1000 Ang^3
#
#
#
# Elastic Constant Matrix: (Units=GPa)
#
#
# Indices 1 2 3 4 5 6 
#
# 1 77.5763 6.3916 31.8363 -0.0005 19.5490 0.0004
# 2 6.3916 46.6103 23.6350 -0.0003 5.6637 0.0003
# 3 31.8363 23.6350 141.3163 -0.0005 -1.9640 0.0003
# 4 -0.0005 -0.0003 -0.0005 18.3400 0.0003 13.3243
# 5 19.5490 5.6637 -1.9640 0.0003 30.1511 -0.0003
# 6 0.0004 0.0003 0.0003 13.3243 -0.0003 30.5331
#
#
#
# Elastic Compliance Matrix: (Units=1/GPa)
#
#
# Indices 1 2 3 4 5 6 
#
# 1 0.017565 0.001233 -0.004329 0.000001 -0.011902 -0.000001
# 2 0.001233 0.024203 -0.004404 0.000001 -0.005632 -0.000001
# 3 -0.004329 -0.004404 0.008847 0.000000 0.004210 0.000000
# 4 0.000001 0.000001 0.000000 0.079838 -0.000002 -0.034840
# 5 -0.011902 -0.005632 0.004210 -0.000002 0.042215 0.000002
# 6 -0.000001 -0.000001 0.000000 -0.034840 0.000002 0.047955
#
#
# Mechanical properties :
#
#
# Convention : Reuss Voigt Hill
#
# Bulk Modulus (GPa) = 28.07862 43.24763 35.66312
# Shear Modulus (GPa) = 20.20256 29.38083 24.79170
#
# Velocity S-wave (km/s) = 3.10752 3.74751 3.44242
# Velocity P-wave (km/s) = 5.12806 6.27672 5.73124
#
# Compressibility (1/GPa) = 0.03561428
#
# Stress axis : x y z
#
# Youngs Moduli (GPa) = 56.93265 41.31725 113.03866
#
# Poissons Ratio (x) = -0.05092 0.48930
# Poissons Ratio (y) = -0.07017 0.49781
# Poissons Ratio (z) = 0.24644 0.18196
#
# Static dielectric constant tensor:
#      x y z
#    x 1.811470 0.000000 0.026520 
#    y 0.000000 1.795150 0.000000 
#    z 0.026520 0.000000 1.802490 
# 
# From -- ./inp_files/7895.got.cif
#   From: 2010.05.17/outbox.cif.g08.bks.cpg/sg9_4_cif.got.tgz:7895.got - 2010.06.03 20:04:27.
