data_PCOD9135612
_publ_section_title
;
Structure prediction by ZEFSAII (Michael W. Deem and Ramdas Pophale) SiO2 
 PCOD9135612
Probable space group: C C
;
_chemical_formula_sum "Si O2"
_cell_formula_units_Z 28
_cell_length_a 11.752658
_cell_length_b 9.531237
_cell_length_c 18.104827
_cell_angle_alpha 90.000000
_cell_angle_beta 32.847469
_cell_angle_gamma 90.000000
_cell_volume 1100.026052
_symmetry_space_group_name_H-M "C C"
_symmetry_group_IT_number 9
_symmetry_cell_setting 'monoclinic'
loop_
_space_group_symop_operation_xyz
x,y,z
x,-y,1/2+z
1/2+x,1/2+y,z
1/2+x,1/2-y,1/2+z
loop_
_atom_site_type_symbol
_atom_site_label
_atom_site_fract_x
_atom_site_fract_y
_atom_site_fract_z
Si Si1 0.472370 0.203088 0.993380
Si Si2 0.111829 0.446514 0.023523
Si Si3 0.854818 0.600271 0.286500
Si Si4 0.823761 0.225876 0.201652
Si Si5 0.496411 0.020844 0.366939
Si Si6 0.505355 0.650070 0.255412
Si Si7 0.662824 0.650003 0.645712
O O1 0.622061 0.336716 0.910873
O O2 0.576681 0.073583 0.984250
O O3 0.449376 0.996155 0.174631
O O4 0.229528 0.222580 0.150060
O O5 0.356428 0.414484 0.900636
O O6 0.971275 0.367924 0.413725
O O7 0.035387 0.286980 0.051701
O O8 0.888637 0.533200 0.347563
O O9 0.012890 0.733252 0.194254
O O10 0.736094 0.071767 0.231247
O O11 0.870632 0.222653 0.263826
O O12 0.674055 0.318813 0.227727
O O13 0.385754 0.135949 0.482058
O O14 0.577042 0.503926 0.178932
#
# Coordination Sequence:
#
# PCOD9135612 Si02
#       7
#     4   4   4   4   4   4   4
#     4  11  23  48  75 103 149 197 248 325 377 442
#     4  12  24  45  72 109 150 195 251 309 387 461
#     4  11  24  40  73 107 144 194 254 301 383 461
#     4  11  21  41  72 104 139 194 242 305 377 453
#     4  10  21  44  70 106 144 192 252 306 377 452
#     4  11  23  45  74 106 148 191 251 318 378 450
#     4  10  20  41  74  99 138 193 242 312 371 449
#
# _framework density 25.453942999999999
#
# number of rings (size 3 to 8) (size 9 to 14) (size 15 to 20)
#    0.000    1.143    5.714    0.857    2.000    1.143 
#   12.857    0.000    3.143    0.000    0.000    0.000 
#    0.000    0.000    0.000    0.000    0.000    0.000 
#
# Total GULP energy -78010.369333 kJ/mol
# GULP energy per Si atom -5572.169238 kJ/mol
# Density = 2.539601 g / cm^3
# Si number density = 25.453943 Si / 1000 Ang^3
#
#
#
# Elastic Constant Matrix: (Units=GPa)
#
#
# Indices 1 2 3 4 5 6 
#
# 1 96.9384 38.0277 58.5908 -0.0003 -11.4971 0.0001
# 2 38.0277 66.6051 46.1991 -0.0002 -0.4402 0.0001
# 3 58.5908 46.1991 138.2346 -0.0009 -12.2251 0.0003
# 4 -0.0003 -0.0002 -0.0009 43.4717 0.0001 6.2781
# 5 -11.4971 -0.4402 -12.2251 0.0001 36.8608 0.0000
# 6 0.0001 0.0001 0.0003 6.2781 0.0000 33.2148
#
#
#
# Elastic Compliance Matrix: (Units=1/GPa)
#
#
# Indices 1 2 3 4 5 6 
#
# 1 0.015670 -0.005889 -0.004376 0.000000 0.003366 0.000000
# 2 -0.005889 0.021901 -0.005113 0.000000 -0.003271 0.000000
# 3 -0.004376 -0.005113 0.010994 0.000000 0.002220 0.000000
# 4 0.000000 0.000000 0.000000 0.023649 0.000000 -0.004470
# 5 0.003366 -0.003271 0.002220 0.000000 0.028876 0.000000
# 6 0.000000 0.000000 0.000000 -0.004470 0.000000 0.030952
#
#
# Mechanical properties :
#
#
# Convention : Reuss Voigt Hill
#
# Bulk Modulus (GPa) = 56.15003 65.26813 60.70908
# Shear Modulus (GPa) = 29.63241 33.30682 31.46962
#
# Velocity S-wave (km/s) = 3.41568 3.62126 3.51997
# Velocity P-wave (km/s) = 6.13703 6.57130 6.35788
#
# Compressibility (1/GPa) = 0.01780943
#
# Stress axis : x y z
#
# Youngs Moduli (GPa) = 63.81545 45.66015 90.96032
#
# Poissons Ratio (x) = 0.26891 0.39803
# Poissons Ratio (y) = 0.37583 0.46504
# Poissons Ratio (z) = 0.27925 0.23344
#
# Static dielectric constant tensor:
#      x y z
#    x 2.092000 0.000000 -0.013660 
#    y 0.000000 1.999500 0.000000 
#    z -0.013660 0.000000 2.051640 
# 
# From -- ./inp_files/30045.got.cif
#   From: 2010.05.17/outbox.cif.g08.bks.cpg/sg9_16_cif.got.tgz:30045.got - 2010.06.03 20:04:27.
