data_PCOD9135428
_publ_section_title
;
Structure prediction by ZEFSAII (Michael W. Deem and Ramdas Pophale) SiO2 
 PCOD9135428
Probable space group: C C
;
_chemical_formula_sum "Si O2"
_cell_formula_units_Z 32
_cell_length_a 9.151899
_cell_length_b 31.789560
_cell_length_c 5.547248
_cell_angle_alpha 90.000000
_cell_angle_beta 127.385948
_cell_angle_gamma 90.000000
_cell_volume 1282.336371
_symmetry_space_group_name_H-M "C C"
_symmetry_group_IT_number 9
_symmetry_cell_setting 'monoclinic'
loop_
_space_group_symop_operation_xyz
x,y,z
x,-y,1/2+z
1/2+x,1/2+y,z
1/2+x,1/2-y,1/2+z
loop_
_atom_site_type_symbol
_atom_site_label
_atom_site_fract_x
_atom_site_fract_y
_atom_site_fract_z
Si Si1 0.759530 0.160485 0.163290
Si Si2 0.482776 0.512508 0.871909
Si Si3 0.040530 0.895586 0.217413
Si Si4 0.292373 0.271349 0.063019
Si Si5 0.061203 0.518551 0.031111
Si Si6 0.082081 0.175679 0.122682
Si Si7 0.440273 0.885884 0.459159
Si Si8 0.447683 0.811688 0.851024
O O1 0.722838 0.204237 0.259727
O O2 0.855628 0.125820 0.434173
O O3 0.931345 0.169879 0.170150
O O4 0.570787 0.138020 0.892999
O O5 0.562911 0.486004 0.724976
O O6 0.495112 0.558480 0.767844
O O7 0.277090 0.494320 0.716679
O O8 0.219090 0.891929 0.220673
O O9 0.099544 0.868138 0.503866
O O10 0.139881 0.288923 0.101526
O O11 0.482899 0.292540 0.337786
O O12 0.343873 0.223217 0.078092
O O13 0.987819 0.493042 0.190657
O O14 0.020725 0.567026 0.051700
O O15 0.289007 0.187867 0.395861
O O16 0.471081 0.854831 0.723225
#
# Coordination Sequence:
#
# PCOD9135428 Si02
#       8
#     4   4   4   4   4   4   4   4
#     4  10  22  41  65  94 128 174 221 280 343 409
#     4  10  22  39  68  98 134 186 229 288 351 421
#     4  10  23  41  65  93 133 173 222 281 345 412
#     4  10  20  40  63  86 132 175 216 276 338 403
#     4  10  22  42  68  98 138 183 233 288 355 425
#     4  10  22  39  64  94 125 172 222 278 339 408
#     4  10  23  43  64 101 132 176 226 283 350 412
#     4  10  20  41  65  90 136 173 223 282 337 414
#
# _framework density 24.954450999999999
#
# number of rings (size 3 to 8) (size 9 to 14) (size 15 to 20)
#    0.000    2.000    1.250    1.500    5.250    2.000 
#    9.000    0.000    0.000    0.000    0.000    0.000 
#    0.000    0.000    0.000    0.000    0.000    0.000 
#
# Total GULP energy -89132.592830 kJ/mol
# GULP energy per Si atom -5570.787052 kJ/mol
# Density = 2.489765 g / cm^3
# Si number density = 24.954451 Si / 1000 Ang^3
#
#
#
# Elastic Constant Matrix: (Units=GPa)
#
#
# Indices 1 2 3 4 5 6 
#
# 1 176.3994 51.7319 56.3060 0.0000 24.2595 0.0000
# 2 51.7319 112.4709 12.7214 0.0000 0.5655 0.0000
# 3 56.3060 12.7214 56.3920 0.0000 8.0438 0.0000
# 4 0.0000 0.0000 0.0000 5.7852 0.0000 9.8085
# 5 24.2595 0.5655 8.0438 0.0000 54.7071 0.0000
# 6 0.0000 0.0000 0.0000 9.8085 0.0000 36.0441
#
#
#
# Elastic Compliance Matrix: (Units=1/GPa)
#
#
# Indices 1 2 3 4 5 6 
#
# 1 0.009892 -0.003558 -0.008635 0.000000 -0.003080 0.000000
# 2 -0.003558 0.010406 0.001017 0.000000 0.001321 0.000000
# 3 -0.008635 0.001017 0.026129 0.000000 -0.000023 0.000000
# 4 0.000000 0.000000 0.000000 0.320918 0.000000 -0.087329
# 5 -0.003080 0.001321 -0.000023 0.000000 0.019635 0.000000
# 6 0.000000 0.000000 0.000000 -0.087329 0.000000 0.051508
#
#
# Mechanical properties :
#
#
# Convention : Reuss Voigt Hill
#
# Bulk Modulus (GPa) = 41.53803 65.19788 53.36795
# Shear Modulus (GPa) = 10.66403 34.27413 22.46908
#
# Velocity S-wave (km/s) = 2.06946 3.71005 3.00393
# Velocity P-wave (km/s) = 4.73201 6.67354 5.78481
#
# Compressibility (1/GPa) = 0.02407433
#
# Stress axis : x y z
#
# Youngs Moduli (GPa) = 101.08888 96.09814 38.27157
#
# Poissons Ratio (x) = 0.34190 0.33048
# Poissons Ratio (y) = 0.35966 -0.03890
# Poissons Ratio (z) = 0.87293 -0.09769
#
# Static dielectric constant tensor:
#      x y z
#    x 2.256780 0.000000 0.050270 
#    y 0.000000 2.008060 0.000000 
#    z 0.050270 0.000000 2.211070 
# 
# From -- ./inp_files/1306.got.cif
#   From: 2010.05.17/outbox.cif.g08.bks.cpg/sg9_1_cif.got.tgz:1306.got - 2010.06.03 20:04:27.
