data_PCOD9135417
_publ_section_title
;
Structure prediction by ZEFSAII (Michael W. Deem and Ramdas Pophale) SiO2 
 PCOD9135417
Probable space group: C C
;
_chemical_formula_sum "Si O2"
_cell_formula_units_Z 32
_cell_length_a 5.408930
_cell_length_b 32.614261
_cell_length_c 9.224009
_cell_angle_alpha 90.000000
_cell_angle_beta 126.054532
_cell_angle_gamma 90.000000
_cell_volume 1315.514539
_symmetry_space_group_name_H-M "C C"
_symmetry_group_IT_number 9
_symmetry_cell_setting 'monoclinic'
loop_
_space_group_symop_operation_xyz
x,y,z
x,-y,1/2+z
1/2+x,1/2+y,z
1/2+x,1/2-y,1/2+z
loop_
_atom_site_type_symbol
_atom_site_label
_atom_site_fract_x
_atom_site_fract_y
_atom_site_fract_z
Si Si1 0.325170 0.492982 0.130110
Si Si2 0.265773 0.712040 0.528641
Si Si3 0.291473 0.157598 0.813246
Si Si4 0.863897 0.092783 0.776717
Si Si5 0.438136 0.038088 0.230866
Si Si6 0.835165 0.646981 0.488796
Si Si7 0.599959 0.378218 0.630555
Si Si8 0.489166 0.803654 0.641095
O O1 0.381409 0.455383 0.260756
O O2 0.630979 0.515102 0.180797
O O3 0.086369 0.522311 0.131804
O O4 0.181556 0.472278 0.938922
O O5 0.507638 0.689804 0.717802
O O6 0.951117 0.690798 0.469774
O O7 0.328048 0.759642 0.571115
O O8 0.258535 0.701426 0.353055
O O9 0.175424 0.114949 0.837663
O O10 0.300589 0.152502 0.645803
O O11 0.552367 0.178954 0.000557
O O12 0.609043 0.113082 0.585221
O O13 0.825999 0.106764 0.931798
O O14 0.346394 0.085389 0.194988
O O15 0.575495 0.628593 0.294847
O O16 0.750154 0.336999 0.619550
#
# Coordination Sequence:
#
# PCOD9135417 Si02
#       8
#     4   4   4   4   4   4   4   4
#     4  12  26  46  76 106 146 192 242 303 357 433
#     4  10  20  40  61  88 129 169 216 274 339 406
#     4  10  22  39  63  96 128 170 222 278 338 409
#     4  10  22  42  66  95 135 177 219 281 348 411
#     4  12  26  48  71 108 145 190 244 299 364 430
#     4  10  22  41  65  95 126 172 225 278 337 417
#     4  10  22  44  64  97 134 181 224 282 354 415
#     4  10  20  40  66  87 133 173 216 281 339 411
#
# _framework density 24.325082999999999
#
# number of rings (size 3 to 8) (size 9 to 14) (size 15 to 20)
#    0.000    1.500    2.500    2.250    1.750    2.000 
#    9.000    0.000    0.000    0.000    0.000    0.000 
#    0.000    0.000    0.000    0.000    0.000    0.000 
#
# Total GULP energy -89349.303800 kJ/mol
# GULP energy per Si atom -5584.331488 kJ/mol
# Density = 2.426972 g / cm^3
# Si number density = 24.325083 Si / 1000 Ang^3
#
#
#
# Elastic Constant Matrix: (Units=GPa)
#
#
# Indices 1 2 3 4 5 6 
#
# 1 56.0294 20.6891 7.8656 0.0000 -2.8156 0.0000
# 2 20.6891 105.3128 25.6337 0.0000 -0.0886 0.0000
# 3 7.8656 25.6337 174.1242 0.0000 -2.0468 0.0000
# 4 0.0000 0.0000 0.0000 47.5766 0.0000 -6.6535
# 5 -2.8156 -0.0886 -2.0468 0.0000 38.4281 0.0000
# 6 0.0000 0.0000 0.0000 -6.6535 0.0000 9.7709
#
#
#
# Elastic Compliance Matrix: (Units=1/GPa)
#
#
# Indices 1 2 3 4 5 6 
#
# 1 0.019336 -0.003722 -0.000309 0.000000 0.001392 0.000000
# 2 -0.003722 0.010565 -0.001391 0.000000 -0.000322 0.000000
# 3 -0.000309 -0.001391 0.005965 0.000000 0.000292 0.000000
# 4 0.000000 0.000000 0.000000 0.023231 0.000000 0.015819
# 5 0.001392 -0.000322 0.000292 0.000000 0.026139 0.000000
# 6 0.000000 0.000000 0.000000 0.015819 0.000000 0.113116
#
#
# Mechanical properties :
#
#
# Convention : Reuss Voigt Hill
#
# Bulk Modulus (GPa) = 39.96593 49.31589 44.64091
# Shear Modulus (GPa) = 22.98457 37.90700 30.44579
#
# Velocity S-wave (km/s) = 3.07724 3.95188 3.54166
# Velocity P-wave (km/s) = 5.39365 6.41411 5.92589
#
# Compressibility (1/GPa) = 0.02502131
#
# Stress axis : x y z
#
# Youngs Moduli (GPa) = 51.71830 94.65168 167.63906
#
# Poissons Ratio (x) = 0.35231 0.05182
# Poissons Ratio (y) = 0.19250 0.23318
# Poissons Ratio (z) = 0.01599 0.13166
#
# Static dielectric constant tensor:
#      x y z
#    x 2.049810 0.000000 -0.031950 
#    y 0.000000 1.904550 0.000000 
#    z -0.031950 0.000000 2.061890 
# 
# From -- ./inp_files/4349.got.cif
#   From: 2010.05.17/outbox.cif.g08.bks.cpg/sg9_3_cif.got.tgz:4349.got - 2010.06.03 20:04:27.
