data_PCOD9135719
_publ_section_title
;
Structure prediction by ZEFSAII (Michael W. Deem and Ramdas Pophale) SiO2 
 PCOD9135719
Probable space group: C C
;
_chemical_formula_sum "Si O2"
_cell_formula_units_Z 24
_cell_length_a 14.436986
_cell_length_b 5.574146
_cell_length_c 14.494153
_cell_angle_alpha 90.000000
_cell_angle_beta 53.798668
_cell_angle_gamma 90.000000
_cell_volume 941.222938
_symmetry_space_group_name_H-M "C C"
_symmetry_group_IT_number 9
_symmetry_cell_setting 'monoclinic'
loop_
_space_group_symop_operation_xyz
x,y,z
x,-y,1/2+z
1/2+x,1/2+y,z
1/2+x,1/2-y,1/2+z
loop_
_atom_site_type_symbol
_atom_site_label
_atom_site_fract_x
_atom_site_fract_y
_atom_site_fract_z
Si Si1 0.094670 0.913204 0.315800
Si Si2 0.194800 0.717873 0.079300
Si Si3 0.375171 0.527936 0.359818
Si Si4 0.470216 0.238770 0.549911
Si Si5 0.435815 0.248497 0.154629
Si Si6 0.213284 0.910847 0.424763
O O1 0.172802 0.767130 0.199197
O O2 0.164720 0.032567 0.358691
O O3 0.005906 0.078626 0.312133
O O4 0.004194 0.738838 0.421788
O O5 0.069308 0.713770 0.105513
O O6 0.286133 0.518686 0.995358
O O7 0.244371 0.949867 0.998243
O O8 0.376030 0.306120 0.287448
O O9 0.319622 0.745478 0.337115
O O10 0.422824 0.503486 0.604501
O O11 0.599300 0.255089 0.516510
O O12 0.409167 0.994658 0.615546
#
# Coordination Sequence:
#
# PCOD9135719 Si02
#       6
#     4   4   4   4   4   4
#     4   9  22  43  67  99 142 180 245 299 361 441
#     4  10  20  43  62 101 139 179 240 297 358 443
#     4  11  22  40  69 100 134 194 239 287 378 431
#     4   9  20  44  63  94 135 182 226 296 355 410
#     4  10  21  40  70  92 141 182 227 295 354 429
#     4   9  21  42  65  94 145 183 233 302 362 426
#
# _framework density 25.498742
#
# number of rings (size 3 to 8) (size 9 to 14) (size 15 to 20)
#    1.000    1.333    1.667    0.000    2.333    1.333 
#    6.000    0.000    0.000    0.000    0.000    0.000 
#    0.000    0.000    0.000    0.000    0.000    0.000 
#
# Total GULP energy -66872.395209 kJ/mol
# GULP energy per Si atom -5572.699601 kJ/mol
# Density = 2.544071 g / cm^3
# Si number density = 25.498742 Si / 1000 Ang^3
#
#
#
# Elastic Constant Matrix: (Units=GPa)
#
#
# Indices 1 2 3 4 5 6 
#
# 1 110.3736 25.4435 12.0059 0.0000 -2.6248 0.0001
# 2 25.4435 84.5442 35.4481 0.0000 10.7980 0.0007
# 3 12.0059 35.4481 159.4206 0.0000 26.2976 0.0000
# 4 0.0000 0.0000 0.0000 29.4166 0.0000 -8.4460
# 5 -2.6248 10.7980 26.2976 0.0000 32.8358 -0.0001
# 6 0.0001 0.0007 0.0000 -8.4460 -0.0001 7.8860
#
#
#
# Elastic Compliance Matrix: (Units=1/GPa)
#
#
# Indices 1 2 3 4 5 6 
#
# 1 0.009863 -0.003067 -0.000412 0.000000 0.002127 0.000000
# 2 -0.003067 0.014146 -0.002427 -0.000001 -0.002953 -0.000002
# 3 -0.000412 -0.002427 0.007740 0.000000 -0.005433 0.000000
# 4 0.000000 -0.000001 0.000000 0.049090 0.000000 0.052575
# 5 0.002127 -0.002953 -0.005433 0.000000 0.035947 0.000001
# 6 0.000000 -0.000002 0.000000 0.052575 0.000001 0.183116
#
#
# Mechanical properties :
#
#
# Convention : Reuss Voigt Hill
#
# Bulk Modulus (GPa) = 50.16001 55.57040 52.86521
# Shear Modulus (GPa) = 15.70559 32.79042 24.24800
#
# Velocity S-wave (km/s) = 2.48450 3.58992 3.08709
# Velocity P-wave (km/s) = 5.28626 6.24693 5.78656
#
# Compressibility (1/GPa) = 0.01993620
#
# Stress axis : x y z
#
# Youngs Moduli (GPa) = 101.39391 70.69074 129.20407
#
# Poissons Ratio (x) = 0.21682 0.05317
# Poissons Ratio (y) = 0.31099 0.31362
# Poissons Ratio (z) = 0.04173 0.17159
#
# Static dielectric constant tensor:
#      x y z
#    x 2.046320 0.000000 -0.007250 
#    y 0.000000 2.139590 0.000000 
#    z -0.007250 0.000000 2.055310 
# 
# From -- ./inp_files/30844.got.cif
#   From: 2010.05.17/outbox.cif.g08.bks.cpg/sg9_16_cif.got.tgz:30844.got - 2010.06.03 20:04:27.
