data_PCOD9135382
_publ_section_title
;
Structure prediction by ZEFSAII (Michael W. Deem and Ramdas Pophale) SiO2 
 PCOD9135382
Probable space group: C C
;
_chemical_formula_sum "Si O2"
_cell_formula_units_Z 20
_cell_length_a 7.875896
_cell_length_b 14.199915
_cell_length_c 7.299214
_cell_angle_alpha 90.000000
_cell_angle_beta 118.081072
_cell_angle_gamma 90.000000
_cell_volume 720.227068
_symmetry_space_group_name_H-M "C C"
_symmetry_group_IT_number 9
_symmetry_cell_setting 'monoclinic'
loop_
_space_group_symop_operation_xyz
x,y,z
x,-y,1/2+z
1/2+x,1/2+y,z
1/2+x,1/2-y,1/2+z
loop_
_atom_site_type_symbol
_atom_site_label
_atom_site_fract_x
_atom_site_fract_y
_atom_site_fract_z
Si Si1 0.843100 0.817651 0.788050
Si Si2 0.385677 0.956790 0.098587
Si Si3 0.762421 0.632768 0.179971
Si Si4 0.598691 0.640297 0.729026
Si Si5 0.691256 0.819091 0.328970
O O1 0.673472 0.747866 0.762689
O O2 0.787189 0.859009 0.562314
O O3 0.019564 0.748656 0.817922
O O4 0.920155 0.873909 0.002343
O O5 0.247990 0.919132 0.866866
O O6 0.419515 0.066702 0.157132
O O7 0.273435 0.915317 0.217726
O O8 0.584654 0.902508 0.170747
O O9 0.794196 0.741740 0.249724
O O10 0.093413 0.881764 0.443041
#
# Coordination Sequence:
#
# PCOD9135382 Si02
#       5
#     4   4   4   4   4
#     4   9  18  38  61  95 131 173 230 276 326 422
#     4  11  23  41  64  99 133 178 234 280 337 422
#     4  12  22  39  69  94 135 184 223 280 350 402
#     4  10  21  35  64  92 133 178 223 278 344 399
#     4  10  20  39  68  92 136 179 224 282 343 403
#
# _framework density 27.769020000000001
#
# number of rings (size 3 to 8) (size 9 to 14) (size 15 to 20)
#    0.000    1.600    8.000    0.000    2.800    0.000 
#    0.000    0.000    8.800    0.000    0.000    0.000 
#    0.000    0.000    0.000    0.000    0.000    0.000 
#
# Total GULP energy -55792.687887 kJ/mol
# GULP energy per Si atom -5579.268789 kJ/mol
# Density = 2.770582 g / cm^3
# Si number density = 27.769020 Si / 1000 Ang^3
#
#
#
# Elastic Constant Matrix: (Units=GPa)
#
#
# Indices 1 2 3 4 5 6 
#
# 1 107.1486 28.8736 41.3083 0.0000 -23.5582 0.0000
# 2 28.8736 147.0836 47.7725 0.0000 1.5307 0.0000
# 3 41.3083 47.7725 199.8550 0.0000 -39.8106 0.0000
# 4 0.0000 0.0000 0.0000 23.0723 0.0000 -10.1073
# 5 -23.5582 1.5307 -39.8106 0.0000 46.0946 0.0000
# 6 0.0000 0.0000 0.0000 -10.1073 0.0000 37.4073
#
#
#
# Elastic Compliance Matrix: (Units=1/GPa)
#
#
# Indices 1 2 3 4 5 6 
#
# 1 0.011324 -0.002004 -0.000840 0.000000 0.005129 0.000000
# 2 -0.002004 0.007904 -0.002091 0.000000 -0.003092 0.000000
# 3 -0.000840 -0.002091 0.006770 0.000000 0.005487 0.000000
# 4 0.000000 0.000000 0.000000 0.049161 0.000000 0.013283
# 5 0.005129 -0.003092 0.005487 0.000000 0.029158 0.000000
# 6 0.000000 0.000000 0.000000 0.013283 0.000000 0.030322
#
#
# Mechanical properties :
#
#
# Convention : Reuss Voigt Hill
#
# Bulk Modulus (GPa) = 62.00247 76.66624 69.33435
# Shear Modulus (GPa) = 33.35911 43.72368 38.54139
#
# Velocity S-wave (km/s) = 3.46975 3.97236 3.72953
# Velocity P-wave (km/s) = 6.19908 6.97911 6.60063
#
# Compressibility (1/GPa) = 0.01612839
#
# Stress axis : x y z
#
# Youngs Moduli (GPa) = 88.30642 126.52549 147.70656
#
# Poissons Ratio (x) = 0.25350 0.12409
# Poissons Ratio (y) = 0.17693 0.30887
# Poissons Ratio (z) = 0.07419 0.26458
#
# Static dielectric constant tensor:
#      x y z
#    x 2.226590 0.000000 0.043630 
#    y 0.000000 2.200750 0.000000 
#    z 0.043630 0.000000 2.258570 
# 
# From -- ./inp_files/7817.got.cif
#   From: 2010.05.17/outbox.cif.g08.bks.cpg/sg9_4_cif.got.tgz:7817.got - 2010.06.03 20:04:27.
