data_PCOD9135957
_publ_section_title
;
Structure prediction by ZEFSAII (Michael W. Deem and Ramdas Pophale) SiO2 
 PCOD9135957
Probable space group: C C
;
_chemical_formula_sum "Si O2"
_cell_formula_units_Z 32
_cell_length_a 7.160319
_cell_length_b 32.411788
_cell_length_c 5.369154
_cell_angle_alpha 90.000000
_cell_angle_beta 101.082274
_cell_angle_gamma 90.000000
_cell_volume 1222.830078
_symmetry_space_group_name_H-M "C C"
_symmetry_group_IT_number 9
_symmetry_cell_setting 'monoclinic'
loop_
_space_group_symop_operation_xyz
x,y,z
x,-y,1/2+z
1/2+x,1/2+y,z
1/2+x,1/2-y,1/2+z
loop_
_atom_site_type_symbol
_atom_site_label
_atom_site_fract_x
_atom_site_fract_y
_atom_site_fract_z
Si Si1 0.036660 0.337503 0.088470
Si Si2 0.951606 0.399788 0.677567
Si Si3 0.388193 0.295722 0.083619
Si Si4 0.831096 0.018841 0.933557
Si Si5 0.157265 0.158401 0.969961
Si Si6 0.238998 0.773340 0.882490
Si Si7 0.815466 0.889097 0.507420
Si Si8 0.879811 0.485167 0.417636
O O1 0.189400 0.314373 0.936706
O O2 0.184094 0.356697 0.322952
O O3 0.933780 0.376503 0.933923
O O4 0.882653 0.301184 0.085654
O O5 0.843178 0.367887 0.468699
O O6 0.866482 0.443238 0.576176
O O7 0.177912 0.402314 0.696258
O O8 0.528106 0.332324 0.201392
O O9 0.328868 0.269097 0.311120
O O10 0.530603 0.269369 0.950145
O O11 0.850089 0.067347 0.879455
O O12 0.912208 0.006873 0.223963
O O13 0.605956 0.009018 0.916586
O O14 0.015499 0.132073 0.110246
O O15 0.212658 0.199779 0.125471
O O16 0.807164 0.516753 0.613242
#
# Coordination Sequence:
#
# PCOD9135957 Si02
#       8
#     4   4   4   4   4   4   4   4
#     4  10  23  38  60  92 120 166 212 258 330 386
#     4  10  21  37  63  85 126 166 210 264 321 382
#     4  11  24  42  65  92 127 164 212 267 326 398
#     4   9  19  34  59  93 128 172 222 270 325 390
#     4  10  23  42  60  94 124 162 214 260 322 386
#     4  11  24  42  65  92 127 164 212 267 326 398
#     4  10  21  37  63  85 126 166 210 264 321 382
#     4   9  19  34  59  93 128 172 222 270 325 390
#
# _framework density 26.168803
#
# number of rings (size 3 to 8) (size 9 to 14) (size 15 to 20)
#    0.000    2.000    0.000    2.250    8.750    8.000 
#    0.000    1.250    0.000    0.000    0.000    0.000 
#    0.000    0.000    0.000    0.000    0.000    0.000 
#
# Total GULP energy -89313.567035 kJ/mol
# GULP energy per Si atom -5582.097940 kJ/mol
# Density = 2.610924 g / cm^3
# Si number density = 26.168803 Si / 1000 Ang^3
#
#
#
# Elastic Constant Matrix: (Units=GPa)
#
#
# Indices 1 2 3 4 5 6 
#
# 1 128.6895 15.6834 10.9530 0.0000 2.5794 0.0000
# 2 15.6834 97.3585 20.1215 0.0000 0.1895 0.0000
# 3 10.9530 20.1215 86.7803 0.0000 0.4672 0.0000
# 4 0.0000 0.0000 0.0000 16.5770 0.0000 -20.5784
# 5 2.5794 0.1895 0.4672 0.0000 28.4363 0.0000
# 6 0.0000 0.0000 0.0000 -20.5784 0.0000 4.4022
#
#
#
# Elastic Compliance Matrix: (Units=1/GPa)
#
#
# Indices 1 2 3 4 5 6 
#
# 1 0.007986 -0.001132 -0.000742 0.000000 -0.000705 0.000000
# 2 -0.001132 0.010949 -0.002396 0.000000 0.000069 0.000000
# 3 -0.000742 -0.002396 0.012173 0.000000 -0.000117 0.000000
# 4 0.000000 0.000000 0.000000 -0.012560 0.000000 -0.058712
# 5 -0.000705 0.000069 -0.000117 0.000000 0.035232 0.000000
# 6 0.000000 0.000000 0.000000 -0.058712 0.000000 -0.047296
#
#
# Mechanical properties :
#
#
# Convention : Reuss Voigt Hill
#
# Bulk Modulus (GPa) = 44.30970 45.14934 44.72952
# Shear Modulus (GPa) = 221.76901 27.62113 124.69507
#
# Velocity S-wave (km/s) = 9.21572 3.25237 6.91041
# Velocity P-wave (km/s) = 11.41089 5.60307 8.98896
#
# Compressibility (1/GPa) = 0.02256842
#
# Stress axis : x y z
#
# Youngs Moduli (GPa) = 125.22194 91.33486 82.14776
#
# Poissons Ratio (x) = 0.10337 0.06093
# Poissons Ratio (y) = 0.14172 0.19684
# Poissons Ratio (z) = 0.09288 0.21885
#
# Static dielectric constant tensor:
#      x y z
#    x 2.108710 0.000000 -0.084830 
#    y 0.000000 2.097920 0.000000 
#    z -0.084830 0.000000 2.225290 
# 
# From -- ./inp_files/1317.got.cif
#   From: 2010.05.17/outbox.cif.g08.bks.cpg/sg9_1_cif.got.tgz:1317.got - 2010.06.03 20:04:27.
