data_PCOD9135741
_publ_section_title
;
Structure prediction by ZEFSAII (Michael W. Deem and Ramdas Pophale) SiO2 
 PCOD9135741
Probable space group: C C
;
_chemical_formula_sum "Si O2"
_cell_formula_units_Z 28
_cell_length_a 11.588261
_cell_length_b 10.491330
_cell_length_c 23.296727
_cell_angle_alpha 90.000000
_cell_angle_beta 151.409360
_cell_angle_gamma 90.000000
_cell_volume 1355.406658
_symmetry_space_group_name_H-M "C C"
_symmetry_group_IT_number 9
_symmetry_cell_setting 'monoclinic'
loop_
_space_group_symop_operation_xyz
x,y,z
x,-y,1/2+z
1/2+x,1/2+y,z
1/2+x,1/2-y,1/2+z
loop_
_atom_site_type_symbol
_atom_site_label
_atom_site_fract_x
_atom_site_fract_y
_atom_site_fract_z
Si Si1 0.659820 0.467791 0.626620
Si Si2 0.507214 0.230095 0.309593
Si Si3 0.024646 0.602292 0.606800
Si Si4 0.207263 0.690082 0.907790
Si Si5 0.469886 0.102126 0.988271
Si Si6 0.397547 0.979795 0.839500
Si Si7 0.864294 0.301809 0.156114
O O1 0.903958 0.383955 0.723863
O O2 0.437579 0.400393 0.500362
O O3 0.653456 0.466517 0.693996
O O4 0.688328 0.607485 0.615622
O O5 0.748707 0.299971 0.397981
O O6 0.531884 0.151022 0.380012
O O7 0.285049 0.329505 0.214176
O O8 0.815577 0.688605 0.486906
O O9 0.019682 0.470517 0.569922
O O10 0.959553 0.614203 0.645056
O O11 0.027281 0.602868 0.867234
O O12 0.081240 0.728254 0.793862
O O13 0.394289 0.004170 0.905041
O O14 0.709112 0.178042 0.073475
#
# Coordination Sequence:
#
# PCOD9135741 Si02
#       7
#     4   4   4   4   4   4   4
#     4   8  20  43  69  95 129 184 221 273 344 401
#     4   9  23  45  61 102 132 173 231 265 344 406
#     4  11  26  41  65 101 138 174 227 283 346 399
#     4  10  20  43  68  91 136 179 221 281 342 403
#     4  12  25  43  71 104 135 177 228 284 338 410
#     4   9  20  42  69  91 130 185 217 279 331 405
#     4  11  24  43  67 102 136 176 227 285 341 406
#
# _framework density 20.658006
#
# number of rings (size 3 to 8) (size 9 to 14) (size 15 to 20)
#    0.857    1.143    1.429    0.857    4.000    2.286 
#    7.714    0.000    0.000    0.000    0.000    0.000 
#    0.000    0.000    0.000    0.000    0.000    0.000 
#
# Total GULP energy -77999.135250 kJ/mol
# GULP energy per Si atom -5571.366804 kJ/mol
# Density = 2.061099 g / cm^3
# Si number density = 20.658006 Si / 1000 Ang^3
#
#
#
# Elastic Constant Matrix: (Units=GPa)
#
#
# Indices 1 2 3 4 5 6 
#
# 1 65.9801 12.0692 38.9004 0.0000 -12.3524 0.0000
# 2 12.0692 53.1102 26.9372 0.0000 5.1850 0.0000
# 3 38.9004 26.9372 108.6866 0.0011 -8.3474 0.0001
# 4 0.0000 0.0000 0.0011 15.5692 0.0002 -3.3479
# 5 -12.3524 5.1850 -8.3474 0.0002 23.4863 0.0000
# 6 0.0000 0.0000 0.0001 -3.3479 0.0000 32.3065
#
#
#
# Elastic Compliance Matrix: (Units=1/GPa)
#
#
# Indices 1 2 3 4 5 6 
#
# 1 0.021027 -0.002574 -0.006163 0.000000 0.009437 0.000000
# 2 -0.002574 0.022975 -0.005414 0.000000 -0.008350 0.000000
# 3 -0.006163 -0.005414 0.012945 -0.000001 0.002555 0.000000
# 4 0.000000 0.000000 -0.000001 0.065693 -0.000001 0.006808
# 5 0.009437 -0.008350 0.002555 -0.000001 0.050292 0.000000
# 6 0.000000 0.000000 0.000000 0.006808 0.000000 0.031659
#
#
# Mechanical properties :
#
#
# Convention : Reuss Voigt Hill
#
# Bulk Modulus (GPa) = 34.91088 42.62118 38.76603
# Shear Modulus (GPa) = 20.62342 24.26374 22.44358
#
# Velocity S-wave (km/s) = 3.16306 3.43088 3.29969
# Velocity P-wave (km/s) = 5.50237 6.03085 5.77266
#
# Compressibility (1/GPa) = 0.02864437
#
# Stress axis : x y z
#
# Youngs Moduli (GPa) = 47.55719 43.52565 77.25108
#
# Poissons Ratio (x) = 0.11202 0.47612
# Poissons Ratio (y) = 0.12240 0.41826
# Poissons Ratio (z) = 0.29311 0.23566
#
# Static dielectric constant tensor:
#      x y z
#    x 1.755520 0.000000 0.004420 
#    y 0.000000 1.747600 0.000000 
#    z 0.004420 0.000000 1.743660 
# 
# From -- ./inp_files/35376.got.cif
#   From: 2010.05.17/outbox.cif.g08.bks.cpg/sg9_18_cif.got.tgz:35376.got - 2010.06.03 20:04:27.
