data_PCOD9135411
_publ_section_title
;
Structure prediction by ZEFSAII (Michael W. Deem and Ramdas Pophale) SiO2 
 PCOD9135411
Probable space group: C C
;
_chemical_formula_sum "Si O2"
_cell_formula_units_Z 28
_cell_length_a 15.499444
_cell_length_b 6.388502
_cell_length_c 13.594539
_cell_angle_alpha 90.000000
_cell_angle_beta 56.569247
_cell_angle_gamma 90.000000
_cell_volume 1123.396809
_symmetry_space_group_name_H-M "C C"
_symmetry_group_IT_number 9
_symmetry_cell_setting 'monoclinic'
loop_
_space_group_symop_operation_xyz
x,y,z
x,-y,1/2+z
1/2+x,1/2+y,z
1/2+x,1/2-y,1/2+z
loop_
_atom_site_type_symbol
_atom_site_label
_atom_site_fract_x
_atom_site_fract_y
_atom_site_fract_z
Si Si1 0.172250 0.860706 0.425030
Si Si2 0.654179 0.785954 0.213497
Si Si3 0.287741 0.518183 0.276732
Si Si4 0.063726 0.484318 0.611160
Si Si5 0.476146 0.648047 0.535191
Si Si6 0.222728 0.884831 0.071080
Si Si7 0.337113 0.505480 0.975287
O O1 0.242841 0.752809 0.299043
O O2 0.113794 0.661968 0.510630
O O3 0.083117 0.025220 0.460481
O O4 0.242072 0.974412 0.462474
O O5 0.695118 0.869579 0.292937
O O6 0.671453 0.541153 0.182353
O O7 0.554559 0.890453 0.221619
O O8 0.744972 0.885455 0.088302
O O9 0.391248 0.479924 0.150913
O O10 0.318581 0.482479 0.370845
O O11 0.982464 0.366990 0.590207
O O12 0.134687 0.284728 0.597225
O O13 0.434610 0.627017 0.450109
O O14 0.324298 0.743879 0.023183
#
# Coordination Sequence:
#
# PCOD9135411 Si02
#       7
#     4   4   4   4   4   4   4
#     4  10  20  42  64  88 132 172 223 272 327 391
#     4   9  19  36  64  93 126 170 227 269 324 399
#     4  11  21  41  65  97 132 182 222 270 337 398
#     4   9  18  40  60  86 128 167 214 280 315 379
#     4  10  24  38  65  97 136 172 220 280 330 398
#     4   9  16  37  65  83 124 174 207 281 323 377
#     4  10  20  40  59  96 138 163 225 276 326 402
#
# _framework density 24.924409000000001
#
# number of rings (size 3 to 8) (size 9 to 14) (size 15 to 20)
#    0.000    2.286    4.286    0.000    0.000    3.429 
#   10.286    4.286    0.000    0.000    0.000    0.000 
#    0.000    0.000    0.000    0.000    0.000    0.000 
#
# Total GULP energy -77969.752258 kJ/mol
# GULP energy per Si atom -5569.268018 kJ/mol
# Density = 2.486768 g / cm^3
# Si number density = 24.924409 Si / 1000 Ang^3
#
#
#
# Elastic Constant Matrix: (Units=GPa)
#
#
# Indices 1 2 3 4 5 6 
#
# 1 94.4303 47.3578 33.9815 0.0000 42.2128 0.0000
# 2 47.3578 144.9513 45.5432 0.0000 16.2181 -0.0001
# 3 33.9815 45.5432 108.0060 0.0000 21.1049 0.0000
# 4 0.0000 0.0000 0.0000 44.7631 0.0000 8.3836
# 5 42.2128 16.2181 21.1049 0.0000 43.7794 0.0000
# 6 0.0000 -0.0001 0.0000 8.3836 0.0000 27.3660
#
#
#
# Elastic Compliance Matrix: (Units=1/GPa)
#
#
# Indices 1 2 3 4 5 6 
#
# 1 0.021646 -0.004605 -0.001240 0.000000 -0.018567 0.000000
# 2 -0.004605 0.009018 -0.002836 0.000000 0.002466 0.000000
# 3 -0.001240 -0.002836 0.011488 0.000000 -0.003291 0.000000
# 4 0.000000 0.000000 0.000000 0.023700 0.000000 -0.007260
# 5 -0.018567 0.002466 -0.003291 0.000000 0.041418 0.000000
# 6 0.000000 0.000000 0.000000 -0.007260 0.000000 0.038766
#
#
# Mechanical properties :
#
#
# Convention : Reuss Voigt Hill
#
# Bulk Modulus (GPa) = 40.33943 66.79471 53.56707
# Shear Modulus (GPa) = 29.12725 37.88207 33.50466
#
# Velocity S-wave (km/s) = 3.42222 3.90279 3.67038
# Velocity P-wave (km/s) = 5.64228 6.86776 6.28496
#
# Compressibility (1/GPa) = 0.02478964
#
# Stress axis : x y z
#
# Youngs Moduli (GPa) = 46.19894 110.88410 87.04716
#
# Poissons Ratio (x) = 0.51060 0.10798
# Poissons Ratio (y) = 0.21274 0.24686
# Poissons Ratio (z) = 0.05731 0.31446
#
# Static dielectric constant tensor:
#      x y z
#    x 2.201260 0.000000 0.077060 
#    y 0.000000 2.016190 0.000000 
#    z 0.077060 0.000000 2.053570 
# 
# From -- ./inp_files/26324.got.cif
#   From: 2010.05.17/outbox.cif.g08.bks.cpg/sg9_14_cif.got.tgz:26324.got - 2010.06.03 20:04:27.
