data_PCOD9135167
_publ_section_title
;
Structure prediction by ZEFSAII (Michael W. Deem and Ramdas Pophale) SiO2 
 PCOD9135167
Probable space group: C C
;
_chemical_formula_sum "Si O2"
_cell_formula_units_Z 20
_cell_length_a 14.631642
_cell_length_b 10.331213
_cell_length_c 5.311186
_cell_angle_alpha 90.000000
_cell_angle_beta 72.269254
_cell_angle_gamma 90.000000
_cell_volume 764.715783
_symmetry_space_group_name_H-M "C C"
_symmetry_group_IT_number 9
_symmetry_cell_setting 'monoclinic'
loop_
_space_group_symop_operation_xyz
x,y,z
x,-y,1/2+z
1/2+x,1/2+y,z
1/2+x,1/2-y,1/2+z
loop_
_atom_site_type_symbol
_atom_site_label
_atom_site_fract_x
_atom_site_fract_y
_atom_site_fract_z
Si Si1 0.686920 0.072443 0.491250
Si Si2 0.574398 0.580453 0.427432
Si Si3 0.378808 0.030905 0.998247
Si Si4 0.730345 0.294139 0.112383
Si Si5 0.359494 0.675292 0.608824
O O1 0.676076 0.216384 0.379095
O O2 0.800853 0.083133 0.470825
O O3 0.653231 0.021554 0.792894
O O4 0.584888 0.529865 0.134811
O O5 0.654596 0.679353 0.453907
O O6 0.468372 0.635977 0.544101
O O7 0.287865 0.930868 0.106058
O O8 0.434436 0.014883 0.209635
O O9 0.354180 0.180299 0.996134
O O10 0.808078 0.198446 0.920342
#
# Coordination Sequence:
#
# PCOD9135167 Si02
#       5
#     4   4   4   4   4
#     4  12  24  41  70 103 145 197 242 296 375 443
#     4  12  29  46  75 116 152 194 257 315 367 451
#     4  10  20  37  68  97 130 185 238 291 348 429
#     4  11  25  47  75 107 147 203 254 304 371 449
#     4  11  24  45  74 109 150 191 247 310 381 434
#
# _framework density 26.153507999999999
#
# number of rings (size 3 to 8) (size 9 to 14) (size 15 to 20)
#    0.000    0.800    4.000    3.600    5.600    0.000 
#    0.000    4.000    0.000    0.000    0.000    0.000 
#    0.000    0.000    0.000    0.000    0.000    0.000 
#
# Total GULP energy -55862.655214 kJ/mol
# GULP energy per Si atom -5586.265521 kJ/mol
# Density = 2.609398 g / cm^3
# Si number density = 26.153508 Si / 1000 Ang^3
#
#
#
# Elastic Constant Matrix: (Units=GPa)
#
#
# Indices 1 2 3 4 5 6 
#
# 1 79.0459 21.5449 9.5292 0.0000 3.7597 0.0000
# 2 21.5449 158.3361 35.8078 0.0000 3.5189 0.0000
# 3 9.5292 35.8078 126.3785 0.0000 14.1284 0.0000
# 4 0.0000 0.0000 0.0000 62.0815 0.0000 8.5440
# 5 3.7597 3.5189 14.1284 0.0000 29.9842 0.0000
# 6 0.0000 0.0000 0.0000 8.5440 0.0000 22.4096
#
#
#
# Elastic Compliance Matrix: (Units=1/GPa)
#
#
# Indices 1 2 3 4 5 6 
#
# 1 0.013216 -0.001685 -0.000376 0.000000 -0.001282 0.000000
# 2 -0.001685 0.006963 -0.001877 0.000000 0.000279 0.000000
# 3 -0.000376 -0.001877 0.008913 0.000000 -0.003932 0.000000
# 4 0.000000 0.000000 0.000000 0.017000 0.000000 -0.006481
# 5 -0.001282 0.000279 -0.003932 0.000000 0.035332 0.000000
# 6 0.000000 0.000000 0.000000 -0.006481 0.000000 0.047095
#
#
# Mechanical properties :
#
#
# Convention : Reuss Voigt Hill
#
# Bulk Modulus (GPa) = 47.13264 55.28048 51.20656
# Shear Modulus (GPa) = 34.85136 42.68696 38.76916
#
# Velocity S-wave (km/s) = 3.65440 4.04439 3.85433
# Velocity P-wave (km/s) = 5.98889 6.55685 6.27930
#
# Compressibility (1/GPa) = 0.02121672
#
# Stress axis : x y z
#
# Youngs Moduli (GPa) = 75.66355 143.61116 112.20193
#
# Poissons Ratio (x) = 0.24197 0.04216
# Poissons Ratio (y) = 0.12748 0.21061
# Poissons Ratio (z) = 0.02843 0.26956
#
# Static dielectric constant tensor:
#      x y z
#    x 1.988010 0.000000 0.001190 
#    y 0.000000 2.123270 0.000000 
#    z 0.001190 0.000000 2.146070 
# 
# From -- ./inp_files/1492.got.cif
#   From: 2010.05.17/outbox.cif.g08.bks.cpg/sg9_1_cif.got.tgz:1492.got - 2010.06.03 20:04:27.
