data_PCOD9135102
_publ_section_title
;
Structure prediction by ZEFSAII (Michael W. Deem and Ramdas Pophale) SiO2 
 PCOD9135102
Probable space group: C C
;
_chemical_formula_sum "Si O2"
_cell_formula_units_Z 32
_cell_length_a 13.935118
_cell_length_b 11.786885
_cell_length_c 26.879769
_cell_angle_alpha 90.000000
_cell_angle_beta 160.898934
_cell_angle_gamma 90.000000
_cell_volume 1444.759684
_symmetry_space_group_name_H-M "C C"
_symmetry_group_IT_number 9
_symmetry_cell_setting 'monoclinic'
loop_
_space_group_symop_operation_xyz
x,y,z
x,-y,1/2+z
1/2+x,1/2+y,z
1/2+x,1/2-y,1/2+z
loop_
_atom_site_type_symbol
_atom_site_label
_atom_site_fract_x
_atom_site_fract_y
_atom_site_fract_z
Si Si1 0.308410 0.757852 0.529910
Si Si2 0.790934 0.952883 0.090996
Si Si3 0.954716 0.077111 0.528712
Si Si4 0.356317 0.652397 0.874574
Si Si5 0.239640 0.043613 0.569963
Si Si6 0.546182 0.083866 0.875542
Si Si7 0.945380 0.848607 0.830266
Si Si8 0.726151 0.610377 0.362257
O O1 0.374118 0.668845 0.607504
O O2 0.284196 0.682760 0.468527
O O3 0.590247 0.839320 0.661198
O O4 0.992293 0.808064 0.388539
O O5 0.635130 0.019446 0.969183
O O6 0.559777 0.932643 0.022113
O O7 0.048552 0.030296 0.237544
O O8 0.090070 0.109373 0.542461
O O9 0.222349 0.055976 0.697740
O O10 0.754421 0.966207 0.434298
O O11 0.641367 0.584740 0.034246
O O12 0.247233 0.761321 0.851447
O O13 0.081597 0.568924 0.735558
O O14 0.089319 0.081253 0.445267
O O15 0.556984 0.218047 0.888191
O O16 0.064844 0.891818 0.835974
#
# Coordination Sequence:
#
# PCOD9135102 Si02
#       8
#     4   4   4   4   4   4   4   4
#     4   9  21  41  62  89 121 154 204 262 305 357
#     4  10  21  40  66  91 119 156 203 258 312 360
#     4  10  20  37  61  89 119 155 202 256 306 358
#     4  11  24  42  63  88 123 164 206 251 302 360
#     4  12  24  40  61  88 124 168 204 245 299 361
#     4  10  20  37  62  91 120 156 204 258 308 358
#     4  11  23  39  60  90 127 165 204 247 298 364
#     4  11  23  42  65  92 123 160 203 253 306 362
#
# _framework density 22.149011000000002
#
# number of rings (size 3 to 8) (size 9 to 14) (size 15 to 20)
#    0.000    1.500    0.000    6.750    0.000    4.000 
#    0.000    5.000    0.000    0.000    0.000    0.000 
#    0.000    0.000    0.000    0.000    0.000    0.000 
#
# Total GULP energy -89386.928778 kJ/mol
# GULP energy per Si atom -5586.683049 kJ/mol
# Density = 2.209860 g / cm^3
# Si number density = 22.149011 Si / 1000 Ang^3
#
#
#
# Elastic Constant Matrix: (Units=GPa)
#
#
# Indices 1 2 3 4 5 6 
#
# 1 148.2811 14.9233 44.1839 -0.0160 37.3617 0.0004
# 2 14.9233 65.6540 35.7885 -0.0117 13.5712 0.0013
# 3 44.1839 35.7885 62.9575 -0.0016 27.2868 0.0263
# 4 -0.0160 -0.0117 -0.0016 38.3055 0.0244 12.2592
# 5 37.3617 13.5712 27.2868 0.0244 26.4431 -0.0218
# 6 0.0004 0.0013 0.0263 12.2592 -0.0218 25.9340
#
#
#
# Elastic Compliance Matrix: (Units=1/GPa)
#
#
# Indices 1 2 3 4 5 6 
#
# 1 0.010725 0.001851 -0.002894 0.000019 -0.013117 -0.000017
# 2 0.001851 0.022516 -0.014394 0.000003 0.000682 0.000013
# 3 -0.002894 -0.014394 0.038214 0.000039 -0.027958 -0.000080
# 4 0.000019 0.000003 0.000039 0.030759 -0.000109 -0.014540
# 5 -0.013117 0.000682 -0.027958 -0.000109 0.084851 0.000151
# 6 -0.000017 0.000013 -0.000080 -0.014540 0.000151 0.045433
#
#
# Mechanical properties :
#
#
# Convention : Reuss Voigt Hill
#
# Bulk Modulus (GPa) = 24.64164 51.85378 38.24771
# Shear Modulus (GPa) = 18.05708 30.26963 24.16336
#
# Velocity S-wave (km/s) = 2.85836 3.70081 3.30653
# Velocity P-wave (km/s) = 4.69502 6.45937 5.64654
#
# Compressibility (1/GPa) = 0.04058171
#
# Stress axis : x y z
#
# Youngs Moduli (GPa) = 93.23921 44.41300 26.16812
#
# Poissons Ratio (x) = -0.08221 0.07573
# Poissons Ratio (y) = -0.17260 0.37667
# Poissons Ratio (z) = 0.26983 0.63929
#
# Static dielectric constant tensor:
#      x y z
#    x 1.872140 0.000000 0.035000 
#    y 0.000000 1.879610 -0.000010 
#    z 0.035000 -0.000010 1.787610 
# 
# From -- ./inp_files/37440.got.cif
#   From: 2010.05.17/outbox.cif.g08.bks.cpg/sg9_19_cif.got.tgz:37440.got - 2010.06.03 20:04:27.
