data_PCOD9135634
_publ_section_title
;
Structure prediction by ZEFSAII (Michael W. Deem and Ramdas Pophale) SiO2 
 PCOD9135634
Probable space group: C C
;
_chemical_formula_sum "Si O2"
_cell_formula_units_Z 32
_cell_length_a 16.343174
_cell_length_b 14.956072
_cell_length_c 8.916615
_cell_angle_alpha 90.000000
_cell_angle_beta 39.506265
_cell_angle_gamma 90.000000
_cell_volume 1386.507085
_symmetry_space_group_name_H-M "C C"
_symmetry_group_IT_number 9
_symmetry_cell_setting 'monoclinic'
loop_
_space_group_symop_operation_xyz
x,y,z
x,-y,1/2+z
1/2+x,1/2+y,z
1/2+x,1/2-y,1/2+z
loop_
_atom_site_type_symbol
_atom_site_label
_atom_site_fract_x
_atom_site_fract_y
_atom_site_fract_z
Si Si1 0.487880 0.824678 0.998700
Si Si2 0.361765 0.973722 0.991910
Si Si3 0.616783 0.405108 0.814258
Si Si4 0.831814 0.072889 0.590208
Si Si5 0.493354 0.716301 0.708796
Si Si6 0.750246 0.899497 0.532604
Si Si7 0.313247 0.234154 0.006062
Si Si8 0.936942 0.625469 0.084784
O O1 0.381817 0.888529 0.070053
O O2 0.516182 0.743755 0.845492
O O3 0.619166 0.879408 0.804481
O O4 0.432749 0.790189 0.231341
O O5 0.389909 0.938931 0.785203
O O6 0.219962 0.016630 0.189198
O O7 0.457403 0.051731 0.922324
O O8 0.481409 0.424139 0.927733
O O9 0.691255 0.323765 0.625911
O O10 0.575987 0.365821 0.033146
O O11 0.799240 0.160397 0.538826
O O12 0.810980 0.984037 0.527768
O O13 0.744930 0.077281 0.863505
O O14 0.519925 0.801511 0.561794
O O15 0.345622 0.685092 0.906745
O O16 0.344300 0.194030 0.126557
#
# Coordination Sequence:
#
# PCOD9135634 Si02
#       8
#     4   4   4   4   4   4   4   4
#     4  11  26  45  71 109 141 188 241 286 354 420
#     4  10  22  37  70 108 132 181 228 295 339 414
#     4  10  22  44  73 100 141 184 235 290 357 414
#     4  11  26  47  72 105 140 191 237 290 366 411
#     4  10  23  45  71  98 144 193 229 290 359 420
#     4  11  26  49  69 105 145 190 233 297 353 423
#     4  11  23  43  71 105 141 188 237 291 352 422
#     4  10  20  42  65 100 142 171 238 275 356 408
#
# _framework density 23.07958
#
# number of rings (size 3 to 8) (size 9 to 14) (size 15 to 20)
#    0.000    1.500    2.500    2.250    3.500   12.000 
#    2.250    0.000    2.750    0.000    0.000    0.000 
#    0.000    0.000    0.000    0.000    0.000    0.000 
#
# Total GULP energy -89337.483404 kJ/mol
# GULP energy per Si atom -5583.592713 kJ/mol
# Density = 2.302705 g / cm^3
# Si number density = 23.079580 Si / 1000 Ang^3
#
#
#
# Elastic Constant Matrix: (Units=GPa)
#
#
# Indices 1 2 3 4 5 6 
#
# 1 63.8935 46.9766 53.4305 0.0000 3.4866 0.0000
# 2 46.9766 112.4740 54.1136 0.0000 -0.0595 0.0000
# 3 53.4305 54.1136 118.2003 0.0000 -14.2182 0.0000
# 4 0.0000 0.0000 0.0000 29.5528 0.0000 8.6479
# 5 3.4866 -0.0595 -14.2182 0.0000 27.8386 0.0000
# 6 0.0000 0.0000 0.0000 8.6479 0.0000 35.8451
#
#
#
# Elastic Compliance Matrix: (Units=1/GPa)
#
#
# Indices 1 2 3 4 5 6 
#
# 1 0.031946 -0.007445 -0.012269 0.000000 -0.010283 0.000000
# 2 -0.007445 0.013349 -0.002802 0.000000 -0.000470 0.000000
# 3 -0.012269 -0.002802 0.016486 0.000000 0.009951 0.000000
# 4 0.000000 0.000000 0.000000 0.036408 0.000000 -0.008784
# 5 -0.010283 -0.000470 0.009951 0.000000 0.042291 0.000000
# 6 0.000000 0.000000 0.000000 -0.008784 0.000000 0.030017
#
#
# Mechanical properties :
#
#
# Convention : Reuss Voigt Hill
#
# Bulk Modulus (GPa) = 59.71007 67.06768 63.38887
# Shear Modulus (GPa) = 22.61291 27.98376 25.29834
#
# Velocity S-wave (km/s) = 3.13354 3.48586 3.31438
# Velocity P-wave (km/s) = 6.24657 6.73231 6.49398
#
# Compressibility (1/GPa) = 0.01674759
#
# Stress axis : x y z
#
# Youngs Moduli (GPa) = 31.30244 74.91456 60.65705
#
# Poissons Ratio (x) = 0.55777 0.74422
# Poissons Ratio (y) = 0.23306 0.16997
# Poissons Ratio (z) = 0.38406 0.20992
#
# Static dielectric constant tensor:
#      x y z
#    x 1.929140 0.000000 -0.050960 
#    y 0.000000 1.862090 0.000000 
#    z -0.050960 0.000000 1.879240 
# 
# From -- ./inp_files/10898.got.cif
#   From: 2010.05.17/outbox.cif.g08.bks.cpg/sg9_6_cif.got.tgz:10898.got - 2010.06.03 20:04:27.
