data_PCOD9135458
_publ_section_title
;
Structure prediction by ZEFSAII (Michael W. Deem and Ramdas Pophale) SiO2 
 PCOD9135458
Probable space group: C C
;
_chemical_formula_sum "Si O2"
_cell_formula_units_Z 32
_cell_length_a 11.879635
_cell_length_b 7.451552
_cell_length_c 23.643337
_cell_angle_alpha 90.000000
_cell_angle_beta 38.429040
_cell_angle_gamma 90.000000
_cell_volume 1300.861680
_symmetry_space_group_name_H-M "C C"
_symmetry_group_IT_number 9
_symmetry_cell_setting 'monoclinic'
loop_
_space_group_symop_operation_xyz
x,y,z
x,-y,1/2+z
1/2+x,1/2+y,z
1/2+x,1/2-y,1/2+z
loop_
_atom_site_type_symbol
_atom_site_label
_atom_site_fract_x
_atom_site_fract_y
_atom_site_fract_z
Si Si1 0.548750 0.933557 0.250000
Si Si2 0.661904 0.536728 0.195775
Si Si3 0.413580 0.560953 0.079755
Si Si4 0.381681 0.264101 0.475014
Si Si5 0.925007 0.747403 0.224931
Si Si6 0.814557 0.621738 0.955078
Si Si7 0.525285 0.188075 0.056327
Si Si8 0.073496 0.076955 0.361688
O O1 0.469342 0.051426 0.231519
O O2 0.599982 0.739013 0.206565
O O3 0.739729 0.033318 0.188733
O O4 0.412531 0.919110 0.356052
O O5 0.536961 0.398437 0.212433
O O6 0.879770 0.533729 0.100461
O O7 0.620033 0.526730 0.278788
O O8 0.481558 0.360333 0.034865
O O9 0.340963 0.671674 0.054673
O O10 0.597580 0.633501 0.034629
O O11 0.563102 0.381730 0.394393
O O12 0.238803 0.332494 0.482659
O O13 0.371400 0.049996 0.470946
O O14 0.967500 0.752177 0.142253
O O15 0.711724 0.740529 0.320766
O O16 0.886878 0.815990 0.943723
#
# Coordination Sequence:
#
# PCOD9135458 Si02
#       8
#     4   4   4   4   4   4   4   4
#     4  10  20  40  65  94 129 172 217 274 332 389
#     4   9  21  40  64  94 126 161 218 276 326 393
#     4  10  21  41  64  92 135 170 216 277 324 393
#     4  11  21  42  63  89 132 176 211 272 340 380
#     4  11  20  39  66  91 124 173 217 270 338 391
#     4  10  23  41  63  95 133 172 220 274 331 398
#     4   9  21  41  61  95 132 162 223 274 317 407
#     4  10  23  38  60  94 127 164 222 271 322 403
#
# _framework density 24.599079
#
# number of rings (size 3 to 8) (size 9 to 14) (size 15 to 20)
#    0.000    2.000    1.250    2.250    0.000    5.000 
#    9.000    6.250    0.000    0.000    0.000    0.000 
#    0.000    0.000    0.000    0.000    0.000    0.000 
#
# Total GULP energy -89288.276786 kJ/mol
# GULP energy per Si atom -5580.517299 kJ/mol
# Density = 2.454309 g / cm^3
# Si number density = 24.599079 Si / 1000 Ang^3
#
#
#
# Elastic Constant Matrix: (Units=GPa)
#
#
# Indices 1 2 3 4 5 6 
#
# 1 75.9506 34.1242 8.2604 0.0000 -1.9880 -0.0001
# 2 34.1242 95.3587 14.9410 -0.0001 6.7525 -0.0003
# 3 8.2604 14.9410 39.3027 0.0000 -21.7038 0.0000
# 4 0.0000 -0.0001 0.0000 27.5635 0.0000 -38.0514
# 5 -1.9880 6.7525 -21.7038 0.0000 30.4412 0.0000
# 6 -0.0001 -0.0003 0.0000 -38.0514 0.0000 -113.4581
#
#
#
# Elastic Compliance Matrix: (Units=1/GPa)
#
#
# Indices 1 2 3 4 5 6 
#
# 1 0.015852 -0.005911 0.000348 0.000000 0.002595 0.000000
# 2 -0.005911 0.015110 -0.010830 0.000000 -0.011459 0.000000
# 3 0.000348 -0.010830 0.050845 0.000000 0.038677 0.000000
# 4 0.000000 0.000000 0.000000 0.024798 0.000000 -0.008317
# 5 0.002595 -0.011459 0.038677 0.000000 0.063137 0.000000
# 6 0.000000 0.000000 0.000000 -0.008317 0.000000 -0.006025
#
#
# Mechanical properties :
#
#
# Convention : Reuss Voigt Hill
#
# Bulk Modulus (GPa) = 20.39881 36.14036 28.26958
# Shear Modulus (GPa) = 23.49125 -0.87159 11.30983
#
# Velocity S-wave (km/s) = 3.09360 -0.59589 2.14654
# Velocity P-wave (km/s) = 4.59032 3.77494 4.20245
#
# Compressibility (1/GPa) = 0.04902247
#
# Stress axis : x y z
#
# Youngs Moduli (GPa) = 63.08229 66.17993 19.66747
#
# Poissons Ratio (x) = 0.39119 -0.00685
# Poissons Ratio (y) = 0.37288 0.21300
# Poissons Ratio (z) = -0.02197 0.71672
#
# Static dielectric constant tensor:
#      x y z
#    x 2.028460 0.000000 -0.087930 
#    y 0.000000 1.928860 0.000000 
#    z -0.087930 0.000000 2.041460 
# 
# From -- ./inp_files/36503.got.cif
#   From: 2010.05.17/outbox.cif.g08.bks.cpg/sg9_19_cif.got.tgz:36503.got - 2010.06.03 20:04:27.
