data_PCOD9135476
_publ_section_title
;
Structure prediction by ZEFSAII (Michael W. Deem and Ramdas Pophale) SiO2 
 PCOD9135476
Probable space group: C C
;
_chemical_formula_sum "Si O2"
_cell_formula_units_Z 24
_cell_length_a 6.917573
_cell_length_b 18.938999
_cell_length_c 7.104859
_cell_angle_alpha 90.000000
_cell_angle_beta 58.775274
_cell_angle_gamma 90.000000
_cell_volume 795.982968
_symmetry_space_group_name_H-M "C C"
_symmetry_group_IT_number 9
_symmetry_cell_setting 'monoclinic'
loop_
_space_group_symop_operation_xyz
x,y,z
x,-y,1/2+z
1/2+x,1/2+y,z
1/2+x,1/2-y,1/2+z
loop_
_atom_site_type_symbol
_atom_site_label
_atom_site_fract_x
_atom_site_fract_y
_atom_site_fract_z
Si Si1 0.468680 0.597083 0.676030
Si Si2 0.031909 0.250000 0.234484
Si Si3 0.095138 0.597084 0.292942
Si Si4 0.571536 0.440483 0.724171
Si Si5 0.992284 0.440483 0.244801
Si Si6 0.781909 0.780710 0.484484
O O1 0.508356 0.523313 0.765377
O O2 0.609807 0.588593 0.413240
O O3 0.210575 0.596187 0.723975
O O4 0.469360 0.664866 0.802747
O O5 0.781909 0.250009 0.484484
O O6 0.895442 0.255768 0.104350
O O7 0.168377 0.244233 0.364617
O O8 0.353246 0.596189 0.244996
O O9 0.055462 0.523314 0.203596
O O10 0.954014 0.588593 0.555732
O O11 0.094459 0.664867 0.166222
O O12 0.781910 0.429640 0.484485
#
# Coordination Sequence:
#
# PCOD9135476 Si02
#       6
#     4   4   4   4   4   4
#     4  10  22  40  69 119 168 222 284 339 438 531
#     4  12  32  68  94 128 174 228 308 398 462 524
#     4  10  22  40  69 119 168 222 284 339 438 531
#     4  10  20  40  67 118 185 224 274 349 423 541
#     4  10  20  40  67 118 185 224 274 349 423 541
#     4  12  28  56  90 126 172 234 300 382 462 534
#
# _framework density 30.151396999999999
#
# number of rings (size 3 to 8) (size 9 to 14) (size 15 to 20)
#    0.000    1.333    0.000    6.000    4.667    1.333 
#   12.000    0.000    0.000    0.000    0.000    0.000 
#    0.000    0.000    0.000    0.000    0.000    0.000 
#
# Total GULP energy -66962.454074 kJ/mol
# GULP energy per Si atom -5580.204506 kJ/mol
# Density = 3.008277 g / cm^3
# Si number density = 30.151397 Si / 1000 Ang^3
#
#
#
# Elastic Constant Matrix: (Units=GPa)
#
#
# Indices 1 2 3 4 5 6 
#
# 1 202.2687 64.8986 108.1726 0.0000 34.1015 0.0000
# 2 64.8986 90.0804 28.7754 0.0000 27.8302 0.0000
# 3 108.1726 28.7754 331.0795 0.0000 15.4178 0.0000
# 4 0.0000 0.0000 0.0000 20.8658 0.0000 -47.0159
# 5 34.1015 27.8302 15.4178 0.0000 95.6191 0.0000
# 6 0.0000 0.0000 0.0000 -47.0159 0.0000 -94.2640
#
#
#
# Elastic Compliance Matrix: (Units=1/GPa)
#
#
# Indices 1 2 3 4 5 6 
#
# 1 0.007691 -0.004545 -0.002067 0.000000 -0.001087 0.000000
# 2 -0.004545 0.015157 0.000300 0.000000 -0.002839 0.000000
# 3 -0.002067 0.000300 0.003667 0.000000 0.000059 0.000000
# 4 0.000000 0.000000 0.000000 0.022565 0.000000 -0.011255
# 5 -0.001087 -0.002839 0.000059 0.000000 0.011663 0.000000
# 6 0.000000 0.000000 0.000000 -0.011255 0.000000 -0.004995
#
#
# Mechanical properties :
#
#
# Convention : Reuss Voigt Hill
#
# Bulk Modulus (GPa) = 71.99275 114.12463 93.05869
# Shear Modulus (GPa) = 68.49105 32.54965 50.52035
#
# Velocity S-wave (km/s) = 4.77127 3.28920 4.09780
# Velocity P-wave (km/s) = 7.36765 7.23587 7.30206
#
# Compressibility (1/GPa) = 0.01389029
#
# Stress axis : x y z
#
# Youngs Moduli (GPa) = 130.02391 65.97689 272.69914
#
# Poissons Ratio (x) = 0.29985 0.56373
# Poissons Ratio (y) = 0.59093 -0.08175
# Poissons Ratio (z) = 0.26879 -0.01978
#
# Static dielectric constant tensor:
#      x y z
#    x 2.317390 0.000000 -0.156210 
#    y 0.000000 2.509370 0.000000 
#    z -0.156210 0.000000 2.456400 
# 
# From -- ./inp_files/5983.got.cif
#   From: 2010.05.17/outbox.cif.g08.bks.cpg/sg9_3_cif.got.tgz:5983.got - 2010.06.03 20:04:27.
