data_PCOD9135013
_publ_section_title
;
Structure prediction by ZEFSAII (Michael W. Deem and Ramdas Pophale) SiO2 
 PCOD9135013
Probable space group: C C
;
_chemical_formula_sum "Si O2"
_cell_formula_units_Z 32
_cell_length_a 14.250618
_cell_length_b 19.799336
_cell_length_c 8.640900
_cell_angle_alpha 90.000000
_cell_angle_beta 31.856398
_cell_angle_gamma 90.000000
_cell_volume 1286.785628
_symmetry_space_group_name_H-M "C C"
_symmetry_group_IT_number 9
_symmetry_cell_setting 'monoclinic'
loop_
_space_group_symop_operation_xyz
x,y,z
x,-y,1/2+z
1/2+x,1/2+y,z
1/2+x,1/2-y,1/2+z
loop_
_atom_site_type_symbol
_atom_site_label
_atom_site_fract_x
_atom_site_fract_y
_atom_site_fract_z
Si Si1 0.857810 0.095727 0.868060
Si Si2 0.234716 0.737655 0.352459
Si Si3 0.015163 0.661602 0.407306
Si Si4 0.232028 0.946574 0.264662
Si Si5 0.961805 0.842934 0.779538
Si Si6 0.733911 0.406298 0.901396
Si Si7 0.606528 0.904071 0.333675
Si Si8 0.724525 0.977609 0.861549
O O1 0.050780 0.128835 0.607162
O O2 0.857997 0.029624 0.759573
O O3 0.690570 0.143483 0.066366
O O4 0.813901 0.065377 0.100797
O O5 0.099429 0.693048 0.443849
O O6 0.367743 0.692056 0.263652
O O7 0.111220 0.789405 0.623866
O O8 0.362808 0.785641 0.068954
O O9 0.908700 0.592133 0.576719
O O10 0.069326 0.909639 0.580086
O O11 0.243330 0.025014 0.287100
O O12 0.219115 0.928329 0.101395
O O13 0.788415 0.864683 0.116134
O O14 0.918329 0.367490 0.614016
O O15 0.593873 0.969162 0.462635
O O16 0.636256 0.933279 0.119065
#
# Coordination Sequence:
#
# PCOD9135013 Si02
#       8
#     4   4   4   4   4   4   4   4
#     4  11  21  37  59  89 125 163 195 236 290 357
#     4   9  20  39  62  88 108 148 214 263 292 343
#     4  10  20  36  61  85 112 148 202 256 293 330
#     4  11  23  38  61  93 125 160 194 236 295 362
#     4  10  21  39  64  86 114 155 206 255 298 340
#     4  12  23  35  56  93 133 162 191 226 289 375
#     4  11  21  36  57  86 124 161 193 239 294 358
#     4  10  21  36  58  86 123 161 197 233 291 367
#
# _framework density 24.868167
#
# number of rings (size 3 to 8) (size 9 to 14) (size 15 to 20)
#    0.000    1.500    0.000    7.500    0.000    1.000 
#    0.000    3.750    0.000   21.000    0.000    0.000 
#    0.000    0.000    0.000    0.000    0.000    0.000 
#
# Total GULP energy -89452.243573 kJ/mol
# GULP energy per Si atom -5590.765223 kJ/mol
# Density = 2.481157 g / cm^3
# Si number density = 24.868167 Si / 1000 Ang^3
#
#
#
# Elastic Constant Matrix: (Units=GPa)
#
#
# Indices 1 2 3 4 5 6 
#
# 1 61.1656 6.3931 41.3814 0.0013 -10.4611 -0.0018
# 2 6.3931 49.2370 17.1614 0.0041 -8.8850 -0.0019
# 3 41.3814 17.1614 156.5428 0.0102 -42.8151 -0.0030
# 4 0.0013 0.0041 0.0102 20.0839 -0.0010 -5.5266
# 5 -10.4611 -8.8850 -42.8151 -0.0010 61.0406 0.0005
# 6 -0.0018 -0.0019 -0.0030 -5.5266 0.0005 9.4317
#
#
#
# Elastic Compliance Matrix: (Units=1/GPa)
#
#
# Indices 1 2 3 4 5 6 
#
# 1 0.019947 -0.000819 -0.005297 0.000002 -0.000416 0.000003
# 2 -0.000819 0.021310 -0.001621 -0.000003 0.001825 0.000002
# 3 -0.005297 -0.001621 0.009470 -0.000004 0.005499 -0.000001
# 4 0.000002 -0.000003 -0.000004 0.059363 -0.000002 0.034784
# 5 -0.000416 0.001825 0.005499 -0.000002 0.020434 0.000000
# 6 0.000003 0.000002 -0.000001 0.034784 0.000000 0.126408
#
#
# Mechanical properties :
#
#
# Convention : Reuss Voigt Hill
#
# Bulk Modulus (GPa) = 28.36522 44.09081 36.22802
# Shear Modulus (GPa) = 17.59597 31.57854 24.58726
#
# Velocity S-wave (km/s) = 2.66290 3.56734 3.14778
# Velocity P-wave (km/s) = 4.57009 5.89375 5.27361
#
# Compressibility (1/GPa) = 0.03525444
#
# Stress axis : x y z
#
# Youngs Moduli (GPa) = 50.13251 46.92541 105.59866
#
# Poissons Ratio (x) = 0.03843 0.55935
# Poissons Ratio (y) = 0.04105 0.17114
# Poissons Ratio (z) = 0.26555 0.07605
#
# Static dielectric constant tensor:
#      x y z
#    x 2.043480 0.000000 -0.019690 
#    y 0.000000 1.993620 0.000000 
#    z -0.019690 0.000000 2.022340 
# 
# From -- ./inp_files/10085.got.cif
#   From: 2010.05.17/outbox.cif.g08.bks.cpg/sg9_6_cif.got.tgz:10085.got - 2010.06.03 20:04:27.
