data_PCOD9135334
_publ_section_title
;
Structure prediction by ZEFSAII (Michael W. Deem and Ramdas Pophale) SiO2 
 PCOD9135334
Probable space group: C C
;
_chemical_formula_sum "Si O2"
_cell_formula_units_Z 28
_cell_length_a 17.623542
_cell_length_b 5.978373
_cell_length_c 27.562026
_cell_angle_alpha 90.000000
_cell_angle_beta 156.703035
_cell_angle_gamma 90.000000
_cell_volume 1148.498346
_symmetry_space_group_name_H-M "C C"
_symmetry_group_IT_number 9
_symmetry_cell_setting 'monoclinic'
loop_
_space_group_symop_operation_xyz
x,y,z
x,-y,1/2+z
1/2+x,1/2+y,z
1/2+x,1/2-y,1/2+z
loop_
_atom_site_type_symbol
_atom_site_label
_atom_site_fract_x
_atom_site_fract_y
_atom_site_fract_z
Si Si1 0.408430 0.761488 0.421180
Si Si2 0.755898 0.020212 0.168210
Si Si3 0.151882 0.794838 0.188559
Si Si4 0.546035 0.186762 0.367694
Si Si5 0.357533 0.071819 0.538990
Si Si6 0.786369 0.953939 0.431942
Si Si7 0.235443 0.647829 0.053527
O O1 0.256948 0.879384 0.297716
O O2 0.311896 0.562279 0.394339
O O3 0.529275 0.938107 0.524315
O O4 0.580821 0.680914 0.486811
O O5 0.792017 0.226917 0.226387
O O6 0.837329 0.047945 0.161305
O O7 0.835377 0.794368 0.238626
O O8 0.052256 0.561052 0.144968
O O9 0.980535 0.950231 0.071214
O O10 0.690262 0.396786 0.452595
O O11 0.603803 0.056120 0.352565
O O12 0.610732 0.038061 0.451447
O O13 0.292576 0.200054 0.452299
O O14 0.364586 0.236990 0.589097
#
# Coordination Sequence:
#
# PCOD9135334 Si02
#       7
#     4   4   4   4   4   4   4
#     4   9  20  41  66  92 130 179 226 280 337 406
#     4   9  21  40  63  92 126 175 220 272 336 401
#     4  10  20  40  62  89 132 166 220 284 323 402
#     4  10  20  39  64  90 136 169 218 283 328 407
#     4  10  21  38  62  96 127 173 219 269 347 404
#     4   9  21  39  61  92 132 170 217 276 339 400
#     4   9  21  41  62  93 131 170 228 274 334 406
#
# _framework density 24.379660000000001
#
# number of rings (size 3 to 8) (size 9 to 14) (size 15 to 20)
#    0.857    1.714    0.000    0.857    0.000    5.714 
#    5.143    5.714    0.000    0.000    0.000    0.000 
#    0.000    0.000    0.000    0.000    0.000    0.000 
#
# Total GULP energy -78070.712579 kJ/mol
# GULP energy per Si atom -5576.479470 kJ/mol
# Density = 2.432417 g / cm^3
# Si number density = 24.379660 Si / 1000 Ang^3
#
#
#
# Elastic Constant Matrix: (Units=GPa)
#
#
# Indices 1 2 3 4 5 6 
#
# 1 122.8420 42.7363 15.6803 0.0001 -13.9316 0.0009
# 2 42.7363 68.7271 20.5328 -0.0006 0.9492 0.0043
# 3 15.6803 20.5328 106.0864 0.0053 -18.6034 0.0001
# 4 0.0001 -0.0006 0.0053 28.3762 -0.0004 11.4349
# 5 -13.9316 0.9492 -18.6034 -0.0004 31.1221 0.0006
# 6 0.0009 0.0043 0.0001 11.4349 0.0006 42.4769
#
#
#
# Elastic Compliance Matrix: (Units=1/GPa)
#
#
# Indices 1 2 3 4 5 6 
#
# 1 0.011224 -0.007282 0.000749 0.000000 0.005694 0.000001
# 2 -0.007282 0.020347 -0.003957 0.000002 -0.006246 -0.000002
# 3 0.000749 -0.003957 0.011351 -0.000002 0.007241 0.000001
# 4 0.000000 0.000002 -0.000002 0.039529 -0.000001 -0.010641
# 5 0.005694 -0.006246 0.007241 -0.000001 0.039199 0.000000
# 6 0.000001 -0.000002 0.000001 -0.010641 0.000000 0.026407
#
#
# Mechanical properties :
#
#
# Convention : Reuss Voigt Hill
#
# Bulk Modulus (GPa) = 45.57403 50.61716 48.09559
# Shear Modulus (GPa) = 28.35250 34.97542 31.66396
#
# Velocity S-wave (km/s) = 3.41392 3.79174 3.60778
# Velocity P-wave (km/s) = 5.85438 6.32272 6.09306
#
# Compressibility (1/GPa) = 0.02194232
#
# Stress axis : x y z
#
# Youngs Moduli (GPa) = 89.09454 49.14788 88.09573
#
# Poissons Ratio (x) = 0.35788 -0.06598
# Poissons Ratio (y) = 0.64877 0.34860
# Poissons Ratio (z) = -0.06672 0.19448
#
# Static dielectric constant tensor:
#      x y z
#    x 1.998050 0.000000 0.002880 
#    y 0.000000 1.956970 -0.000010 
#    z 0.002880 -0.000010 1.963930 
# 
# From -- ./inp_files/35708.got.cif
#   From: 2010.05.17/outbox.cif.g08.bks.cpg/sg9_18_cif.got.tgz:35708.got - 2010.06.03 20:04:27.
