data_PCOD9135141
_publ_section_title
;
Structure prediction by ZEFSAII (Michael W. Deem and Ramdas Pophale) SiO2 
 PCOD9135141
Probable space group: C C
;
_chemical_formula_sum "Si O2"
_cell_formula_units_Z 24
_cell_length_a 7.621366
_cell_length_b 12.559503
_cell_length_c 13.585869
_cell_angle_alpha 90.000000
_cell_angle_beta 126.638668
_cell_angle_gamma 90.000000
_cell_volume 1043.498153
_symmetry_space_group_name_H-M "C C"
_symmetry_group_IT_number 9
_symmetry_cell_setting 'monoclinic'
loop_
_space_group_symop_operation_xyz
x,y,z
x,-y,1/2+z
1/2+x,1/2+y,z
1/2+x,1/2-y,1/2+z
loop_
_atom_site_type_symbol
_atom_site_label
_atom_site_fract_x
_atom_site_fract_y
_atom_site_fract_z
Si Si1 0.224240 0.211549 0.527780
Si Si2 0.631472 0.494285 0.752684
Si Si3 0.912156 0.026084 0.499096
Si Si4 0.210777 0.538291 0.243957
Si Si5 0.798600 0.728896 0.777551
Si Si6 0.028551 0.590606 0.506408
O O1 0.315637 0.241822 0.665131
O O2 0.423392 0.194386 0.520107
O O3 0.088453 0.102535 0.505975
O O4 0.029651 0.278493 0.412255
O O5 0.552112 0.453415 0.619452
O O6 0.441090 0.467668 0.764527
O O7 0.670693 0.621097 0.757563
O O8 0.851656 0.447223 0.868599
O O9 0.756997 0.978239 0.362396
O O10 0.754564 0.090361 0.522350
O O11 0.173755 0.661032 0.262694
O O12 0.051579 0.488358 0.109327
#
# Coordination Sequence:
#
# PCOD9135141 Si02
#       6
#     4   4   4   4   4   4
#     4  10  21  41  59  92 127 168 213 268 325 386
#     4  10  20  37  65  90 124 168 213 261 327 387
#     4   9  21  36  60  87 125 161 210 263 316 388
#     4  10  21  40  62  93 128 170 216 264 328 390
#     4  10  20  39  65  88 131 168 211 270 323 385
#     4  11  21  37  63  92 125 169 215 264 327 390
#
# _framework density 22.999561
#
# number of rings (size 3 to 8) (size 9 to 14) (size 15 to 20)
#    0.000    2.000    3.333    1.000    4.667    0.000 
#    0.000   10.000    0.000    2.000    0.000    0.000 
#    0.000    0.000    0.000    0.000    0.000    0.000 
#
# Total GULP energy -66903.292401 kJ/mol
# GULP energy per Si atom -5575.274367 kJ/mol
# Density = 2.294721 g / cm^3
# Si number density = 22.999561 Si / 1000 Ang^3
#
#
#
# Elastic Constant Matrix: (Units=GPa)
#
#
# Indices 1 2 3 4 5 6 
#
# 1 69.3649 6.1374 16.0443 0.0000 5.6631 0.0000
# 2 6.1374 53.0009 -4.5105 0.0000 -7.2658 0.0000
# 3 16.0443 -4.5105 144.9470 0.0000 -32.0487 0.0000
# 4 0.0000 0.0000 0.0000 28.5459 0.0000 -7.7313
# 5 5.6631 -7.2658 -32.0487 0.0000 33.7169 0.0000
# 6 0.0000 0.0000 0.0000 -7.7313 0.0000 23.8845
#
#
#
# Elastic Compliance Matrix: (Units=1/GPa)
#
#
# Indices 1 2 3 4 5 6 
#
# 1 0.015972 -0.003015 -0.003290 0.000000 -0.006460 0.000000
# 2 -0.003015 0.020451 0.002604 0.000000 0.007388 0.000000
# 3 -0.003290 0.002604 0.009610 0.000000 0.010248 0.000000
# 4 0.000000 0.000000 0.000000 0.038398 0.000000 0.012429
# 5 -0.006460 0.007388 0.010248 0.000000 0.042077 0.000000
# 6 0.000000 0.000000 0.000000 0.012429 0.000000 0.045891
#
#
# Mechanical properties :
#
#
# Convention : Reuss Voigt Hill
#
# Bulk Modulus (GPa) = 25.88615 33.62835 29.75725
# Shear Modulus (GPa) = 25.94997 33.87225 29.91111
#
# Velocity S-wave (km/s) = 3.36263 3.84179 3.61017
# Velocity P-wave (km/s) = 5.13380 5.85936 5.50854
#
# Compressibility (1/GPa) = 0.03863070
#
# Stress axis : x y z
#
# Youngs Moduli (GPa) = 62.61105 48.89692 104.05549
#
# Poissons Ratio (x) = 0.14742 0.34234
# Poissons Ratio (y) = 0.18877 -0.27094
# Poissons Ratio (z) = 0.20599 -0.12732
#
# Static dielectric constant tensor:
#      x y z
#    x 1.818160 0.000000 -0.010620 
#    y 0.000000 1.898020 0.000000 
#    z -0.010620 0.000000 1.975810 
# 
# From -- ./inp_files/14212.got.cif
#   From: 2010.05.17/outbox.cif.g08.bks.cpg/sg9_8_cif.got.tgz:14212.got - 2010.06.03 20:04:27.
