data_PCOD9135986
_publ_section_title
;
Structure prediction by ZEFSAII (Michael W. Deem and Ramdas Pophale) SiO2 
 PCOD9135986
Probable space group: C C
;
_chemical_formula_sum "Si O2"
_cell_formula_units_Z 32
_cell_length_a 20.066432
_cell_length_b 14.343247
_cell_length_c 5.177291
_cell_angle_alpha 90.000000
_cell_angle_beta 73.295223
_cell_angle_gamma 90.000000
_cell_volume 1427.231356
_symmetry_space_group_name_H-M "C C"
_symmetry_group_IT_number 9
_symmetry_cell_setting 'monoclinic'
loop_
_space_group_symop_operation_xyz
x,y,z
x,-y,1/2+z
1/2+x,1/2+y,z
1/2+x,1/2-y,1/2+z
loop_
_atom_site_type_symbol
_atom_site_label
_atom_site_fract_x
_atom_site_fract_y
_atom_site_fract_z
Si Si1 0.788650 0.604167 0.087330
Si Si2 0.852114 0.395833 0.017954
Si Si3 0.649843 0.204747 0.260962
Si Si4 0.403631 0.549747 0.693781
Si Si5 0.737133 0.950253 0.411450
Si Si6 0.641600 0.325923 0.769431
Si Si7 0.990920 0.795252 0.844272
Si Si8 0.999163 0.674076 0.335803
O O1 0.820381 0.500000 0.052655
O O2 0.820378 0.652266 0.302654
O O3 0.705656 0.603083 0.177596
O O4 0.820386 0.652743 0.802645
O O5 0.935108 0.396919 0.927647
O O6 0.710349 0.143341 0.073009
O O7 0.658853 0.245620 0.537136
O O8 0.577458 0.146503 0.324922
O O9 0.640107 0.288615 0.064618
O O10 0.427572 0.471281 0.458788
O O11 0.430414 0.643342 0.532224
O O12 0.320382 0.549886 0.802616
O O13 0.713192 0.971281 0.146441
O O14 0.563305 0.353496 0.780313
O O15 0.000656 0.711383 0.040616
O O16 0.981910 0.754380 0.568096
#
# Coordination Sequence:
#
# PCOD9135986 Si02
#       8
#     4   4   4   4   4   4   4   4
#     4  10  21  38  56  83 122 158 197 247 297 358
#     4  10  21  38  56  83 122 158 197 247 297 358
#     4  10  21  38  60  87 115 158 199 247 303 355
#     4  10  21  38  57  85 117 144 191 245 299 360
#     4  10  21  38  57  85 117 144 191 245 299 360
#     4  10  21  38  59  85 121 152 204 248 289 366
#     4  10  21  38  60  87 115 158 199 247 303 355
#     4  10  21  38  59  85 121 152 204 248 289 366
#
# _framework density 22.421035
#
# number of rings (size 3 to 8) (size 9 to 14) (size 15 to 20)
#    0.000    2.000    0.000    3.000    0.000    3.000 
#    9.000    0.000    0.000    0.000    0.000    0.000 
#    0.000    0.000    0.000    0.000    0.000    0.000 
#
# Total GULP energy -89241.573504 kJ/mol
# GULP energy per Si atom -5577.598344 kJ/mol
# Density = 2.237000 g / cm^3
# Si number density = 22.421035 Si / 1000 Ang^3
#
#
#
# Elastic Constant Matrix: (Units=GPa)
#
#
# Indices 1 2 3 4 5 6 
#
# 1 65.9395 18.6248 40.1989 0.0000 -4.4259 0.0000
# 2 18.6248 23.8970 4.6893 0.0000 -10.7573 0.0000
# 3 40.1989 4.6893 145.0106 0.0000 8.6882 0.0000
# 4 0.0000 0.0000 0.0000 20.6727 0.0000 -18.7000
# 5 -4.4259 -10.7573 8.6882 0.0000 36.8493 0.0000
# 6 0.0000 0.0000 0.0000 -18.7000 0.0000 27.0598
#
#
#
# Elastic Compliance Matrix: (Units=1/GPa)
#
#
# Indices 1 2 3 4 5 6 
#
# 1 0.023749 -0.017759 -0.005954 0.000000 -0.000928 0.000000
# 2 -0.017759 0.062320 0.001973 0.000000 0.015594 0.000000
# 3 -0.005954 0.001973 0.008613 0.000000 -0.002170 0.000000
# 4 0.000000 0.000000 0.000000 0.129036 0.000000 0.089172
# 5 -0.000928 0.015594 -0.002170 0.000000 0.032090 0.000000
# 6 0.000000 0.000000 0.000000 0.089172 0.000000 0.098579
#
#
# Mechanical properties :
#
#
# Convention : Reuss Voigt Hill
#
# Bulk Modulus (GPa) = 19.53009 40.20812 29.86911
# Shear Modulus (GPa) = 12.05018 28.33863 20.19440
#
# Velocity S-wave (km/s) = 2.32081 3.55904 3.00441
# Velocity P-wave (km/s) = 3.98887 5.90433 5.03846
#
# Compressibility (1/GPa) = 0.05120304
#
# Stress axis : x y z
#
# Youngs Moduli (GPa) = 42.10776 16.04633 116.10859
#
# Poissons Ratio (x) = 0.28496 0.69126
# Poissons Ratio (y) = 0.74778 -0.22912
# Poissons Ratio (z) = 0.25069 -0.03166
#
# Static dielectric constant tensor:
#      x y z
#    x 1.848770 0.000000 -0.005080 
#    y 0.000000 1.807460 0.000000 
#    z -0.005080 0.000000 1.821280 
# 
# From -- ./inp_files/3017.got.cif
#   From: 2010.05.17/outbox.cif.g08.bks.cpg/sg9_2_cif.got.tgz:3017.got - 2010.06.03 20:04:27.
