data_PCOD9135011
_publ_section_title
;
Structure prediction by ZEFSAII (Michael W. Deem and Ramdas Pophale) SiO2 
 PCOD9135011
Probable space group: C C
;
_chemical_formula_sum "Si O2"
_cell_formula_units_Z 32
_cell_length_a 9.503557
_cell_length_b 15.493761
_cell_length_c 8.727277
_cell_angle_alpha 90.000000
_cell_angle_beta 98.646484
_cell_angle_gamma 90.000000
_cell_volume 1270.450250
_symmetry_space_group_name_H-M "C C"
_symmetry_group_IT_number 9
_symmetry_cell_setting 'monoclinic'
loop_
_space_group_symop_operation_xyz
x,y,z
x,-y,1/2+z
1/2+x,1/2+y,z
1/2+x,1/2-y,1/2+z
loop_
_atom_site_type_symbol
_atom_site_label
_atom_site_fract_x
_atom_site_fract_y
_atom_site_fract_z
Si Si1 0.630940 0.842597 0.828440
Si Si2 0.065308 0.740100 0.911516
Si Si3 0.827064 0.259838 0.151519
Si Si4 0.976218 0.435252 0.544284
Si Si5 0.676323 0.571274 0.172465
Si Si6 0.392614 0.386426 0.052418
Si Si7 0.373501 0.883703 0.939358
Si Si8 0.502366 0.453814 0.364182
O O1 0.720803 0.766087 0.768307
O O2 0.599325 0.914751 0.691294
O O3 0.480180 0.818344 0.874014
O O4 0.730415 0.871429 0.981802
O O5 0.984293 0.766947 0.738385
O O6 0.995143 0.646415 0.937173
O O7 0.994692 0.807195 0.021900
O O8 0.232112 0.726347 0.989003
O O9 0.844811 0.358643 0.107807
O O10 0.828015 0.434851 0.613495
O O11 0.956704 0.525315 0.452430
O O12 0.723312 0.623951 0.329106
O O13 0.614829 0.488111 0.253373
O O14 0.572753 0.596170 0.017410
O O15 0.398196 0.405629 0.233290
O O16 0.437697 0.463993 0.943298
#
# Coordination Sequence:
#
# PCOD9135011 Si02
#       8
#     4   4   4   4   4   4   4   4
#     4   9  23  44  62 101 144 179 238 298 366 424
#     4  10  23  41  70  98 149 186 233 304 374 409
#     4  10  23  45  68 102 144 189 230 309 359 431
#     4  10  22  37  66 106 134 181 238 304 347 430
#     4  10  20  36  61 108 129 171 247 295 337 416
#     4  10  22  42  64  95 143 193 232 295 362 437
#     4  11  22  39  77 100 136 190 247 290 361 444
#     4  10  21  36  66  98 135 189 237 291 348 427
#
# _framework density 25.187922
#
# number of rings (size 3 to 8) (size 9 to 14) (size 15 to 20)
#    0.000    2.000    1.250    0.750    8.750    0.000 
#    0.000   12.500   22.000    0.000    0.000    0.000 
#    0.000    0.000    0.000    0.000    0.000    0.000 
#
# Total GULP energy -89082.638852 kJ/mol
# GULP energy per Si atom -5567.664928 kJ/mol
# Density = 2.513059 g / cm^3
# Si number density = 25.187922 Si / 1000 Ang^3
#
#
#
# Elastic Constant Matrix: (Units=GPa)
#
#
# Indices 1 2 3 4 5 6 
#
# 1 77.4358 18.7773 48.4249 0.0000 41.0981 0.0000
# 2 18.7773 74.4417 54.6308 0.0000 9.5112 0.0000
# 3 48.4249 54.6308 228.2406 0.0000 57.0005 0.0000
# 4 0.0000 0.0000 0.0000 38.5158 0.0000 -4.3529
# 5 41.0981 9.5112 57.0005 0.0000 53.0667 0.0000
# 6 0.0000 0.0000 0.0000 -4.3529 0.0000 18.0756
#
#
#
# Elastic Compliance Matrix: (Units=1/GPa)
#
#
# Indices 1 2 3 4 5 6 
#
# 1 0.022849 -0.003853 0.000439 0.000000 -0.017477 0.000000
# 2 -0.003853 0.017063 -0.004439 0.000000 0.004694 0.000000
# 3 0.000439 -0.004439 0.007157 0.000000 -0.007232 0.000000
# 4 0.000000 0.000000 0.000000 0.026690 0.000000 0.006427
# 5 -0.017477 0.004694 -0.007232 0.000000 0.039306 0.000000
# 6 0.000000 0.000000 0.000000 0.006427 0.000000 0.056871
#
#
# Mechanical properties :
#
#
# Convention : Reuss Voigt Hill
#
# Bulk Modulus (GPa) = 31.88385 69.30933 50.59659
# Shear Modulus (GPa) = 25.49778 39.15063 32.32420
#
# Velocity S-wave (km/s) = 3.18512 3.94679 3.58623
# Velocity P-wave (km/s) = 5.11982 6.95314 6.10568
#
# Compressibility (1/GPa) = 0.03136384
#
# Stress axis : x y z
#
# Youngs Moduli (GPa) = 43.76494 58.60612 139.72936
#
# Poissons Ratio (x) = 0.22579 -0.06134
# Poissons Ratio (y) = 0.16862 0.62024
# Poissons Ratio (z) = -0.01921 0.26015
#
# Static dielectric constant tensor:
#      x y z
#    x 1.976260 0.000000 0.029430 
#    y 0.000000 2.176830 0.000000 
#    z 0.029430 0.000000 2.083450 
# 
# From -- ./inp_files/7626.got.cif
#   From: 2010.05.17/outbox.cif.g08.bks.cpg/sg9_4_cif.got.tgz:7626.got - 2010.06.03 20:04:27.
