data_PCOD9135344
_publ_section_title
;
Structure prediction by ZEFSAII (Michael W. Deem and Ramdas Pophale) SiO2 
 PCOD9135344
Probable space group: C C
;
_chemical_formula_sum "Si O2"
_cell_formula_units_Z 24
_cell_length_a 7.361588
_cell_length_b 23.531109
_cell_length_c 5.487239
_cell_angle_alpha 90.000000
_cell_angle_beta 97.189469
_cell_angle_gamma 90.000000
_cell_volume 943.060906
_symmetry_space_group_name_H-M "C C"
_symmetry_group_IT_number 9
_symmetry_cell_setting 'monoclinic'
loop_
_space_group_symop_operation_xyz
x,y,z
x,-y,1/2+z
1/2+x,1/2+y,z
1/2+x,1/2-y,1/2+z
loop_
_atom_site_type_symbol
_atom_site_label
_atom_site_fract_x
_atom_site_fract_y
_atom_site_fract_z
Si Si1 0.709350 0.633709 0.588470
Si Si2 0.922296 0.178448 0.857786
Si Si3 0.497290 0.731878 0.377163
Si Si4 0.529990 0.515102 0.493098
Si Si5 0.444612 0.028766 0.123143
Si Si6 0.560121 0.134094 0.898410
O O1 0.621426 0.652291 0.834653
O O2 0.671386 0.689505 0.425773
O O3 0.590066 0.580705 0.483273
O O4 0.917088 0.617305 0.663539
O O5 0.880471 0.210401 0.593001
O O6 0.772399 0.129992 0.871005
O O7 0.922489 0.216875 0.098329
O O8 0.530981 0.798088 0.419383
O O9 0.432790 0.495830 0.232240
O O10 0.722614 0.479893 0.561015
O O11 0.509022 0.001090 0.384206
O O12 0.504383 0.094070 0.110765
#
# Coordination Sequence:
#
# PCOD9135344 Si02
#       6
#     4   4   4   4   4   4
#     4  10  24  45  73  96 142 181 226 285 340 408
#     4  10  27  45  62 111 136 173 239 271 350 414
#     4  10  26  46  67 107 140 180 228 284 349 407
#     4  10  20  39  65 101 127 173 237 272 334 404
#     4  10  22  40  64 103 126 174 242 268 336 405
#     4  12  23  47  75  96 145 185 224 294 335 416
#
# _framework density 25.449045999999999
#
# number of rings (size 3 to 8) (size 9 to 14) (size 15 to 20)
#    1.000    0.667    3.333    1.000    4.667    2.667 
#    3.000    1.667    0.000    0.000    0.000    0.000 
#    0.000    0.000    0.000    0.000    0.000    0.000 
#
# Total GULP energy -67043.726113 kJ/mol
# GULP energy per Si atom -5586.977176 kJ/mol
# Density = 2.539112 g / cm^3
# Si number density = 25.449046 Si / 1000 Ang^3
#
#
#
# Elastic Constant Matrix: (Units=GPa)
#
#
# Indices 1 2 3 4 5 6 
#
# 1 58.3815 10.7619 34.7803 0.0000 -0.7470 0.0000
# 2 10.7619 142.5745 58.1541 0.0000 -11.8579 0.0000
# 3 34.7803 58.1541 187.7568 0.0000 -25.1381 0.0000
# 4 0.0000 0.0000 0.0000 5.5355 0.0000 -4.9725
# 5 -0.7470 -11.8579 -25.1381 0.0000 19.9304 0.0000
# 6 0.0000 0.0000 0.0000 -4.9725 0.0000 27.8032
#
#
#
# Elastic Compliance Matrix: (Units=1/GPa)
#
#
# Indices 1 2 3 4 5 6 
#
# 1 0.019605 -0.000151 -0.004209 0.000000 -0.004664 0.000000
# 2 -0.000151 0.008094 -0.002208 0.000000 0.002025 0.000000
# 3 -0.004209 -0.002208 0.007932 0.000000 0.008533 0.000000
# 4 0.000000 0.000000 0.000000 0.215228 0.000000 0.038493
# 5 -0.004664 0.002025 0.008533 0.000000 0.061968 0.000000
# 6 0.000000 0.000000 0.000000 0.038493 0.000000 0.042851
#
#
# Mechanical properties :
#
#
# Convention : Reuss Voigt Hill
#
# Bulk Modulus (GPa) = 44.45474 66.23394 55.34434
# Shear Modulus (GPa) = 13.28681 29.65491 21.47086
#
# Velocity S-wave (km/s) = 2.28742 3.41730 2.90777
# Velocity P-wave (km/s) = 4.94797 6.45393 5.75046
#
# Compressibility (1/GPa) = 0.02249479
#
# Stress axis : x y z
#
# Youngs Moduli (GPa) = 51.00864 123.54376 126.06911
#
# Poissons Ratio (x) = 0.01863 0.53067
# Poissons Ratio (y) = 0.00769 0.27836
# Poissons Ratio (z) = 0.21471 0.27278
#
# Static dielectric constant tensor:
#      x y z
#    x 2.050590 0.000000 -0.000770 
#    y 0.000000 1.996900 0.000000 
#    z -0.000770 0.000000 2.054640 
# 
# From -- ./inp_files/685.got.cif
#   From: 2010.05.17/outbox.cif.g08.bks.cpg/sg9_1_cif.got.tgz:685.got - 2010.06.03 20:04:27.
