data_PCOD9135179
_publ_section_title
;
Structure prediction by ZEFSAII (Michael W. Deem and Ramdas Pophale) SiO2 
 PCOD9135179
Probable space group: C C
;
_chemical_formula_sum "Si O2"
_cell_formula_units_Z 28
_cell_length_a 6.566338
_cell_length_b 11.922701
_cell_length_c 14.905645
_cell_angle_alpha 90.000000
_cell_angle_beta 107.083623
_cell_angle_gamma 90.000000
_cell_volume 1115.451476
_symmetry_space_group_name_H-M "C C"
_symmetry_group_IT_number 9
_symmetry_cell_setting 'monoclinic'
loop_
_space_group_symop_operation_xyz
x,y,z
x,-y,1/2+z
1/2+x,1/2+y,z
1/2+x,1/2-y,1/2+z
loop_
_atom_site_type_symbol
_atom_site_label
_atom_site_fract_x
_atom_site_fract_y
_atom_site_fract_z
Si Si1 0.095060 0.725629 0.816730
Si Si2 0.759609 0.856282 0.929349
Si Si3 0.433501 0.044398 0.673978
Si Si4 0.368779 0.784475 0.006587
Si Si5 0.861736 0.057293 0.251359
Si Si6 0.047532 0.958354 0.539222
Si Si7 0.077483 0.134991 0.851429
O O1 0.150978 0.779661 0.921697
O O2 0.340952 0.693602 0.821121
O O3 0.973740 0.611930 0.771629
O O4 0.978396 0.826187 0.749858
O O5 0.552517 0.836173 0.965767
O O6 0.768252 0.933937 0.841893
O O7 0.746972 0.734339 0.876217
O O8 0.916716 0.925667 0.016022
O O9 0.375455 0.140154 0.594453
O O10 0.650765 0.980977 0.672942
O O11 0.238962 0.960433 0.634167
O O12 0.410626 0.654111 0.034929
O O13 0.036202 0.958908 0.272227
O O14 0.131768 0.934146 0.449079
#
# Coordination Sequence:
#
# PCOD9135179 Si02
#       7
#     4   4   4   4   4   4   4
#     4   9  20  39  60  82 116 158 198 243 297 354
#     4   9  18  37  62  83 110 152 199 243 300 359
#     4  11  23  38  59  89 123 158 203 251 296 355
#     4  10  22  41  60  84 121 162 199 246 304 360
#     4  10  20  38  58  85 120 153 196 252 299 348
#     4   9  19  36  56  83 117 148 191 248 294 347
#     4   8  18  37  57  82 115 151 192 245 298 353
#
# _framework density 25.101942999999999
#
# number of rings (size 3 to 8) (size 9 to 14) (size 15 to 20)
#    0.000    2.857    0.000    2.571    0.000    6.857 
#    0.000   27.143    0.000    0.000    0.000    0.000 
#    0.000    0.000    0.000    0.000    0.000    0.000 
#
# Total GULP energy -77946.913770 kJ/mol
# GULP energy per Si atom -5567.636698 kJ/mol
# Density = 2.504481 g / cm^3
# Si number density = 25.101943 Si / 1000 Ang^3
#
#
#
# Elastic Constant Matrix: (Units=GPa)
#
#
# Indices 1 2 3 4 5 6 
#
# 1 63.3984 52.6540 51.6441 0.0000 30.0088 0.0000
# 2 52.6540 142.0521 41.9532 0.0000 41.3423 0.0000
# 3 51.6441 41.9532 120.1608 0.0000 31.6410 0.0000
# 4 0.0000 0.0000 0.0000 50.7565 0.0000 10.4291
# 5 30.0088 41.3423 31.6410 0.0000 50.4462 0.0000
# 6 0.0000 0.0000 0.0000 10.4291 0.0000 41.8614
#
#
#
# Elastic Compliance Matrix: (Units=1/GPa)
#
#
# Indices 1 2 3 4 5 6 
#
# 1 0.033469 -0.007231 -0.009796 0.000000 -0.007839 0.000000
# 2 -0.007231 0.011031 0.000604 0.000000 -0.005118 0.000000
# 3 -0.009796 0.000604 0.013077 0.000000 -0.002870 0.000000
# 4 0.000000 0.000000 0.000000 0.020765 0.000000 -0.005173
# 5 -0.007839 -0.005118 -0.002870 0.000000 0.030481 0.000000
# 6 0.000000 0.000000 0.000000 -0.005173 0.000000 0.025177
#
#
# Mechanical properties :
#
#
# Convention : Reuss Voigt Hill
#
# Bulk Modulus (GPa) = 40.43416 68.67931 54.55673
# Shear Modulus (GPa) = 28.55665 40.57015 34.56340
#
# Velocity S-wave (km/s) = 3.37653 4.02458 3.71471
# Velocity P-wave (km/s) = 5.59859 7.00113 6.33877
#
# Compressibility (1/GPa) = 0.02473157
#
# Stress axis : x y z
#
# Youngs Moduli (GPa) = 29.87801 90.65296 76.46894
#
# Poissons Ratio (x) = 0.65555 0.74908
# Poissons Ratio (y) = 0.21606 -0.04620
# Poissons Ratio (z) = 0.29268 -0.05477
#
# Static dielectric constant tensor:
#      x y z
#    x 2.123220 0.000000 -0.051280 
#    y 0.000000 1.982920 0.000000 
#    z -0.051280 0.000000 1.995470 
# 
# From -- ./inp_files/32517.got.cif
#   From: 2010.05.17/outbox.cif.g08.bks.cpg/sg9_17_cif.got.tgz:32517.got - 2010.06.03 20:04:27.
