data_PCOD9135085
_publ_section_title
;
Structure prediction by ZEFSAII (Michael W. Deem and Ramdas Pophale) SiO2 
 PCOD9135085
Probable space group: C C
;
_chemical_formula_sum "Si O2"
_cell_formula_units_Z 28
_cell_length_a 9.013237
_cell_length_b 16.280000
_cell_length_c 15.126526
_cell_angle_alpha 90.000000
_cell_angle_beta 151.013493
_cell_angle_gamma 90.000000
_cell_volume 1075.625422
_symmetry_space_group_name_H-M "C C"
_symmetry_group_IT_number 9
_symmetry_cell_setting 'monoclinic'
loop_
_space_group_symop_operation_xyz
x,y,z
x,-y,1/2+z
1/2+x,1/2+y,z
1/2+x,1/2-y,1/2+z
loop_
_atom_site_type_symbol
_atom_site_label
_atom_site_fract_x
_atom_site_fract_y
_atom_site_fract_z
Si Si1 0.257850 0.380927 0.432430
Si Si2 0.502887 0.673405 0.894884
Si Si3 0.301125 0.988231 0.735456
Si Si4 0.684492 0.213094 0.263978
Si Si5 0.189763 0.036011 0.869333
Si Si6 0.848260 0.880829 0.688983
Si Si7 0.265821 0.340103 0.986307
O O1 0.288954 0.318383 0.368760
O O2 0.532230 0.442615 0.545836
O O3 0.958432 0.435794 0.271346
O O4 0.323091 0.360633 0.570374
O O5 0.864209 0.664410 0.105640
O O6 0.468142 0.598005 0.807980
O O7 0.515727 0.764939 0.861169
O O8 0.563664 0.921016 0.895006
O O9 0.139291 0.024540 0.738039
O O10 0.836692 0.195258 0.249360
O O11 0.552010 0.306224 0.194359
O O12 0.876651 0.175824 0.443663
O O13 0.122590 0.941544 0.860120
O O14 0.538779 0.067589 0.050890
#
# Coordination Sequence:
#
# PCOD9135085 Si02
#       7
#     4   4   4   4   4   4   4
#     4  10  20  37  61  89 122 156 198 256 300 359
#     4   9  20  36  62  86 122 156 201 250 303 359
#     4  10  20  37  60  86 120 156 204 240 305 356
#     4   9  20  37  61  82 123 161 203 240 309 359
#     4   9  19  34  60  85 116 154 193 243 298 356
#     4   9  19  37  57  89 122 156 194 258 298 357
#     4  10  20  38  63  87 119 167 201 245 311 368
#
# _framework density 26.031368000000001
#
# number of rings (size 3 to 8) (size 9 to 14) (size 15 to 20)
#    0.857    1.714    1.429    0.000    2.000    3.429 
#    0.000    2.857    0.000    0.000    0.000    0.000 
#    0.000    0.000    0.000    0.000    0.000    0.000 
#
# Total GULP energy -77998.140028 kJ/mol
# GULP energy per Si atom -5571.295716 kJ/mol
# Density = 2.597212 g / cm^3
# Si number density = 26.031368 Si / 1000 Ang^3
#
#
#
# Elastic Constant Matrix: (Units=GPa)
#
#
# Indices 1 2 3 4 5 6 
#
# 1 167.6407 57.5761 11.0607 0.0140 -4.1541 -0.0092
# 2 57.5761 85.6563 4.4157 0.0498 4.9835 -0.0089
# 3 11.0607 4.4157 55.3057 0.1100 6.6922 -0.0244
# 4 0.0140 0.0498 0.1100 29.3138 -0.0067 12.6407
# 5 -4.1541 4.9835 6.6922 -0.0067 12.9642 -0.0115
# 6 -0.0092 -0.0089 -0.0244 12.6407 -0.0115 46.8514
#
#
#
# Elastic Compliance Matrix: (Units=1/GPa)
#
#
# Indices 1 2 3 4 5 6 
#
# 1 0.008213 -0.005762 -0.001887 0.000016 0.005820 -0.000003
# 2 -0.005762 0.015993 0.000899 -0.000034 -0.008458 0.000009
# 3 -0.001887 0.000899 0.019735 -0.000091 -0.011137 0.000032
# 4 0.000016 -0.000034 -0.000091 0.038606 0.000076 -0.010416
# 5 0.005820 -0.008458 -0.011137 0.000076 0.088001 -0.000005
# 6 -0.000003 0.000009 0.000032 -0.010416 -0.000005 0.024154
#
#
# Mechanical properties :
#
#
# Convention : Reuss Voigt Hill
#
# Bulk Modulus (GPa) = 32.84997 50.52308 41.68652
# Shear Modulus (GPa) = 22.89920 33.52921 28.21421
#
# Velocity S-wave (km/s) = 2.96915 3.59281 3.29577
# Velocity P-wave (km/s) = 4.93976 6.05489 5.52553
#
# Compressibility (1/GPa) = 0.03044143
#
# Stress axis : x y z
#
# Youngs Moduli (GPa) = 121.76225 62.52632 50.67214
#
# Poissons Ratio (x) = 0.36026 0.09561
# Poissons Ratio (y) = 0.70157 -0.04555
# Poissons Ratio (z) = 0.22974 -0.05620
#
# Static dielectric constant tensor:
#      x y z
#    x 2.104000 0.000040 -0.061250 
#    y 0.000040 2.185820 -0.000120 
#    z -0.061250 -0.000120 2.142130 
# 
# From -- ./inp_files/14984.got.cif
#   From: 2010.05.17/outbox.cif.g08.bks.cpg/sg9_8_cif.got.tgz:14984.got - 2010.06.03 20:04:27.
