data_PCOD9135309
_publ_section_title
;
Structure prediction by ZEFSAII (Michael W. Deem and Ramdas Pophale) SiO2 
 PCOD9135309
Probable space group: C C
;
_chemical_formula_sum "Si O2"
_cell_formula_units_Z 32
_cell_length_a 19.443400
_cell_length_b 15.656189
_cell_length_c 13.584907
_cell_angle_alpha 90.000000
_cell_angle_beta 159.066462
_cell_angle_gamma 90.000000
_cell_volume 1477.506649
_symmetry_space_group_name_H-M "C C"
_symmetry_group_IT_number 9
_symmetry_cell_setting 'monoclinic'
loop_
_space_group_symop_operation_xyz
x,y,z
x,-y,1/2+z
1/2+x,1/2+y,z
1/2+x,1/2-y,1/2+z
loop_
_atom_site_type_symbol
_atom_site_label
_atom_site_fract_x
_atom_site_fract_y
_atom_site_fract_z
Si Si1 0.728350 0.043544 0.622060
Si Si2 0.662897 0.858643 0.456066
Si Si3 0.873101 0.617746 0.036950
Si Si4 0.183960 0.715799 0.314808
Si Si5 0.480893 0.414198 0.277295
Si Si6 0.811360 0.525378 0.766460
Si Si7 0.899635 0.314254 0.265157
Si Si8 0.222679 0.552331 0.832547
O O1 0.512036 0.068013 0.297201
O O2 0.879174 0.082678 0.747672
O O3 0.765904 0.080551 0.780066
O O4 0.739614 0.940979 0.620352
O O5 0.788875 0.773791 0.630200
O O6 0.458987 0.836658 0.233495
O O7 0.664995 0.885559 0.344334
O O8 0.023142 0.673846 0.170822
O O9 0.725028 0.684384 0.885170
O O10 0.766348 0.555138 0.817689
O O11 0.387487 0.668399 0.603231
O O12 0.098063 0.699426 0.091667
O O13 0.700856 0.440396 0.585921
O O14 0.393618 0.494202 0.101091
O O15 0.784096 0.607141 0.659603
O O16 0.037612 0.507690 0.070083
#
# Coordination Sequence:
#
# PCOD9135309 Si02
#       8
#     4   4   4   4   4   4   4   4
#     4  10  21  44  65  89 140 179 214 282 337 401
#     4  11  23  40  66  96 136 177 224 278 345 397
#     4  10  21  39  65  95 129 171 218 275 333 394
#     4  10  20  39  62 100 130 161 228 278 322 396
#     4  10  22  41  66  97 130 175 228 274 340 401
#     4  11  21  41  68  97 132 173 229 278 336 401
#     4  11  22  40  68 101 138 171 227 293 333 398
#     4  11  22  44  62  93 139 173 216 284 332 404
#
# _framework density 21.658109
#
# number of rings (size 3 to 8) (size 9 to 14) (size 15 to 20)
#    0.000    1.500    6.250    1.500    7.000    1.000 
#    4.500    3.750    0.000    0.000    0.000    0.000 
#    0.000    0.000    0.000    0.000    0.000    0.000 
#
# Total GULP energy -89317.118664 kJ/mol
# GULP energy per Si atom -5582.319916 kJ/mol
# Density = 2.160881 g / cm^3
# Si number density = 21.658109 Si / 1000 Ang^3
#
#
#
# Elastic Constant Matrix: (Units=GPa)
#
#
# Indices 1 2 3 4 5 6 
#
# 1 102.5796 2.4935 9.2805 0.0000 -25.3234 0.0000
# 2 2.4935 40.4445 -0.1854 0.0000 -5.2747 0.0000
# 3 9.2805 -0.1854 37.1253 0.0000 -5.4170 0.0000
# 4 0.0000 0.0000 0.0000 33.8592 0.0000 4.4895
# 5 -25.3234 -5.2747 -5.4170 0.0000 19.7140 0.0000
# 6 0.0000 0.0000 0.0000 4.4895 0.0000 30.3878
#
#
#
# Elastic Compliance Matrix: (Units=1/GPa)
#
#
# Indices 1 2 3 4 5 6 
#
# 1 0.014398 0.001543 -0.000867 0.000000 0.018670 0.000000
# 2 0.001543 0.025834 0.001084 0.000000 0.009192 0.000000
# 3 -0.000867 0.001084 0.028167 0.000000 0.006916 0.000000
# 4 0.000000 0.000000 0.000000 0.030124 0.000000 -0.004451
# 5 0.018670 0.009192 0.006916 0.000000 0.079067 0.000000
# 6 0.000000 0.000000 0.000000 -0.004451 0.000000 0.033565
#
#
# Mechanical properties :
#
#
# Convention : Reuss Voigt Hill
#
# Bulk Modulus (GPa) = 13.90434 22.59188 18.24811
# Shear Modulus (GPa) = 21.58807 28.02957 24.80882
#
# Velocity S-wave (km/s) = 3.16059 3.60138 3.38816
# Velocity P-wave (km/s) = 4.44443 5.26755 4.87339
#
# Compressibility (1/GPa) = 0.07192000
#
# Stress axis : x y z
#
# Youngs Moduli (GPa) = 69.45190 38.70880 35.50240
#
# Poissons Ratio (x) = -0.05974 0.03080
# Poissons Ratio (y) = -0.10718 -0.03850
# Poissons Ratio (z) = 0.06025 -0.04198
#
# Static dielectric constant tensor:
#      x y z
#    x 1.911940 0.000000 0.013840 
#    y 0.000000 1.793050 0.000000 
#    z 0.013840 0.000000 1.774900 
# 
# From -- ./inp_files/7604.got.cif
#   From: 2010.05.17/outbox.cif.g08.bks.cpg/sg9_4_cif.got.tgz:7604.got - 2010.06.03 20:04:27.
