data_PCOD9135209
_publ_section_title
;
Structure prediction by ZEFSAII (Michael W. Deem and Ramdas Pophale) SiO2 
 PCOD9135209
Probable space group: C C
;
_chemical_formula_sum "Si O2"
_cell_formula_units_Z 32
_cell_length_a 7.029589
_cell_length_b 17.232699
_cell_length_c 14.355109
_cell_angle_alpha 90.000000
_cell_angle_beta 119.288675
_cell_angle_gamma 90.000000
_cell_volume 1516.662246
_symmetry_space_group_name_H-M "C C"
_symmetry_group_IT_number 9
_symmetry_cell_setting 'monoclinic'
loop_
_space_group_symop_operation_xyz
x,y,z
x,-y,1/2+z
1/2+x,1/2+y,z
1/2+x,1/2-y,1/2+z
loop_
_atom_site_type_symbol
_atom_site_label
_atom_site_fract_x
_atom_site_fract_y
_atom_site_fract_z
Si Si1 0.823930 0.369914 0.362450
Si Si2 0.067026 0.052211 0.459990
Si Si3 0.451905 0.833780 0.764999
Si Si4 0.805519 0.019385 0.570405
Si Si5 0.933123 0.782657 0.949903
Si Si6 0.915430 0.568016 0.070151
Si Si7 0.702709 0.529209 0.288744
Si Si8 0.391344 0.313974 0.153088
O O1 0.986036 0.296776 0.407898
O O2 0.776164 0.382350 0.461513
O O3 0.867315 0.455838 0.333429
O O4 0.616245 0.343232 0.253315
O O5 0.859465 0.030239 0.474086
O O6 0.086428 0.144712 0.465927
O O7 0.067010 0.028244 0.352486
O O8 0.273240 0.008568 0.553742
O O9 0.688438 0.807851 0.859135
O O10 0.474335 0.885626 0.676542
O O11 0.327129 0.890324 0.805555
O O12 0.319252 0.756118 0.703211
O O13 0.762552 0.106010 0.601924
O O14 0.623528 0.960566 0.561713
O O15 0.028531 0.986418 0.667369
O O16 0.934128 0.776712 0.061971
#
# Coordination Sequence:
#
# PCOD9135209 Si02
#       8
#     4   4   4   4   4   4   4   4
#     4   9  20  37  61  88 123 165 207 253 319 369
#     4  10  22  37  61  90 127 159 215 257 306 371
#     4  11  21  38  68  93 125 169 213 257 325 375
#     4  10  21  40  62  89 125 169 207 260 318 368
#     4  10  20  38  62  88 125 170 201 260 322 371
#     4  11  21  39  66  94 124 171 210 261 311 380
#     4  10  21  39  61  93 126 162 215 265 305 375
#     4   9  20  38  61  89 127 167 202 259 324 371
#
# _framework density 21.098962
#
# number of rings (size 3 to 8) (size 9 to 14) (size 15 to 20)
#    0.000    2.000    2.500    0.750    7.000    0.000 
#    0.000    2.500   11.000    0.000    0.000    0.000 
#    0.000    0.000    0.000    0.000    0.000    0.000 
#
# Total GULP energy -89099.073364 kJ/mol
# GULP energy per Si atom -5568.692085 kJ/mol
# Density = 2.105094 g / cm^3
# Si number density = 21.098962 Si / 1000 Ang^3
#
#
#
# Elastic Constant Matrix: (Units=GPa)
#
#
# Indices 1 2 3 4 5 6 
#
# 1 51.8125 19.4874 26.9856 0.0000 -11.6656 0.0000
# 2 19.4874 95.5780 18.3509 0.0000 -2.2001 0.0000
# 3 26.9856 18.3509 108.2709 0.0000 -12.2865 0.0000
# 4 0.0000 0.0000 0.0000 34.9515 0.0000 -4.6208
# 5 -11.6656 -2.2001 -12.2865 0.0000 21.8569 0.0000
# 6 0.0000 0.0000 0.0000 -4.6208 0.0000 27.0213
#
#
#
# Elastic Compliance Matrix: (Units=1/GPa)
#
#
# Indices 1 2 3 4 5 6 
#
# 1 0.025589 -0.004113 -0.004462 0.000000 0.010735 0.000000
# 2 -0.004113 0.011476 -0.001109 0.000000 -0.001663 0.000000
# 3 -0.004462 -0.001109 0.010952 0.000000 0.003663 0.000000
# 4 0.000000 0.000000 0.000000 0.029273 0.000000 0.005006
# 5 0.010735 -0.001663 0.003663 0.000000 0.053373 0.000000
# 6 0.000000 0.000000 0.000000 0.005006 0.000000 0.037864
#
#
# Mechanical properties :
#
#
# Convention : Reuss Voigt Hill
#
# Bulk Modulus (GPa) = 34.90693 42.81215 38.85954
# Shear Modulus (GPa) = 25.32359 29.48843 27.40601
#
# Velocity S-wave (km/s) = 3.46819 3.74254 3.60797
# Velocity P-wave (km/s) = 5.71123 6.24585 5.98451
#
# Compressibility (1/GPa) = 0.02864760
#
# Stress axis : x y z
#
# Youngs Moduli (GPa) = 39.08000 87.13917 91.30838
#
# Poissons Ratio (x) = 0.35844 0.40745
# Poissons Ratio (y) = 0.16075 0.10122
# Poissons Ratio (z) = 0.17439 0.09660
#
# Static dielectric constant tensor:
#      x y z
#    x 1.751940 0.000000 -0.016800 
#    y 0.000000 1.860810 0.000000 
#    z -0.016800 0.000000 1.787920 
# 
# From -- ./inp_files/21929.got.cif
#   From: 2010.05.17/outbox.cif.g08.bks.cpg/sg9_11_cif.got.tgz:21929.got - 2010.06.03 20:04:27.
