data_PCOD9135346
_publ_section_title
;
Structure prediction by ZEFSAII (Michael W. Deem and Ramdas Pophale) SiO2 
 PCOD9135346
Probable space group: C C
;
_chemical_formula_sum "Si O2"
_cell_formula_units_Z 32
_cell_length_a 25.244616
_cell_length_b 11.711876
_cell_length_c 13.630380
_cell_angle_alpha 90.000000
_cell_angle_beta 159.893315
_cell_angle_gamma 90.000000
_cell_volume 1385.384228
_symmetry_space_group_name_H-M "C C"
_symmetry_group_IT_number 9
_symmetry_cell_setting 'monoclinic'
loop_
_space_group_symop_operation_xyz
x,y,z
x,-y,1/2+z
1/2+x,1/2+y,z
1/2+x,1/2-y,1/2+z
loop_
_atom_site_type_symbol
_atom_site_label
_atom_site_fract_x
_atom_site_fract_y
_atom_site_fract_z
Si Si1 0.006140 0.372843 0.426210
Si Si2 0.240762 0.358636 0.299491
Si Si3 0.169187 0.895871 0.627262
Si Si4 0.782573 0.976109 0.163715
Si Si5 0.481755 0.396510 0.884162
Si Si6 0.903886 0.408308 0.665665
Si Si7 0.947212 0.521359 0.032946
Si Si8 0.324309 0.667222 0.538642
O O1 0.191524 0.385260 0.739205
O O2 0.995511 0.238134 0.398158
O O3 0.901033 0.454865 0.176407
O O4 0.960491 0.410836 0.455995
O O5 0.285807 0.409581 0.271425
O O6 0.349015 0.412482 0.570224
O O7 0.239984 0.220408 0.295990
O O8 0.060400 0.386006 0.999708
O O9 0.119178 0.014114 0.597982
O O10 0.996785 0.852827 0.297847
O O11 0.298929 0.939114 0.776646
O O12 0.914287 0.068624 0.372515
O O13 0.614606 0.031786 0.850219
O O14 0.811515 0.887148 0.124760
O O15 0.928304 0.393742 0.592104
O O16 0.796147 0.303272 0.505982
#
# Coordination Sequence:
#
# PCOD9135346 Si02
#       8
#     4   4   4   4   4   4   4   4
#     4  11  23  41  66  94 135 176 216 280 334 399
#     4  10  21  41  68  92 129 173 220 273 331 392
#     4  10  21  40  67  96 125 173 227 269 329 399
#     4   9  21  42  63  93 126 174 213 278 331 393
#     4  11  23  45  63 100 135 173 221 274 338 404
#     4  10  20  39  65  89 126 177 211 271 338 388
#     4  10  21  40  60  95 128 162 224 267 327 402
#     4   9  20  40  66  89 130 172 222 274 332 393
#
# _framework density 23.098286000000002
#
# number of rings (size 3 to 8) (size 9 to 14) (size 15 to 20)
#    0.000    2.000    0.000    3.750    1.750    0.000 
#   24.750    2.500    0.000    0.000    0.000    0.000 
#    0.000    0.000    0.000    0.000    0.000    0.000 
#
# Total GULP energy -89122.997065 kJ/mol
# GULP energy per Si atom -5570.187317 kJ/mol
# Density = 2.304571 g / cm^3
# Si number density = 23.098286 Si / 1000 Ang^3
#
#
#
# Elastic Constant Matrix: (Units=GPa)
#
#
# Indices 1 2 3 4 5 6 
#
# 1 67.2998 24.6407 30.0239 0.0000 1.0214 0.0000
# 2 24.6407 172.3764 42.4559 0.0000 4.4679 0.0000
# 3 30.0239 42.4559 96.0526 0.0000 14.9915 0.0000
# 4 0.0000 0.0000 0.0000 51.0884 0.0000 0.1776
# 5 1.0214 4.4679 14.9915 0.0000 30.0083 0.0000
# 6 0.0000 0.0000 0.0000 0.1776 0.0000 27.1796
#
#
#
# Elastic Compliance Matrix: (Units=1/GPa)
#
#
# Indices 1 2 3 4 5 6 
#
# 1 0.017659 -0.001276 -0.005305 0.000000 0.002239 0.000000
# 2 -0.001276 0.006609 -0.002577 0.000000 0.000347 0.000000
# 3 -0.005305 -0.002577 0.014230 0.000000 -0.006545 0.000000
# 4 0.000000 0.000000 0.000000 0.019574 0.000000 -0.000128
# 5 0.002239 0.000347 -0.006545 0.000000 0.036466 0.000000
# 6 0.000000 0.000000 0.000000 -0.000128 0.000000 0.036793
#
#
# Mechanical properties :
#
#
# Convention : Reuss Voigt Hill
#
# Bulk Modulus (GPa) = 49.54841 58.88551 54.21696
# Shear Modulus (GPa) = 31.97462 37.56248 34.76855
#
# Velocity S-wave (km/s) = 3.72464 4.03699 3.88396
# Velocity P-wave (km/s) = 6.32415 6.87594 6.60581
#
# Compressibility (1/GPa) = 0.02018228
#
# Stress axis : x y z
#
# Youngs Moduli (GPa) = 56.62897 151.30298 70.27554
#
# Poissons Ratio (x) = 0.19300 0.37284
# Poissons Ratio (y) = 0.07224 0.18108
# Poissons Ratio (z) = 0.30044 0.38986
#
# Static dielectric constant tensor:
#      x y z
#    x 1.831810 0.000000 0.023260 
#    y 0.000000 2.003520 0.000000 
#    z 0.023260 0.000000 1.998520 
# 
# From -- ./inp_files/28101.got.cif
#   From: 2010.05.17/outbox.cif.g08.bks.cpg/sg9_15_cif.got.tgz:28101.got - 2010.06.03 20:04:27.
