data_PCOD9135217
_publ_section_title
;
Structure prediction by ZEFSAII (Michael W. Deem and Ramdas Pophale) SiO2 
 PCOD9135217
Probable space group: C C
;
_chemical_formula_sum "Si O2"
_cell_formula_units_Z 32
_cell_length_a 9.936771
_cell_length_b 14.186497
_cell_length_c 12.774338
_cell_angle_alpha 90.000000
_cell_angle_beta 134.492951
_cell_angle_gamma 90.000000
_cell_volume 1284.557083
_symmetry_space_group_name_H-M "C C"
_symmetry_group_IT_number 9
_symmetry_cell_setting 'monoclinic'
loop_
_space_group_symop_operation_xyz
x,y,z
x,-y,1/2+z
1/2+x,1/2+y,z
1/2+x,1/2-y,1/2+z
loop_
_atom_site_type_symbol
_atom_site_label
_atom_site_fract_x
_atom_site_fract_y
_atom_site_fract_z
Si Si1 0.933260 0.038781 0.649830
Si Si2 0.433480 0.282699 0.796774
Si Si3 0.718064 0.233230 0.567172
Si Si4 0.306613 0.550684 0.367574
Si Si5 0.950683 0.374043 0.789306
Si Si6 0.133448 0.621284 0.716111
Si Si7 0.759976 0.424493 0.905469
Si Si8 0.692900 0.852898 0.491073
O O1 0.778315 0.952568 0.574557
O O2 0.117195 0.011321 0.814778
O O3 0.855479 0.143914 0.622207
O O4 0.967429 0.034504 0.541636
O O5 0.333727 0.353009 0.822072
O O6 0.621530 0.338442 0.861262
O O7 0.479173 0.185493 0.881634
O O8 0.309153 0.278185 0.624353
O O9 0.558911 0.218625 0.393932
O O10 0.640184 0.208151 0.640400
O O11 0.810351 0.334418 0.626068
O O12 0.109806 0.560814 0.324774
O O13 0.281286 0.463236 0.275963
O O14 0.854091 0.413616 0.841398
O O15 0.198893 0.648138 0.868113
O O16 0.928777 0.575997 0.581044
#
# Coordination Sequence:
#
# PCOD9135217 Si02
#       8
#     4   4   4   4   4   4   4   4
#     4   9  21  41  62  89 124 160 201 253 306 367
#     4  11  22  38  60  91 122 158 207 257 307 363
#     4  10  21  40  61  88 123 160 199 248 306 366
#     4  10  23  41  59  88 127 162 197 249 311 360
#     4  10  23  39  59  88 121 154 201 250 301 363
#     4  10  20  38  63  88 123 162 200 252 304 361
#     4  10  21  38  64  95 119 156 210 250 299 368
#     4  10  21  37  60  87 121 158 203 253 302 358
#
# _framework density 24.911308999999999
#
# number of rings (size 3 to 8) (size 9 to 14) (size 15 to 20)
#    0.000    2.000    0.000    3.000    0.000   12.000 
#    0.000    8.750    0.000    0.000    0.000    0.000 
#    0.000    0.000    0.000    0.000    0.000    0.000 
#
# Total GULP energy -89248.481096 kJ/mol
# GULP energy per Si atom -5578.030069 kJ/mol
# Density = 2.485461 g / cm^3
# Si number density = 24.911309 Si / 1000 Ang^3
#
#
#
# Elastic Constant Matrix: (Units=GPa)
#
#
# Indices 1 2 3 4 5 6 
#
# 1 67.2924 11.1466 8.2792 0.0000 5.9394 0.0000
# 2 11.1466 30.6437 22.9899 0.0000 1.8847 0.0000
# 3 8.2792 22.9899 147.0986 -0.0001 -9.7046 -0.0001
# 4 0.0000 0.0000 -0.0001 59.5035 -0.0001 7.6208
# 5 5.9394 1.8847 -9.7046 -0.0001 21.6621 -0.0001
# 6 0.0000 0.0000 -0.0001 7.6208 -0.0001 21.3305
#
#
#
# Elastic Compliance Matrix: (Units=1/GPa)
#
#
# Indices 1 2 3 4 5 6 
#
# 1 0.016155 -0.005367 -0.000342 0.000000 -0.004116 0.000000
# 2 -0.005367 0.039518 -0.006187 0.000000 -0.004738 0.000000
# 3 -0.000342 -0.006187 0.008064 0.000000 0.004245 0.000000
# 4 0.000000 0.000000 0.000000 0.017612 0.000000 -0.006292
# 5 -0.004116 -0.004738 0.004245 0.000000 0.049606 0.000000
# 6 0.000000 0.000000 0.000000 -0.006292 0.000000 0.049129
#
#
# Mechanical properties :
#
#
# Convention : Reuss Voigt Hill
#
# Bulk Modulus (GPa) = 25.03345 36.65178 30.84261
# Shear Modulus (GPa) = 23.02126 34.00715 28.51421
#
# Velocity S-wave (km/s) = 3.04325 3.69877 3.38691
# Velocity P-wave (km/s) = 4.73490 5.74335 5.26334
#
# Compressibility (1/GPa) = 0.03994655
#
# Stress axis : x y z
#
# Youngs Moduli (GPa) = 61.90105 25.30486 124.00199
#
# Poissons Ratio (x) = 0.13580 0.04241
# Poissons Ratio (y) = 0.33219 0.76718
# Poissons Ratio (z) = 0.02117 0.15656
#
# Static dielectric constant tensor:
#      x y z
#    x 2.073300 0.000000 0.010810 
#    y 0.000000 2.024070 0.000000 
#    z 0.010810 0.000000 1.955830 
# 
# From -- ./inp_files/24920.got.cif
#   From: 2010.05.17/outbox.cif.g08.bks.cpg/sg9_13_cif.got.tgz:24920.got - 2010.06.03 20:04:27.
