data_PCOD9135831
_publ_section_title
;
Structure prediction by ZEFSAII (Michael W. Deem and Ramdas Pophale) SiO2 
 PCOD9135831
Probable space group: C C
;
_chemical_formula_sum "Si O2"
_cell_formula_units_Z 32
_cell_length_a 9.648392
_cell_length_b 7.583910
_cell_length_c 19.612518
_cell_angle_alpha 90.000000
_cell_angle_beta 122.713077
_cell_angle_gamma 90.000000
_cell_volume 1207.473197
_symmetry_space_group_name_H-M "C C"
_symmetry_group_IT_number 9
_symmetry_cell_setting 'monoclinic'
loop_
_space_group_symop_operation_xyz
x,y,z
x,-y,1/2+z
1/2+x,1/2+y,z
1/2+x,1/2-y,1/2+z
loop_
_atom_site_type_symbol
_atom_site_label
_atom_site_fract_x
_atom_site_fract_y
_atom_site_fract_z
Si Si1 0.483830 0.155453 0.922510
Si Si2 0.671442 0.493594 0.817361
Si Si3 0.799580 0.031236 0.046284
Si Si4 0.747234 0.395936 0.687124
Si Si5 0.730851 0.593072 0.551004
Si Si6 0.721425 0.893235 0.376497
Si Si7 0.283631 0.507083 0.741932
Si Si8 0.474563 0.819511 0.635820
O O1 0.290519 0.142175 0.880463
O O2 0.535661 0.104314 0.858662
O O3 0.598438 0.020169 0.996843
O O4 0.580509 0.337151 0.965074
O O5 0.746884 0.311814 0.865604
O O6 0.477838 0.499295 0.779349
O O7 0.703480 0.490384 0.745201
O O8 0.832035 0.223501 0.087595
O O9 0.892257 0.869322 0.103270
O O10 0.820273 0.049824 0.970131
O O11 0.665027 0.499443 0.602065
O O12 0.713050 0.191174 0.693800
O O13 0.929011 0.383894 0.700851
O O14 0.860372 0.448658 0.559332
O O15 0.761553 0.989618 0.317517
O O16 0.166377 0.357696 0.678886
#
# Coordination Sequence:
#
# PCOD9135831 Si02
#       8
#     4   4   4   4   4   4   4   4
#     4   8  19  44  82 111 152 207 270 324 399 477
#     4  11  21  43  83 117 159 205 271 333 400 486
#     4   8  19  45  86 113 148 218 271 325 408 483
#     4   9  22  46  77 111 164 210 264 343 393 484
#     4   7  19  43  83 110 157 209 265 337 394 474
#     4   8  21  45  77 110 160 201 270 334 389 472
#     4  11  23  42  81 122 157 210 271 331 416 480
#     4  10  20  46  85 112 159 208 270 333 407 490
#
# _framework density 26.501622999999999
#
# number of rings (size 3 to 8) (size 9 to 14) (size 15 to 20)
#    2.250    0.500    0.000    0.750    0.000    1.000 
#    4.500   12.500   38.500    0.000    9.750    0.000 
#    0.000    0.000    0.000    0.000    0.000    0.000 
#
# Total GULP energy -89238.366704 kJ/mol
# GULP energy per Si atom -5577.397919 kJ/mol
# Density = 2.644130 g / cm^3
# Si number density = 26.501623 Si / 1000 Ang^3
#
#
#
# Elastic Constant Matrix: (Units=GPa)
#
#
# Indices 1 2 3 4 5 6 
#
# 1 147.9531 20.6346 90.9574 0.0000 4.5671 0.0000
# 2 20.6346 138.2111 74.1755 0.0000 26.0162 0.0000
# 3 90.9574 74.1755 149.5401 0.0000 -0.7870 0.0000
# 4 0.0000 0.0000 0.0000 45.8549 0.0000 -14.0175
# 5 4.5671 26.0162 -0.7870 0.0000 63.0786 0.0000
# 6 0.0000 0.0000 0.0000 -14.0175 0.0000 18.8903
#
#
#
# Elastic Compliance Matrix: (Units=1/GPa)
#
#
# Indices 1 2 3 4 5 6 
#
# 1 0.011849 0.003487 -0.008949 0.000000 -0.002408 0.000000
# 2 0.003487 0.012093 -0.008148 0.000000 -0.005342 0.000000
# 3 -0.008949 -0.008148 0.016194 0.000000 0.004210 0.000000
# 4 0.000000 0.000000 0.000000 0.028206 0.000000 0.020930
# 5 -0.002408 -0.005342 0.004210 0.000000 0.018283 0.000000
# 6 0.000000 0.000000 0.000000 0.020930 0.000000 0.068469
#
#
# Mechanical properties :
#
#
# Convention : Reuss Voigt Hill
#
# Bulk Modulus (GPa) = 77.42161 89.69324 83.55742
# Shear Modulus (GPa) = 26.79266 42.22721 34.50994
#
# Velocity S-wave (km/s) = 3.18304 3.99605 3.61249
# Velocity P-wave (km/s) = 6.54113 7.43028 6.99984
#
# Compressibility (1/GPa) = 0.01291629
#
# Stress axis : x y z
#
# Youngs Moduli (GPa) = 84.39764 82.69379 61.75089
#
# Poissons Ratio (x) = -0.28837 0.55263
# Poissons Ratio (y) = -0.29431 0.50312
# Poissons Ratio (z) = 0.75530 0.67375
#
# Static dielectric constant tensor:
#      x y z
#    x 2.150890 0.000000 0.005020 
#    y 0.000000 2.090120 0.000000 
#    z 0.005020 0.000000 2.107960 
# 
# From -- ./inp_files/35268.got.cif
#   From: 2010.05.17/outbox.cif.g08.bks.cpg/sg9_18_cif.got.tgz:35268.got - 2010.06.03 20:04:27.
