data_PCOD9135779
_publ_section_title
;
Structure prediction by ZEFSAII (Michael W. Deem and Ramdas Pophale) SiO2 
 PCOD9135779
Probable space group: C C
;
_chemical_formula_sum "Si O2"
_cell_formula_units_Z 28
_cell_length_a 7.353199
_cell_length_b 11.659557
_cell_length_c 17.296030
_cell_angle_alpha 90.000000
_cell_angle_beta 128.381670
_cell_angle_gamma 90.000000
_cell_volume 1162.414733
_symmetry_space_group_name_H-M "C C"
_symmetry_group_IT_number 9
_symmetry_cell_setting 'monoclinic'
loop_
_space_group_symop_operation_xyz
x,y,z
x,-y,1/2+z
1/2+x,1/2+y,z
1/2+x,1/2-y,1/2+z
loop_
_atom_site_type_symbol
_atom_site_label
_atom_site_fract_x
_atom_site_fract_y
_atom_site_fract_z
Si Si1 0.508360 0.565583 0.608080
Si Si2 0.748193 0.099138 0.762890
Si Si3 0.522371 0.003787 0.562830
Si Si4 0.081134 0.823789 0.674560
Si Si5 0.425238 0.131200 0.819093
Si Si6 0.556281 0.243617 0.005258
Si Si7 0.190360 0.947619 0.856532
O O1 0.267417 0.539863 0.588020
O O2 0.615909 0.437217 0.632651
O O3 0.690372 0.639124 0.707168
O O4 0.474458 0.638983 0.522527
O O5 0.564970 0.026919 0.663615
O O6 0.764678 0.221507 0.723470
O O7 0.640014 0.117886 0.818304
O O8 0.989085 0.035100 0.826215
O O9 0.326725 0.081284 0.470325
O O10 0.470343 0.870682 0.529631
O O11 0.833392 0.771556 0.586551
O O12 0.079444 0.862900 0.764496
O O13 0.384714 0.014852 0.857291
O O14 0.468014 0.227191 0.894675
#
# Coordination Sequence:
#
# PCOD9135779 Si02
#       7
#     4   4   4   4   4   4   4
#     4  10  20  47  70 100 151 191 231 311 362 414
#     4  12  22  45  73 107 145 190 240 302 372 426
#     4  10  23  45  72 105 145 189 246 307 360 436
#     4  10  22  42  69 105 149 180 248 308 346 449
#     4  10  22  41  73 102 138 195 239 286 373 426
#     4  10  20  44  70 104 149 185 245 310 351 436
#     4  10  23  48  67 105 149 182 247 310 352 441
#
# _framework density 24.087788
#
# number of rings (size 3 to 8) (size 9 to 14) (size 15 to 20)
#    0.000    1.714    5.714    0.000    0.000    3.429 
#   15.429    5.714    0.000    0.000    0.000    0.000 
#    0.000    0.000    0.000    0.000    0.000    0.000 
#
# Total GULP energy -78267.456051 kJ/mol
# GULP energy per Si atom -5590.532575 kJ/mol
# Density = 2.403296 g / cm^3
# Si number density = 24.087788 Si / 1000 Ang^3
#
#
#
# Elastic Constant Matrix: (Units=GPa)
#
#
# Indices 1 2 3 4 5 6 
#
# 1 75.0636 57.6155 12.5898 0.0000 -8.9777 0.0000
# 2 57.6155 101.6577 30.1712 0.0000 -5.8951 0.0000
# 3 12.5898 30.1712 95.8131 0.0000 0.6497 0.0000
# 4 0.0000 0.0000 0.0000 36.2632 0.0000 -3.5783
# 5 -8.9777 -5.8951 0.6497 0.0000 40.8919 0.0000
# 6 0.0000 0.0000 0.0000 -3.5783 0.0000 30.9857
#
#
#
# Elastic Compliance Matrix: (Units=1/GPa)
#
#
# Indices 1 2 3 4 5 6 
#
# 1 0.024140 -0.013836 0.001163 0.000000 0.003287 0.000000
# 2 -0.013836 0.018890 -0.004128 0.000000 -0.000249 0.000000
# 3 0.001163 -0.004128 0.011588 0.000000 -0.000524 0.000000
# 4 0.000000 0.000000 0.000000 0.027894 0.000000 0.003221
# 5 0.003287 -0.000249 -0.000524 0.000000 0.025149 0.000000
# 6 0.000000 0.000000 0.000000 0.003221 0.000000 0.032645
#
#
# Mechanical properties :
#
#
# Convention : Reuss Voigt Hill
#
# Bulk Modulus (GPa) = 47.58831 52.58748 50.08789
# Shear Modulus (GPa) = 27.63750 33.10536 30.37143
#
# Velocity S-wave (km/s) = 3.39095 3.71126 3.55472
# Velocity P-wave (km/s) = 5.92710 6.34379 6.13898
#
# Compressibility (1/GPa) = 0.02101357
#
# Stress axis : x y z
#
# Youngs Moduli (GPa) = 41.42486 52.93938 86.29757
#
# Poissons Ratio (x) = 0.73247 -0.10033
# Poissons Ratio (y) = 0.57316 0.35628
# Poissons Ratio (z) = -0.04816 0.21856
#
# Static dielectric constant tensor:
#      x y z
#    x 1.919710 0.000000 -0.040850 
#    y 0.000000 1.990280 0.000000 
#    z -0.040850 0.000000 1.947660 
# 
# From -- ./inp_files/32584.got.cif
#   From: 2010.05.17/outbox.cif.g08.bks.cpg/sg9_17_cif.got.tgz:32584.got - 2010.06.03 20:04:27.
