data_PCOD9135203
_publ_section_title
;
Structure prediction by ZEFSAII (Michael W. Deem and Ramdas Pophale) SiO2 
 PCOD9135203
Probable space group: C C
;
_chemical_formula_sum "Si O2"
_cell_formula_units_Z 24
_cell_length_a 14.408398
_cell_length_b 8.200304
_cell_length_c 9.304303
_cell_angle_alpha 90.000000
_cell_angle_beta 88.254807
_cell_angle_gamma 90.000000
_cell_volume 1098.823654
_symmetry_space_group_name_H-M "C C"
_symmetry_group_IT_number 9
_symmetry_cell_setting 'monoclinic'
loop_
_space_group_symop_operation_xyz
x,y,z
x,-y,1/2+z
1/2+x,1/2+y,z
1/2+x,1/2-y,1/2+z
loop_
_atom_site_type_symbol
_atom_site_label
_atom_site_fract_x
_atom_site_fract_y
_atom_site_fract_z
Si Si1 0.481640 0.477552 0.496860
Si Si2 0.198113 0.995291 0.974398
Si Si3 0.779203 0.989659 0.896791
Si Si4 0.983872 0.772744 0.242416
Si Si5 0.787707 0.674040 0.214165
Si Si6 0.187432 0.326221 0.650218
O O1 0.587945 0.515779 0.446581
O O2 0.383697 0.548356 0.443691
O O3 0.474456 0.301461 0.415241
O O4 0.481564 0.548345 0.660800
O O5 0.218211 0.838563 0.071964
O O6 0.229688 0.146098 0.071551
O O7 0.253792 0.962389 0.827560
O O8 0.775851 0.152676 0.796147
O O9 0.740666 0.853023 0.795080
O O10 0.715352 0.034187 0.035486
O O11 0.897966 0.669247 0.187442
O O12 0.079493 0.689725 0.193303
#
# Coordination Sequence:
#
# PCOD9135203 Si02
#       6
#     4   4   4   4   4   4
#     4  10  20  38  62  82 114 158 198 226 284 364
#     4  10  21  39  60  87 117 154 197 244 289 346
#     4  10  21  39  60  87 117 154 197 244 289 346
#     4  10  22  38  58  88 118 154 196 242 294 350
#     4  10  22  38  58  85 119 152 196 243 294 345
#     4  10  22  38  58  85 119 152 196 243 294 345
#
# _framework density 21.841536999999999
#
# number of rings (size 3 to 8) (size 9 to 14) (size 15 to 20)
#    0.000    2.000    0.000    4.000    0.000    6.667 
#    0.000    6.667    0.000    0.000    0.000    0.000 
#    0.000    0.000    0.000    0.000    0.000    0.000 
#
# Total GULP energy -66814.852019 kJ/mol
# GULP energy per Si atom -5567.904335 kJ/mol
# Density = 2.179182 g / cm^3
# Si number density = 21.841537 Si / 1000 Ang^3
#
#
#
# Elastic Constant Matrix: (Units=GPa)
#
#
# Indices 1 2 3 4 5 6 
#
# 1 123.1083 25.3591 58.9251 0.0000 1.4356 0.0000
# 2 25.3591 54.4759 39.1036 0.0000 15.3641 0.0000
# 3 58.9251 39.1036 117.0574 0.0000 21.1079 0.0000
# 4 0.0000 0.0000 0.0000 48.7585 0.0000 0.4424
# 5 1.4356 15.3641 21.1079 0.0000 29.2263 0.0000
# 6 0.0000 0.0000 0.0000 0.4424 0.0000 3.4453
#
#
#
# Elastic Compliance Matrix: (Units=1/GPa)
#
#
# Indices 1 2 3 4 5 6 
#
# 1 0.011341 -0.002544 -0.005748 0.000000 0.004932 0.000000
# 2 -0.002544 0.026414 -0.005820 0.000000 -0.009558 0.000000
# 3 -0.005748 -0.005820 0.014691 0.000000 -0.007269 0.000000
# 4 0.000000 0.000000 0.000000 0.020533 0.000000 -0.002636
# 5 0.004932 -0.009558 -0.007269 0.000000 0.044248 0.000000
# 6 0.000000 0.000000 0.000000 -0.002636 0.000000 0.290588
#
#
# Mechanical properties :
#
#
# Convention : Reuss Voigt Hill
#
# Bulk Modulus (GPa) = 41.28458 60.15747 50.72103
# Shear Modulus (GPa) = 11.25839 27.70293 19.48066
#
# Velocity S-wave (km/s) = 2.27283 3.56527 2.98972
# Velocity P-wave (km/s) = 5.08238 6.67463 5.93217
#
# Compressibility (1/GPa) = 0.02422212
#
# Stress axis : x y z
#
# Youngs Moduli (GPa) = 88.17667 37.85859 68.06779
#
# Poissons Ratio (x) = 0.09631 0.39128
# Poissons Ratio (y) = 0.22432 0.39613
# Poissons Ratio (z) = 0.50687 0.22032
#
# Static dielectric constant tensor:
#      x y z
#    x 1.783010 0.000000 -0.005530 
#    y 0.000000 1.839080 0.000000 
#    z -0.005530 0.000000 1.851710 
# 
# From -- ./inp_files/8721.got.cif
#   From: 2010.05.17/outbox.cif.g08.bks.cpg/sg9_5_cif.got.tgz:8721.got - 2010.06.03 20:04:27.
