data_PCOD9135519
_publ_section_title
;
Structure prediction by ZEFSAII (Michael W. Deem and Ramdas Pophale) SiO2 
 PCOD9135519
Probable space group: C C
;
_chemical_formula_sum "Si O2"
_cell_formula_units_Z 32
_cell_length_a 11.268488
_cell_length_b 10.598227
_cell_length_c 24.908868
_cell_angle_alpha 90.000000
_cell_angle_beta 148.092281
_cell_angle_gamma 90.000000
_cell_volume 1572.320783
_symmetry_space_group_name_H-M "C C"
_symmetry_group_IT_number 9
_symmetry_cell_setting 'monoclinic'
loop_
_space_group_symop_operation_xyz
x,y,z
x,-y,1/2+z
1/2+x,1/2+y,z
1/2+x,1/2-y,1/2+z
loop_
_atom_site_type_symbol
_atom_site_label
_atom_site_fract_x
_atom_site_fract_y
_atom_site_fract_z
Si Si1 0.987000 0.984569 0.688320
Si Si2 0.563247 0.872201 0.986978
Si Si3 0.145406 0.666595 0.314470
Si Si4 0.498733 0.992024 0.857628
Si Si5 0.123341 0.931452 0.963976
Si Si6 0.858950 0.822938 0.547195
Si Si7 0.155144 0.049207 0.862753
Si Si8 0.689326 0.623528 0.084098
O O1 0.905338 0.857938 0.627049
O O2 0.235612 0.020097 0.762992
O O3 0.808099 0.084490 0.598922
O O4 0.995954 0.984444 0.756277
O O5 0.539748 0.876148 0.914265
O O6 0.390752 0.977010 0.942680
O O7 0.538181 0.732688 0.998962
O O8 0.387216 0.638177 0.382681
O O9 0.154840 0.803453 0.346885
O O10 0.083668 0.555498 0.333089
O O11 0.945028 0.662222 0.194283
O O12 0.646772 0.104042 0.939883
O O13 0.099502 0.021439 0.903025
O O14 0.311487 0.825051 0.024379
O O15 0.179549 0.006447 0.040128
O O16 0.069023 0.882157 0.595732
#
# Coordination Sequence:
#
# PCOD9135519 Si02
#       8
#     4   4   4   4   4   4   4   4
#     4  10  20  40  71  96 128 188 225 279 351 403
#     4  10  21  41  68  95 132 178 228 282 345 403
#     4  12  24  44  69 103 139 177 234 285 344 423
#     4  10  21  40  69  95 131 182 222 282 345 408
#     4  12  27  46  68 108 139 182 234 289 346 416
#     4  11  23  45  66  96 142 173 235 288 342 412
#     4  11  24  44  71  99 139 184 231 286 348 419
#     4  12  24  44  68  98 140 178 225 291 343 410
#
# _framework density 20.352080999999998
#
# number of rings (size 3 to 8) (size 9 to 14) (size 15 to 20)
#    0.000    1.000    5.000    3.000    0.000    2.000 
#    6.750    1.250    0.000    0.000    0.000    0.000 
#    0.000    0.000    0.000    0.000    0.000    0.000 
#
# Total GULP energy -89262.513483 kJ/mol
# GULP energy per Si atom -5578.907093 kJ/mol
# Density = 2.030576 g / cm^3
# Si number density = 20.352081 Si / 1000 Ang^3
#
#
#
# Elastic Constant Matrix: (Units=GPa)
#
#
# Indices 1 2 3 4 5 6 
#
# 1 67.4369 24.1582 26.2837 0.0000 -18.6953 0.0000
# 2 24.1582 95.3881 30.3306 0.0000 -4.4381 0.0000
# 3 26.2837 30.3306 85.4368 -0.0001 10.6162 0.0000
# 4 0.0000 0.0000 -0.0001 19.3694 -0.0001 -6.2806
# 5 -18.6953 -4.4381 10.6162 -0.0001 18.8021 0.0000
# 6 0.0000 0.0000 0.0000 -6.2806 0.0000 29.4423
#
#
#
# Elastic Compliance Matrix: (Units=1/GPa)
#
#
# Indices 1 2 3 4 5 6 
#
# 1 0.031734 -0.001775 -0.013982 0.000000 0.039030 0.000000
# 2 -0.001775 0.012480 -0.004335 0.000000 0.003629 0.000000
# 3 -0.013982 -0.004335 0.020864 0.000000 -0.026706 0.000000
# 4 0.000000 0.000000 0.000000 0.055464 0.000000 0.011832
# 5 0.039030 0.003629 -0.026706 0.000000 0.107929 0.000000
# 6 0.000000 0.000000 0.000000 0.011832 0.000000 0.036489
#
#
# Mechanical properties :
#
#
# Convention : Reuss Voigt Hill
#
# Bulk Modulus (GPa) = 40.17252 45.53407 42.85329
# Shear Modulus (GPa) = 15.95178 24.68871 20.32025
#
# Velocity S-wave (km/s) = 2.80266 3.48671 3.16323
# Velocity P-wave (km/s) = 5.50044 6.21541 5.86882
#
# Compressibility (1/GPa) = 0.02489264
#
# Stress axis : x y z
#
# Youngs Moduli (GPa) = 31.51147 80.12542 47.93025
#
# Poissons Ratio (x) = 0.14224 0.67018
# Poissons Ratio (y) = 0.05594 0.20780
# Poissons Ratio (z) = 0.44060 0.34737
#
# Static dielectric constant tensor:
#      x y z
#    x 1.770880 0.000000 -0.016250 
#    y 0.000000 1.748990 0.000000 
#    z -0.016250 0.000000 1.729090 
# 
# From -- ./inp_files/16438.got.cif
#   From: 2010.05.17/outbox.cif.g08.bks.cpg/sg9_9_cif.got.tgz:16438.got - 2010.06.03 20:04:27.
