data_PCOD9135991
_publ_section_title
;
Structure prediction by ZEFSAII (Michael W. Deem and Ramdas Pophale) SiO2 
 PCOD9135991
Probable space group: C C
;
_chemical_formula_sum "Si O2"
_cell_formula_units_Z 32
_cell_length_a 8.824108
_cell_length_b 8.271258
_cell_length_c 21.013852
_cell_angle_alpha 90.000000
_cell_angle_beta 65.044420
_cell_angle_gamma 90.000000
_cell_volume 1390.530788
_symmetry_space_group_name_H-M "C C"
_symmetry_group_IT_number 9
_symmetry_cell_setting 'monoclinic'
loop_
_space_group_symop_operation_xyz
x,y,z
x,-y,1/2+z
1/2+x,1/2+y,z
1/2+x,1/2-y,1/2+z
loop_
_atom_site_type_symbol
_atom_site_label
_atom_site_fract_x
_atom_site_fract_y
_atom_site_fract_z
Si Si1 0.225560 0.240313 0.391540
Si Si2 0.889429 0.908772 0.729743
Si Si3 0.162809 0.421772 0.519592
Si Si4 0.398074 0.097393 0.639046
Si Si5 0.053804 0.072088 0.982545
Si Si6 0.200914 0.082626 0.268511
Si Si7 0.577806 0.598017 0.604378
Si Si8 0.613207 0.755731 0.855636
O O1 0.164128 0.394647 0.443121
O O2 0.215140 0.223687 0.317768
O O3 0.418822 0.214992 0.376204
O O4 0.120106 0.090162 0.436921
O O5 0.895360 0.760074 0.679791
O O6 0.726390 0.890229 0.802120
O O7 0.045226 0.891019 0.749731
O O8 0.922708 0.062367 0.678613
O O9 0.354333 0.420998 0.508504
O O10 0.074861 0.263389 0.565687
O O11 0.061215 0.567584 0.568135
O O12 0.241377 0.098677 0.619212
O O13 0.362994 0.956192 0.697191
O O14 0.132409 0.218244 0.927422
O O15 0.093680 0.044038 0.049063
O O16 0.162851 0.913446 0.312143
#
# Coordination Sequence:
#
# PCOD9135991 Si02
#       8
#     4   4   4   4   4   4   4   4
#     4   9  19  38  60  84 116 154 196 241 292 348
#     4  10  21  38  60  86 120 156 194 242 292 348
#     4  10  21  39  62  86 119 156 193 243 294 345
#     4  10  22  38  57  86 121 155 196 245 290 346
#     4   9  19  37  60  85 117 156 196 241 294 347
#     4   9  20  37  56  83 116 151 196 243 293 349
#     4  10  21  38  59  87 119 155 198 242 293 350
#     4   9  19  39  58  81 118 153 193 247 294 343
#
# _framework density 23.012796000000002
#
# number of rings (size 3 to 8) (size 9 to 14) (size 15 to 20)
#    0.000    2.500    0.000    0.750    0.000    9.000 
#    0.000   23.750    0.000    0.000    0.000    0.000 
#    0.000    0.000    0.000    0.000    0.000    0.000 
#
# Total GULP energy -89379.030955 kJ/mol
# GULP energy per Si atom -5586.189435 kJ/mol
# Density = 2.296042 g / cm^3
# Si number density = 23.012796 Si / 1000 Ang^3
#
#
#
# Elastic Constant Matrix: (Units=GPa)
#
#
# Indices 1 2 3 4 5 6 
#
# 1 19.3845 7.3394 29.5856 0.0000 10.5651 0.0000
# 2 7.3394 74.9673 36.9220 0.0000 -1.6094 0.0000
# 3 29.5856 36.9220 144.7629 0.0000 0.4215 0.0000
# 4 0.0000 0.0000 0.0000 48.9602 0.0000 -1.5584
# 5 10.5651 -1.6094 0.4215 0.0000 52.2058 0.0000
# 6 0.0000 0.0000 0.0000 -1.5584 0.0000 21.9740
#
#
#
# Elastic Compliance Matrix: (Units=1/GPa)
#
#
# Indices 1 2 3 4 5 6 
#
# 1 0.089013 -0.000188 -0.018092 0.000000 -0.017874 0.000000
# 2 -0.000188 0.015269 -0.003858 0.000000 0.000540 0.000000
# 3 -0.018092 -0.003858 0.011579 0.000000 0.003449 0.000000
# 4 0.000000 0.000000 0.000000 0.020471 0.000000 0.001452
# 5 -0.017874 0.000540 0.003449 0.000000 0.022761 0.000000
# 6 0.000000 0.000000 0.000000 0.001452 0.000000 0.045611
#
#
# Mechanical properties :
#
#
# Convention : Reuss Voigt Hill
#
# Bulk Modulus (GPa) = 13.96910 42.97876 28.47393
# Shear Modulus (GPa) = 18.32568 35.64584 26.98576
#
# Velocity S-wave (km/s) = 2.82499 3.93995 3.42810
# Velocity P-wave (km/s) = 4.08950 6.27807 5.29803
#
# Compressibility (1/GPa) = 0.07158658
#
# Stress axis : x y z
#
# Youngs Moduli (GPa) = 11.23432 65.49214 86.36191
#
# Poissons Ratio (x) = 0.01230 1.56245
# Poissons Ratio (y) = 0.00211 0.33315
# Poissons Ratio (z) = 0.20325 0.25264
#
# Static dielectric constant tensor:
#      x y z
#    x 1.779920 0.000000 0.010410 
#    y 0.000000 1.897410 0.000000 
#    z 0.010410 0.000000 1.899240 
# 
# From -- ./inp_files/32306.got.cif
#   From: 2010.05.17/outbox.cif.g08.bks.cpg/sg9_17_cif.got.tgz:32306.got - 2010.06.03 20:04:27.
