data_PCOD9135573
_publ_section_title
;
Structure prediction by ZEFSAII (Michael W. Deem and Ramdas Pophale) SiO2 
 PCOD9135573
Probable space group: C C
;
_chemical_formula_sum "Si O2"
_cell_formula_units_Z 32
_cell_length_a 7.839769
_cell_length_b 10.842399
_cell_length_c 16.604278
_cell_angle_alpha 90.000000
_cell_angle_beta 69.423245
_cell_angle_gamma 90.000000
_cell_volume 1321.351328
_symmetry_space_group_name_H-M "C C"
_symmetry_group_IT_number 9
_symmetry_cell_setting 'monoclinic'
loop_
_space_group_symop_operation_xyz
x,y,z
x,-y,1/2+z
1/2+x,1/2+y,z
1/2+x,1/2-y,1/2+z
loop_
_atom_site_type_symbol
_atom_site_label
_atom_site_fract_x
_atom_site_fract_y
_atom_site_fract_z
Si Si1 0.224950 0.455039 0.436240
Si Si2 0.694345 0.318829 0.948998
Si Si3 0.762720 0.453844 0.691941
Si Si4 0.358462 0.075744 0.894890
Si Si5 0.995506 0.079651 0.637818
Si Si6 0.462087 0.676292 0.341045
Si Si7 0.618105 0.664995 0.070020
Si Si8 0.131603 0.428396 0.123303
O O1 0.294194 0.312850 0.427767
O O2 0.332315 0.557445 0.366061
O O3 0.208640 0.501131 0.531137
O O4 0.032317 0.445392 0.423030
O O5 0.796321 0.435124 0.891847
O O6 0.511806 0.306213 0.926597
O O7 0.623474 0.356324 0.049371
O O8 0.623342 0.568185 0.695125
O O9 0.643952 0.363040 0.765289
O O10 0.779118 0.382706 0.603450
O O11 0.962030 0.494188 0.685305
O O12 0.400296 0.186569 0.825151
O O13 0.187953 0.136055 0.970433
O O14 0.786384 0.115891 0.661065
O O15 0.969294 0.934415 0.619603
O O16 0.559110 0.801710 0.096242
#
# Coordination Sequence:
#
# PCOD9135573 Si02
#       8
#     4   4   4   4   4   4   4   4
#     4  11  21  36  68  98 118 167 223 259 330 383
#     4  10  21  40  64  99 123 165 224 267 314 397
#     4  10  25  43  60  99 137 164 219 279 319 386
#     4  10  20  41  67  89 127 170 215 266 318 387
#     4   9  21  41  63  94 126 165 222 262 313 396
#     4  11  23  43  61  95 136 164 211 282 325 371
#     4   9  20  40  60  97 123 163 228 257 313 400
#     4  12  19  40  71  89 128 176 208 268 328 380
#
# _framework density 24.217634
#
# number of rings (size 3 to 8) (size 9 to 14) (size 15 to 20)
#    0.750    1.000    3.750    0.750    0.000    4.000 
#    6.750    0.000    0.000    0.000    0.000    0.000 
#    0.000    0.000    0.000    0.000    0.000    0.000 
#
# Total GULP energy -89103.084824 kJ/mol
# GULP energy per Si atom -5568.942802 kJ/mol
# Density = 2.416251 g / cm^3
# Si number density = 24.217634 Si / 1000 Ang^3
#
#
#
# Elastic Constant Matrix: (Units=GPa)
#
#
# Indices 1 2 3 4 5 6 
#
# 1 71.0358 22.6948 6.0370 0.0000 -14.1169 0.0000
# 2 22.6948 170.8515 29.2630 0.0000 -21.5893 0.0000
# 3 6.0370 29.2630 48.4709 0.0000 -19.6516 0.0000
# 4 0.0000 0.0000 0.0000 23.5582 0.0000 -6.0549
# 5 -14.1169 -21.5893 -19.6516 0.0000 26.8382 0.0000
# 6 0.0000 0.0000 0.0000 -6.0549 0.0000 28.2336
#
#
#
# Elastic Compliance Matrix: (Units=1/GPa)
#
#
# Indices 1 2 3 4 5 6 
#
# 1 0.016150 -0.001421 0.002598 0.000000 0.009254 0.000000
# 2 -0.001421 0.006874 -0.002893 0.000000 0.002664 0.000000
# 3 0.002598 -0.002893 0.030811 0.000000 0.021600 0.000000
# 4 0.000000 0.000000 0.000000 0.044924 0.000000 0.009634
# 5 0.009254 0.002664 0.021600 0.000000 0.060087 0.000000
# 6 0.000000 0.000000 0.000000 0.009634 0.000000 0.037485
#
#
# Mechanical properties :
#
#
# Convention : Reuss Voigt Hill
#
# Bulk Modulus (GPa) = 19.83968 45.14974 32.49471
# Shear Modulus (GPa) = 23.08791 31.21689 27.15240
#
# Velocity S-wave (km/s) = 3.09099 3.59418 3.35204
# Velocity P-wave (km/s) = 4.57700 5.99233 5.33184
#
# Compressibility (1/GPa) = 0.05040404
#
# Stress axis : x y z
#
# Youngs Moduli (GPa) = 61.92089 145.47818 32.45562
#
# Poissons Ratio (x) = 0.20670 -0.08433
# Poissons Ratio (y) = 0.08798 0.09389
# Poissons Ratio (z) = -0.16089 0.42086
#
# Static dielectric constant tensor:
#      x y z
#    x 1.985130 0.000000 0.050290 
#    y 0.000000 1.998370 0.000000 
#    z 0.050290 0.000000 1.986020 
# 
# From -- ./inp_files/32483.got.cif
#   From: 2010.05.17/outbox.cif.g08.bks.cpg/sg9_17_cif.got.tgz:32483.got - 2010.06.03 20:04:27.
