data_PCOD9135500
_publ_section_title
;
Structure prediction by ZEFSAII (Michael W. Deem and Ramdas Pophale) SiO2 
 PCOD9135500
Probable space group: C C
;
_chemical_formula_sum "Si O2"
_cell_formula_units_Z 32
_cell_length_a 11.288273
_cell_length_b 13.982320
_cell_length_c 8.252551
_cell_angle_alpha 90.000000
_cell_angle_beta 97.403979
_cell_angle_gamma 90.000000
_cell_volume 1291.691269
_symmetry_space_group_name_H-M "C C"
_symmetry_group_IT_number 9
_symmetry_cell_setting 'monoclinic'
loop_
_space_group_symop_operation_xyz
x,y,z
x,-y,1/2+z
1/2+x,1/2+y,z
1/2+x,1/2-y,1/2+z
loop_
_atom_site_type_symbol
_atom_site_label
_atom_site_fract_x
_atom_site_fract_y
_atom_site_fract_z
Si Si1 0.087250 0.704776 0.305470
Si Si2 0.125995 0.045223 0.121170
Si Si3 0.019864 0.501653 0.319777
Si Si4 0.845854 0.150739 0.290653
Si Si5 0.476983 0.606281 0.791197
Si Si6 0.288312 0.472374 0.463816
Si Si7 0.787878 0.589592 0.431423
Si Si8 0.474255 0.803159 0.131983
O O1 0.039552 0.603042 0.229972
O O2 0.227880 0.713717 0.302023
O O3 0.011672 0.792580 0.221836
O O4 0.062601 0.701953 0.494872
O O5 0.207369 0.104934 0.258891
O O6 0.032723 0.982585 0.206577
O O7 0.053778 0.101342 0.972633
O O8 0.211328 0.969515 0.046325
O O9 0.148067 0.491293 0.428173
O O10 0.901022 0.523803 0.400939
O O11 0.999774 0.402667 0.225386
O O12 0.955959 0.217114 0.255924
O O13 0.853201 0.075222 0.440861
O O14 0.814215 0.083909 0.131656
O O15 0.341932 0.592078 0.826810
O O16 0.845314 0.683403 0.519948
#
# Coordination Sequence:
#
# PCOD9135500 Si02
#       8
#     4   4   4   4   4   4   4   4
#     4  10  24  40  74  99 143 182 238 296 360 422
#     4  10  22  38  71  98 145 185 233 298 362 422
#     4  10  24  41  75  98 144 191 231 302 362 424
#     4  11  25  45  74 102 145 190 237 305 359 439
#     4  11  22  46  67 106 142 192 235 297 365 439
#     4  11  25  46  72 105 146 192 238 296 372 434
#     4  10  20  40  69 101 136 182 236 296 359 415
#     4  11  22  46  68 105 141 184 238 296 359 435
#
# _framework density 24.773720000000001
#
# number of rings (size 3 to 8) (size 9 to 14) (size 15 to 20)
#    0.000    1.500    2.500    1.500   12.250    0.000 
#    2.250    2.500    0.000    0.000    0.000    0.000 
#    0.000    0.000    0.000    0.000    0.000    0.000 
#
# Total GULP energy -89496.988331 kJ/mol
# GULP energy per Si atom -5593.561771 kJ/mol
# Density = 2.471733 g / cm^3
# Si number density = 24.773720 Si / 1000 Ang^3
#
#
#
# Elastic Constant Matrix: (Units=GPa)
#
#
# Indices 1 2 3 4 5 6 
#
# 1 133.6143 22.8571 29.6551 0.0000 -25.5488 0.0000
# 2 22.8571 124.6705 23.7411 0.0000 2.7977 0.0000
# 3 29.6551 23.7411 63.8598 0.0000 -10.6803 0.0000
# 4 0.0000 0.0000 0.0000 40.2643 0.0000 -0.2212
# 5 -25.5488 2.7977 -10.6803 0.0000 43.9379 0.0000
# 6 0.0000 0.0000 0.0000 -0.2212 0.0000 35.3073
#
#
#
# Elastic Compliance Matrix: (Units=1/GPa)
#
#
# Indices 1 2 3 4 5 6 
#
# 1 0.009277 -0.001224 -0.003062 0.000000 0.004728 0.000000
# 2 -0.001224 0.008875 -0.003070 0.000000 -0.002023 0.000000
# 3 -0.003062 -0.003070 0.018718 0.000000 0.002965 0.000000
# 4 0.000000 0.000000 0.000000 0.024837 0.000000 0.000156
# 5 0.004728 -0.002023 0.002965 0.000000 0.026358 0.000000
# 6 0.000000 0.000000 0.000000 0.000156 0.000000 0.028324
#
#
# Mechanical properties :
#
#
# Convention : Reuss Voigt Hill
#
# Bulk Modulus (GPa) = 45.12747 52.73901 48.93324
# Shear Modulus (GPa) = 36.10415 40.29465 38.19940
#
# Velocity S-wave (km/s) = 3.82168 4.03737 3.93100
# Velocity P-wave (km/s) = 6.14240 6.56265 6.35600
#
# Compressibility (1/GPa) = 0.02215945
#
# Stress axis : x y z
#
# Youngs Moduli (GPa) = 107.78939 112.67008 53.42313
#
# Poissons Ratio (x) = 0.13789 0.16361
# Poissons Ratio (y) = 0.13192 0.16399
# Poissons Ratio (z) = 0.33010 0.34586
#
# Static dielectric constant tensor:
#      x y z
#    x 1.935430 0.000000 0.015300 
#    y 0.000000 1.989710 0.000000 
#    z 0.015300 0.000000 2.024100 
# 
# From -- ./inp_files/7461.got.cif
#   From: 2010.05.17/outbox.cif.g08.bks.cpg/sg9_4_cif.got.tgz:7461.got - 2010.06.03 20:04:27.
