data_PCOD9135523
_publ_section_title
;
Structure prediction by ZEFSAII (Michael W. Deem and Ramdas Pophale) SiO2 
 PCOD9135523
Probable space group: C C
;
_chemical_formula_sum "Si O2"
_cell_formula_units_Z 32
_cell_length_a 25.353401
_cell_length_b 6.922936
_cell_length_c 14.076800
_cell_angle_alpha 90.000000
_cell_angle_beta 33.272081
_cell_angle_gamma 90.000000
_cell_volume 1355.496941
_symmetry_space_group_name_H-M "C C"
_symmetry_group_IT_number 9
_symmetry_cell_setting 'monoclinic'
loop_
_space_group_symop_operation_xyz
x,y,z
x,-y,1/2+z
1/2+x,1/2+y,z
1/2+x,1/2-y,1/2+z
loop_
_atom_site_type_symbol
_atom_site_label
_atom_site_fract_x
_atom_site_fract_y
_atom_site_fract_z
Si Si1 0.875000 0.042941 0.308340
Si Si2 0.082596 0.890238 0.515526
Si Si3 0.914743 0.519889 0.518523
Si Si4 0.220252 0.579456 0.403562
Si Si5 0.553200 0.793934 0.669652
Si Si6 0.835511 0.132581 0.571285
Si Si7 0.892904 0.603784 0.262641
Si Si8 0.243787 0.999090 0.646641
O O1 0.750066 0.271869 0.661515
O O2 0.884206 0.830887 0.250712
O O3 0.973463 0.160234 0.153838
O O4 0.863625 0.010985 0.437740
O O5 0.072750 0.081602 0.597118
O O6 0.145069 0.735089 0.478064
O O7 0.138862 0.930856 0.332131
O O8 0.906712 0.503770 0.642813
O O9 0.814278 0.584200 0.622561
O O10 0.995374 0.659563 0.353893
O O11 0.916311 0.293598 0.478128
O O12 0.155103 0.395795 0.527635
O O13 0.295642 0.501861 0.212537
O O14 0.283927 0.641040 0.397182
O O15 0.485018 0.900262 0.693944
O O16 0.798856 0.545888 0.466249
#
# Coordination Sequence:
#
# PCOD9135523 Si02
#       8
#     4   4   4   4   4   4   4   4
#     4  11  24  44  71 107 144 196 253 302 379 457
#     4  11  24  45  72 109 147 190 261 305 375 457
#     4   9  19  40  73 103 148 195 243 310 386 445
#     4  12  24  46  74 101 155 196 244 318 374 446
#     4  10  22  43  71 108 150 190 245 320 369 457
#     4  10  21  43  71 102 149 193 244 310 375 443
#     4  10  20  40  76 102 143 201 247 299 388 454
#     4   9  20  41  68 100 146 183 239 312 362 451
#
# _framework density 23.607579000000001
#
# number of rings (size 3 to 8) (size 9 to 14) (size 15 to 20)
#    0.750    1.000    2.500    1.500    0.000    2.000 
#    0.000    1.250    8.250    0.000    0.000    0.000 
#    0.000    0.000    0.000    0.000    0.000    0.000 
#
# Total GULP energy -89334.898926 kJ/mol
# GULP energy per Si atom -5583.431183 kJ/mol
# Density = 2.355385 g / cm^3
# Si number density = 23.607579 Si / 1000 Ang^3
#
#
#
# Elastic Constant Matrix: (Units=GPa)
#
#
# Indices 1 2 3 4 5 6 
#
# 1 107.3931 37.1541 74.8545 0.0002 9.6508 -0.0003
# 2 37.1541 106.6982 18.8674 -0.0011 4.5857 -0.0002
# 3 74.8545 18.8674 101.6983 -0.0002 10.2391 -0.0002
# 4 0.0002 -0.0011 -0.0002 31.1255 -0.0003 -3.3082
# 5 9.6508 4.5857 10.2391 -0.0003 35.6435 0.0001
# 6 -0.0003 -0.0002 -0.0002 -3.3082 0.0001 28.9928
#
#
#
# Elastic Compliance Matrix: (Units=1/GPa)
#
#
# Indices 1 2 3 4 5 6 
#
# 1 0.021283 -0.004774 -0.014686 0.000000 -0.000930 0.000000
# 2 -0.004774 0.010781 0.001569 0.000000 -0.000545 0.000000
# 3 -0.014686 0.001569 0.020566 0.000000 -0.002133 0.000000
# 4 0.000000 0.000000 0.000000 0.032522 0.000000 0.003711
# 5 -0.000930 -0.000545 -0.002133 0.000000 0.028990 0.000000
# 6 0.000000 0.000000 0.000000 0.003711 0.000000 0.034915
#
#
# Mechanical properties :
#
#
# Convention : Reuss Voigt Hill
#
# Bulk Modulus (GPa) = 59.35657 64.17129 61.76393
# Shear Modulus (GPa) = 26.25269 31.47992 28.86631
#
# Velocity S-wave (km/s) = 3.33835 3.65563 3.50059
# Velocity P-wave (km/s) = 6.32906 6.71265 6.52368
#
# Compressibility (1/GPa) = 0.01684733
#
# Stress axis : x y z
#
# Youngs Moduli (GPa) = 46.98520 92.75817 48.62306
#
# Poissons Ratio (x) = 0.44286 0.71408
# Poissons Ratio (y) = 0.22432 -0.07628
# Poissons Ratio (z) = 0.69003 -0.14553
#
# Static dielectric constant tensor:
#      x y z
#    x 1.886400 0.000000 0.004680 
#    y 0.000000 1.952430 0.000000 
#    z 0.004680 0.000000 1.920540 
# 
# From -- ./inp_files/20807.got.cif
#   From: 2010.05.17/outbox.cif.g08.bks.cpg/sg9_11_cif.got.tgz:20807.got - 2010.06.03 20:04:27.
