data_PCOD9135645
_publ_section_title
;
Structure prediction by ZEFSAII (Michael W. Deem and Ramdas Pophale) SiO2 
 PCOD9135645
Probable space group: C C
;
_chemical_formula_sum "Si O2"
_cell_formula_units_Z 20
_cell_length_a 18.069157
_cell_length_b 4.902273
_cell_length_c 9.761569
_cell_angle_alpha 90.000000
_cell_angle_beta 126.071576
_cell_angle_gamma 90.000000
_cell_volume 698.904703
_symmetry_space_group_name_H-M "C C"
_symmetry_group_IT_number 9
_symmetry_cell_setting 'monoclinic'
loop_
_space_group_symop_operation_xyz
x,y,z
x,-y,1/2+z
1/2+x,1/2+y,z
1/2+x,1/2-y,1/2+z
loop_
_atom_site_type_symbol
_atom_site_label
_atom_site_fract_x
_atom_site_fract_y
_atom_site_fract_z
Si Si1 0.453620 0.940387 0.858440
Si Si2 0.135023 0.943322 0.340960
Si Si3 0.438922 0.334555 0.612417
Si Si4 0.650863 0.941852 0.185223
Si Si5 0.790885 0.207217 0.151913
O O1 0.446302 0.028478 0.689227
O O2 0.369683 0.129404 0.817248
O O3 0.440445 0.686832 0.949907
O O4 0.557047 0.021300 0.007964
O O5 0.150825 0.630856 0.320200
O O6 0.144924 0.126298 0.215278
O O7 0.215152 0.075454 0.517717
O O8 0.029225 0.004894 0.265263
O O9 0.846315 0.930795 0.585702
O O10 0.737439 0.003665 0.189224
#
# Coordination Sequence:
#
# PCOD9135645 Si02
#       5
#     4   4   4   4   4
#     4   9  20  41  68  97 135 174 222 272 333 392
#     4  11  24  44  67  98 136 176 222 274 334 395
#     4   9  20  41  68  97 135 174 222 272 333 392
#     4  11  24  44  67  98 136 176 222 274 334 395
#     4  10  20  42  66 106 126 184 214 290 314 412
#
# _framework density 28.616208
#
# number of rings (size 3 to 8) (size 9 to 14) (size 15 to 20)
#    1.200    0.800    2.000    1.200    0.000    3.200 
#    3.600    8.000    0.000    0.000    0.000    0.000 
#    0.000    0.000    0.000    0.000    0.000    0.000 
#
# Total GULP energy -55932.851760 kJ/mol
# GULP energy per Si atom -5593.285176 kJ/mol
# Density = 2.855108 g / cm^3
# Si number density = 28.616208 Si / 1000 Ang^3
#
#
#
# Elastic Constant Matrix: (Units=GPa)
#
#
# Indices 1 2 3 4 5 6 
#
# 1 218.0466 32.7512 52.4647 0.0000 30.1099 0.0000
# 2 32.7512 69.3716 27.2662 0.0000 5.1061 0.0000
# 3 52.4647 27.2662 132.4961 0.0000 11.8234 0.0000
# 4 0.0000 0.0000 0.0000 42.8389 0.0000 -0.3872
# 5 30.1099 5.1061 11.8234 0.0000 58.6844 0.0000
# 6 0.0000 0.0000 0.0000 -0.3872 0.0000 39.2225
#
#
#
# Elastic Compliance Matrix: (Units=1/GPa)
#
#
# Indices 1 2 3 4 5 6 
#
# 1 0.005578 -0.001821 -0.001622 0.000000 -0.002377 0.000000
# 2 -0.001821 0.016309 -0.002639 0.000000 0.000047 0.000000
# 3 -0.001622 -0.002639 0.008796 0.000000 -0.000710 0.000000
# 4 0.000000 0.000000 0.000000 0.023345 0.000000 0.000230
# 5 -0.002377 0.000047 -0.000710 0.000000 0.018399 0.000000
# 6 0.000000 0.000000 0.000000 0.000230 0.000000 0.025498
#
#
# Mechanical properties :
#
#
# Convention : Reuss Voigt Hill
#
# Bulk Modulus (GPa) = 54.00002 71.65316 62.82659
# Shear Modulus (GPa) = 43.00613 48.64466 45.82539
#
# Velocity S-wave (km/s) = 3.88088 4.12746 4.00606
# Velocity P-wave (km/s) = 6.24444 6.91435 6.58792
#
# Compressibility (1/GPa) = 0.01851851
#
# Stress axis : x y z
#
# Youngs Moduli (GPa) = 179.26991 61.31679 113.68598
#
# Poissons Ratio (x) = 0.11166 0.18439
# Poissons Ratio (y) = 0.32647 0.30005
# Poissons Ratio (z) = 0.29077 0.16183
#
# Static dielectric constant tensor:
#      x y z
#    x 2.209080 0.000000 -0.059450 
#    y 0.000000 2.226770 0.000000 
#    z -0.059450 0.000000 2.239020 
# 
# From -- ./inp_files/20647.got.cif
#   From: 2010.05.17/outbox.cif.g08.bks.cpg/sg9_11_cif.got.tgz:20647.got - 2010.06.03 20:04:27.
