data_PCOD9135827
_publ_section_title
;
Structure prediction by ZEFSAII (Michael W. Deem and Ramdas Pophale) SiO2 
 PCOD9135827
Probable space group: C C
;
_chemical_formula_sum "Si O2"
_cell_formula_units_Z 24
_cell_length_a 6.682334
_cell_length_b 15.624034
_cell_length_c 11.700355
_cell_angle_alpha 90.000000
_cell_angle_beta 133.304063
_cell_angle_gamma 90.000000
_cell_volume 888.970121
_symmetry_space_group_name_H-M "C C"
_symmetry_group_IT_number 9
_symmetry_cell_setting 'monoclinic'
loop_
_space_group_symop_operation_xyz
x,y,z
x,-y,1/2+z
1/2+x,1/2+y,z
1/2+x,1/2-y,1/2+z
loop_
_atom_site_type_symbol
_atom_site_label
_atom_site_fract_x
_atom_site_fract_y
_atom_site_fract_z
Si Si1 0.699190 0.873850 0.198670
Si Si2 0.941399 0.921496 0.640122
Si Si3 0.082219 0.806627 0.180039
Si Si4 0.532003 0.987694 0.819368
Si Si5 0.919314 0.152360 0.382754
Si Si6 0.503165 0.264442 0.494916
O O1 0.971186 0.879050 0.224096
O O2 0.211024 0.972773 0.706253
O O3 0.801083 0.795592 0.318274
O O4 0.619578 0.951955 0.246802
O O5 0.943889 0.899814 0.774682
O O6 0.958585 0.833023 0.576344
O O7 0.470422 0.832853 0.025670
O O8 0.671397 0.970082 0.486158
O O9 0.335449 0.749556 0.318973
O O10 0.127137 0.842068 0.071414
O O11 0.818962 0.741119 0.074769
O O12 0.668048 0.895976 0.848781
#
# Coordination Sequence:
#
# PCOD9135827 Si02
#       6
#     4   4   4   4   4   4
#     4   9  19  40  81 109 155 205 254 338 403 472
#     4  11  27  49  77 115 163 213 266 328 413 480
#     4  10  20  46  77 112 153 204 266 330 395 476
#     4  11  26  52  75 118 165 213 268 340 402 484
#     4  12  26  47  78 116 162 206 271 339 404 489
#     4   9  18  42  74 110 150 195 265 327 385 475
#
# _framework density 26.997533000000001
#
# number of rings (size 3 to 8) (size 9 to 14) (size 15 to 20)
#    1.000    0.667    3.333    0.000    2.333    4.000 
#    9.000    0.000    0.000    0.000    0.000    0.000 
#    0.000    0.000    0.000    0.000    0.000    0.000 
#
# Total GULP energy -67177.517416 kJ/mol
# GULP energy per Si atom -5598.126451 kJ/mol
# Density = 2.693609 g / cm^3
# Si number density = 26.997533 Si / 1000 Ang^3
#
#
#
# Elastic Constant Matrix: (Units=GPa)
#
#
# Indices 1 2 3 4 5 6 
#
# 1 90.5547 34.2239 31.5468 0.0000 -32.0531 0.0000
# 2 34.2239 97.6014 44.4404 0.0000 -5.9194 0.0000
# 3 31.5468 44.4404 123.8403 0.0000 -33.7735 0.0000
# 4 0.0000 0.0000 0.0000 45.4064 0.0001 1.9454
# 5 -32.0531 -5.9194 -33.7735 0.0001 54.5425 0.0000
# 6 0.0000 0.0000 0.0000 1.9454 0.0000 56.2463
#
#
#
# Elastic Compliance Matrix: (Units=1/GPa)
#
#
# Indices 1 2 3 4 5 6 
#
# 1 0.016142 -0.005216 0.000232 0.000000 0.009063 0.000000
# 2 -0.005216 0.014061 -0.004977 0.000000 -0.004621 0.000000
# 3 0.000232 -0.004977 0.011661 0.000000 0.006817 0.000000
# 4 0.000000 0.000000 0.000000 0.022056 0.000000 -0.000763
# 5 0.009063 -0.004621 0.006817 0.000000 0.027380 0.000000
# 6 0.000000 0.000000 0.000000 -0.000763 0.000000 0.017805
#
#
# Mechanical properties :
#
#
# Convention : Reuss Voigt Hill
#
# Bulk Modulus (GPa) = 45.57837 59.15762 52.36799
# Shear Modulus (GPa) = 36.67261 44.69139 40.68200
#
# Velocity S-wave (km/s) = 3.68960 4.07306 3.88606
# Velocity P-wave (km/s) = 5.92199 6.63924 6.29085
#
# Compressibility (1/GPa) = 0.02194023
#
# Stress axis : x y z
#
# Youngs Moduli (GPa) = 61.95122 71.12011 85.75547
#
# Poissons Ratio (x) = 0.37095 -0.01986
# Poissons Ratio (y) = 0.32313 0.42683
# Poissons Ratio (z) = -0.01434 0.35399
#
# Static dielectric constant tensor:
#      x y z
#    x 2.175610 0.000000 0.007860 
#    y 0.000000 2.061160 0.000000 
#    z 0.007860 0.000000 2.097640 
# 
# From -- ./inp_files/15136.got.cif
#   From: 2010.05.17/outbox.cif.g08.bks.cpg/sg9_8_cif.got.tgz:15136.got - 2010.06.03 20:04:27.
