data_PCOD9135572
_publ_section_title
;
Structure prediction by ZEFSAII (Michael W. Deem and Ramdas Pophale) SiO2 
 PCOD9135572
Probable space group: C C
;
_chemical_formula_sum "Si O2"
_cell_formula_units_Z 32
_cell_length_a 22.586494
_cell_length_b 5.222832
_cell_length_c 13.968278
_cell_angle_alpha 90.000000
_cell_angle_beta 122.496480
_cell_angle_gamma 90.000000
_cell_volume 1389.773215
_symmetry_space_group_name_H-M "C C"
_symmetry_group_IT_number 9
_symmetry_cell_setting 'monoclinic'
loop_
_space_group_symop_operation_xyz
x,y,z
x,-y,1/2+z
1/2+x,1/2+y,z
1/2+x,1/2-y,1/2+z
loop_
_atom_site_type_symbol
_atom_site_label
_atom_site_fract_x
_atom_site_fract_y
_atom_site_fract_z
Si Si1 0.389500 0.174095 0.905980
Si Si2 0.207730 0.870842 0.051285
Si Si3 0.177402 0.529477 0.654565
Si Si4 0.673736 0.053079 0.361427
Si Si5 0.817551 0.315527 0.539914
Si Si6 0.329434 0.325703 0.251196
Si Si7 0.029556 0.590742 0.924827
Si Si8 0.070210 0.895729 0.369038
O O1 0.356733 0.436398 0.836679
O O2 0.471163 0.172932 0.949328
O O3 0.358967 0.930393 0.823481
O O4 0.372002 0.139612 0.002818
O O5 0.212044 0.748226 0.159225
O O6 0.280392 0.949451 0.064317
O O7 0.178740 0.644499 0.954050
O O8 0.142615 0.067740 0.993551
O O9 0.167585 0.591018 0.756618
O O10 0.244312 0.694565 0.678078
O O11 0.100722 0.477568 0.544034
O O12 0.748807 0.191995 0.430896
O O13 0.609505 0.256611 0.314099
O O14 0.847425 0.150618 0.654161
O O15 0.017191 0.319632 0.861470
O O16 0.036856 0.823594 0.854015
#
# Coordination Sequence:
#
# PCOD9135572 Si02
#       8
#     4   4   4   4   4   4   4   4
#     4  12  28  48  71 106 147 193 233 296 361 439
#     4  10  20  41  67 107 145 175 233 309 348 405
#     4  11  21  42  74 105 132 186 235 291 352 416
#     4  11  20  39  70 107 137 175 241 293 347 413
#     4  11  24  41  71 104 146 182 238 296 353 427
#     4  12  25  46  76 104 139 191 245 292 358 420
#     4  11  24  48  68  98 147 181 230 292 357 418
#     4  10  20  43  67  91 135 185 219 289 344 404
#
# _framework density 23.025338000000001
#
# number of rings (size 3 to 8) (size 9 to 14) (size 15 to 20)
#    0.000    1.000    5.000    3.000    0.000    1.000 
#   13.500    0.000    0.000    0.000    0.000    0.000 
#    0.000    0.000    0.000    0.000    0.000    0.000 
#
# Total GULP energy -89156.429449 kJ/mol
# GULP energy per Si atom -5572.276841 kJ/mol
# Density = 2.297293 g / cm^3
# Si number density = 23.025338 Si / 1000 Ang^3
#
#
#
# Elastic Constant Matrix: (Units=GPa)
#
#
# Indices 1 2 3 4 5 6 
#
# 1 129.4448 19.4271 23.8921 0.0000 -17.6016 0.0000
# 2 19.4271 109.2752 7.0252 -0.0001 3.3505 0.0000
# 3 23.8921 7.0252 66.8001 0.0000 -14.7147 0.0000
# 4 0.0000 -0.0001 0.0000 22.1457 0.0000 0.3660
# 5 -17.6016 3.3505 -14.7147 0.0000 29.0480 0.0000
# 6 0.0000 0.0000 0.0000 0.3660 0.0000 22.0055
#
#
#
# Elastic Compliance Matrix: (Units=1/GPa)
#
#
# Indices 1 2 3 4 5 6 
#
# 1 0.008964 -0.001604 -0.002026 0.000000 0.004590 0.000000
# 2 -0.001604 0.009580 -0.001003 0.000000 -0.002585 0.000000
# 3 -0.002026 -0.001003 0.017509 0.000000 0.007757 0.000000
# 4 0.000000 0.000000 0.000000 0.045168 0.000000 -0.000751
# 5 0.004590 -0.002585 0.007757 0.000000 0.041435 0.000000
# 6 0.000000 0.000000 0.000000 -0.000751 0.000000 0.045456
#
#
# Mechanical properties :
#
#
# Convention : Reuss Voigt Hill
#
# Bulk Modulus (GPa) = 37.33288 45.13433 41.23361
# Shear Modulus (GPa) = 26.83723 31.65156 29.24439
#
# Velocity S-wave (km/s) = 3.41772 3.71164 3.56771
# Velocity P-wave (km/s) = 5.64123 6.16546 5.90916
#
# Compressibility (1/GPa) = 0.02678604
#
# Stress axis : x y z
#
# Youngs Moduli (GPa) = 111.55414 104.38240 57.11329
#
# Poissons Ratio (x) = 0.16745 0.11573
# Poissons Ratio (y) = 0.17895 0.05730
# Poissons Ratio (z) = 0.22604 0.10472
#
# Static dielectric constant tensor:
#      x y z
#    x 1.883240 0.000000 0.019440 
#    y 0.000000 2.027420 0.000000 
#    z 0.019440 0.000000 1.859150 
# 
# From -- ./inp_files/27582.got.cif
#   From: 2010.05.17/outbox.cif.g08.bks.cpg/sg9_14_cif.got.tgz:27582.got - 2010.06.03 20:04:27.
