data_PCOD9135820
_publ_section_title
;
Structure prediction by ZEFSAII (Michael W. Deem and Ramdas Pophale) SiO2 
 PCOD9135820
Probable space group: C C
;
_chemical_formula_sum "Si O2"
_cell_formula_units_Z 28
_cell_length_a 6.979944
_cell_length_b 7.475052
_cell_length_c 20.409011
_cell_angle_alpha 90.000000
_cell_angle_beta 80.005607
_cell_angle_gamma 90.000000
_cell_volume 1048.689856
_symmetry_space_group_name_H-M "C C"
_symmetry_group_IT_number 9
_symmetry_cell_setting 'monoclinic'
loop_
_space_group_symop_operation_xyz
x,y,z
x,-y,1/2+z
1/2+x,1/2+y,z
1/2+x,1/2-y,1/2+z
loop_
_atom_site_type_symbol
_atom_site_label
_atom_site_fract_x
_atom_site_fract_y
_atom_site_fract_z
Si Si1 0.554770 0.752374 0.764150
Si Si2 0.289018 0.074964 0.648948
Si Si3 0.765970 0.340334 0.369711
Si Si4 0.313847 0.345292 0.540622
Si Si5 0.675726 0.220284 0.585172
Si Si6 0.128324 0.240397 0.415554
Si Si7 0.154937 0.373162 0.279974
O O1 0.651715 0.590650 0.719356
O O2 0.580840 0.733118 0.841250
O O3 0.333124 0.753881 0.751767
O O4 0.662219 0.938167 0.744295
O O5 0.509831 0.143825 0.645035
O O6 0.278033 0.889576 0.610976
O O7 0.212412 0.226581 0.602823
O O8 0.707802 0.542997 0.392430
O O9 0.892598 0.250625 0.420179
O O10 0.929739 0.321515 0.301267
O O11 0.304325 0.552602 0.558645
O O12 0.537963 0.282081 0.532639
O O13 0.709159 0.800589 0.479734
O O14 0.193207 0.385170 0.356728
#
# Coordination Sequence:
#
# PCOD9135820 Si02
#       7
#     4   4   4   4   4   4   4
#     4  12  22  44  64 102 137 182 237 286 359 430
#     4  10  26  44  67 104 141 191 234 300 354 432
#     4  10  22  40  63 100 131 180 224 289 349 416
#     4  10  24  46  70 100 144 187 237 297 359 427
#     4  10  24  45  68 103 141 179 245 278 372 411
#     4  10  20  46  63 100 139 176 235 291 355 427
#     4  10  22  39  65  95 135 179 224 287 350 417
#
# _framework density 26.699981999999999
#
# number of rings (size 3 to 8) (size 9 to 14) (size 15 to 20)
#    1.714    0.000    1.429    2.571    2.000    1.143 
#   10.286    0.000    0.000    0.000    0.000    0.000 
#    0.000    0.000    0.000    0.000    0.000    0.000 
#
# Total GULP energy -78178.022760 kJ/mol
# GULP energy per Si atom -5584.144483 kJ/mol
# Density = 2.663921 g / cm^3
# Si number density = 26.699982 Si / 1000 Ang^3
#
#
#
# Elastic Constant Matrix: (Units=GPa)
#
#
# Indices 1 2 3 4 5 6 
#
# 1 133.0260 65.9577 14.2910 0.0000 -6.5872 0.0000
# 2 65.9577 164.5630 34.2366 0.0000 17.9058 0.0000
# 3 14.2910 34.2366 61.1236 0.0000 15.2344 0.0000
# 4 0.0000 0.0000 0.0000 29.0694 0.0000 0.5674
# 5 -6.5872 17.9058 15.2344 0.0000 29.9496 0.0000
# 6 0.0000 0.0000 0.0000 0.5674 0.0000 49.9908
#
#
#
# Elastic Compliance Matrix: (Units=1/GPa)
#
#
# Indices 1 2 3 4 5 6 
#
# 1 0.010097 -0.004379 -0.001276 0.000000 0.005488 0.000000
# 2 -0.004379 0.008940 -0.002762 0.000000 -0.004903 0.000000
# 3 -0.001276 -0.002762 0.020457 0.000000 -0.009036 0.000000
# 4 0.000000 0.000000 0.000000 0.034408 0.000000 -0.000391
# 5 0.005488 -0.004903 -0.009036 0.000000 0.042124 0.000000
# 6 0.000000 0.000000 0.000000 -0.000391 0.000000 0.020008
#
#
# Mechanical properties :
#
#
# Convention : Reuss Voigt Hill
#
# Bulk Modulus (GPa) = 44.12655 65.29815 54.71235
# Shear Modulus (GPa) = 31.16804 38.08378 34.62591
#
# Velocity S-wave (km/s) = 3.42035 3.78082 3.60509
# Velocity P-wave (km/s) = 5.67107 6.60066 6.15345
#
# Compressibility (1/GPa) = 0.02266210
#
# Stress axis : x y z
#
# Youngs Moduli (GPa) = 99.03739 111.86046 48.88196
#
# Poissons Ratio (x) = 0.48980 0.06237
# Poissons Ratio (y) = 0.43365 0.13499
# Poissons Ratio (z) = 0.12637 0.30891
#
# Static dielectric constant tensor:
#      x y z
#    x 2.120060 0.000000 -0.061010 
#    y 0.000000 2.003390 0.000000 
#    z -0.061010 0.000000 2.166480 
# 
# From -- ./inp_files/32297.got.cif
#   From: 2010.05.17/outbox.cif.g08.bks.cpg/sg9_17_cif.got.tgz:32297.got - 2010.06.03 20:04:27.
