data_PCOD9135967
_publ_section_title
;
Structure prediction by ZEFSAII (Michael W. Deem and Ramdas Pophale) SiO2 
 PCOD9135967
Probable space group: C C
;
_chemical_formula_sum "Si O2"
_cell_formula_units_Z 32
_cell_length_a 21.158672
_cell_length_b 6.002668
_cell_length_c 10.934928
_cell_angle_alpha 90.000000
_cell_angle_beta 103.272597
_cell_angle_gamma 90.000000
_cell_volume 1351.731325
_symmetry_space_group_name_H-M "C C"
_symmetry_group_IT_number 9
_symmetry_cell_setting 'monoclinic'
loop_
_space_group_symop_operation_xyz
x,y,z
x,-y,1/2+z
1/2+x,1/2+y,z
1/2+x,1/2-y,1/2+z
loop_
_atom_site_type_symbol
_atom_site_label
_atom_site_fract_x
_atom_site_fract_y
_atom_site_fract_z
Si Si1 0.788670 0.700587 0.143460
Si Si2 0.519242 0.425764 0.758182
Si Si3 0.185343 0.431602 0.523544
Si Si4 0.489420 0.833912 0.484572
Si Si5 0.790306 0.329244 0.927278
Si Si6 0.893409 0.973279 0.060771
Si Si7 0.561975 0.794613 0.938532
Si Si8 0.111493 0.924054 0.127003
O O1 0.788050 0.605700 0.282200
O O2 0.850306 0.861459 0.147874
O O3 0.727178 0.864864 0.096866
O O4 0.791454 0.522126 0.032639
O O5 0.505016 0.241333 0.853485
O O6 0.457686 0.416828 0.643253
O O7 0.518774 0.668314 0.821745
O O8 0.592707 0.425149 0.735324
O O9 0.227104 0.313648 0.437481
O O10 0.118060 0.525785 0.438818
O O11 0.168211 0.248829 0.622243
O O12 0.420868 0.731001 0.490515
O O13 0.545807 0.720250 0.589066
O O14 0.508840 0.089605 0.501215
O O15 0.849961 0.157327 0.974050
O O16 0.604121 0.595943 0.014321
#
# Coordination Sequence:
#
# PCOD9135967 Si02
#       8
#     4   4   4   4   4   4   4   4
#     4  11  26  46  74 103 140 200 257 314 385 448
#     4  10  21  37  65  98 136 181 230 302 366 451
#     4  10  23  45  66  98 138 189 247 315 371 449
#     4   9  20  37  61  96 138 177 234 289 368 445
#     4  11  26  47  69 104 144 193 259 316 381 445
#     4  10  23  43  66  99 142 192 245 308 369 453
#     4  10  21  40  62  99 135 182 230 294 383 442
#     4   9  20  39  59  95 133 176 230 290 367 439
#
# _framework density 23.673344
#
# number of rings (size 3 to 8) (size 9 to 14) (size 15 to 20)
#    0.000    2.000    0.000    1.500    1.750   13.000 
#   13.500    0.000    0.000    0.000    0.000    0.000 
#    0.000    0.000    0.000    0.000    0.000    0.000 
#
# Total GULP energy -89173.555704 kJ/mol
# GULP energy per Si atom -5573.347231 kJ/mol
# Density = 2.361946 g / cm^3
# Si number density = 23.673344 Si / 1000 Ang^3
#
#
#
# Elastic Constant Matrix: (Units=GPa)
#
#
# Indices 1 2 3 4 5 6 
#
# 1 139.0079 64.8680 48.0147 0.0000 -5.2144 0.0000
# 2 64.8680 89.7926 50.0358 0.0000 10.2507 0.0000
# 3 48.0147 50.0358 101.0883 0.0000 -14.4406 0.0000
# 4 0.0000 0.0000 0.0000 167.8800 0.0000 -69.1794
# 5 -5.2144 10.2507 -14.4406 0.0000 17.8965 0.0000
# 6 0.0000 0.0000 0.0000 -69.1794 0.0000 72.2393
#
#
#
# Elastic Compliance Matrix: (Units=1/GPa)
#
#
# Indices 1 2 3 4 5 6 
#
# 1 0.012136 -0.010388 0.000828 0.000000 0.010154 0.000000
# 2 -0.010388 0.030674 -0.014909 0.000000 -0.032626 0.000000
# 3 0.000828 -0.014909 0.020496 0.000000 0.025319 0.000000
# 4 0.000000 0.000000 0.000000 0.009840 0.000000 0.009423
# 5 0.010154 -0.032626 0.025319 0.000000 0.097953 0.000000
# 6 0.000000 0.000000 0.000000 0.009423 0.000000 0.022866
#
#
# Mechanical properties :
#
#
# Convention : Reuss Voigt Hill
#
# Bulk Modulus (GPa) = 69.60477 72.85843 71.23160
# Shear Modulus (GPa) = 20.18625 62.73450 41.46038
#
# Velocity S-wave (km/s) = 2.92327 5.15341 4.18946
# Velocity P-wave (km/s) = 6.39218 8.13963 7.31825
#
# Compressibility (1/GPa) = 0.01436683
#
# Stress axis : x y z
#
# Youngs Moduli (GPa) = 82.39691 32.60089 48.79061
#
# Poissons Ratio (x) = 0.33866 -0.04039
# Poissons Ratio (y) = 0.85594 0.72744
# Poissons Ratio (z) = -0.06821 0.48606
#
# Static dielectric constant tensor:
#      x y z
#    x 1.924690 0.000000 -0.065300 
#    y 0.000000 1.766960 0.000000 
#    z -0.065300 0.000000 2.036830 
# 
# From -- ./inp_files/19714.got.cif
#   From: 2010.05.17/outbox.cif.g08.bks.cpg/sg9_10_cif.got.tgz:19714.got - 2010.06.03 20:04:27.
