data_PCOD9135980
_publ_section_title
;
Structure prediction by ZEFSAII (Michael W. Deem and Ramdas Pophale) SiO2 
 PCOD9135980
Probable space group: C C
;
_chemical_formula_sum "Si O2"
_cell_formula_units_Z 28
_cell_length_a 16.110257
_cell_length_b 7.239544
_cell_length_c 12.300753
_cell_angle_alpha 90.000000
_cell_angle_beta 123.005776
_cell_angle_gamma 90.000000
_cell_volume 1203.118336
_symmetry_space_group_name_H-M "C C"
_symmetry_group_IT_number 9
_symmetry_cell_setting 'monoclinic'
loop_
_space_group_symop_operation_xyz
x,y,z
x,-y,1/2+z
1/2+x,1/2+y,z
1/2+x,1/2-y,1/2+z
loop_
_atom_site_type_symbol
_atom_site_label
_atom_site_fract_x
_atom_site_fract_y
_atom_site_fract_z
Si Si1 0.845980 0.014636 0.160550
Si Si2 0.365152 0.773286 0.381561
Si Si3 0.313189 0.160876 0.266788
Si Si4 0.680046 0.111056 0.387195
Si Si5 0.499773 0.507538 0.586537
Si Si6 0.154781 0.772752 0.823685
Si Si7 0.126731 0.943915 0.482785
O O1 0.865292 0.817405 0.232557
O O2 0.916677 0.062249 0.110358
O O3 0.857747 0.163503 0.262964
O O4 0.738956 0.986982 0.028896
O O5 0.264372 0.709936 0.372989
O O6 0.456016 0.708469 0.523085
O O7 0.371477 0.986084 0.353767
O O8 0.260105 0.242311 0.337079
O O9 0.224865 0.091235 0.124518
O O10 0.617767 0.276662 0.391832
O O11 0.619967 0.940106 0.293187
O O12 0.596164 0.430598 0.716090
O O13 0.530043 0.440618 0.488310
O O14 0.146084 0.862188 0.936390
#
# Coordination Sequence:
#
# PCOD9135980 Si02
#       7
#     4   4   4   4   4   4   4
#     4  10  21  41  63  95 130 172 216 278 324 396
#     4  11  20  41  65  96 128 176 216 279 319 400
#     4  10  21  37  70  96 125 169 231 264 330 385
#     4  10  21  37  70  96 125 169 231 264 330 385
#     4  10  24  40  62  90 144 174 202 270 352 374
#     4  11  20  41  65  96 128 176 216 279 319 400
#     4  10  21  41  63  95 130 172 216 278 324 396
#
# _framework density 23.272855
#
# number of rings (size 3 to 8) (size 9 to 14) (size 15 to 20)
#    0.000    1.714    2.857    1.714    0.000    0.000 
#    0.000    8.571    0.000    0.000    0.000    0.000 
#    0.000    0.000    0.000    0.000    0.000    0.000 
#
# Total GULP energy -77990.993922 kJ/mol
# GULP energy per Si atom -5570.785280 kJ/mol
# Density = 2.321989 g / cm^3
# Si number density = 23.272855 Si / 1000 Ang^3
#
#
#
# Elastic Constant Matrix: (Units=GPa)
#
#
# Indices 1 2 3 4 5 6 
#
# 1 113.8762 45.5429 24.6277 0.0000 -36.2968 0.0000
# 2 45.5429 121.2132 23.9948 0.0000 -19.4629 0.0000
# 3 24.6277 23.9948 57.0116 0.0000 -7.5127 0.0000
# 4 0.0000 0.0000 0.0000 32.3268 0.0000 -6.2797
# 5 -36.2968 -19.4629 -7.5127 0.0000 32.9990 0.0000
# 6 0.0000 0.0000 0.0000 -6.2797 0.0000 13.6485
#
#
#
# Elastic Compliance Matrix: (Units=1/GPa)
#
#
# Indices 1 2 3 4 5 6 
#
# 1 0.015189 -0.002710 -0.003536 0.000000 0.014304 0.000000
# 2 -0.002710 0.010210 -0.002810 0.000000 0.002401 0.000000
# 3 -0.003536 -0.002810 0.020123 0.000000 -0.000965 0.000000
# 4 0.000000 0.000000 0.000000 0.033970 0.000000 0.015630
# 5 0.014304 0.002401 -0.000965 0.000000 0.047233 0.000000
# 6 0.000000 0.000000 0.000000 0.015630 0.000000 0.080459
#
#
# Mechanical properties :
#
#
# Convention : Reuss Voigt Hill
#
# Bulk Modulus (GPa) = 36.48282 53.38130 44.93206
# Shear Modulus (GPa) = 21.32794 28.99059 25.15926
#
# Velocity S-wave (km/s) = 3.03054 3.53325 3.29151
# Velocity P-wave (km/s) = 5.28732 6.29540 5.81325
#
# Compressibility (1/GPa) = 0.02741016
#
# Stress axis : x y z
#
# Youngs Moduli (GPa) = 65.83601 97.94291 49.69406
#
# Poissons Ratio (x) = 0.26546 0.17571
# Poissons Ratio (y) = 0.17844 0.13964
# Poissons Ratio (z) = 0.23278 0.27521
#
# Static dielectric constant tensor:
#      x y z
#    x 1.887960 0.000000 0.002630 
#    y 0.000000 1.885210 0.000000 
#    z 0.002630 0.000000 1.960770 
# 
# From -- ./inp_files/26421.got.cif
#   From: 2010.05.17/outbox.cif.g08.bks.cpg/sg9_14_cif.got.tgz:26421.got - 2010.06.03 20:04:27.
