data_PCOD9135846
_publ_section_title
;
Structure prediction by ZEFSAII (Michael W. Deem and Ramdas Pophale) SiO2 
 PCOD9135846
Probable space group: C C
;
_chemical_formula_sum "Si O2"
_cell_formula_units_Z 32
_cell_length_a 5.503028
_cell_length_b 28.324384
_cell_length_c 9.599893
_cell_angle_alpha 90.000000
_cell_angle_beta 55.023838
_cell_angle_gamma 90.000000
_cell_volume 1226.082156
_symmetry_space_group_name_H-M "C C"
_symmetry_group_IT_number 9
_symmetry_cell_setting 'monoclinic'
loop_
_space_group_symop_operation_xyz
x,y,z
x,-y,1/2+z
1/2+x,1/2+y,z
1/2+x,1/2-y,1/2+z
loop_
_atom_site_type_symbol
_atom_site_label
_atom_site_fract_x
_atom_site_fract_y
_atom_site_fract_z
Si Si1 0.797420 0.750771 0.165330
Si Si2 0.467849 0.759672 0.994900
Si Si3 0.026495 0.329565 0.436257
Si Si4 0.017478 0.103593 0.445282
Si Si5 0.998407 0.147464 0.964345
Si Si6 0.721491 0.026613 0.741267
Si Si7 0.314566 0.028841 0.148191
Si Si8 0.113761 0.352732 0.848998
O O1 0.618049 0.769810 0.092251
O O2 0.832217 0.693289 0.130534
O O3 0.618305 0.778312 0.344446
O O4 0.122947 0.769811 0.092250
O O5 0.504416 0.704624 0.958333
O O6 0.623994 0.795736 0.838759
O O7 0.835269 0.360707 0.393392
O O8 0.303446 0.360708 0.393394
O O9 0.195867 0.074934 0.266891
O O10 0.275416 0.131494 0.442117
O O11 0.856721 0.069063 0.606036
O O12 0.765875 0.131495 0.442114
O O13 0.806290 0.128985 0.156466
O O14 0.513017 0.998367 0.699104
O O15 0.518302 0.035775 0.944454
O O16 0.014289 0.998368 0.699105
#
# Coordination Sequence:
#
# PCOD9135846 Si02
#       8
#     4   4   4   4   4   4   4   4
#     4  10  21  34  58  88 114 149 218 301 357 414
#     4  10  23  38  66  86 122 175 249 289 350 435
#     4  10  21  34  58  88 114 149 218 301 357 414
#     4  12  26  46  76 114 157 196 239 302 388 436
#     4  10  23  38  66  86 122 175 249 289 350 435
#     4  12  23  45  80 120 156 199 252 293 350 462
#     4  12  23  45  80 120 156 199 252 293 350 462
#     4  12  26  46  66 100 145 202 229 316 392 430
#
# _framework density 26.099392999999999
#
# number of rings (size 3 to 8) (size 9 to 14) (size 15 to 20)
#    0.000    1.000    2.500    3.750   14.000    0.000 
#    0.000    7.500    0.000    0.000    0.000    0.000 
#    0.000    0.000    0.000    0.000    0.000    0.000 
#
# Total GULP energy -89499.518417 kJ/mol
# GULP energy per Si atom -5593.719901 kJ/mol
# Density = 2.603999 g / cm^3
# Si number density = 26.099393 Si / 1000 Ang^3
#
#
#
# Elastic Constant Matrix: (Units=GPa)
#
#
# Indices 1 2 3 4 5 6 
#
# 1 288.0194 55.3587 58.0539 0.0000 14.8958 0.0000
# 2 55.3587 84.2452 33.6878 0.0000 1.9993 0.0000
# 3 58.0539 33.6878 124.9339 0.0000 0.1695 0.0000
# 4 0.0000 0.0000 0.0000 50.3222 0.0000 -5.9630
# 5 14.8958 1.9993 0.1695 0.0000 35.7234 0.0000
# 6 0.0000 0.0000 0.0000 -5.9630 0.0000 -14.1949
#
#
#
# Elastic Compliance Matrix: (Units=1/GPa)
#
#
# Indices 1 2 3 4 5 6 
#
# 1 0.004260 -0.002208 -0.001382 0.000000 -0.001646 0.000000
# 2 -0.002208 0.014468 -0.002875 0.000000 0.000124 0.000000
# 3 -0.001382 -0.002875 0.009421 0.000000 0.000693 0.000000
# 4 0.000000 0.000000 0.000000 0.018930 0.000000 -0.007952
# 5 -0.001646 0.000124 0.000693 0.000000 0.028669 0.000000
# 6 0.000000 0.000000 0.000000 -0.007952 0.000000 -0.067107
#
#
# Mechanical properties :
#
#
# Convention : Reuss Voigt Hill
#
# Bulk Modulus (GPa) = 65.71039 87.93325 76.82182
# Shear Modulus (GPa) = 187.66708 37.71001 112.68855
#
# Velocity S-wave (km/s) = 8.48887 3.80526 6.57803
# Velocity P-wave (km/s) = 11.01421 7.28502 9.33767
#
# Compressibility (1/GPa) = 0.01521829
#
# Stress axis : x y z
#
# Youngs Moduli (GPa) = 234.74170 69.11982 106.14766
#
# Poissons Ratio (x) = 0.15259 0.14670
# Poissons Ratio (y) = 0.51822 0.30522
# Poissons Ratio (z) = 0.32442 0.19875
#
# Static dielectric constant tensor:
#      x y z
#    x 2.201520 0.000000 -0.006290 
#    y 0.000000 2.014930 0.000000 
#    z -0.006290 0.000000 2.269480 
# 
# From -- ./inp_files/4469.got.cif
#   From: 2010.05.17/outbox.cif.g08.bks.cpg/sg9_3_cif.got.tgz:4469.got - 2010.06.03 20:04:27.
