data_PCOD9135860
_publ_section_title
;
Structure prediction by ZEFSAII (Michael W. Deem and Ramdas Pophale) SiO2 
 PCOD9135860
Probable space group: C C
;
_chemical_formula_sum "Si O2"
_cell_formula_units_Z 32
_cell_length_a 28.410208
_cell_length_b 8.016972
_cell_length_c 22.332279
_cell_angle_alpha 90.000000
_cell_angle_beta 164.332526
_cell_angle_gamma 90.000000
_cell_volume 1373.625271
_symmetry_space_group_name_H-M "C C"
_symmetry_group_IT_number 9
_symmetry_cell_setting 'monoclinic'
loop_
_space_group_symop_operation_xyz
x,y,z
x,-y,1/2+z
1/2+x,1/2+y,z
1/2+x,1/2-y,1/2+z
loop_
_atom_site_type_symbol
_atom_site_label
_atom_site_fract_x
_atom_site_fract_y
_atom_site_fract_z
Si Si1 0.327230 0.224303 0.150730
Si Si2 0.421991 0.219867 0.681311
Si Si3 0.499047 0.715400 0.025336
Si Si4 0.442425 0.599290 0.686261
Si Si5 0.041084 0.865366 0.714705
Si Si6 0.534785 0.525289 0.467188
Si Si7 0.243486 0.269632 0.658773
Si Si8 0.638684 0.927755 0.098561
O O1 0.326772 0.265777 0.079051
O O2 0.404207 0.392622 0.276165
O O3 0.470616 0.095405 0.350771
O O4 0.136825 0.166973 0.936556
O O5 0.399619 0.419498 0.663402
O O6 0.245893 0.127136 0.482569
O O7 0.460194 0.218684 0.657017
O O8 0.594442 0.179167 0.928793
O O9 0.580095 0.565947 0.084644
O O10 0.580748 0.878467 0.094490
O O11 0.289577 0.701771 0.762349
O O12 0.531093 0.683350 0.133937
O O13 0.448121 0.535385 0.624008
O O14 0.694654 0.587928 0.623065
O O15 0.423545 0.691148 0.346750
O O16 0.229036 0.397005 0.696638
#
# Coordination Sequence:
#
# PCOD9135860 Si02
#       8
#     4   4   4   4   4   4   4   4
#     4  11  20  41  57  96 122 160 203 255 323 368
#     4  10  21  35  61  91 116 161 197 259 305 359
#     4  10  21  40  57  86 117 166 206 244 300 375
#     4  10  23  36  61  90 127 161 204 256 309 371
#     4  10  21  39  60  85 122 163 213 248 298 370
#     4  10  22  35  60  84 124 153 198 255 310 369
#     4  11  20  36  56  92 119 148 199 256 316 361
#     4  10  22  34  64  86 121 158 198 259 307 365
#
# _framework density 23.296019999999999
#
# number of rings (size 3 to 8) (size 9 to 14) (size 15 to 20)
#    0.750    1.000    1.250    4.500    1.750    2.000 
#    0.000    2.500    0.000    0.000    0.000    0.000 
#    0.000    0.000    0.000    0.000    0.000    0.000 
#
# Total GULP energy -89200.693223 kJ/mol
# GULP energy per Si atom -5575.043326 kJ/mol
# Density = 2.324300 g / cm^3
# Si number density = 23.296020 Si / 1000 Ang^3
#
#
#
# Elastic Constant Matrix: (Units=GPa)
#
#
# Indices 1 2 3 4 5 6 
#
# 1 118.7981 27.0532 1.5915 0.0000 -14.5042 0.0000
# 2 27.0532 64.2053 2.2065 0.0002 5.4172 0.0002
# 3 1.5915 2.2065 32.1977 0.0002 9.7179 0.0001
# 4 0.0000 0.0002 0.0002 21.4019 0.0002 12.5800
# 5 -14.5042 5.4172 9.7179 0.0002 36.2631 0.0002
# 6 0.0000 0.0002 0.0001 12.5800 0.0002 40.4844
#
#
#
# Elastic Compliance Matrix: (Units=1/GPa)
#
#
# Indices 1 2 3 4 5 6 
#
# 1 0.010138 -0.004652 -0.001758 0.000000 0.005221 0.000000
# 2 -0.004652 0.017913 0.000404 0.000000 -0.004645 0.000000
# 3 -0.001758 0.000404 0.034106 0.000000 -0.009904 0.000000
# 4 0.000000 0.000000 0.000000 0.057166 0.000000 -0.017764
# 5 0.005221 -0.004645 -0.009904 0.000000 0.033012 0.000000
# 6 0.000000 0.000000 0.000000 -0.017764 0.000000 0.030221
#
#
# Mechanical properties :
#
#
# Convention : Reuss Voigt Hill
#
# Bulk Modulus (GPa) = 19.94166 30.76705 25.35435
# Shear Modulus (GPa) = 23.66490 31.91988 27.79239
#
# Velocity S-wave (km/s) = 3.19067 3.70562 3.45775
# Velocity P-wave (km/s) = 4.70665 5.61645 5.18156
#
# Compressibility (1/GPa) = 0.05014628
#
# Stress axis : x y z
#
# Youngs Moduli (GPa) = 98.63940 55.82514 29.31998
#
# Poissons Ratio (x) = 0.25968 0.05155
# Poissons Ratio (y) = 0.45885 -0.01185
# Poissons Ratio (z) = 0.17342 -0.02257
#
# Static dielectric constant tensor:
#      x y z
#    x 1.938100 0.000000 -0.021630 
#    y 0.000000 1.926600 0.000000 
#    z -0.021630 0.000000 1.883620 
# 
# From -- ./inp_files/34326.got.cif
#   From: 2010.05.17/outbox.cif.g08.bks.cpg/sg9_18_cif.got.tgz:34326.got - 2010.06.03 20:04:27.
