data_PCOD9135237
_publ_section_title
;
Structure prediction by ZEFSAII (Michael W. Deem and Ramdas Pophale) SiO2 
 PCOD9135237
Probable space group: C C
;
_chemical_formula_sum "Si O2"
_cell_formula_units_Z 32
_cell_length_a 7.480332
_cell_length_b 14.064198
_cell_length_c 10.548254
_cell_angle_alpha 90.000000
_cell_angle_beta 98.385395
_cell_angle_gamma 90.000000
_cell_volume 1097.864193
_symmetry_space_group_name_H-M "C C"
_symmetry_group_IT_number 9
_symmetry_cell_setting 'monoclinic'
loop_
_space_group_symop_operation_xyz
x,y,z
x,-y,1/2+z
1/2+x,1/2+y,z
1/2+x,1/2-y,1/2+z
loop_
_atom_site_type_symbol
_atom_site_label
_atom_site_fract_x
_atom_site_fract_y
_atom_site_fract_z
Si Si1 0.200600 0.713777 0.905740
Si Si2 0.636733 0.904763 0.616853
Si Si3 0.490609 0.932111 0.234030
Si Si4 0.319365 0.776701 0.613096
Si Si5 0.320880 0.332099 0.885620
Si Si6 0.577183 0.604760 0.729817
Si Si7 0.317575 0.106410 0.358157
Si Si8 0.022363 0.990951 0.482356
O O1 0.134415 0.647078 0.785485
O O2 0.352372 0.794258 0.930927
O O3 0.015980 0.778608 0.901666
O O4 0.253798 0.632335 0.013193
O O5 0.589597 0.014264 0.628894
O O6 0.442060 0.859725 0.565344
O O7 0.717413 0.846716 0.744061
O O8 0.453270 0.027272 0.317340
O O9 0.291684 0.884657 0.222739
O O10 0.222966 0.725329 0.487109
O O11 0.458293 0.694160 0.674250
O O12 0.238431 0.837639 0.721996
O O13 0.359449 0.440161 0.927569
O O14 0.531732 0.510593 0.636939
O O15 0.536255 0.589892 0.874492
O O16 0.198008 0.048590 0.445042
#
# Coordination Sequence:
#
# PCOD9135237 Si02
#       8
#     4   4   4   4   4   4   4   4
#     4  10  21  40  64  90 125 174 213 263 338 389
#     4  10  21  39  58  92 125 162 212 272 320 392
#     4  10  22  38  63  92 126 163 216 268 321 400
#     4   9  19  39  62  85 122 169 209 263 329 390
#     4   9  19  40  60  84 129 166 209 267 331 386
#     4  10  20  38  64  90 123 168 216 265 332 393
#     4   9  20  40  60  90 126 160 215 265 317 402
#     4   9  20  38  61  89 126 168 214 273 324 398
#
# _framework density 29.147504999999999
#
# number of rings (size 3 to 8) (size 9 to 14) (size 15 to 20)
#    0.000    2.500    0.000    1.500    3.500    1.000 
#   13.500    2.500    0.000    0.000    0.000    0.000 
#    0.000    0.000    0.000    0.000    0.000    0.000 
#
# Total GULP energy -89162.843284 kJ/mol
# GULP energy per Si atom -5572.677705 kJ/mol
# Density = 2.908116 g / cm^3
# Si number density = 29.147505 Si / 1000 Ang^3
#
#
#
# Elastic Constant Matrix: (Units=GPa)
#
#
# Indices 1 2 3 4 5 6 
#
# 1 121.3642 31.4039 55.4274 0.0000 8.1366 0.0000
# 2 31.4039 194.2560 15.8913 0.0000 11.8399 0.0000
# 3 55.4274 15.8913 81.0645 0.0000 -15.9334 0.0000
# 4 0.0000 0.0000 0.0000 22.2905 0.0000 8.4054
# 5 8.1366 11.8399 -15.9334 0.0000 48.3360 0.0000
# 6 0.0000 0.0000 0.0000 8.4054 0.0000 25.7722
#
#
#
# Elastic Compliance Matrix: (Units=1/GPa)
#
#
# Indices 1 2 3 4 5 6 
#
# 1 0.013447 -0.001028 -0.010039 0.000000 -0.005321 0.000000
# 2 -0.001028 0.005450 -0.000635 0.000000 -0.001371 0.000000
# 3 -0.010039 -0.000635 0.021051 0.000000 0.008784 0.000000
# 4 0.000000 0.000000 0.000000 0.051153 0.000000 -0.016683
# 5 -0.005321 -0.001371 0.008784 0.000000 0.024816 0.000000
# 6 0.000000 0.000000 0.000000 -0.016683 0.000000 0.044243
#
#
# Mechanical properties :
#
#
# Convention : Reuss Voigt Hill
#
# Bulk Modulus (GPa) = 60.44416 66.90330 63.67373
# Shear Modulus (GPa) = 26.44425 38.87722 32.66074
#
# Velocity S-wave (km/s) = 3.01534 3.65610 3.35107
# Velocity P-wave (km/s) = 5.73632 6.38952 6.07171
#
# Compressibility (1/GPa) = 0.01654420
#
# Stress axis : x y z
#
# Youngs Moduli (GPa) = 74.36499 183.50068 47.50420
#
# Poissons Ratio (x) = 0.18871 0.47688
# Poissons Ratio (y) = 0.07648 0.03015
# Poissons Ratio (z) = 0.74653 0.11645
#
# Static dielectric constant tensor:
#      x y z
#    x 2.464300 0.000000 -0.184990 
#    y 0.000000 2.195950 0.000000 
#    z -0.184990 0.000000 2.596170 
# 
# From -- ./inp_files/14742.got.cif
#   From: 2010.05.17/outbox.cif.g08.bks.cpg/sg9_8_cif.got.tgz:14742.got - 2010.06.03 20:04:27.
