data_PCOD9135484
_publ_section_title
;
Structure prediction by ZEFSAII (Michael W. Deem and Ramdas Pophale) SiO2 
 PCOD9135484
Probable space group: C C
;
_chemical_formula_sum "Si O2"
_cell_formula_units_Z 24
_cell_length_a 5.355299
_cell_length_b 17.983235
_cell_length_c 11.864373
_cell_angle_alpha 90.000000
_cell_angle_beta 78.134735
_cell_angle_gamma 90.000000
_cell_volume 1118.192443
_symmetry_space_group_name_H-M "C C"
_symmetry_group_IT_number 9
_symmetry_cell_setting 'monoclinic'
loop_
_space_group_symop_operation_xyz
x,y,z
x,-y,1/2+z
1/2+x,1/2+y,z
1/2+x,1/2-y,1/2+z
loop_
_atom_site_type_symbol
_atom_site_label
_atom_site_fract_x
_atom_site_fract_y
_atom_site_fract_z
Si Si1 0.359950 0.900721 0.379490
Si Si2 0.167599 0.525938 0.026697
Si Si3 0.950815 0.894632 0.081324
Si Si4 0.422061 0.812664 0.144280
Si Si5 0.989954 0.139530 0.120090
Si Si6 0.675107 0.506509 0.217869
O O1 0.612978 0.928068 0.419298
O O2 0.371270 0.843526 0.275272
O O3 0.180985 0.869908 0.495695
O O4 0.262944 0.975424 0.327797
O O5 0.369054 0.458595 0.998506
O O6 0.254617 0.588381 0.106460
O O7 0.904744 0.494961 0.104443
O O8 0.711366 0.839474 0.095311
O O9 0.209161 0.846393 0.077301
O O10 0.960809 0.950248 0.189033
O O11 0.418197 0.723891 0.144860
O O12 0.106926 0.092958 0.213363
#
# Coordination Sequence:
#
# PCOD9135484 Si02
#       6
#     4   4   4   4   4   4
#     4  10  22  41  70  97 132 182 223 271 334 392
#     4  10  20  40  68 102 124 178 228 273 319 402
#     4  10  20  41  68  92 132 178 214 269 332 386
#     4  11  24  42  68  97 143 176 210 282 338 386
#     4  10  24  40  69 100 137 173 225 271 339 399
#     4   9  20  42  67  96 130 175 220 280 318 395
#
# _framework density 21.463208999999999
#
# number of rings (size 3 to 8) (size 9 to 14) (size 15 to 20)
#    0.000    2.000    3.333    0.000    9.333    0.000 
#    0.000    8.333    0.000    0.000    0.000    0.000 
#    0.000    0.000    0.000    0.000    0.000    0.000 
#
# Total GULP energy -66814.458134 kJ/mol
# GULP energy per Si atom -5567.871511 kJ/mol
# Density = 2.141436 g / cm^3
# Si number density = 21.463209 Si / 1000 Ang^3
#
#
#
# Elastic Constant Matrix: (Units=GPa)
#
#
# Indices 1 2 3 4 5 6 
#
# 1 98.7529 63.0680 21.9523 0.0000 20.3053 0.0000
# 2 63.0680 203.2780 30.2846 0.0000 15.1907 0.0000
# 3 21.9523 30.2846 53.9415 0.0000 -2.3516 0.0000
# 4 0.0000 0.0000 0.0000 22.3580 0.0000 -8.9292
# 5 20.3053 15.1907 -2.3516 0.0000 30.8756 0.0000
# 6 0.0000 0.0000 0.0000 -8.9292 0.0000 25.8809
#
#
#
# Elastic Compliance Matrix: (Units=1/GPa)
#
#
# Indices 1 2 3 4 5 6 
#
# 1 0.015059 -0.003339 -0.004629 0.000000 -0.008613 0.000000
# 2 -0.003339 0.006377 -0.002270 0.000000 -0.001115 0.000000
# 3 -0.004629 -0.002270 0.021951 0.000000 0.005833 0.000000
# 4 0.000000 0.000000 0.000000 0.051874 0.000000 0.017897
# 5 -0.008613 -0.001115 0.005833 0.000000 0.039045 0.000000
# 6 0.000000 0.000000 0.000000 0.017897 0.000000 0.044813
#
#
# Mechanical properties :
#
#
# Convention : Reuss Voigt Hill
#
# Bulk Modulus (GPa) = 43.64789 65.17580 54.41185
# Shear Modulus (GPa) = 24.12753 31.86741 27.99747
#
# Velocity S-wave (km/s) = 3.35645 3.85742 3.61562
# Velocity P-wave (km/s) = 5.94990 7.09026 6.54496
#
# Compressibility (1/GPa) = 0.02291061
#
# Stress axis : x y z
#
# Youngs Moduli (GPa) = 66.40710 156.82148 45.55538
#
# Poissons Ratio (x) = 0.52357 0.21089
# Poissons Ratio (y) = 0.22171 0.10341
# Poissons Ratio (z) = 0.30742 0.35598
#
# Static dielectric constant tensor:
#      x y z
#    x 1.892680 0.000000 -0.010480 
#    y 0.000000 1.763530 0.000000 
#    z -0.010480 0.000000 1.802960 
# 
# From -- ./inp_files/12991.got.cif
#   From: 2010.05.17/outbox.cif.g08.bks.cpg/sg9_7_cif.got.tgz:12991.got - 2010.06.03 20:04:27.
