data_PCOD9135499
_publ_section_title
;
Structure prediction by ZEFSAII (Michael W. Deem and Ramdas Pophale) SiO2 
 PCOD9135499
Probable space group: C C
;
_chemical_formula_sum "Si O2"
_cell_formula_units_Z 28
_cell_length_a 11.800979
_cell_length_b 7.007248
_cell_length_c 19.725008
_cell_angle_alpha 90.000000
_cell_angle_beta 40.868875
_cell_angle_gamma 90.000000
_cell_volume 1067.283071
_symmetry_space_group_name_H-M "C C"
_symmetry_group_IT_number 9
_symmetry_cell_setting 'monoclinic'
loop_
_space_group_symop_operation_xyz
x,y,z
x,-y,1/2+z
1/2+x,1/2+y,z
1/2+x,1/2-y,1/2+z
loop_
_atom_site_type_symbol
_atom_site_label
_atom_site_fract_x
_atom_site_fract_y
_atom_site_fract_z
Si Si1 0.321470 0.846519 0.582330
Si Si2 0.709857 0.230409 0.417365
Si Si3 0.530457 0.764669 0.134727
Si Si4 0.413583 0.153240 0.441876
Si Si5 0.535457 0.473350 0.299456
Si Si6 0.765493 0.551411 0.311459
Si Si7 0.518077 0.314413 0.120809
O O1 0.174451 0.697541 0.626942
O O2 0.452651 0.759094 0.576863
O O3 0.388165 0.935447 0.481143
O O4 0.203303 0.003848 0.675411
O O5 0.612305 0.165709 0.528543
O O6 0.564318 0.207717 0.426350
O O7 0.748004 0.460145 0.394391
O O8 0.879693 0.098658 0.338525
O O9 0.360602 0.872731 0.232351
O O10 0.498922 0.541217 0.136687
O O11 0.481729 0.258222 0.343105
O O12 0.219626 0.236104 0.538826
O O13 0.591334 0.573082 0.346075
O O14 0.892370 0.722598 0.234455
#
# Coordination Sequence:
#
# PCOD9135499 Si02
#       7
#     4   4   4   4   4   4   4
#     4  10  21  42  66  97 147 178 230 296 333 414
#     4  11  22  41  70 101 140 182 228 299 345 412
#     4  11  23  43  69 102 137 189 228 282 366 406
#     4  10  21  39  68  99 131 189 228 275 354 406
#     4  10  20  40  68  98 140 183 229 287 344 408
#     4  10  22  43  68 100 145 182 230 290 348 409
#     4  10  23  44  67 101 138 187 235 283 344 421
#
# _framework density 26.234839999999998
#
# number of rings (size 3 to 8) (size 9 to 14) (size 15 to 20)
#    0.000    1.714    1.429    3.429    0.000    3.429 
#   10.286   11.429    0.000    0.000    0.000    0.000 
#    0.000    0.000    0.000    0.000    0.000    0.000 
#
# Total GULP energy -78218.834943 kJ/mol
# GULP energy per Si atom -5587.059639 kJ/mol
# Density = 2.617513 g / cm^3
# Si number density = 26.234840 Si / 1000 Ang^3
#
#
#
# Elastic Constant Matrix: (Units=GPa)
#
#
# Indices 1 2 3 4 5 6 
#
# 1 185.4055 40.0906 42.3887 0.0000 -18.7319 0.0000
# 2 40.0906 116.9873 34.2577 0.0000 -15.3740 0.0001
# 3 42.3887 34.2577 87.6665 0.0000 -11.7969 0.0000
# 4 0.0000 0.0000 0.0000 47.1651 0.0000 -6.9416
# 5 -18.7319 -15.3740 -11.7969 0.0000 50.7846 0.0000
# 6 0.0000 0.0001 0.0000 -6.9416 0.0000 28.8460
#
#
#
# Elastic Compliance Matrix: (Units=1/GPa)
#
#
# Indices 1 2 3 4 5 6 
#
# 1 0.006360 -0.001299 -0.002379 0.000000 0.001400 0.000000
# 2 -0.001299 0.010142 -0.003083 0.000000 0.001875 0.000000
# 3 -0.002379 -0.003083 0.013955 0.000000 0.001431 0.000000
# 4 0.000000 0.000000 0.000000 0.021981 0.000000 0.005289
# 5 0.001400 0.001875 0.001431 0.000000 0.021107 0.000000
# 6 0.000000 0.000000 0.000000 0.005289 0.000000 0.035940
#
#
# Mechanical properties :
#
#
# Convention : Reuss Voigt Hill
#
# Bulk Modulus (GPa) = 59.05052 69.28147 64.16599
# Shear Modulus (GPa) = 38.86482 43.58064 41.22273
#
# Velocity S-wave (km/s) = 3.85310 4.08017 3.96826
# Velocity P-wave (km/s) = 6.50788 6.97586 6.74593
#
# Compressibility (1/GPa) = 0.01693465
#
# Stress axis : x y z
#
# Youngs Moduli (GPa) = 157.23742 98.59753 71.66137
#
# Poissons Ratio (x) = 0.12806 0.17050
# Poissons Ratio (y) = 0.20422 0.22093
# Poissons Ratio (z) = 0.37410 0.30398
#
# Static dielectric constant tensor:
#      x y z
#    x 2.115990 0.000000 0.033810 
#    y 0.000000 2.110680 0.000000 
#    z 0.033810 0.000000 2.140730 
# 
# From -- ./inp_files/33195.got.cif
#   From: 2010.05.17/outbox.cif.g08.bks.cpg/sg9_17_cif.got.tgz:33195.got - 2010.06.03 20:04:27.
