data_PCOD9135989
_publ_section_title
;
Structure prediction by ZEFSAII (Michael W. Deem and Ramdas Pophale) SiO2 
 PCOD9135989
Probable space group: C C
;
_chemical_formula_sum "Si O2"
_cell_formula_units_Z 32
_cell_length_a 13.667397
_cell_length_b 8.900549
_cell_length_c 11.911112
_cell_angle_alpha 90.000000
_cell_angle_beta 106.156138
_cell_angle_gamma 90.000000
_cell_volume 1391.731444
_symmetry_space_group_name_H-M "C C"
_symmetry_group_IT_number 9
_symmetry_cell_setting 'monoclinic'
loop_
_space_group_symop_operation_xyz
x,y,z
x,-y,1/2+z
1/2+x,1/2+y,z
1/2+x,1/2-y,1/2+z
loop_
_atom_site_type_symbol
_atom_site_label
_atom_site_fract_x
_atom_site_fract_y
_atom_site_fract_z
Si Si1 0.090610 0.347241 0.243130
Si Si2 0.928673 0.161816 0.865365
Si Si3 0.764561 0.280975 0.956083
Si Si4 0.942948 0.828597 0.837724
Si Si5 0.489924 0.153629 0.194522
Si Si6 0.325650 0.119073 0.956206
Si Si7 0.643360 0.302301 0.542290
Si Si8 0.118470 0.862130 0.087376
O O1 0.184466 0.299924 0.349870
O O2 0.122461 0.327255 0.124736
O O3 0.998727 0.235181 0.246630
O O4 0.052635 0.513008 0.258807
O O5 0.869717 0.200817 0.960385
O O6 0.912127 0.281839 0.761698
O O7 0.901395 0.996454 0.813804
O O8 0.047641 0.179519 0.929810
O O9 0.776803 0.455544 0.924523
O O10 0.717848 0.282460 0.065822
O O11 0.862374 0.709110 0.859406
O O12 0.031450 0.846737 0.962194
O O13 0.567488 0.282563 0.176957
O O14 0.424365 0.098923 0.067003
O O15 0.243941 0.214142 0.000861
O O16 0.645768 0.462692 0.609125
#
# Coordination Sequence:
#
# PCOD9135989 Si02
#       8
#     4   4   4   4   4   4   4   4
#     4  11  22  37  59  88 119 156 201 252 311 373
#     4  11  22  38  59  88 124 159 202 257 306 365
#     4  10  21  39  60  86 119 156 202 256 308 367
#     4   9  20  37  59  84 115 155 199 248 304 361
#     4  11  22  38  62  91 121 160 207 258 309 368
#     4  10  21  41  64  86 118 165 209 253 310 370
#     4  10  21  38  59  85 119 161 201 250 310 368
#     4   8  19  38  58  80 113 152 197 250 304 360
#
# _framework density 22.992943
#
# number of rings (size 3 to 8) (size 9 to 14) (size 15 to 20)
#    0.000    2.000    0.000    3.750    0.000    4.000 
#    0.000    7.500    0.000    0.000    0.000    0.000 
#    0.000    0.000    0.000    0.000    0.000    0.000 
#
# Total GULP energy -89473.354190 kJ/mol
# GULP energy per Si atom -5592.084637 kJ/mol
# Density = 2.294061 g / cm^3
# Si number density = 22.992943 Si / 1000 Ang^3
#
#
#
# Elastic Constant Matrix: (Units=GPa)
#
#
# Indices 1 2 3 4 5 6 
#
# 1 92.3604 8.5908 14.7599 0.0000 -24.9290 0.0000
# 2 8.5908 49.4265 0.8160 0.0000 2.9603 0.0000
# 3 14.7599 0.8160 46.6912 0.0000 -3.1754 0.0000
# 4 0.0000 0.0000 0.0000 26.1475 0.0000 -6.3721
# 5 -24.9290 2.9603 -3.1754 0.0000 31.9745 0.0000
# 6 0.0000 0.0000 0.0000 -6.3721 0.0000 37.1001
#
#
#
# Elastic Compliance Matrix: (Units=1/GPa)
#
#
# Indices 1 2 3 4 5 6 
#
# 1 0.014841 -0.003204 -0.003854 0.000000 0.011485 0.000000
# 2 -0.003204 0.021047 0.000345 0.000000 -0.004412 0.000000
# 3 -0.003854 0.000345 0.022576 0.000000 -0.000795 0.000000
# 4 0.000000 0.000000 0.000000 0.039915 0.000000 0.006856
# 5 0.011485 -0.004412 -0.000795 0.000000 0.040558 0.000000
# 6 0.000000 0.000000 0.000000 0.006856 0.000000 0.028132
#
#
# Mechanical properties :
#
#
# Convention : Reuss Voigt Hill
#
# Bulk Modulus (GPa) = 22.20374 26.31239 24.25806
# Shear Modulus (GPa) = 25.57436 29.99852 27.78644
#
# Velocity S-wave (km/s) = 3.33869 3.61596 3.48009
# Velocity P-wave (km/s) = 4.95381 5.37606 5.16925
#
# Compressibility (1/GPa) = 0.04503746
#
# Stress axis : x y z
#
# Youngs Moduli (GPa) = 67.38138 47.51162 44.29543
#
# Poissons Ratio (x) = 0.15221 0.17073
# Poissons Ratio (y) = 0.21587 -0.01528
# Poissons Ratio (z) = 0.25972 -0.01638
#
# Static dielectric constant tensor:
#      x y z
#    x 1.867950 0.000000 0.016920 
#    y 0.000000 1.841690 0.000000 
#    z 0.016920 0.000000 1.846670 
# 
# From -- ./inp_files/17829.got.cif
#   From: 2010.05.17/outbox.cif.g08.bks.cpg/sg9_9_cif.got.tgz:17829.got - 2010.06.03 20:04:27.
