data_PCOD9135931
_publ_section_title
;
Structure prediction by ZEFSAII (Michael W. Deem and Ramdas Pophale) SiO2 
 PCOD9135931
Probable space group: C C
;
_chemical_formula_sum "Si O2"
_cell_formula_units_Z 28
_cell_length_a 5.043570
_cell_length_b 20.927085
_cell_length_c 10.815775
_cell_angle_alpha 90.000000
_cell_angle_beta 66.342485
_cell_angle_gamma 90.000000
_cell_volume 1045.637445
_symmetry_space_group_name_H-M "C C"
_symmetry_group_IT_number 9
_symmetry_cell_setting 'monoclinic'
loop_
_space_group_symop_operation_xyz
x,y,z
x,-y,1/2+z
1/2+x,1/2+y,z
1/2+x,1/2-y,1/2+z
loop_
_atom_site_type_symbol
_atom_site_label
_atom_site_fract_x
_atom_site_fract_y
_atom_site_fract_z
Si Si1 0.438770 0.139494 0.162110
Si Si2 0.171299 0.017500 0.148662
Si Si3 0.580085 0.954899 0.248223
Si Si4 0.165589 0.571547 0.366760
Si Si5 0.670964 0.273223 0.124337
Si Si6 0.926383 0.186243 0.422871
Si Si7 0.535982 0.806529 0.288912
O O1 0.599281 0.104650 0.246193
O O2 0.643705 0.198788 0.089529
O O3 0.145480 0.170534 0.269712
O O4 0.335602 0.084096 0.088067
O O5 0.395402 0.967777 0.160796
O O6 0.903532 0.977151 0.143496
O O7 0.988618 0.042742 0.304047
O O8 0.533058 0.882660 0.296789
O O9 0.491906 0.004925 0.376696
O O10 0.190690 0.630359 0.455549
O O11 0.927853 0.287633 0.170947
O O12 0.370851 0.289114 0.252432
O O13 0.614867 0.314568 0.011650
O O14 0.841643 0.259818 0.410585
#
# Coordination Sequence:
#
# PCOD9135931 Si02
#       7
#     4   4   4   4   4   4   4
#     4   9  17  36  58  86 115 157 205 242 299 364
#     4   8  16  29  58  79 107 154 200 224 293 356
#     4   9  17  33  58  83 111 156 188 248 301 359
#     4   8  16  33  59  80 108 163 197 227 302 359
#     4  11  24  35  61  91 122 156 208 254 308 366
#     4  10  21  37  60  89 119 162 202 256 300 372
#     4  11  23  39  60  90 126 156 200 261 321 342
#
# _framework density 26.777923000000001
#
# number of rings (size 3 to 8) (size 9 to 14) (size 15 to 20)
#    0.857    1.714    1.429    0.857    2.000    0.000 
#    0.000    0.000    6.286    3.429    0.000    0.000 
#    0.000    0.000    0.000    0.000    0.000    0.000 
#
# Total GULP energy -77955.860473 kJ/mol
# GULP energy per Si atom -5568.275748 kJ/mol
# Density = 2.671698 g / cm^3
# Si number density = 26.777923 Si / 1000 Ang^3
#
#
#
# Elastic Constant Matrix: (Units=GPa)
#
#
# Indices 1 2 3 4 5 6 
#
# 1 127.1363 43.0082 14.2104 0.0000 24.3870 0.0000
# 2 43.0082 198.0414 31.2400 0.0000 6.7658 0.0000
# 3 14.2104 31.2400 71.6751 0.0000 9.4645 0.0000
# 4 0.0000 0.0000 0.0000 43.9600 0.0000 2.2563
# 5 24.3870 6.7658 9.4645 0.0000 20.4012 0.0000
# 6 0.0000 0.0000 0.0000 2.2563 0.0000 16.5964
#
#
#
# Elastic Compliance Matrix: (Units=1/GPa)
#
#
# Indices 1 2 3 4 5 6 
#
# 1 0.010907 -0.001998 0.000365 0.000000 -0.012544 0.000000
# 2 -0.001998 0.005799 -0.002336 0.000000 0.001548 0.000000
# 3 0.000365 -0.002336 0.015822 0.000000 -0.007002 0.000000
# 4 0.000000 0.000000 0.000000 0.022908 0.000000 -0.003114
# 5 -0.012544 0.001548 -0.007002 0.000000 0.066746 0.000000
# 6 0.000000 0.000000 0.000000 -0.003114 0.000000 0.060678
#
#
# Mechanical properties :
#
#
# Convention : Reuss Voigt Hill
#
# Bulk Modulus (GPa) = 40.66641 63.75222 52.20931
# Shear Modulus (GPa) = 25.12642 36.75114 30.93878
#
# Velocity S-wave (km/s) = 3.06653 3.70867 3.40278
# Velocity P-wave (km/s) = 5.26856 6.49603 5.91422
#
# Compressibility (1/GPa) = 0.02459032
#
# Stress axis : x y z
#
# Youngs Moduli (GPa) = 91.68613 172.44854 63.20244
#
# Poissons Ratio (x) = 0.34448 -0.02305
# Poissons Ratio (y) = 0.18315 0.14763
# Poissons Ratio (z) = -0.03344 0.40282
#
# Static dielectric constant tensor:
#      x y z
#    x 2.092050 0.000000 -0.145050 
#    y 0.000000 2.239430 0.000000 
#    z -0.145050 0.000000 2.290980 
# 
# From -- ./inp_files/13319.got.cif
#   From: 2010.05.17/outbox.cif.g08.bks.cpg/sg9_7_cif.got.tgz:13319.got - 2010.06.03 20:04:27.
