data_PCOD9135361
_publ_section_title
;
Structure prediction by ZEFSAII (Michael W. Deem and Ramdas Pophale) SiO2 
 PCOD9135361
Probable space group: C C
;
_chemical_formula_sum "Si O2"
_cell_formula_units_Z 28
_cell_length_a 7.161543
_cell_length_b 18.507527
_cell_length_c 13.169956
_cell_angle_alpha 90.000000
_cell_angle_beta 41.771122
_cell_angle_gamma 90.000000
_cell_volume 1162.828559
_symmetry_space_group_name_H-M "C C"
_symmetry_group_IT_number 9
_symmetry_cell_setting 'monoclinic'
loop_
_space_group_symop_operation_xyz
x,y,z
x,-y,1/2+z
1/2+x,1/2+y,z
1/2+x,1/2-y,1/2+z
loop_
_atom_site_type_symbol
_atom_site_label
_atom_site_fract_x
_atom_site_fract_y
_atom_site_fract_z
Si Si1 0.813770 0.601915 0.168680
Si Si2 0.196735 0.941760 0.187839
Si Si3 0.210328 0.662739 0.442775
Si Si4 0.926254 0.821801 0.169517
Si Si5 0.403882 0.386697 0.494854
Si Si6 0.946064 0.266189 0.862095
Si Si7 0.311894 0.818503 0.468600
O O1 0.777717 0.523444 0.133465
O O2 0.516256 0.628958 0.328969
O O3 0.897129 0.658084 0.046442
O O4 0.074555 0.598755 0.140279
O O5 0.998914 0.899784 0.188296
O O6 0.038786 0.941885 0.360109
O O7 0.474063 0.892203 0.076330
O O8 0.188282 0.738440 0.510852
O O9 0.147521 0.683514 0.349445
O O10 0.997868 0.760637 0.226738
O O11 0.595807 0.817926 0.286470
O O12 0.144423 0.804739 0.992922
O O13 0.446002 0.309692 0.421881
O O14 0.591455 0.376922 0.517347
#
# Coordination Sequence:
#
# PCOD9135361 Si02
#       7
#     4   4   4   4   4   4   4
#     4  12  23  44  68  93 136 180 219 271 349 400
#     4  10  22  44  67  91 137 179 212 277 343 415
#     4  10  24  36  68 101 127 172 228 273 339 396
#     4  10  20  39  66  99 134 174 221 286 344 395
#     4  10  22  42  64  92 131 170 220 273 337 397
#     4   9  19  36  64  95 131 167 224 278 335 399
#     4  11  24  39  71  95 132 170 232 280 327 396
#
# _framework density 24.079215999999999
#
# number of rings (size 3 to 8) (size 9 to 14) (size 15 to 20)
#    0.000    1.714    2.857    1.714   10.000    0.000 
#    2.571    0.000    3.143    0.000    0.000    0.000 
#    0.000    0.000    0.000    0.000    0.000    0.000 
#
# Total GULP energy -78363.068077 kJ/mol
# GULP energy per Si atom -5597.362006 kJ/mol
# Density = 2.402441 g / cm^3
# Si number density = 24.079216 Si / 1000 Ang^3
#
#
#
# Elastic Constant Matrix: (Units=GPa)
#
#
# Indices 1 2 3 4 5 6 
#
# 1 108.6094 25.9054 29.2775 -0.0001 -24.6697 0.0000
# 2 25.9054 120.0614 20.3110 -0.0002 -6.1423 0.0001
# 3 29.2775 20.3110 98.5624 -0.0016 -30.6427 0.0009
# 4 -0.0001 -0.0002 -0.0016 23.6919 0.0006 -1.6973
# 5 -24.6697 -6.1423 -30.6427 0.0006 35.6810 -0.0002
# 6 0.0000 0.0001 0.0009 -1.6973 -0.0002 21.1948
#
#
#
# Elastic Compliance Matrix: (Units=1/GPa)
#
#
# Indices 1 2 3 4 5 6 
#
# 1 0.011467 -0.001977 -0.000873 0.000000 0.006839 0.000000
# 2 -0.001977 0.008971 -0.001646 0.000000 -0.001236 0.000000
# 3 -0.000873 -0.001646 0.014282 0.000001 0.011378 0.000000
# 4 0.000000 0.000000 0.000001 0.042452 0.000000 0.003400
# 5 0.006839 -0.001236 0.011378 0.000000 0.042313 0.000000
# 6 0.000000 0.000000 0.000000 0.003400 0.000000 0.047454
#
#
# Mechanical properties :
#
#
# Convention : Reuss Voigt Hill
#
# Bulk Modulus (GPa) = 38.86604 53.13567 46.00085
# Shear Modulus (GPa) = 27.09940 32.89616 29.99778
#
# Velocity S-wave (km/s) = 3.35838 3.70018 3.53341
# Velocity P-wave (km/s) = 5.58697 6.35374 5.98265
#
# Compressibility (1/GPa) = 0.02572941
#
# Stress axis : x y z
#
# Youngs Moduli (GPa) = 87.20340 111.47320 70.01942
#
# Poissons Ratio (x) = 0.22036 0.06112
# Poissons Ratio (y) = 0.17238 0.11523
# Poissons Ratio (z) = 0.07612 0.18344
#
# Static dielectric constant tensor:
#      x y z
#    x 1.970370 0.000000 0.006480 
#    y 0.000000 1.871620 0.000000 
#    z 0.006480 0.000000 1.954750 
# 
# From -- ./inp_files/29565.got.cif
#   From: 2010.05.17/outbox.cif.g08.bks.cpg/sg9_15_cif.got.tgz:29565.got - 2010.06.03 20:04:27.
