data_PCOD9135838
_publ_section_title
;
Structure prediction by ZEFSAII (Michael W. Deem and Ramdas Pophale) SiO2 
 PCOD9135838
Probable space group: C C
;
_chemical_formula_sum "Si O2"
_cell_formula_units_Z 32
_cell_length_a 14.980789
_cell_length_b 18.390261
_cell_length_c 6.105924
_cell_angle_alpha 90.000000
_cell_angle_beta 66.413204
_cell_angle_gamma 90.000000
_cell_volume 1541.647574
_symmetry_space_group_name_H-M "C C"
_symmetry_group_IT_number 9
_symmetry_cell_setting 'monoclinic'
loop_
_space_group_symop_operation_xyz
x,y,z
x,-y,1/2+z
1/2+x,1/2+y,z
1/2+x,1/2-y,1/2+z
loop_
_atom_site_type_symbol
_atom_site_label
_atom_site_fract_x
_atom_site_fract_y
_atom_site_fract_z
Si Si1 0.059460 0.995866 0.045720
Si Si2 0.259075 0.659115 0.977865
Si Si3 0.619588 0.758820 0.916792
Si Si4 0.252173 0.203011 0.173237
Si Si5 0.447108 0.755212 0.392316
Si Si6 0.381373 0.608667 0.224844
Si Si7 0.567794 0.661511 0.585941
Si Si8 0.699250 0.004051 0.914299
O O1 0.106327 0.998718 0.250497
O O2 0.016251 0.914466 0.095314
O O3 0.974546 0.056188 0.133821
O O4 0.262851 0.729495 0.826483
O O5 0.241378 0.585492 0.867656
O O6 0.168930 0.678295 0.227053
O O7 0.356420 0.648491 0.021359
O O8 0.590405 0.687964 0.805969
O O9 0.700830 0.731786 0.005868
O O10 0.523398 0.782283 0.137742
O O11 0.173443 0.151348 0.363901
O O12 0.363965 0.185576 0.015936
O O13 0.399214 0.678116 0.362693
O O14 0.513386 0.729551 0.529310
O O15 0.287308 0.555319 0.342228
O O16 0.653133 0.997140 0.710825
#
# Coordination Sequence:
#
# PCOD9135838 Si02
#       8
#     4   4   4   4   4   4   4   4
#     4  12  24  37  58  92 129 166 202 256 326 388
#     4  10  21  35  56  80 127 165 212 252 316 382
#     4  10  22  39  55  84 121 173 212 266 310 374
#     4  10  22  38  57  83 120 175 211 265 309 381
#     4  11  21  36  60  85 123 162 217 254 315 385
#     4  11  21  35  57  92 129 164 199 257 323 395
#     4  10  24  38  56  88 132 164 214 259 320 388
#     4  10  21  32  51  84 119 155 195 241 311 379
#
# _framework density 20.757014999999999
#
# number of rings (size 3 to 8) (size 9 to 14) (size 15 to 20)
#    0.000    1.500    2.500    3.000    8.750    0.000 
#    0.000    0.000    0.000    0.000    0.000    3.500 
#    0.000    0.000    0.000    0.000    0.000    0.000 
#
# Total GULP energy -89083.149931 kJ/mol
# GULP energy per Si atom -5567.696871 kJ/mol
# Density = 2.070977 g / cm^3
# Si number density = 20.757015 Si / 1000 Ang^3
#
#
#
# Elastic Constant Matrix: (Units=GPa)
#
#
# Indices 1 2 3 4 5 6 
#
# 1 51.4174 10.5997 37.2253 0.0000 -11.7390 0.0000
# 2 10.5997 42.4260 2.4026 0.0000 13.1630 0.0000
# 3 37.2253 2.4026 118.5440 0.0000 9.9857 0.0000
# 4 0.0000 0.0000 0.0000 26.9340 0.0000 8.6189
# 5 -11.7390 13.1630 9.9857 0.0000 29.1759 0.0000
# 6 0.0000 0.0000 0.0000 8.6189 0.0000 20.0112
#
#
#
# Elastic Compliance Matrix: (Units=1/GPa)
#
#
# Indices 1 2 3 4 5 6 
#
# 1 0.041128 -0.018786 -0.015077 0.000000 0.030184 0.000000
# 2 -0.018786 0.036017 0.007388 0.000000 -0.026337 0.000000
# 3 -0.015077 0.007388 0.014222 0.000000 -0.014267 0.000000
# 4 0.000000 0.000000 0.000000 0.043063 0.000000 -0.018547
# 5 0.030184 -0.026337 -0.014267 0.000000 0.063184 0.000000
# 6 0.000000 0.000000 0.000000 -0.018547 0.000000 0.057960
#
#
# Mechanical properties :
#
#
# Convention : Reuss Voigt Hill
#
# Bulk Modulus (GPa) = 26.03065 34.76029 30.39547
# Shear Modulus (GPa) = 15.56027 26.03488 20.79758
#
# Velocity S-wave (km/s) = 2.74092 3.54541 3.16880
# Velocity P-wave (km/s) = 4.75234 5.79159 5.29751
#
# Compressibility (1/GPa) = 0.03841626
#
# Stress axis : x y z
#
# Youngs Moduli (GPa) = 24.31429 27.76478 70.31255
#
# Poissons Ratio (x) = 0.52160 1.06010
# Poissons Ratio (y) = 0.45678 -0.51946
# Poissons Ratio (z) = 0.36658 -0.20512
#
# Static dielectric constant tensor:
#      x y z
#    x 1.777330 0.000000 -0.015200 
#    y 0.000000 1.702870 0.000000 
#    z -0.015200 0.000000 1.935320 
# 
# From -- ./inp_files/2523.got.cif
#   From: 2010.05.17/outbox.cif.g08.bks.cpg/sg9_2_cif.got.tgz:2523.got - 2010.06.03 20:04:27.
