data_PCOD9135376
_publ_section_title
;
Structure prediction by ZEFSAII (Michael W. Deem and Ramdas Pophale) SiO2 
 PCOD9135376
Probable space group: C C
;
_chemical_formula_sum "Si O2"
_cell_formula_units_Z 28
_cell_length_a 16.692672
_cell_length_b 15.729770
_cell_length_c 11.423191
_cell_angle_alpha 90.000000
_cell_angle_beta 20.654512
_cell_angle_gamma 90.000000
_cell_volume 1057.987695
_symmetry_space_group_name_H-M "C C"
_symmetry_group_IT_number 9
_symmetry_cell_setting 'monoclinic'
loop_
_space_group_symop_operation_xyz
x,y,z
x,-y,1/2+z
1/2+x,1/2+y,z
1/2+x,1/2-y,1/2+z
loop_
_atom_site_type_symbol
_atom_site_label
_atom_site_fract_x
_atom_site_fract_y
_atom_site_fract_z
Si Si1 0.128200 0.462529 0.117500
Si Si2 0.519947 0.304844 0.900913
Si Si3 0.720052 0.950607 0.737090
Si Si4 0.430675 0.812319 0.003888
Si Si5 0.180803 0.130692 0.630744
Si Si6 0.757267 0.372948 0.764240
Si Si7 0.418522 0.311330 0.797103
O O1 0.233776 0.510620 0.086244
O O2 0.884563 0.437151 0.504926
O O3 0.116517 0.491297 0.998222
O O4 0.270934 0.373579 0.920234
O O5 0.523194 0.352923 0.018391
O O6 0.426139 0.352128 0.916872
O O7 0.773963 0.274362 0.516188
O O8 0.385679 0.217450 0.096804
O O9 0.972305 0.931339 0.437620
O O10 0.570009 0.867214 0.907752
O O11 0.380033 0.864012 0.953387
O O12 0.172430 0.798572 0.403943
O O13 0.566332 0.725959 0.788548
O O14 0.249892 0.102575 0.407130
#
# Coordination Sequence:
#
# PCOD9135376 Si02
#       7
#     4   4   4   4   4   4   4
#     4  11  27  50  70 102 150 199 249 295 362 445
#     4   9  19  35  67 102 141 179 235 295 359 426
#     4  12  29  50  73 106 148 198 251 300 360 446
#     4  12  24  43  76 106 148 184 246 300 378 420
#     4  12  25  44  74 112 144 189 240 312 369 433
#     4  10  22  41  66 105 146 185 240 295 372 421
#     4  10  20  39  68 103 135 188 235 301 360 427
#
# _framework density 26.465337999999999
#
# number of rings (size 3 to 8) (size 9 to 14) (size 15 to 20)
#    0.000    1.143    2.857    2.571    6.000    2.286 
#    2.571    0.000    0.000    0.000    0.000    0.000 
#    0.000    0.000    0.000    0.000    0.000    0.000 
#
# Total GULP energy -78234.651466 kJ/mol
# GULP energy per Si atom -5588.189390 kJ/mol
# Density = 2.640510 g / cm^3
# Si number density = 26.465338 Si / 1000 Ang^3
#
#
#
# Elastic Constant Matrix: (Units=GPa)
#
#
# Indices 1 2 3 4 5 6 
#
# 1 204.0983 25.5981 35.6010 -0.0348 33.4209 0.0231
# 2 25.5981 51.9014 11.3051 -0.0397 2.6842 0.0284
# 3 35.6010 11.3051 63.3820 -0.0543 21.5961 0.0481
# 4 -0.0348 -0.0397 -0.0543 16.1982 0.0387 -6.4062
# 5 33.4209 2.6842 21.5961 0.0387 56.9930 -0.0239
# 6 0.0231 0.0284 0.0481 -6.4062 -0.0239 53.9202
#
#
#
# Elastic Compliance Matrix: (Units=1/GPa)
#
#
# Indices 1 2 3 4 5 6 
#
# 1 0.005983 -0.002370 -0.002044 0.000007 -0.002622 0.000000
# 2 -0.002370 0.020996 -0.002928 0.000032 0.001510 -0.000003
# 3 -0.002044 -0.002928 0.019512 0.000064 -0.006057 -0.000010
# 4 0.000007 0.000032 0.000064 0.064779 -0.000071 0.007696
# 5 -0.002622 0.001510 -0.006057 -0.000071 0.021308 0.000007
# 6 0.000000 -0.000003 -0.000010 0.007696 0.000007 0.019460
#
#
# Mechanical properties :
#
#
# Convention : Reuss Voigt Hill
#
# Bulk Modulus (GPa) = 31.44143 51.59891 41.52017
# Shear Modulus (GPa) = 28.19687 41.88080 35.03883
#
# Velocity S-wave (km/s) = 3.26763 3.98235 3.64256
# Velocity P-wave (km/s) = 5.11298 6.37845 5.78045
#
# Compressibility (1/GPa) = 0.03180517
#
# Stress axis : x y z
#
# Youngs Moduli (GPa) = 167.14634 47.62832 51.25111
#
# Poissons Ratio (x) = 0.11287 0.10478
# Poissons Ratio (y) = 0.39611 0.15009
# Poissons Ratio (z) = 0.34171 0.13948
#
# Static dielectric constant tensor:
#      x y z
#    x 2.134490 -0.000020 0.023930 
#    y -0.000020 2.104000 0.000020 
#    z 0.023930 0.000020 2.109140 
# 
# From -- ./inp_files/15368.got.cif
#   From: 2010.05.17/outbox.cif.g08.bks.cpg/sg9_8_cif.got.tgz:15368.got - 2010.06.03 20:04:27.
