data_PCOD9135548
_publ_section_title
;
Structure prediction by ZEFSAII (Michael W. Deem and Ramdas Pophale) SiO2 
 PCOD9135548
Probable space group: C C
;
_chemical_formula_sum "Si O2"
_cell_formula_units_Z 28
_cell_length_a 15.989446
_cell_length_b 9.077429
_cell_length_c 9.693360
_cell_angle_alpha 90.000000
_cell_angle_beta 58.428082
_cell_angle_gamma 90.000000
_cell_volume 1198.676193
_symmetry_space_group_name_H-M "C C"
_symmetry_group_IT_number 9
_symmetry_cell_setting 'monoclinic'
loop_
_space_group_symop_operation_xyz
x,y,z
x,-y,1/2+z
1/2+x,1/2+y,z
1/2+x,1/2-y,1/2+z
loop_
_atom_site_type_symbol
_atom_site_label
_atom_site_fract_x
_atom_site_fract_y
_atom_site_fract_z
Si Si1 0.221770 0.220152 0.977310
Si Si2 0.169378 0.555893 0.991145
Si Si3 0.808350 0.157243 0.674061
Si Si4 0.875343 0.102435 0.960815
Si Si5 0.017968 0.151306 0.258093
Si Si6 0.480349 0.828428 0.575691
Si Si7 0.900753 0.651652 0.638048
O O1 0.173785 0.379279 0.980260
O O2 0.290117 0.153835 0.798297
O O3 0.294648 0.257543 0.042235
O O4 0.129851 0.126809 0.111873
O O5 0.199643 0.623024 0.817641
O O6 0.265154 0.596889 0.995731
O O7 0.067688 0.637186 0.107604
O O8 0.881223 0.246722 0.709695
O O9 0.857421 0.998962 0.613372
O O10 0.903883 0.258499 0.994203
O O11 0.957651 0.001832 0.816680
O O12 0.011821 0.231636 0.414119
O O13 0.966115 0.260318 0.193580
O O14 0.443522 0.991570 0.571631
#
# Coordination Sequence:
#
# PCOD9135548 Si02
#       7
#     4   4   4   4   4   4   4
#     4  11  21  40  70  92 134 178 217 274 334 391
#     4  11  20  40  70  96 125 181 231 261 336 410
#     4  10  20  41  64  93 130 178 221 271 332 399
#     4  10  22  41  68  92 136 176 222 271 332 404
#     4  11  22  44  68  97 134 185 222 270 337 401
#     4  11  24  39  71  96 132 176 225 275 336 391
#     4  12  23  43  67 104 133 170 228 284 329 396
#
# _framework density 23.359100999999999
#
# number of rings (size 3 to 8) (size 9 to 14) (size 15 to 20)
#    0.000    1.143    8.571    0.000    0.000    1.143 
#    2.571    1.429    0.000    0.000    0.000    0.000 
#    0.000    0.000    0.000    0.000    0.000    0.000 
#
# Total GULP energy -78106.284998 kJ/mol
# GULP energy per Si atom -5579.020357 kJ/mol
# Density = 2.330594 g / cm^3
# Si number density = 23.359101 Si / 1000 Ang^3
#
#
#
# Elastic Constant Matrix: (Units=GPa)
#
#
# Indices 1 2 3 4 5 6 
#
# 1 104.1615 37.1908 35.3354 0.0000 -26.9161 0.0000
# 2 37.1908 68.6475 11.7239 0.0000 -12.9652 0.0000
# 3 35.3354 11.7239 86.1948 0.0000 -17.4709 0.0000
# 4 0.0000 0.0000 0.0000 21.1687 0.0000 -7.0251
# 5 -26.9161 -12.9652 -17.4709 0.0000 36.7065 0.0000
# 6 0.0000 0.0000 0.0000 -7.0251 0.0000 38.0107
#
#
#
# Elastic Compliance Matrix: (Units=1/GPa)
#
#
# Indices 1 2 3 4 5 6 
#
# 1 0.014874 -0.006092 -0.003868 0.000000 0.006914 0.000000
# 2 -0.006092 0.018201 0.000464 0.000000 0.002182 0.000000
# 3 -0.003868 0.000464 0.013926 0.000000 0.003956 0.000000
# 4 0.000000 0.000000 0.000000 0.050326 0.000000 0.009301
# 5 0.006914 0.002182 0.003956 0.000000 0.034967 0.000000
# 6 0.000000 0.000000 0.000000 0.009301 0.000000 0.028027
#
#
# Mechanical properties :
#
#
# Convention : Reuss Voigt Hill
#
# Bulk Modulus (GPa) = 35.70157 47.50043 41.60100
# Shear Modulus (GPa) = 26.50422 30.82743 28.66583
#
# Velocity S-wave (km/s) = 3.37210 3.63673 3.50691
# Velocity P-wave (km/s) = 5.52072 6.16551 5.85200
#
# Compressibility (1/GPa) = 0.02800997
#
# Stress axis : x y z
#
# Youngs Moduli (GPa) = 67.22962 54.94349 71.80879
#
# Poissons Ratio (x) = 0.33471 0.27773
# Poissons Ratio (y) = 0.40956 -0.03333
# Poissons Ratio (z) = 0.26002 -0.02550
#
# Static dielectric constant tensor:
#      x y z
#    x 1.941240 0.000000 0.069850 
#    y 0.000000 1.855390 0.000000 
#    z 0.069850 0.000000 2.025870 
# 
# From -- ./inp_files/17680.got.cif
#   From: 2010.05.17/outbox.cif.g08.bks.cpg/sg9_9_cif.got.tgz:17680.got - 2010.06.03 20:04:27.
