data_PCOD9135529
_publ_section_title
;
Structure prediction by ZEFSAII (Michael W. Deem and Ramdas Pophale) SiO2 
 PCOD9135529
Probable space group: C C
;
_chemical_formula_sum "Si O2"
_cell_formula_units_Z 32
_cell_length_a 8.765832
_cell_length_b 14.822671
_cell_length_c 22.908904
_cell_angle_alpha 90.000000
_cell_angle_beta 36.513622
_cell_angle_gamma 90.000000
_cell_volume 1771.132391
_symmetry_space_group_name_H-M "C C"
_symmetry_group_IT_number 9
_symmetry_cell_setting 'monoclinic'
loop_
_space_group_symop_operation_xyz
x,y,z
x,-y,1/2+z
1/2+x,1/2+y,z
1/2+x,1/2-y,1/2+z
loop_
_atom_site_type_symbol
_atom_site_label
_atom_site_fract_x
_atom_site_fract_y
_atom_site_fract_z
Si Si1 0.417390 0.834690 0.762490
Si Si2 0.630613 0.840866 0.169629
Si Si3 0.228564 0.855379 0.690339
Si Si4 0.165182 0.146475 0.721791
Si Si5 0.992934 0.518969 0.544109
Si Si6 0.016888 0.491225 0.297897
Si Si7 0.488915 0.576400 0.463003
Si Si8 0.773399 0.009889 0.343633
O O1 0.375851 0.844967 0.706426
O O2 0.545746 0.741273 0.740410
O O3 0.572373 0.920439 0.740725
O O4 0.141809 0.846903 0.879420
O O5 0.693178 0.740422 0.170897
O O6 0.378531 0.842464 0.206193
O O7 0.576966 0.903653 0.241790
O O8 0.858778 0.883276 0.060559
O O9 0.956365 0.902791 0.787976
O O10 0.375311 0.925946 0.603781
O O11 0.305965 0.097817 0.624148
O O12 0.948114 0.075499 0.808104
O O13 0.264757 0.535732 0.492276
O O14 0.044711 0.519846 0.459748
O O15 0.172780 0.494576 0.309483
O O16 0.713774 0.503686 0.404851
#
# Coordination Sequence:
#
# PCOD9135529 Si02
#       8
#     4   4   4   4   4   4   4   4
#     4  10  20  41  61  90 121 160 199 254 306 348
#     4  11  22  42  62  93 122 160 209 247 310 357
#     4  11  23  38  65  91 121 163 197 261 296 368
#     4  10  22  38  65  87 123 163 201 260 294 366
#     4  10  21  40  62  88 124 165 203 247 308 358
#     4  10  22  38  64  87 124 161 197 259 293 366
#     4   9  21  39  64  84 123 159 203 249 300 362
#     4  11  21  40  61  90 126 159 207 243 311 355
#
# _framework density 18.067537999999999
#
# number of rings (size 3 to 8) (size 9 to 14) (size 15 to 20)
#    0.750    1.000    1.250    4.500    1.750    3.000 
#    0.000    5.000    0.000    0.000    0.000    0.000 
#    0.000    0.000    0.000    0.000    0.000    0.000 
#
# Total GULP energy -89271.957570 kJ/mol
# GULP energy per Si atom -5579.497348 kJ/mol
# Density = 1.802642 g / cm^3
# Si number density = 18.067538 Si / 1000 Ang^3
#
#
#
# Elastic Constant Matrix: (Units=GPa)
#
#
# Indices 1 2 3 4 5 6 
#
# 1 74.1766 48.2444 44.5807 -0.0090 22.1155 -0.0071
# 2 48.2444 139.9184 58.3921 -0.0010 7.2549 -0.0007
# 3 44.5807 58.3921 87.2390 -0.0220 16.3216 -0.0057
# 4 -0.0090 -0.0010 -0.0220 8.3581 0.0080 -4.3642
# 5 22.1155 7.2549 16.3216 0.0080 29.4166 0.0038
# 6 -0.0071 -0.0007 -0.0057 -4.3642 0.0038 37.2415
#
#
#
# Elastic Compliance Matrix: (Units=1/GPa)
#
#
# Indices 1 2 3 4 5 6 
#
# 1 0.024950 -0.005054 -0.006796 0.000026 -0.013740 0.000008
# 2 -0.005054 0.010992 -0.005555 -0.000025 0.004171 -0.000005
# 3 -0.006796 -0.005555 0.019462 0.000052 -0.004319 0.000008
# 4 0.000026 -0.000025 0.000052 0.127443 -0.000078 0.014934
# 5 -0.013740 0.004171 -0.004319 -0.000078 0.045692 -0.000017
# 6 0.000008 -0.000005 0.000008 0.014934 -0.000017 0.028602
#
#
# Mechanical properties :
#
#
# Convention : Reuss Voigt Hill
#
# Bulk Modulus (GPa) = 48.56015 67.08537 57.82276
# Shear Modulus (GPa) = 16.73284 25.01102 20.87193
#
# Velocity S-wave (km/s) = 3.04654 3.72466 3.40254
# Velocity P-wave (km/s) = 6.26981 7.46381 6.89271
#
# Compressibility (1/GPa) = 0.02059302
#
# Stress axis : x y z
#
# Youngs Moduli (GPa) = 40.08090 90.97925 51.38291
#
# Poissons Ratio (x) = 0.45981 0.34921
# Poissons Ratio (y) = 0.20257 0.28541
# Poissons Ratio (z) = 0.27240 0.50536
#
# Static dielectric constant tensor:
#      x y z
#    x 1.605200 0.000000 -0.007780 
#    y 0.000000 1.590330 0.000000 
#    z -0.007780 0.000000 1.620650 
# 
# From -- ./inp_files/32703.got.cif
#   From: 2010.05.17/outbox.cif.g08.bks.cpg/sg9_17_cif.got.tgz:32703.got - 2010.06.03 20:04:27.
