data_PCOD9135404
_publ_section_title
;
Structure prediction by ZEFSAII (Michael W. Deem and Ramdas Pophale) SiO2 
 PCOD9135404
Probable space group: C C
;
_chemical_formula_sum "Si O2"
_cell_formula_units_Z 28
_cell_length_a 8.035537
_cell_length_b 25.339137
_cell_length_c 5.277804
_cell_angle_alpha 90.000000
_cell_angle_beta 82.155624
_cell_angle_gamma 90.000000
_cell_volume 1064.576581
_symmetry_space_group_name_H-M "C C"
_symmetry_group_IT_number 9
_symmetry_cell_setting 'monoclinic'
loop_
_space_group_symop_operation_xyz
x,y,z
x,-y,1/2+z
1/2+x,1/2+y,z
1/2+x,1/2-y,1/2+z
loop_
_atom_site_type_symbol
_atom_site_label
_atom_site_fract_x
_atom_site_fract_y
_atom_site_fract_z
Si Si1 0.484310 0.348060 0.773060
Si Si2 0.645446 0.239389 0.687253
Si Si3 0.726840 0.017424 0.867354
Si Si4 0.422541 0.807587 0.856963
Si Si5 0.683344 0.370888 0.223095
Si Si6 0.659133 0.866281 0.522747
Si Si7 0.850075 0.475560 0.004242
O O1 0.509928 0.284864 0.785563
O O2 0.607289 0.365415 0.516673
O O3 0.303499 0.363808 0.705783
O O4 0.538314 0.370055 0.035499
O O5 0.586349 0.222097 0.422608
O O6 0.815709 0.270577 0.700637
O O7 0.661649 0.185458 0.844438
O O8 0.681585 0.078878 0.874505
O O9 0.822202 0.003065 0.103766
O O10 0.552280 0.984099 0.934744
O O11 0.305973 0.822919 0.117993
O O12 0.481960 0.860155 0.702278
O O13 0.793869 0.422234 0.149965
O O14 0.789149 0.517819 0.228836
#
# Coordination Sequence:
#
# PCOD9135404 Si02
#       7
#     4   4   4   4   4   4   4
#     4  11  28  49  73 113 156 198 252 311 393 460
#     4  11  27  43  71 111 154 199 250 309 380 457
#     4  10  24  44  71 107 140 185 258 310 367 440
#     4  11  27  43  77 103 154 201 260 304 385 453
#     4  11  26  49  74 109 151 200 250 319 380 453
#     4  12  28  47  78 109 155 204 251 323 377 451
#     4  10  20  39  72 104 140 181 253 304 362 442
#
# _framework density 26.301535000000001
#
# number of rings (size 3 to 8) (size 9 to 14) (size 15 to 20)
#    0.000    1.143    1.429    2.571   18.000    0.000 
#    0.000    4.286    0.000    0.000    0.000    0.000 
#    0.000    0.000    0.000    0.000    0.000    0.000 
#
# Total GULP energy -78417.667043 kJ/mol
# GULP energy per Si atom -5601.261932 kJ/mol
# Density = 2.624167 g / cm^3
# Si number density = 26.301535 Si / 1000 Ang^3
#
#
#
# Elastic Constant Matrix: (Units=GPa)
#
#
# Indices 1 2 3 4 5 6 
#
# 1 92.5192 29.1583 26.4606 0.0000 19.1253 0.0000
# 2 29.1583 107.2964 14.1725 0.0000 14.8716 0.0000
# 3 26.4606 14.1725 125.7331 0.0000 11.5959 0.0000
# 4 0.0000 0.0000 0.0000 44.3914 0.0000 -0.0554
# 5 19.1253 14.8716 11.5959 0.0000 43.3949 0.0000
# 6 0.0000 0.0000 0.0000 -0.0554 0.0000 25.0133
#
#
#
# Elastic Compliance Matrix: (Units=1/GPa)
#
#
# Indices 1 2 3 4 5 6 
#
# 1 0.013142 -0.002701 -0.002063 0.000000 -0.004315 0.000000
# 2 -0.002701 0.010422 -0.000397 0.000000 -0.002275 0.000000
# 3 -0.002063 -0.000397 0.008547 0.000000 -0.001239 0.000000
# 4 0.000000 0.000000 0.000000 0.022527 0.000000 0.000050
# 5 -0.004315 -0.002275 -0.001239 0.000000 0.026057 0.000000
# 6 0.000000 0.000000 0.000000 0.000050 0.000000 0.039979
#
#
# Mechanical properties :
#
#
# Convention : Reuss Voigt Hill
#
# Bulk Modulus (GPa) = 45.89498 51.68129 48.78813
# Shear Modulus (GPa) = 36.16466 39.61040 37.88753
#
# Velocity S-wave (km/s) = 3.71212 3.88495 3.79952
# Velocity P-wave (km/s) = 5.98837 6.30999 6.15128
#
# Compressibility (1/GPa) = 0.02178888
#
# Stress axis : x y z
#
# Youngs Moduli (GPa) = 76.09284 95.95405 117.00691
#
# Poissons Ratio (x) = 0.25915 0.24142
# Poissons Ratio (y) = 0.20551 0.04639
# Poissons Ratio (z) = 0.15700 0.03805
#
# Static dielectric constant tensor:
#      x y z
#    x 2.066000 0.000000 0.001490 
#    y 0.000000 2.034160 0.000000 
#    z 0.001490 0.000000 2.151470 
# 
# From -- ./inp_files/875.got.cif
#   From: 2010.05.17/outbox.cif.g08.bks.cpg/sg9_1_cif.got.tgz:875.got - 2010.06.03 20:04:27.
