data_PCOD9135282
_publ_section_title
;
Structure prediction by ZEFSAII (Michael W. Deem and Ramdas Pophale) SiO2 
 PCOD9135282
Probable space group: C C
;
_chemical_formula_sum "Si O2"
_cell_formula_units_Z 32
_cell_length_a 10.387672
_cell_length_b 15.212162
_cell_length_c 9.180845
_cell_angle_alpha 90.000000
_cell_angle_beta 74.502355
_cell_angle_gamma 90.000000
_cell_volume 1398.000386
_symmetry_space_group_name_H-M "C C"
_symmetry_group_IT_number 9
_symmetry_cell_setting 'monoclinic'
loop_
_space_group_symop_operation_xyz
x,y,z
x,-y,1/2+z
1/2+x,1/2+y,z
1/2+x,1/2-y,1/2+z
loop_
_atom_site_type_symbol
_atom_site_label
_atom_site_fract_x
_atom_site_fract_y
_atom_site_fract_z
Si Si1 0.617600 0.370452 0.693170
Si Si2 0.195380 0.743067 0.923552
Si Si3 0.450970 0.993974 0.714569
Si Si4 0.268034 0.037672 0.536368
Si Si5 0.641987 0.050333 0.905395
Si Si6 0.435516 0.672260 0.992008
Si Si7 0.888540 0.966040 0.956329
Si Si8 0.506569 0.343478 0.140334
O O1 0.694144 0.306953 0.783813
O O2 0.717439 0.437661 0.581016
O O3 0.534218 0.315125 0.598301
O O4 0.509786 0.431486 0.815869
O O5 0.310205 0.739748 0.015176
O O6 0.209966 0.643687 0.869381
O O7 0.049716 0.758730 0.036708
O O8 0.534577 0.941800 0.568485
O O9 0.364511 0.059232 0.641408
O O10 0.346984 0.953166 0.861579
O O11 0.563070 0.032321 0.783865
O O12 0.137345 0.095869 0.579610
O O13 0.749586 0.974801 0.911580
O O14 0.495909 0.679260 0.811678
O O15 0.406298 0.566201 0.008824
O O16 0.894598 0.899380 0.089866
#
# Coordination Sequence:
#
# PCOD9135282 Si02
#       8
#     4   4   4   4   4   4   4   4
#     4  11  22  42  71 101 129 178 223 293 335 402
#     4  10  26  40  60  97 148 165 218 288 350 390
#     4  10  23  38  64  90 135 181 218 274 334 420
#     4  11  20  39  66  98 123 172 242 273 331 410
#     4  10  24  42  63  98 133 182 222 276 343 410
#     4  11  21  39  67  97 128 174 220 281 334 402
#     4  10  20  38  69 100 126 161 242 278 327 400
#     4  11  22  40  68  99 128 179 223 291 334 402
#
# _framework density 22.889838000000001
#
# number of rings (size 3 to 8) (size 9 to 14) (size 15 to 20)
#    0.000    1.500    2.500    2.250    7.000    4.000 
#    0.000    3.750    0.000    0.000    0.000    0.000 
#    0.000    0.000    0.000    0.000    0.000    0.000 
#
# Total GULP energy -89247.546960 kJ/mol
# GULP energy per Si atom -5577.971685 kJ/mol
# Density = 2.283774 g / cm^3
# Si number density = 22.889838 Si / 1000 Ang^3
#
#
#
# Elastic Constant Matrix: (Units=GPa)
#
#
# Indices 1 2 3 4 5 6 
#
# 1 128.4516 47.6665 35.8484 0.0000 31.3432 0.0000
# 2 47.6665 67.5593 23.1972 0.0000 17.2940 0.0000
# 3 35.8484 23.1972 106.6466 0.0000 21.3848 0.0000
# 4 0.0000 0.0000 0.0000 7.7908 0.0000 3.1418
# 5 31.3432 17.2940 21.3848 0.0000 45.6515 0.0000
# 6 0.0000 0.0000 0.0000 3.1418 0.0000 27.0939
#
#
#
# Elastic Compliance Matrix: (Units=1/GPa)
#
#
# Indices 1 2 3 4 5 6 
#
# 1 0.011862 -0.006571 -0.001572 0.000000 -0.004919 0.000000
# 2 -0.006571 0.020690 -0.001793 0.000000 -0.002487 0.000000
# 3 -0.001572 -0.001793 0.010973 0.000000 -0.003382 0.000000
# 4 0.000000 0.000000 0.000000 0.134652 0.000000 -0.015614
# 5 -0.004919 -0.002487 -0.003382 0.000000 0.027808 0.000000
# 6 0.000000 0.000000 0.000000 -0.015614 0.000000 0.038719
#
#
# Mechanical properties :
#
#
# Convention : Reuss Voigt Hill
#
# Bulk Modulus (GPa) = 42.27536 57.34240 49.80888
# Shear Modulus (GPa) = 18.35124 29.17028 23.76076
#
# Velocity S-wave (km/s) = 2.83454 3.57371 3.22537
# Velocity P-wave (km/s) = 5.40573 6.49110 5.97312
#
# Compressibility (1/GPa) = 0.02365444
#
# Stress axis : x y z
#
# Youngs Moduli (GPa) = 84.30154 48.33280 91.13052
#
# Poissons Ratio (x) = 0.31757 0.14324
# Poissons Ratio (y) = 0.55390 0.16340
# Poissons Ratio (z) = 0.13251 0.08666
#
# Static dielectric constant tensor:
#      x y z
#    x 1.935860 0.000000 -0.011610 
#    y 0.000000 1.915070 0.000000 
#    z -0.011610 0.000000 1.877540 
# 
# From -- ./inp_files/7411.got.cif
#   From: 2010.05.17/outbox.cif.g08.bks.cpg/sg9_4_cif.got.tgz:7411.got - 2010.06.03 20:04:27.
