data_PCOD9135152
_publ_section_title
;
Structure prediction by ZEFSAII (Michael W. Deem and Ramdas Pophale) SiO2 
 PCOD9135152
Probable space group: C C
;
_chemical_formula_sum "Si O2"
_cell_formula_units_Z 28
_cell_length_a 17.671385
_cell_length_b 9.397497
_cell_length_c 17.746068
_cell_angle_alpha 90.000000
_cell_angle_beta 148.439202
_cell_angle_gamma 90.000000
_cell_volume 1542.485737
_symmetry_space_group_name_H-M "C C"
_symmetry_group_IT_number 9
_symmetry_cell_setting 'monoclinic'
loop_
_space_group_symop_operation_xyz
x,y,z
x,-y,1/2+z
1/2+x,1/2+y,z
1/2+x,1/2-y,1/2+z
loop_
_atom_site_type_symbol
_atom_site_label
_atom_site_fract_x
_atom_site_fract_y
_atom_site_fract_z
Si Si1 0.428140 0.705430 0.186430
Si Si2 0.611756 0.096740 0.934387
Si Si3 0.019862 0.611884 0.465804
Si Si4 0.153170 0.966216 0.390741
Si Si5 0.446080 0.070631 0.575752
Si Si6 0.269639 0.835922 0.632243
Si Si7 0.543170 0.835085 0.767024
O O1 0.479396 0.803203 0.299060
O O2 0.508141 0.555493 0.259210
O O3 0.481611 0.795769 0.159790
O O4 0.258346 0.679235 0.042896
O O5 0.593371 0.035483 0.001886
O O6 0.603758 0.954976 0.875611
O O7 0.138451 0.733410 0.545544
O O8 0.984151 0.606082 0.523101
O O9 0.871751 0.627685 0.290586
O O10 0.198582 0.956644 0.517920
O O11 0.136996 0.806142 0.345873
O O12 0.277437 0.043334 0.448965
O O13 0.518629 0.926007 0.670537
O O14 0.391739 0.782361 0.676128
#
# Coordination Sequence:
#
# PCOD9135152 Si02
#       7
#     4   4   4   4   4   4   4
#     4  11  22  39  65  90 120 165 201 251 299 366
#     4  10  21  39  62  90 120 159 207 245 297 361
#     4  11  23  39  62  91 127 156 199 258 303 358
#     4  11  20  39  65  91 116 164 207 244 299 369
#     4  10  24  40  59  93 127 153 202 255 306 358
#     4  10  20  37  66  88 113 161 210 243 287 367
#     4   9  20  39  65  89 115 162 210 244 287 371
#
# _framework density 18.152518000000001
#
# number of rings (size 3 to 8) (size 9 to 14) (size 15 to 20)
#    0.000    1.714    4.286    1.714    4.000    0.000 
#    2.571    0.000    0.000    0.000    0.000    0.000 
#    0.000    0.000    0.000    0.000    0.000    0.000 
#
# Total GULP energy -77976.547584 kJ/mol
# GULP energy per Si atom -5569.753399 kJ/mol
# Density = 1.811120 g / cm^3
# Si number density = 18.152518 Si / 1000 Ang^3
#
#
#
# Elastic Constant Matrix: (Units=GPa)
#
#
# Indices 1 2 3 4 5 6 
#
# 1 113.6884 32.4161 40.2544 0.0000 -14.3300 0.0000
# 2 32.4161 92.6839 34.9400 0.0000 6.5180 0.0000
# 3 40.2544 34.9400 82.8592 0.0000 0.4383 0.0000
# 4 0.0000 0.0000 0.0000 37.3848 0.0000 8.9642
# 5 -14.3300 6.5180 0.4383 0.0000 16.0596 0.0000
# 6 0.0000 0.0000 0.0000 8.9642 0.0000 20.7361
#
#
#
# Elastic Compliance Matrix: (Units=1/GPa)
#
#
# Indices 1 2 3 4 5 6 
#
# 1 0.013330 -0.003741 -0.004970 0.000000 0.013549 0.000000
# 2 -0.003741 0.014304 -0.004166 0.000000 -0.009030 0.000000
# 3 -0.004970 -0.004166 0.016257 0.000000 -0.003188 0.000000
# 4 0.000000 0.000000 0.000000 0.029842 0.000000 -0.012901
# 5 0.013549 -0.009030 -0.003188 0.000000 0.078110 0.000000
# 6 0.000000 0.000000 0.000000 -0.012901 0.000000 0.053802
#
#
# Mechanical properties :
#
#
# Convention : Reuss Voigt Hill
#
# Bulk Modulus (GPa) = 55.14060 56.05027 55.59543
# Shear Modulus (GPa) = 21.05747 26.94416 24.00081
#
# Velocity S-wave (km/s) = 3.40962 3.85687 3.64012
# Velocity P-wave (km/s) = 6.77812 7.12589 6.95418
#
# Compressibility (1/GPa) = 0.01813546
#
# Stress axis : x y z
#
# Youngs Moduli (GPa) = 75.01661 69.91295 61.51272
#
# Poissons Ratio (x) = 0.26158 0.30572
# Poissons Ratio (y) = 0.28067 0.25626
# Poissons Ratio (z) = 0.37284 0.29126
#
# Static dielectric constant tensor:
#      x y z
#    x 1.597240 0.000000 -0.006510 
#    y 0.000000 1.647610 0.000000 
#    z -0.006510 0.000000 1.682780 
# 
# From -- ./inp_files/12366.got.cif
#   From: 2010.05.17/outbox.cif.g08.bks.cpg/sg9_7_cif.got.tgz:12366.got - 2010.06.03 20:04:27.
