data_PCOD9135111
_publ_section_title
;
Structure prediction by ZEFSAII (Michael W. Deem and Ramdas Pophale) SiO2 
 PCOD9135111
Probable space group: C C
;
_chemical_formula_sum "Si O2"
_cell_formula_units_Z 32
_cell_length_a 14.293489
_cell_length_b 20.249356
_cell_length_c 7.828827
_cell_angle_alpha 90.000000
_cell_angle_beta 43.001855
_cell_angle_gamma 90.000000
_cell_volume 1545.413038
_symmetry_space_group_name_H-M "C C"
_symmetry_group_IT_number 9
_symmetry_cell_setting 'monoclinic'
loop_
_space_group_symop_operation_xyz
x,y,z
x,-y,1/2+z
1/2+x,1/2+y,z
1/2+x,1/2-y,1/2+z
loop_
_atom_site_type_symbol
_atom_site_label
_atom_site_fract_x
_atom_site_fract_y
_atom_site_fract_z
Si Si1 0.695740 0.396641 0.173330
Si Si2 0.452063 0.917301 0.260555
Si Si3 0.116055 0.494927 0.281132
Si Si4 0.712136 0.129907 0.029505
Si Si5 0.440649 0.187789 0.485427
Si Si6 0.872562 0.911020 0.000821
Si Si7 0.170457 0.035218 0.076431
Si Si8 0.399757 0.660852 0.097828
O O1 0.693042 0.456937 0.045504
O O2 0.684780 0.435142 0.368546
O O3 0.556205 0.356145 0.339890
O O4 0.829061 0.350930 0.018444
O O5 0.548754 0.929113 0.292085
O O6 0.295816 0.932722 0.512039
O O7 0.459703 0.851457 0.139253
O O8 0.510062 0.974110 0.056362
O O9 0.139301 0.558037 0.126201
O O10 0.268007 0.472422 0.127607
O O11 0.589528 0.182935 0.197648
O O12 0.795396 0.132942 0.095934
O O13 0.814393 0.133067 0.733389
O O14 0.388945 0.260267 0.600322
O O15 0.874749 0.871389 0.817965
O O16 0.021913 0.941566 0.838500
#
# Coordination Sequence:
#
# PCOD9135111 Si02
#       8
#     4   4   4   4   4   4   4   4
#     4  10  22  37  64  88 123 166 201 264 323 373
#     4  10  20  37  62  88 124 166 201 264 322 380
#     4  11  20  37  61  97 127 157 209 267 331 375
#     4  11  23  41  66  96 129 165 212 270 322 380
#     4  10  22  43  64  86 127 174 216 250 315 388
#     4  11  24  38  65  99 126 165 212 271 318 378
#     4  10  21  36  56  94 124 153 207 259 328 376
#     4  11  24  43  64  90 128 176 212 257 315 378
#
# _framework density 20.706440000000001
#
# number of rings (size 3 to 8) (size 9 to 14) (size 15 to 20)
#    0.000    1.500    1.250    5.250    5.250    0.000 
#    0.000    6.250    2.750    0.000    0.000    0.000 
#    0.000    0.000    0.000    0.000    0.000    0.000 
#
# Total GULP energy -89302.420683 kJ/mol
# GULP energy per Si atom -5581.401293 kJ/mol
# Density = 2.065931 g / cm^3
# Si number density = 20.706440 Si / 1000 Ang^3
#
#
#
# Elastic Constant Matrix: (Units=GPa)
#
#
# Indices 1 2 3 4 5 6 
#
# 1 58.7038 17.0202 29.6958 0.0000 -20.8913 0.0000
# 2 17.0202 95.9954 6.5668 0.0000 -1.5181 0.0000
# 3 29.6958 6.5668 78.2438 0.0000 -14.3122 0.0000
# 4 0.0000 0.0000 0.0000 14.0546 0.0000 -4.6643
# 5 -20.8913 -1.5181 -14.3122 0.0000 33.4669 0.0000
# 6 0.0000 0.0000 0.0000 -4.6643 0.0000 20.9609
#
#
#
# Elastic Compliance Matrix: (Units=1/GPa)
#
#
# Indices 1 2 3 4 5 6 
#
# 1 0.026650 -0.004012 -0.007342 0.000000 0.013314 0.000000
# 2 -0.004012 0.011082 0.000246 0.000000 -0.001897 0.000000
# 3 -0.007342 0.000246 0.015959 0.000000 0.002252 0.000000
# 4 0.000000 0.000000 0.000000 0.076825 0.000000 0.017095
# 5 0.013314 -0.001897 0.002252 0.000000 0.039069 0.000000
# 6 0.000000 0.000000 0.000000 0.017095 0.000000 0.051512
#
#
# Mechanical properties :
#
#
# Convention : Reuss Voigt Hill
#
# Bulk Modulus (GPa) = 31.77356 37.72318 34.74837
# Shear Modulus (GPa) = 19.70019 25.67385 22.68702
#
# Velocity S-wave (km/s) = 3.08783 3.52504 3.31365
# Velocity P-wave (km/s) = 5.30010 5.90131 5.60877
#
# Compressibility (1/GPa) = 0.03147271
#
# Stress axis : x y z
#
# Youngs Moduli (GPa) = 37.52291 90.23843 62.66206
#
# Poissons Ratio (x) = 0.36207 0.46009
# Poissons Ratio (y) = 0.15056 -0.01540
# Poissons Ratio (z) = 0.27551 -0.02218
#
# Static dielectric constant tensor:
#      x y z
#    x 1.812560 0.000000 0.033630 
#    y 0.000000 1.733890 0.000000 
#    z 0.033630 0.000000 1.766150 
# 
# From -- ./inp_files/8032.got.cif
#   From: 2010.05.17/outbox.cif.g08.bks.cpg/sg9_5_cif.got.tgz:8032.got - 2010.06.03 20:04:27.
