data_PCOD9135297
_publ_section_title
;
Structure prediction by ZEFSAII (Michael W. Deem and Ramdas Pophale) SiO2 
 PCOD9135297
Probable space group: C C
;
_chemical_formula_sum "Si O2"
_cell_formula_units_Z 32
_cell_length_a 14.535047
_cell_length_b 8.607412
_cell_length_c 23.282825
_cell_angle_alpha 90.000000
_cell_angle_beta 146.332027
_cell_angle_gamma 90.000000
_cell_volume 1614.848222
_symmetry_space_group_name_H-M "C C"
_symmetry_group_IT_number 9
_symmetry_cell_setting 'monoclinic'
loop_
_space_group_symop_operation_xyz
x,y,z
x,-y,1/2+z
1/2+x,1/2+y,z
1/2+x,1/2-y,1/2+z
loop_
_atom_site_type_symbol
_atom_site_label
_atom_site_fract_x
_atom_site_fract_y
_atom_site_fract_z
Si Si1 0.119190 0.577371 0.847020
Si Si2 0.545446 0.403234 0.456681
Si Si3 0.519794 0.115608 0.064443
Si Si4 0.777269 0.177999 0.506182
Si Si5 0.120610 0.068657 0.721725
Si Si6 0.729569 0.090674 0.286293
Si Si7 0.726796 0.396378 0.146808
Si Si8 0.316150 0.843207 0.902241
O O1 0.167118 0.493739 0.811509
O O2 0.221791 0.737781 0.899967
O O3 0.924102 0.604974 0.747996
O O4 0.173871 0.463462 0.926468
O O5 0.664772 0.310496 0.476001
O O6 0.411633 0.528375 0.364299
O O7 0.653355 0.491272 0.560485
O O8 0.430236 0.272168 0.425189
O O9 0.375818 0.237162 0.006202
O O10 0.605574 0.062515 0.168618
O O11 0.653918 0.222324 0.101663
O O12 0.437722 0.972372 0.990673
O O13 0.925492 0.111891 0.623470
O O14 0.221492 0.224258 0.791251
O O15 0.164212 0.045303 0.677032
O O16 0.180972 0.927496 0.791704
#
# Coordination Sequence:
#
# PCOD9135297 Si02
#       8
#     4   4   4   4   4   4   4   4
#     4  11  22  37  58  86 116 152 194 239 287 346
#     4  11  22  37  60  87 114 152 193 237 291 346
#     4  10  22  39  59  84 116 153 192 239 290 341
#     4  10  22  39  59  84 116 155 192 235 290 347
#     4  10  20  39  59  83 117 153 191 241 290 341
#     4   9  20  39  59  83 116 155 193 236 289 345
#     4  10  21  39  59  84 117 152 190 238 291 348
#     4  11  23  37  59  87 114 150 195 241 288 340
#
# _framework density 19.816102000000001
#
# number of rings (size 3 to 8) (size 9 to 14) (size 15 to 20)
#    0.000    2.000    0.000    6.750    0.000    8.000 
#    0.000    5.000    0.000    0.000    0.000    0.000 
#    0.000    0.000    0.000    0.000    0.000    0.000 
#
# Total GULP energy -89342.085663 kJ/mol
# GULP energy per Si atom -5583.880354 kJ/mol
# Density = 1.977100 g / cm^3
# Si number density = 19.816102 Si / 1000 Ang^3
#
#
#
# Elastic Constant Matrix: (Units=GPa)
#
#
# Indices 1 2 3 4 5 6 
#
# 1 57.8415 29.2268 36.0234 0.0000 19.1019 0.0000
# 2 29.2268 115.7799 68.9281 0.0000 4.3775 0.0000
# 3 36.0234 68.9281 112.2474 0.0000 18.8428 0.0000
# 4 0.0000 0.0000 0.0000 16.4883 0.0000 3.9669
# 5 19.1019 4.3775 18.8428 0.0000 34.7831 0.0000
# 6 0.0000 0.0000 0.0000 3.9669 0.0000 32.0019
#
#
#
# Elastic Compliance Matrix: (Units=1/GPa)
#
#
# Indices 1 2 3 4 5 6 
#
# 1 0.025331 -0.003554 -0.004056 0.000000 -0.011267 0.000000
# 2 -0.003554 0.014423 -0.008513 0.000000 0.004748 0.000000
# 3 -0.004056 -0.008513 0.016374 0.000000 -0.005571 0.000000
# 4 0.000000 0.000000 0.000000 0.062514 0.000000 -0.007749
# 5 -0.011267 0.004748 -0.005571 0.000000 0.037357 0.000000
# 6 0.000000 0.000000 0.000000 -0.007749 0.000000 0.032209
#
#
# Mechanical properties :
#
#
# Convention : Reuss Voigt Hill
#
# Bulk Modulus (GPa) = 41.87322 61.58060 51.72691
# Shear Modulus (GPa) = 21.89010 26.76735 24.32872
#
# Velocity S-wave (km/s) = 3.32725 3.67929 3.50769
# Velocity P-wave (km/s) = 5.99480 7.01378 6.52421
#
# Compressibility (1/GPa) = 0.02388161
#
# Stress axis : x y z
#
# Youngs Moduli (GPa) = 39.47713 69.33391 61.07414
#
# Poissons Ratio (x) = 0.24641 0.24770
# Poissons Ratio (y) = 0.14030 0.51994
# Poissons Ratio (z) = 0.16011 0.59026
#
# Static dielectric constant tensor:
#      x y z
#    x 1.700370 0.000000 -0.001500 
#    y 0.000000 1.707540 0.000000 
#    z -0.001500 0.000000 1.701810 
# 
# From -- ./inp_files/27746.got.cif
#   From: 2010.05.17/outbox.cif.g08.bks.cpg/sg9_14_cif.got.tgz:27746.got - 2010.06.03 20:04:27.
