data_PCOD9135431
_publ_section_title
;
Structure prediction by ZEFSAII (Michael W. Deem and Ramdas Pophale) SiO2 
 PCOD9135431
Probable space group: C C
;
_chemical_formula_sum "Si O2"
_cell_formula_units_Z 32
_cell_length_a 23.375195
_cell_length_b 4.998407
_cell_length_c 19.335262
_cell_angle_alpha 90.000000
_cell_angle_beta 34.056476
_cell_angle_gamma 90.000000
_cell_volume 1265.122422
_symmetry_space_group_name_H-M "C C"
_symmetry_group_IT_number 9
_symmetry_cell_setting 'monoclinic'
loop_
_space_group_symop_operation_xyz
x,y,z
x,-y,1/2+z
1/2+x,1/2+y,z
1/2+x,1/2-y,1/2+z
loop_
_atom_site_type_symbol
_atom_site_label
_atom_site_fract_x
_atom_site_fract_y
_atom_site_fract_z
Si Si1 0.814830 0.025119 0.670410
Si Si2 0.761026 0.050292 0.075752
Si Si3 0.258642 0.713030 0.433257
Si Si4 0.122778 0.056092 0.237970
Si Si5 0.177550 0.973879 0.329046
Si Si6 0.432613 0.240177 0.671004
Si Si7 0.608648 0.862844 0.510090
Si Si8 0.049124 0.975998 0.176175
O O1 0.834126 0.983605 0.569162
O O2 0.718934 0.825895 0.782655
O O3 0.775394 0.328164 0.719420
O O4 0.898089 0.921650 0.641399
O O5 0.714915 0.349541 0.124347
O O6 0.665120 0.855499 0.188774
O O7 0.795357 0.942106 0.966026
O O8 0.335057 0.886685 0.308936
O O9 0.215639 0.496006 0.422005
O O10 0.159799 0.884885 0.553504
O O11 0.103841 0.010044 0.337296
O O12 0.033479 0.001942 0.272784
O O13 0.126515 0.094590 0.448464
O O14 0.522434 0.039961 0.560050
O O15 0.473104 0.406468 0.696328
O O16 0.563633 0.820811 0.632847
#
# Coordination Sequence:
#
# PCOD9135431 Si02
#       8
#     4   4   4   4   4   4   4   4
#     4  10  21  39  64  93 127 170 214 268 328 390
#     4   9  18  36  65  90 116 167 217 258 319 385
#     4  10  20  40  63  89 129 173 220 273 330 395
#     4   9  18  37  63  90 118 164 215 263 316 383
#     4  10  21  38  67  90 123 174 217 261 331 388
#     4  11  24  37  61  97 133 171 219 275 334 402
#     4  11  22  37  63  94 132 176 219 274 333 403
#     4  10  22  38  62  91 126 167 221 270 327 392
#
# _framework density 25.293997000000001
#
# number of rings (size 3 to 8) (size 9 to 14) (size 15 to 20)
#    0.000    2.000    2.500    0.750    3.500    1.000 
#    0.000    1.250    5.500    0.000    0.000    0.000 
#    0.000    0.000    0.000    0.000    0.000    0.000 
#
# Total GULP energy -89346.241506 kJ/mol
# GULP energy per Si atom -5584.140094 kJ/mol
# Density = 2.523643 g / cm^3
# Si number density = 25.293997 Si / 1000 Ang^3
#
#
#
# Elastic Constant Matrix: (Units=GPa)
#
#
# Indices 1 2 3 4 5 6 
#
# 1 219.3757 9.4286 38.8093 0.0430 35.0278 -0.0459
# 2 9.4286 65.6573 7.7137 -0.0140 4.6300 0.0067
# 3 38.8093 7.7137 90.4899 -0.0170 20.5031 0.0035
# 4 0.0430 -0.0140 -0.0170 23.5952 -0.0090 8.9746
# 5 35.0278 4.6300 20.5031 -0.0090 39.4909 0.0105
# 6 -0.0459 0.0067 0.0035 8.9746 0.0105 41.6308
#
#
#
# Elastic Compliance Matrix: (Units=1/GPa)
#
#
# Indices 1 2 3 4 5 6 
#
# 1 0.005472 -0.000334 -0.001391 -0.000017 -0.004092 0.000011
# 2 -0.000334 0.015462 -0.000942 0.000011 -0.001028 -0.000005
# 3 -0.001391 -0.000942 0.012946 0.000011 -0.005377 -0.000003
# 4 -0.000017 0.000011 0.000011 0.046167 0.000021 -0.009952
# 5 -0.004092 -0.001028 -0.005377 0.000021 0.031864 -0.000017
# 6 0.000011 -0.000005 -0.000003 -0.009952 -0.000017 0.026166
#
#
# Mechanical properties :
#
#
# Convention : Reuss Voigt Hill
#
# Bulk Modulus (GPa) = 35.03110 54.15847 44.59478
# Shear Modulus (GPa) = 32.69526 42.24812 37.47169
#
# Velocity S-wave (km/s) = 3.59919 4.09134 3.85313
# Velocity P-wave (km/s) = 5.58138 6.61641 6.12081
#
# Compressibility (1/GPa) = 0.02854607
#
# Stress axis : x y z
#
# Youngs Moduli (GPa) = 182.73844 64.67607 77.24233
#
# Poissons Ratio (x) = 0.02159 0.10746
# Poissons Ratio (y) = 0.06100 0.07276
# Poissons Ratio (z) = 0.25424 0.06093
#
# Static dielectric constant tensor:
#      x y z
#    x 2.055790 -0.000040 -0.024320 
#    y -0.000040 1.985830 0.000000 
#    z -0.024320 0.000000 2.092880 
# 
# From -- ./inp_files/34412.got.cif
#   From: 2010.05.17/outbox.cif.g08.bks.cpg/sg9_18_cif.got.tgz:34412.got - 2010.06.03 20:04:27.
