data_PCOD9135414
_publ_section_title
;
Structure prediction by ZEFSAII (Michael W. Deem and Ramdas Pophale) SiO2 
 PCOD9135414
Probable space group: C C
;
_chemical_formula_sum "Si O2"
_cell_formula_units_Z 32
_cell_length_a 11.672355
_cell_length_b 9.425786
_cell_length_c 14.042486
_cell_angle_alpha 90.000000
_cell_angle_beta 65.170518
_cell_angle_gamma 90.000000
_cell_volume 1402.155369
_symmetry_space_group_name_H-M "C C"
_symmetry_group_IT_number 9
_symmetry_cell_setting 'monoclinic'
loop_
_space_group_symop_operation_xyz
x,y,z
x,-y,1/2+z
1/2+x,1/2+y,z
1/2+x,1/2-y,1/2+z
loop_
_atom_site_type_symbol
_atom_site_label
_atom_site_fract_x
_atom_site_fract_y
_atom_site_fract_z
Si Si1 0.132710 0.341442 0.484790
Si Si2 0.390208 0.585595 0.213689
Si Si3 0.735737 0.652741 0.294884
Si Si4 0.149823 0.335361 0.922299
Si Si5 0.980452 0.769096 0.209691
Si Si6 0.722775 0.597535 0.674539
Si Si7 0.163005 0.811643 0.617794
Si Si8 0.888063 0.197537 0.019480
O O1 0.140420 0.228540 0.397182
O O2 0.113225 0.500446 0.454840
O O3 0.270841 0.330648 0.489631
O O4 0.021647 0.292204 0.593195
O O5 0.268168 0.649985 0.308700
O O6 0.419428 0.425851 0.237874
O O7 0.513281 0.682040 0.191505
O O8 0.386893 0.575326 0.099835
O O9 0.875929 0.665405 0.286924
O O10 0.713288 0.491802 0.273629
O O11 0.730400 0.731945 0.193109
O O12 0.190152 0.270234 0.011575
O O13 0.027187 0.240620 0.935926
O O14 0.115587 0.785378 0.209846
O O15 0.695915 0.479989 0.601361
O O16 0.850888 0.669338 0.600320
#
# Coordination Sequence:
#
# PCOD9135414 Si02
#       8
#     4   4   4   4   4   4   4   4
#     4  11  24  38  67  93 128 176 214 269 336 389
#     4  10  21  43  62  89 134 164 216 273 324 391
#     4  10  20  40  62  94 121 172 212 260 326 386
#     4  11  22  42  66  96 125 175 219 268 333 392
#     4  10  20  40  60  87 130 163 214 265 315 391
#     4   8  19  41  58  85 134 159 205 272 312 383
#     4   8  21  40  63  90 127 168 210 267 325 389
#     4  10  23  42  60  98 127 167 220 272 319 395
#
# _framework density 22.822005000000001
#
# number of rings (size 3 to 8) (size 9 to 14) (size 15 to 20)
#    0.750    1.500    1.250    0.750    1.750    3.000 
#   11.250    1.250    0.000    0.000    0.000    0.000 
#    0.000    0.000    0.000    0.000    0.000    0.000 
#
# Total GULP energy -89170.827515 kJ/mol
# GULP energy per Si atom -5573.176720 kJ/mol
# Density = 2.277006 g / cm^3
# Si number density = 22.822005 Si / 1000 Ang^3
#
#
#
# Elastic Constant Matrix: (Units=GPa)
#
#
# Indices 1 2 3 4 5 6 
#
# 1 46.0970 1.4933 4.1840 0.0000 -22.5831 0.0000
# 2 1.4933 41.2976 14.2687 0.0000 -12.9050 0.0000
# 3 4.1840 14.2687 95.8461 0.0000 -26.1720 0.0000
# 4 0.0000 0.0000 0.0000 36.2355 0.0000 -3.1061
# 5 -22.5831 -12.9050 -26.1720 0.0000 31.3041 0.0000
# 6 0.0000 0.0000 0.0000 -3.1061 0.0000 30.6625
#
#
#
# Elastic Compliance Matrix: (Units=1/GPa)
#
#
# Indices 1 2 3 4 5 6 
#
# 1 0.039266 0.007812 0.007435 0.000000 0.037763 0.000000
# 2 0.007812 0.029476 0.000166 0.000000 0.017926 0.000000
# 3 0.007435 0.000166 0.014989 0.000000 0.017964 0.000000
# 4 0.000000 0.000000 0.000000 0.027839 0.000000 0.002820
# 5 0.037763 0.017926 0.017964 0.000000 0.081596 0.000000
# 6 0.000000 0.000000 0.000000 0.002820 0.000000 0.032899
#
#
# Mechanical properties :
#
#
# Convention : Reuss Voigt Hill
#
# Bulk Modulus (GPa) = 8.72934 24.79252 16.76093
# Shear Modulus (GPa) = 21.42003 30.52672 25.97337
#
# Velocity S-wave (km/s) = 3.06693 3.66129 3.37721
# Velocity P-wave (km/s) = 4.04657 5.36287 4.75053
#
# Compressibility (1/GPa) = 0.11455625
#
# Stress axis : x y z
#
# Youngs Moduli (GPa) = 25.46743 33.92546 66.71369
#
# Poissons Ratio (x) = -0.26503 -0.49599
# Poissons Ratio (y) = -0.19895 -0.01105
# Poissons Ratio (z) = -0.18934 -0.00562
#
# Static dielectric constant tensor:
#      x y z
#    x 1.911090 0.000000 0.069450 
#    y 0.000000 1.860220 0.000000 
#    z 0.069450 0.000000 1.886240 
# 
# From -- ./inp_files/24621.got.cif
#   From: 2010.05.17/outbox.cif.g08.bks.cpg/sg9_13_cif.got.tgz:24621.got - 2010.06.03 20:04:27.
