data_PCOD9135653
_publ_section_title
;
Structure prediction by ZEFSAII (Michael W. Deem and Ramdas Pophale) SiO2 
 PCOD9135653
Probable space group: C C
;
_chemical_formula_sum "Si O2"
_cell_formula_units_Z 24
_cell_length_a 6.491358
_cell_length_b 22.666964
_cell_length_c 7.957603
_cell_angle_alpha 90.000000
_cell_angle_beta 70.929758
_cell_angle_gamma 90.000000
_cell_volume 1106.617557
_symmetry_space_group_name_H-M "C C"
_symmetry_group_IT_number 9
_symmetry_cell_setting 'monoclinic'
loop_
_space_group_symop_operation_xyz
x,y,z
x,-y,1/2+z
1/2+x,1/2+y,z
1/2+x,1/2-y,1/2+z
loop_
_atom_site_type_symbol
_atom_site_label
_atom_site_fract_x
_atom_site_fract_y
_atom_site_fract_z
Si Si1 0.254370 0.694216 0.179790
Si Si2 0.368809 0.116878 0.301318
Si Si3 0.492536 0.183159 0.568180
Si Si4 0.043143 0.415174 0.284533
Si Si5 0.690508 0.976310 0.580742
Si Si6 0.579703 0.589523 0.078590
O O1 0.352436 0.757668 0.116326
O O2 0.429439 0.645724 0.075598
O O3 0.016227 0.670662 0.180007
O O4 0.202740 0.692090 0.393107
O O5 0.344312 0.137422 0.498537
O O6 0.523636 0.060321 0.242682
O O7 0.161589 0.102150 0.245458
O O8 0.567958 0.152153 0.718827
O O9 0.173237 0.443242 0.406740
O O10 0.112386 0.456874 0.111428
O O11 0.792613 0.418600 0.409369
O O12 0.928053 0.966866 0.594274
#
# Coordination Sequence:
#
# PCOD9135653 Si02
#       6
#     4   4   4   4   4   4
#     4   9  20  40  65 101 132 170 226 268 331 400
#     4   8  20  40  64  91 130 165 225 270 325 393
#     4  10  20  42  66  97 136 170 221 281 326 393
#     4  11  23  41  66  96 135 175 223 281 332 397
#     4  10  22  41  64  96 133 173 230 274 327 406
#     4  10  21  44  65  93 132 177 217 278 333 385
#
# _framework density 21.687707
#
# number of rings (size 3 to 8) (size 9 to 14) (size 15 to 20)
#    1.000    1.333    0.000    2.000    0.000    2.667 
#   15.000    0.000    0.000    0.000    0.000    0.000 
#    0.000    0.000    0.000    0.000    0.000    0.000 
#
# Total GULP energy -66827.378655 kJ/mol
# GULP energy per Si atom -5568.948221 kJ/mol
# Density = 2.163834 g / cm^3
# Si number density = 21.687707 Si / 1000 Ang^3
#
#
#
# Elastic Constant Matrix: (Units=GPa)
#
#
# Indices 1 2 3 4 5 6 
#
# 1 84.6459 22.6291 24.7540 0.0000 2.7409 0.0000
# 2 22.6291 79.4484 8.6008 0.0000 -1.9141 0.0000
# 3 24.7540 8.6008 51.6920 0.0000 10.6861 0.0000
# 4 0.0000 0.0000 0.0000 41.9255 0.0000 -9.7800
# 5 2.7409 -1.9141 10.6861 0.0000 23.3465 0.0000
# 6 0.0000 0.0000 0.0000 -9.7800 0.0000 24.4636
#
#
#
# Elastic Compliance Matrix: (Units=1/GPa)
#
#
# Indices 1 2 3 4 5 6 
#
# 1 0.014643 -0.003425 -0.006659 0.000000 0.001048 0.000000
# 2 -0.003425 0.013725 -0.001060 0.000000 0.002012 0.000000
# 3 -0.006659 -0.001060 0.024925 0.000000 -0.010714 0.000000
# 4 0.000000 0.000000 0.000000 0.026305 0.000000 0.010516
# 5 0.001048 0.002012 -0.010714 0.000000 0.047779 0.000000
# 6 0.000000 0.000000 0.000000 0.010516 0.000000 0.045081
#
#
# Mechanical properties :
#
#
# Convention : Reuss Voigt Hill
#
# Bulk Modulus (GPa) = 32.25081 36.41711 34.33396
# Shear Modulus (GPa) = 24.38063 28.60061 26.49062
#
# Velocity S-wave (km/s) = 3.35650 3.63540 3.49873
# Velocity P-wave (km/s) = 5.47031 5.86937 5.67335
#
# Compressibility (1/GPa) = 0.03100698
#
# Stress axis : x y z
#
# Youngs Moduli (GPa) = 68.29263 72.85763 40.11984
#
# Poissons Ratio (x) = 0.24951 0.26716
# Poissons Ratio (y) = 0.23387 0.04252
# Poissons Ratio (z) = 0.45476 0.07721
#
# Static dielectric constant tensor:
#      x y z
#    x 1.814340 0.000000 0.049730 
#    y 0.000000 1.801300 0.000000 
#    z 0.049730 0.000000 1.848930 
# 
# From -- ./inp_files/3937.got.cif
#   From: 2010.05.17/outbox.cif.g08.bks.cpg/sg9_2_cif.got.tgz:3937.got - 2010.06.03 20:04:27.
