data_PCOD9135194
_publ_section_title
;
Structure prediction by ZEFSAII (Michael W. Deem and Ramdas Pophale) SiO2 
 PCOD9135194
Probable space group: C C
;
_chemical_formula_sum "Si O2"
_cell_formula_units_Z 32
_cell_length_a 16.276087
_cell_length_b 11.099729
_cell_length_c 9.115959
_cell_angle_alpha 90.000000
_cell_angle_beta 123.301863
_cell_angle_gamma 90.000000
_cell_volume 1376.453857
_symmetry_space_group_name_H-M "C C"
_symmetry_group_IT_number 9
_symmetry_cell_setting 'monoclinic'
loop_
_space_group_symop_operation_xyz
x,y,z
x,-y,1/2+z
1/2+x,1/2+y,z
1/2+x,1/2-y,1/2+z
loop_
_atom_site_type_symbol
_atom_site_label
_atom_site_fract_x
_atom_site_fract_y
_atom_site_fract_z
Si Si1 0.533150 0.253086 0.800180
Si Si2 0.316815 0.841152 0.632061
Si Si3 0.327585 0.416233 0.295051
Si Si4 0.158180 0.607213 0.131370
Si Si5 0.004369 0.597043 0.485921
Si Si6 0.434729 0.720268 0.502220
Si Si7 0.628946 0.745660 0.874934
Si Si8 0.932874 0.976787 0.642383
O O1 0.505879 0.162337 0.643926
O O2 0.528248 0.391184 0.736582
O O3 0.631051 0.203787 0.978384
O O4 0.450862 0.255730 0.848203
O O5 0.304665 0.713139 0.702631
O O6 0.396479 0.912488 0.807060
O O7 0.371130 0.815457 0.530401
O O8 0.201328 0.863256 0.490771
O O9 0.239969 0.508619 0.175539
O O10 0.351106 0.389526 0.488549
O O11 0.419490 0.459569 0.284262
O O12 0.184324 0.666323 0.313459
O O13 0.057666 0.530835 0.052512
O O14 0.073319 0.681263 0.448744
O O15 0.540588 0.706773 0.683211
O O16 0.401287 0.585021 0.501553
#
# Coordination Sequence:
#
# PCOD9135194 Si02
#       8
#     4   4   4   4   4   4   4   4
#     4  11  23  39  61  95 126 171 208 265 322 385
#     4  10  20  38  60  92 123 166 207 261 323 378
#     4  11  21  35  64  97 121 160 211 276 316 381
#     4  11  23  39  63  93 130 166 213 268 322 380
#     4  11  22  37  60  90 130 164 211 268 318 377
#     4   9  21  38  60  87 126 167 207 262 319 377
#     4  10  21  38  60  87 124 169 211 254 317 386
#     4  11  21  38  64  93 128 159 212 266 329 374
#
# _framework density 23.248145000000001
#
# number of rings (size 3 to 8) (size 9 to 14) (size 15 to 20)
#    0.000    1.500    3.750    2.250    1.750    0.000 
#    0.000    0.000    2.750    6.000    0.000    0.000 
#    0.000    0.000    0.000    0.000    0.000    0.000 
#
# Total GULP energy -89101.487492 kJ/mol
# GULP energy per Si atom -5568.842968 kJ/mol
# Density = 2.319523 g / cm^3
# Si number density = 23.248145 Si / 1000 Ang^3
#
#
#
# Elastic Constant Matrix: (Units=GPa)
#
#
# Indices 1 2 3 4 5 6 
#
# 1 45.6861 2.6589 31.2698 0.0000 15.6704 0.0000
# 2 2.6589 42.6882 12.4144 0.0000 14.9516 0.0000
# 3 31.2698 12.4144 125.6406 0.0000 -2.8330 0.0000
# 4 0.0000 0.0000 0.0000 30.7728 0.0000 7.6882
# 5 15.6704 14.9516 -2.8330 0.0000 42.2486 0.0000
# 6 0.0000 0.0000 0.0000 7.6882 0.0000 32.3435
#
#
#
# Elastic Compliance Matrix: (Units=1/GPa)
#
#
# Indices 1 2 3 4 5 6 
#
# 1 0.032864 0.005797 -0.009087 0.000000 -0.014851 0.000000
# 2 0.005797 0.028830 -0.004577 0.000000 -0.012660 0.000000
# 3 -0.009087 -0.004577 0.010802 0.000000 0.005715 0.000000
# 4 0.000000 0.000000 0.000000 0.034548 0.000000 -0.008212
# 5 -0.014851 -0.012660 0.005715 0.000000 0.034041 0.000000
# 6 0.000000 0.000000 0.000000 -0.008212 0.000000 0.032870
#
#
# Mechanical properties :
#
#
# Convention : Reuss Voigt Hill
#
# Bulk Modulus (GPa) = 17.61730 34.07791 25.84760
# Shear Modulus (GPa) = 23.96819 32.25112 28.10965
#
# Velocity S-wave (km/s) = 3.21436 3.72863 3.48100
# Velocity P-wave (km/s) = 4.62283 5.76429 5.22482
#
# Compressibility (1/GPa) = 0.05676238
#
# Stress axis : x y z
#
# Youngs Moduli (GPa) = 30.42800 34.68638 92.57611
#
# Poissons Ratio (x) = -0.20108 0.84125
# Poissons Ratio (y) = -0.17639 0.42371
# Poissons Ratio (z) = 0.27650 0.15876
#
# Static dielectric constant tensor:
#      x y z
#    x 1.992640 0.000000 0.044630 
#    y 0.000000 2.102680 0.000000 
#    z 0.044630 0.000000 2.026450 
# 
# From -- ./inp_files/10754.got.cif
#   From: 2010.05.17/outbox.cif.g08.bks.cpg/sg9_6_cif.got.tgz:10754.got - 2010.06.03 20:04:27.
