data_PCOD9135958
_publ_section_title
;
Structure prediction by ZEFSAII (Michael W. Deem and Ramdas Pophale) SiO2 
 PCOD9135958
Probable space group: C C
;
_chemical_formula_sum "Si O2"
_cell_formula_units_Z 32
_cell_length_a 12.368380
_cell_length_b 13.408301
_cell_length_c 8.508621
_cell_angle_alpha 90.000000
_cell_angle_beta 103.392138
_cell_angle_gamma 90.000000
_cell_volume 1372.690840
_symmetry_space_group_name_H-M "C C"
_symmetry_group_IT_number 9
_symmetry_cell_setting 'monoclinic'
loop_
_space_group_symop_operation_xyz
x,y,z
x,-y,1/2+z
1/2+x,1/2+y,z
1/2+x,1/2-y,1/2+z
loop_
_atom_site_type_symbol
_atom_site_label
_atom_site_fract_x
_atom_site_fract_y
_atom_site_fract_z
Si Si1 0.768330 0.370824 0.684650
Si Si2 0.009533 0.618106 0.233466
Si Si3 0.959262 0.712598 0.907914
Si Si4 0.279097 0.470771 0.084898
Si Si5 0.663485 0.499149 0.404915
Si Si6 0.632115 0.912936 0.329745
Si Si7 0.516901 0.586081 0.613205
Si Si8 0.729441 0.778517 0.894015
O O1 0.758719 0.461401 0.554332
O O2 0.697809 0.407115 0.809761
O O3 0.731187 0.279007 0.562554
O O4 0.894652 0.354990 0.779675
O O5 0.976831 0.623657 0.039316
O O6 0.052375 0.509828 0.295863
O O7 0.105871 0.698320 0.296056
O O8 0.988018 0.809450 0.022378
O O9 0.052499 0.683603 0.812400
O O10 0.828550 0.726899 0.825757
O O11 0.209652 0.423846 0.203609
O O12 0.410581 0.467976 0.155869
O O13 0.216784 0.570726 0.005744
O O14 0.269340 0.392532 0.937770
O O15 0.562197 0.520924 0.485705
O O16 0.618455 0.414582 0.271266
#
# Coordination Sequence:
#
# PCOD9135958 Si02
#       8
#     4   4   4   4   4   4   4   4
#     4  10  22  37  64  92 126 170 220 264 331 392
#     4  10  21  39  64  90 132 169 215 276 333 386
#     4  10  21  38  62  91 130 172 216 269 329 392
#     4  10  21  37  63  91 128 170 219 271 325 386
#     4  10  22  39  63  92 130 172 222 268 334 398
#     4  11  21  37  62  97 128 169 223 270 329 391
#     4  10  21  41  65  90 133 177 219 277 330 396
#     4   9  21  38  61  89 129 169 208 271 329 383
#
# _framework density 23.311876999999999
#
# number of rings (size 3 to 8) (size 9 to 14) (size 15 to 20)
#    0.000    2.000    1.250    1.500    5.250    0.000 
#    0.000    0.000    0.000    0.000    0.000    0.000 
#    0.000    0.000    0.000    0.000    0.000    0.000 
#
# Total GULP energy -89195.306169 kJ/mol
# GULP energy per Si atom -5574.706636 kJ/mol
# Density = 2.325882 g / cm^3
# Si number density = 23.311877 Si / 1000 Ang^3
#
#
#
# Elastic Constant Matrix: (Units=GPa)
#
#
# Indices 1 2 3 4 5 6 
#
# 1 191.7778 40.2068 49.9956 0.0000 -2.9518 0.0000
# 2 40.2068 66.4084 9.0983 0.0000 -1.6238 0.0000
# 3 49.9956 9.0983 50.7387 0.0000 -6.2881 0.0000
# 4 0.0000 0.0000 0.0000 19.2796 0.0000 -8.7862
# 5 -2.9518 -1.6238 -6.2881 0.0000 36.7162 0.0000
# 6 0.0000 0.0000 0.0000 -8.7862 0.0000 33.3870
#
#
#
# Elastic Compliance Matrix: (Units=1/GPa)
#
#
# Indices 1 2 3 4 5 6 
#
# 1 0.007867 -0.003800 -0.007165 0.000000 -0.000763 0.000000
# 2 -0.003800 0.017275 0.000719 0.000000 0.000582 0.000000
# 3 -0.007165 0.000719 0.027149 0.000000 0.004105 0.000000
# 4 0.000000 0.000000 0.000000 0.058937 0.000000 0.015510
# 5 -0.000763 0.000582 0.004105 0.000000 0.027903 0.000000
# 6 0.000000 0.000000 0.000000 0.015510 0.000000 0.034033
#
#
# Mechanical properties :
#
#
# Convention : Reuss Voigt Hill
#
# Bulk Modulus (GPa) = 31.44827 56.39183 43.92005
# Shear Modulus (GPa) = 24.47901 31.85150 28.16526
#
# Velocity S-wave (km/s) = 3.24399 3.70039 3.47968
# Velocity P-wave (km/s) = 5.24889 6.51919 5.91822
#
# Compressibility (1/GPa) = 0.03179826
#
# Stress axis : x y z
#
# Youngs Moduli (GPa) = 127.10887 57.88753 36.83395
#
# Poissons Ratio (x) = 0.21998 0.26392
# Poissons Ratio (y) = 0.48304 -0.02648
# Poissons Ratio (z) = 0.91075 -0.04162
#
# Static dielectric constant tensor:
#      x y z
#    x 1.969650 0.000000 0.008710 
#    y 0.000000 1.954370 0.000000 
#    z 0.008710 0.000000 1.921480 
# 
# From -- ./inp_files/7613.got.cif
#   From: 2010.05.17/outbox.cif.g08.bks.cpg/sg9_4_cif.got.tgz:7613.got - 2010.06.03 20:04:27.
