data_PCOD9135263
_publ_section_title
;
Structure prediction by ZEFSAII (Michael W. Deem and Ramdas Pophale) SiO2 
 PCOD9135263
Probable space group: C C
;
_chemical_formula_sum "Si O2"
_cell_formula_units_Z 28
_cell_length_a 19.220135
_cell_length_b 6.933396
_cell_length_c 22.981871
_cell_angle_alpha 90.000000
_cell_angle_beta 24.296126
_cell_angle_gamma 90.000000
_cell_volume 1260.108016
_symmetry_space_group_name_H-M "C C"
_symmetry_group_IT_number 9
_symmetry_cell_setting 'monoclinic'
loop_
_space_group_symop_operation_xyz
x,y,z
x,-y,1/2+z
1/2+x,1/2+y,z
1/2+x,1/2-y,1/2+z
loop_
_atom_site_type_symbol
_atom_site_label
_atom_site_fract_x
_atom_site_fract_y
_atom_site_fract_z
Si Si1 0.326540 0.186837 0.474810
Si Si2 0.935104 0.663994 0.674101
Si Si3 0.059717 0.870562 0.686168
Si Si4 0.833262 0.907709 0.035234
Si Si5 0.122337 0.395420 0.921819
Si Si6 0.231800 0.574348 0.947204
Si Si7 0.102962 0.584600 0.811206
O O1 0.344676 0.380294 0.499065
O O2 0.297065 0.242472 0.430454
O O3 0.164231 0.064251 0.617776
O O4 0.487098 0.051801 0.359547
O O5 0.741445 0.707379 0.831982
O O6 0.031363 0.825870 0.639389
O O7 0.964610 0.662103 0.582254
O O8 0.041723 0.477549 0.613084
O O9 0.174403 0.705093 0.626925
O O10 0.870759 0.905962 0.854910
O O11 0.782673 0.903347 0.142069
O O12 0.003700 0.786699 0.893399
O O13 0.212500 0.561220 0.892678
O O14 0.101180 0.479083 0.874648
#
# Coordination Sequence:
#
# PCOD9135263 Si02
#       7
#     4   4   4   4   4   4   4
#     4  11  22  38  68 103 126 171 223 273 329 401
#     4   9  19  39  68  83 135 163 209 273 327 380
#     4  10  20  38  66  96 130 166 213 269 338 379
#     4  11  23  42  64  96 135 171 215 278 323 397
#     4   9  21  42  62  95 125 177 216 264 333 397
#     4   9  19  40  61  94 129 161 217 268 322 390
#     4  11  26  43  67  93 136 181 219 273 340 392
#
# _framework density 22.220316
#
# number of rings (size 3 to 8) (size 9 to 14) (size 15 to 20)
#    0.857    1.143    1.429    1.714    4.000    1.143 
#    7.714    0.000    0.000    0.000    0.000    0.000 
#    0.000    0.000    0.000    0.000    0.000    0.000 
#
# Total GULP energy -77989.832634 kJ/mol
# GULP energy per Si atom -5570.702331 kJ/mol
# Density = 2.216974 g / cm^3
# Si number density = 22.220316 Si / 1000 Ang^3
#
#
#
# Elastic Constant Matrix: (Units=GPa)
#
#
# Indices 1 2 3 4 5 6 
#
# 1 52.5475 3.7609 -10.8354 -0.0007 18.3451 0.0006
# 2 3.7609 70.1579 7.0124 -0.0014 3.3612 0.0019
# 3 -10.8354 7.0124 46.6042 -0.0005 15.1435 0.0004
# 4 -0.0007 -0.0014 -0.0005 18.5330 0.0001 7.5989
# 5 18.3451 3.3612 15.1435 0.0001 27.5383 -0.0001
# 6 0.0006 0.0019 0.0004 7.5989 -0.0001 30.7735
#
#
#
# Elastic Compliance Matrix: (Units=1/GPa)
#
#
# Indices 1 2 3 4 5 6 
#
# 1 0.034946 -0.002199 0.019399 0.000002 -0.033679 -0.000001
# 2 -0.002199 0.014620 -0.003174 0.000001 0.001426 -0.000001
# 3 0.019399 -0.003174 0.037158 0.000002 -0.032969 -0.000001
# 4 0.000002 0.000001 0.000002 0.060036 -0.000003 -0.014825
# 5 -0.033679 0.001426 -0.032969 -0.000003 0.076705 0.000002
# 6 -0.000001 -0.000001 -0.000001 -0.014825 0.000002 0.036156
#
#
# Mechanical properties :
#
#
# Convention : Reuss Voigt Hill
#
# Bulk Modulus (GPa) = 8.71256 18.79838 13.75547
# Shear Modulus (GPa) = 18.53027 26.66039 22.59533
#
# Velocity S-wave (km/s) = 2.89092 3.46760 3.19231
# Velocity P-wave (km/s) = 3.88236 4.95083 4.44879
#
# Compressibility (1/GPa) = 0.11477679
#
# Stress axis : x y z
#
# Youngs Moduli (GPa) = 28.61573 68.39752 26.91193
#
# Poissons Ratio (x) = 0.15039 -0.52207
# Poissons Ratio (y) = 0.06292 0.08543
# Poissons Ratio (z) = -0.55513 0.21712
#
# Static dielectric constant tensor:
#      x y z
#    x 1.840560 0.000000 0.020210 
#    y 0.000000 1.800710 0.000000 
#    z 0.020210 0.000000 1.862200 
# 
# From -- ./inp_files/19576.got.cif
#   From: 2010.05.17/outbox.cif.g08.bks.cpg/sg9_10_cif.got.tgz:19576.got - 2010.06.03 20:04:27.
