data_PCOD9135070
_publ_section_title
;
Structure prediction by ZEFSAII (Michael W. Deem and Ramdas Pophale) SiO2 
 PCOD9135070
Probable space group: C C
;
_chemical_formula_sum "Si O2"
_cell_formula_units_Z 28
_cell_length_a 5.327609
_cell_length_b 18.865922
_cell_length_c 12.547456
_cell_angle_alpha 90.000000
_cell_angle_beta 60.681730
_cell_angle_gamma 90.000000
_cell_volume 1099.611572
_symmetry_space_group_name_H-M "C C"
_symmetry_group_IT_number 9
_symmetry_cell_setting 'monoclinic'
loop_
_space_group_symop_operation_xyz
x,y,z
x,-y,1/2+z
1/2+x,1/2+y,z
1/2+x,1/2-y,1/2+z
loop_
_atom_site_type_symbol
_atom_site_label
_atom_site_fract_x
_atom_site_fract_y
_atom_site_fract_z
Si Si1 0.041820 0.265666 0.632310
Si Si2 0.174923 0.784289 0.304143
Si Si3 0.744199 0.453393 0.592194
Si Si4 0.915477 0.075330 0.946005
Si Si5 0.624859 0.737102 0.049242
Si Si6 0.226177 0.891263 0.013250
Si Si7 0.901317 0.078326 0.362041
O O1 0.956656 0.260268 0.773338
O O2 0.340608 0.307599 0.580307
O O3 0.134149 0.184508 0.581892
O O4 0.874848 0.293804 0.567127
O O5 0.474372 0.786852 0.173642
O O6 0.232154 0.748478 0.407060
O O7 0.025244 0.858926 0.353018
O O8 0.646777 0.431347 0.493833
O O9 0.674826 0.538675 0.597072
O O10 0.561342 0.410419 0.717705
O O11 0.079283 0.437656 0.547921
O O12 0.942164 0.005510 0.867751
O O13 0.569622 0.898306 0.924121
O O14 0.050560 0.893605 0.938918
#
# Coordination Sequence:
#
# PCOD9135070 Si02
#       7
#     4   4   4   4   4   4   4
#     4  10  23  42  68  94 125 172 218 270 333 401
#     4  10  25  46  68  96 129 174 222 285 333 400
#     4  10  21  37  58  96 128 171 209 266 315 394
#     4  10  22  37  63  89 129 170 216 257 333 392
#     4  10  25  41  71  94 128 167 231 275 338 382
#     4  10  20  38  62  90 131 167 217 256 323 399
#     4  10  20  37  58  93 134 169 209 265 315 392
#
# _framework density 25.463536999999999
#
# number of rings (size 3 to 8) (size 9 to 14) (size 15 to 20)
#    0.857    1.143    0.000    2.571    4.000    0.000 
#   10.286    0.000    0.000    0.000    0.000    0.000 
#    0.000    0.000    0.000    0.000    0.000    0.000 
#
# Total GULP energy -78004.602419 kJ/mol
# GULP energy per Si atom -5571.757316 kJ/mol
# Density = 2.540558 g / cm^3
# Si number density = 25.463537 Si / 1000 Ang^3
#
#
#
# Elastic Constant Matrix: (Units=GPa)
#
#
# Indices 1 2 3 4 5 6 
#
# 1 163.7397 -22.6196 46.7427 0.0000 34.7787 0.0000
# 2 -22.6196 78.8959 16.2305 0.0000 -1.3002 0.0000
# 3 46.7427 16.2305 153.3303 0.0000 26.6120 0.0000
# 4 0.0000 0.0000 0.0000 38.5966 0.0000 -2.5829
# 5 34.7787 -1.3002 26.6120 0.0000 33.7139 0.0000
# 6 0.0000 0.0000 0.0000 -2.5829 0.0000 29.4440
#
#
#
# Elastic Compliance Matrix: (Units=1/GPa)
#
#
# Indices 1 2 3 4 5 6 
#
# 1 0.008499 0.002640 -0.001583 0.000000 -0.007416 0.000000
# 2 0.002640 0.013876 -0.002194 0.000000 -0.000456 0.000000
# 3 -0.001583 -0.002194 0.008074 0.000000 -0.004825 0.000000
# 4 0.000000 0.000000 0.000000 0.026062 0.000000 0.002286
# 5 -0.007416 -0.000456 -0.004825 0.000000 0.041102 0.000000
# 6 0.000000 0.000000 0.000000 0.002286 0.000000 0.034163
#
#
# Mechanical properties :
#
#
# Convention : Reuss Voigt Hill
#
# Bulk Modulus (GPa) = 35.49369 52.96368 44.22868
# Shear Modulus (GPa) = 34.85698 44.05839 39.45769
#
# Velocity S-wave (km/s) = 3.70388 4.16415 3.94074
# Velocity P-wave (km/s) = 5.67987 6.63062 6.17357
#
# Compressibility (1/GPa) = 0.02817403
#
# Stress axis : x y z
#
# Youngs Moduli (GPa) = 117.65883 72.06781 123.85124
#
# Poissons Ratio (x) = -0.19028 0.19610
# Poissons Ratio (y) = -0.31065 0.27179
# Poissons Ratio (z) = 0.18629 0.15815
#
# Static dielectric constant tensor:
#      x y z
#    x 2.148600 0.000000 -0.002510 
#    y 0.000000 2.140840 0.000000 
#    z -0.002510 0.000000 2.059970 
# 
# From -- ./inp_files/13598.got.cif
#   From: 2010.05.17/outbox.cif.g08.bks.cpg/sg9_7_cif.got.tgz:13598.got - 2010.06.03 20:04:27.
