data_PCOD9135326
_publ_section_title
;
Structure prediction by ZEFSAII (Michael W. Deem and Ramdas Pophale) SiO2 
 PCOD9135326
Probable space group: C C
;
_chemical_formula_sum "Si O2"
_cell_formula_units_Z 32
_cell_length_a 11.751461
_cell_length_b 14.576677
_cell_length_c 17.903405
_cell_angle_alpha 90.000000
_cell_angle_beta 152.723223
_cell_angle_gamma 90.000000
_cell_volume 1405.483624
_symmetry_space_group_name_H-M "C C"
_symmetry_group_IT_number 9
_symmetry_cell_setting 'monoclinic'
loop_
_space_group_symop_operation_xyz
x,y,z
x,-y,1/2+z
1/2+x,1/2+y,z
1/2+x,1/2-y,1/2+z
loop_
_atom_site_type_symbol
_atom_site_label
_atom_site_fract_x
_atom_site_fract_y
_atom_site_fract_z
Si Si1 0.340850 0.456448 0.231880
Si Si2 0.860187 0.143180 0.898751
Si Si3 0.130796 0.319892 0.988190
Si Si4 0.821479 0.434924 0.421998
Si Si5 0.975884 0.204452 0.224104
Si Si6 0.452819 0.721567 0.372954
Si Si7 0.654636 0.563760 0.204753
Si Si8 0.928931 0.777777 0.014730
O O1 0.319912 0.419353 0.303438
O O2 0.269760 0.374214 0.134063
O O3 0.627101 0.473168 0.371696
O O4 0.106241 0.526652 0.088541
O O5 0.626362 0.201561 0.794156
O O6 0.037777 0.225262 0.971389
O O7 0.972439 0.080162 0.029706
O O8 0.285755 0.305074 0.004649
O O9 0.909630 0.386318 0.832920
O O10 0.707887 0.467339 0.275794
O O11 0.843264 0.326555 0.446939
O O12 0.027390 0.173874 0.339066
O O13 0.061973 0.126770 0.218591
O O14 0.690170 0.221303 0.037472
O O15 0.216768 0.776984 0.205590
O O16 0.383450 0.669714 0.409468
#
# Coordination Sequence:
#
# PCOD9135326 Si02
#       8
#     4   4   4   4   4   4   4   4
#     4  11  25  43  70 101 136 186 223 289 352 420
#     4  11  21  39  71  96 125 171 241 287 323 399
#     4  10  21  41  70 101 126 168 244 284 331 395
#     4  11  26  44  65  93 142 187 217 272 362 417
#     4  10  20  39  64 101 127 167 229 287 337 399
#     4  10  23  36  64 100 130 171 217 289 338 400
#     4  10  23  40  69  94 133 176 224 286 337 412
#     4  11  23  42  67  98 137 178 227 286 344 410
#
# _framework density 22.767963000000002
#
# number of rings (size 3 to 8) (size 9 to 14) (size 15 to 20)
#    0.000    1.500    2.500    2.250    8.750    0.000 
#    0.000    7.500    0.000    0.000    0.000    0.000 
#    0.000    0.000    0.000    0.000    0.000    0.000 
#
# Total GULP energy -89319.602225 kJ/mol
# GULP energy per Si atom -5582.475139 kJ/mol
# Density = 2.271614 g / cm^3
# Si number density = 22.767963 Si / 1000 Ang^3
#
#
#
# Elastic Constant Matrix: (Units=GPa)
#
#
# Indices 1 2 3 4 5 6 
#
# 1 136.8694 24.6232 68.7143 0.0018 -20.8554 0.0014
# 2 24.6232 69.4449 36.4800 0.0100 -10.3078 0.0015
# 3 68.7143 36.4800 120.5541 0.0122 -19.7039 0.0025
# 4 0.0018 0.0100 0.0122 6.1413 0.0015 -5.0672
# 5 -20.8554 -10.3078 -19.7039 0.0015 58.8751 -0.0006
# 6 0.0014 0.0015 0.0025 -5.0672 -0.0006 7.1177
#
#
#
# Elastic Compliance Matrix: (Units=1/GPa)
#
#
# Indices 1 2 3 4 5 6 
#
# 1 0.010430 -0.000553 -0.005490 0.000020 0.001761 0.000014
# 2 -0.000553 0.017251 -0.004700 -0.000049 0.001251 -0.000037
# 3 -0.005490 -0.004700 0.013111 -0.000046 0.001620 -0.000035
# 4 0.000020 -0.000049 -0.000046 0.394648 -0.000024 0.280956
# 5 0.001761 0.001251 0.001620 -0.000024 0.018370 -0.000017
# 6 0.000014 -0.000037 -0.000035 0.280956 -0.000017 0.340511
#
#
# Mechanical properties :
#
#
# Convention : Reuss Voigt Hill
#
# Bulk Modulus (GPa) = 51.79817 65.16703 58.48260
# Shear Modulus (GPa) = 6.08092 27.56356 16.82224
#
# Velocity S-wave (km/s) = 1.63604 3.48318 2.72114
# Velocity P-wave (km/s) = 5.13504 6.69785 5.96782
#
# Compressibility (1/GPa) = 0.01930570
#
# Stress axis : x y z
#
# Youngs Moduli (GPa) = 95.87550 57.96794 76.26912
#
# Poissons Ratio (x) = 0.03206 0.41872
# Poissons Ratio (y) = 0.05302 0.35850
# Poissons Ratio (z) = 0.52636 0.27248
#
# Static dielectric constant tensor:
#      x y z
#    x 2.007310 0.000000 0.046650 
#    y 0.000000 1.888950 0.000000 
#    z 0.046650 0.000000 1.855410 
# 
# From -- ./inp_files/7417.got.cif
#   From: 2010.05.17/outbox.cif.g08.bks.cpg/sg9_4_cif.got.tgz:7417.got - 2010.06.03 20:04:27.
