data_PCOD9135170
_publ_section_title
;
Structure prediction by ZEFSAII (Michael W. Deem and Ramdas Pophale) SiO2 
 PCOD9135170
Probable space group: C C
;
_chemical_formula_sum "Si O2"
_cell_formula_units_Z 28
_cell_length_a 7.236146
_cell_length_b 15.649418
_cell_length_c 9.757566
_cell_angle_alpha 90.000000
_cell_angle_beta 111.358375
_cell_angle_gamma 90.000000
_cell_volume 1029.073138
_symmetry_space_group_name_H-M "C C"
_symmetry_group_IT_number 9
_symmetry_cell_setting 'monoclinic'
loop_
_space_group_symop_operation_xyz
x,y,z
x,-y,1/2+z
1/2+x,1/2+y,z
1/2+x,1/2-y,1/2+z
loop_
_atom_site_type_symbol
_atom_site_label
_atom_site_fract_x
_atom_site_fract_y
_atom_site_fract_z
Si Si1 0.110970 0.534960 0.595590
Si Si2 0.785237 0.374566 0.832064
Si Si3 0.525201 0.498313 0.583870
Si Si4 0.152426 0.898922 0.359232
Si Si5 0.259645 0.300073 0.254088
Si Si6 0.668449 0.149489 0.245626
Si Si7 0.913762 0.251814 0.507147
O O1 0.296489 0.526347 0.539263
O O2 0.139037 0.611566 0.712889
O O3 0.148861 0.444702 0.678806
O O4 0.905773 0.560980 0.465540
O O5 0.608619 0.418737 0.697910
O O6 0.710150 0.277796 0.841087
O O7 0.971658 0.350784 0.785722
O O8 0.586296 0.473134 0.447836
O O9 0.637932 0.572610 0.697771
O O10 0.349090 0.846058 0.438120
O O11 0.980017 0.831565 0.343604
O O12 0.269617 0.271122 0.097538
O O13 0.857476 0.178359 0.384628
O O14 0.629153 0.226374 0.126526
#
# Coordination Sequence:
#
# PCOD9135170 Si02
#       7
#     4   4   4   4   4   4   4
#     4  11  25  42  69 108 139 182 240 307 357 419
#     4  11  22  42  70 100 136 190 237 293 357 438
#     4  11  26  41  71 103 143 182 241 300 362 426
#     4  11  21  41  67 105 136 185 236 293 355 434
#     4  10  20  37  71  96 134 183 240 275 355 444
#     4  11  23  41  74  98 140 188 253 290 357 436
#     4  11  19  42  72  96 134 198 241 282 357 453
#
# _framework density 27.208950000000002
#
# number of rings (size 3 to 8) (size 9 to 14) (size 15 to 20)
#    0.000    1.143    7.143    0.857    4.000    0.000 
#    0.000    1.429    3.143    0.000    0.000    0.000 
#    0.000    0.000    0.000    0.000    0.000    0.000 
#
# Total GULP energy -78122.881988 kJ/mol
# GULP energy per Si atom -5580.205856 kJ/mol
# Density = 2.714702 g / cm^3
# Si number density = 27.208950 Si / 1000 Ang^3
#
#
#
# Elastic Constant Matrix: (Units=GPa)
#
#
# Indices 1 2 3 4 5 6 
#
# 1 60.2947 58.2846 31.8929 0.0000 -0.2005 0.0000
# 2 58.2846 178.2485 65.5507 0.0000 1.3248 0.0000
# 3 31.8929 65.5507 137.2684 0.0000 12.8301 0.0000
# 4 0.0000 0.0000 0.0000 70.8879 0.0000 -1.7157
# 5 -0.2005 1.3248 12.8301 0.0000 27.3309 0.0000
# 6 0.0000 0.0000 0.0000 -1.7157 0.0000 29.0991
#
#
#
# Elastic Compliance Matrix: (Units=1/GPa)
#
#
# Indices 1 2 3 4 5 6 
#
# 1 0.024907 -0.007242 -0.002488 0.000000 0.001702 0.000000
# 2 -0.007242 0.008952 -0.002664 0.000000 0.000763 0.000000
# 3 -0.002488 -0.002664 0.009543 0.000000 -0.004369 0.000000
# 4 0.000000 0.000000 0.000000 0.014127 0.000000 0.000833
# 5 0.001702 0.000763 -0.004369 0.000000 0.038615 0.000000
# 6 0.000000 0.000000 0.000000 0.000833 0.000000 0.034414
#
#
# Mechanical properties :
#
#
# Convention : Reuss Voigt Hill
#
# Bulk Modulus (GPa) = 53.71735 76.36310 65.04022
# Shear Modulus (GPa) = 30.94984 40.13580 35.54282
#
# Velocity S-wave (km/s) = 3.37632 3.84486 3.61819
# Velocity P-wave (km/s) = 5.91480 6.91643 6.43513
#
# Compressibility (1/GPa) = 0.01861596
#
# Stress axis : x y z
#
# Youngs Moduli (GPa) = 40.14861 111.70537 104.78504
#
# Poissons Ratio (x) = 0.80899 0.26067
# Poissons Ratio (y) = 0.29076 0.27911
# Poissons Ratio (z) = 0.09987 0.29755
#
# Static dielectric constant tensor:
#      x y z
#    x 2.206560 0.000000 -0.038510 
#    y 0.000000 2.371530 0.000000 
#    z -0.038510 0.000000 2.224090 
# 
# From -- ./inp_files/14689.got.cif
#   From: 2010.05.17/outbox.cif.g08.bks.cpg/sg9_8_cif.got.tgz:14689.got - 2010.06.03 20:04:27.
