data_PCOD9135901
_publ_section_title
;
Structure prediction by ZEFSAII (Michael W. Deem and Ramdas Pophale) SiO2 
 PCOD9135901
Probable space group: C C
;
_chemical_formula_sum "Si O2"
_cell_formula_units_Z 32
_cell_length_a 11.849274
_cell_length_b 19.394466
_cell_length_c 5.803635
_cell_angle_alpha 90.000000
_cell_angle_beta 100.841445
_cell_angle_gamma 90.000000
_cell_volume 1309.930102
_symmetry_space_group_name_H-M "C C"
_symmetry_group_IT_number 9
_symmetry_cell_setting 'monoclinic'
loop_
_space_group_symop_operation_xyz
x,y,z
x,-y,1/2+z
1/2+x,1/2+y,z
1/2+x,1/2-y,1/2+z
loop_
_atom_site_type_symbol
_atom_site_label
_atom_site_fract_x
_atom_site_fract_y
_atom_site_fract_z
Si Si1 0.716030 0.615310 0.981430
Si Si2 0.606053 0.146075 0.684559
Si Si3 0.415559 0.201292 0.915596
Si Si4 0.312106 0.425854 0.326886
Si Si5 0.897575 0.916704 0.863072
Si Si6 0.669345 0.398529 0.947956
Si Si7 0.287034 0.251979 0.483002
Si Si8 0.037302 0.240073 0.843308
O O1 0.840142 0.651877 0.044401
O O2 0.709446 0.582097 0.723256
O O3 0.616100 0.675050 0.934119
O O4 0.698226 0.570766 0.204580
O O5 0.484667 0.153077 0.764577
O O6 0.674001 0.074671 0.731118
O O7 0.590497 0.186150 0.439412
O O8 0.697157 0.195310 0.848220
O O9 0.322080 0.250965 0.763354
O O10 0.508743 0.250177 0.066733
O O11 0.344846 0.395513 0.592879
O O12 0.366643 0.501761 0.356431
O O13 0.356750 0.392011 0.102897
O O14 0.032321 0.902913 0.903648
O O15 0.727373 0.323037 0.938986
O O16 0.411426 0.261339 0.411481
#
# Coordination Sequence:
#
# PCOD9135901 Si02
#       8
#     4   4   4   4   4   4   4   4
#     4  11  23  37  58  91 130 176 217 252 311 396
#     4  11  23  36  60  90 133 175 212 273 329 389
#     4  10  21  37  54  83 135 179 217 253 313 403
#     4  10  24  44  63 100 121 166 221 284 334 380
#     4  10  23  44  69  90 131 161 222 280 334 383
#     4  11  21  40  59  93 122 178 206 269 323 387
#     4  10  22  36  53  91 134 175 214 251 324 402
#     4  11  21  36  54  86 136 176 215 254 312 410
#
# _framework density 24.428782999999999
#
# number of rings (size 3 to 8) (size 9 to 14) (size 15 to 20)
#    0.000    1.500    2.500    2.250    7.000    0.000 
#    2.250    0.000    0.000    0.000    0.000   91.000 
#    0.000    0.000    0.000    0.000    0.000    0.000 
#
# Total GULP energy -89229.777488 kJ/mol
# GULP energy per Si atom -5576.861093 kJ/mol
# Density = 2.437318 g / cm^3
# Si number density = 24.428783 Si / 1000 Ang^3
#
#
#
# Elastic Constant Matrix: (Units=GPa)
#
#
# Indices 1 2 3 4 5 6 
#
# 1 120.0775 31.7837 18.5167 0.0000 -11.8753 0.0000
# 2 31.7837 77.5051 20.7433 0.0000 5.8631 0.0000
# 3 18.5167 20.7433 176.0088 0.0000 -8.9570 0.0000
# 4 0.0000 0.0000 0.0000 -3.2943 0.0000 4.5917
# 5 -11.8753 5.8631 -8.9570 0.0000 53.8013 0.0000
# 6 0.0000 0.0000 0.0000 4.5917 0.0000 14.8517
#
#
#
# Elastic Compliance Matrix: (Units=1/GPa)
#
#
# Indices 1 2 3 4 5 6 
#
# 1 0.009717 -0.004064 -0.000415 0.000000 0.002519 0.000000
# 2 -0.004064 0.015184 -0.001504 0.000000 -0.002802 0.000000
# 3 -0.000415 -0.001504 0.005957 0.000000 0.001064 0.000000
# 4 0.000000 0.000000 0.000000 -0.212141 0.000000 0.065587
# 5 0.002519 -0.002802 0.001064 0.000000 0.019625 0.000000
# 6 0.000000 0.000000 0.000000 0.065587 0.000000 0.047055
#
#
# Mechanical properties :
#
#
# Convention : Reuss Voigt Hill
#
# Bulk Modulus (GPa) = 52.93902 57.29762 55.11832
# Shear Modulus (GPa) = -51.89980 33.24160 -9.32910
#
# Velocity S-wave (km/s) = -4.61427 3.69284 -1.95632
# Velocity P-wave (km/s) = 2.58279 6.45668 4.18437
#
# Compressibility (1/GPa) = 0.01888966
#
# Stress axis : x y z
#
# Youngs Moduli (GPa) = 102.91468 65.86034 167.87928
#
# Poissons Ratio (x) = 0.26766 0.06969
# Poissons Ratio (y) = 0.41826 0.25257
# Poissons Ratio (z) = 0.04272 0.09909
#
# Static dielectric constant tensor:
#      x y z
#    x 1.935700 0.000000 -0.042720 
#    y 0.000000 2.051280 0.000000 
#    z -0.042720 0.000000 2.091690 
# 
# From -- ./inp_files/2055.got.cif
#   From: 2010.05.17/outbox.cif.g08.bks.cpg/sg9_2_cif.got.tgz:2055.got - 2010.06.03 20:04:27.
