data_PCOD9135857
_publ_section_title
;
Structure prediction by ZEFSAII (Michael W. Deem and Ramdas Pophale) SiO2 
 PCOD9135857
Probable space group: C C
;
_chemical_formula_sum "Si O2"
_cell_formula_units_Z 28
_cell_length_a 15.890754
_cell_length_b 11.511891
_cell_length_c 10.558659
_cell_angle_alpha 90.000000
_cell_angle_beta 147.100918
_cell_angle_gamma 90.000000
_cell_volume 1049.128089
_symmetry_space_group_name_H-M "C C"
_symmetry_group_IT_number 9
_symmetry_cell_setting 'monoclinic'
loop_
_space_group_symop_operation_xyz
x,y,z
x,-y,1/2+z
1/2+x,1/2+y,z
1/2+x,1/2-y,1/2+z
loop_
_atom_site_type_symbol
_atom_site_label
_atom_site_fract_x
_atom_site_fract_y
_atom_site_fract_z
Si Si1 0.718300 0.918081 0.846330
Si Si2 0.401271 0.407016 0.439771
Si Si3 0.047405 0.334762 0.401684
Si Si4 0.584241 0.581920 0.533212
Si Si5 0.255137 0.834761 0.477859
Si Si6 0.594079 0.169051 0.435777
Si Si7 0.708462 0.330949 0.943765
O O1 0.606692 0.924125 0.581764
O O2 0.852776 0.009288 0.993134
O O3 0.781644 0.785882 0.931455
O O4 0.623558 0.922211 0.856932
O O5 0.449764 0.490715 0.386409
O O6 0.243879 0.339339 0.213569
O O7 0.558663 0.339339 0.665973
O O8 0.020898 0.214120 0.448089
O O9 0.180837 0.295070 0.474119
O O10 0.883878 0.351381 0.125885
O O11 0.678982 0.577789 0.522608
O O12 0.695851 0.575876 0.797779
O O13 0.121704 0.795070 0.405423
O O14 0.418664 0.851380 0.753658
#
# Coordination Sequence:
#
# PCOD9135857 Si02
#       7
#     4   4   4   4   4   4   4
#     4   9  20  36  59  82 102 147 186 233 252 330
#     4  12  22  34  54  86 126 134 174 230 298 306
#     4   9  19  38  63  77 103 145 204 211 265 321
#     4   9  20  36  59  82 102 147 186 233 252 330
#     4   9  19  38  63  77 103 145 204 211 265 321
#     4  10  21  35  60  83 109 149 179 232 265 335
#     4  10  21  35  60  83 109 149 179 232 265 335
#
# _framework density 26.688828000000001
#
# number of rings (size 3 to 8) (size 9 to 14) (size 15 to 20)
#    1.714    0.571    0.000    3.429    0.000    2.286 
#    0.000    0.000    0.000    0.000    0.000    0.000 
#    0.000    0.000    0.000    0.000    0.000    0.000 
#
# Total GULP energy -78157.302868 kJ/mol
# GULP energy per Si atom -5582.664491 kJ/mol
# Density = 2.662808 g / cm^3
# Si number density = 26.688828 Si / 1000 Ang^3
#
#
#
# Elastic Constant Matrix: (Units=GPa)
#
#
# Indices 1 2 3 4 5 6 
#
# 1 53.9277 9.9780 6.8921 0.0000 13.2132 0.0000
# 2 9.9780 36.0593 23.1346 0.0000 3.0203 0.0000
# 3 6.8921 23.1346 197.0848 0.0000 23.2113 0.0000
# 4 0.0000 0.0000 0.0000 31.9012 0.0000 9.3324
# 5 13.2132 3.0203 23.2113 0.0000 46.9477 0.0000
# 6 0.0000 0.0000 0.0000 9.3324 0.0000 25.2314
#
#
#
# Elastic Compliance Matrix: (Units=1/GPa)
#
#
# Indices 1 2 3 4 5 6 
#
# 1 0.020950 -0.005709 0.000625 0.000000 -0.005838 0.000000
# 2 -0.005709 0.031548 -0.003667 0.000000 0.001390 0.000000
# 3 0.000625 -0.003667 0.005814 0.000000 -0.002815 0.000000
# 4 0.000000 0.000000 0.000000 0.035150 0.000000 -0.013001
# 5 -0.005838 0.001390 -0.002815 0.000000 0.024245 0.000000
# 6 0.000000 0.000000 0.000000 -0.013001 0.000000 0.044442
#
#
# Mechanical properties :
#
#
# Convention : Reuss Voigt Hill
#
# Bulk Modulus (GPa) = 24.50401 40.78681 32.64541
# Shear Modulus (GPa) = 25.87237 37.28719 31.57978
#
# Velocity S-wave (km/s) = 3.11691 3.74185 3.44358
# Velocity P-wave (km/s) = 4.70689 5.82959 5.29806
#
# Compressibility (1/GPa) = 0.04080965
#
# Stress axis : x y z
#
# Youngs Moduli (GPa) = 47.73213 31.69736 171.99683
#
# Poissons Ratio (x) = 0.18097 -0.10752
# Poissons Ratio (y) = 0.27251 0.63078
# Poissons Ratio (z) = -0.02984 0.11625
#
# Static dielectric constant tensor:
#      x y z
#    x 2.069800 0.000000 -0.099810 
#    y 0.000000 2.204000 0.000000 
#    z -0.099810 0.000000 2.094360 
# 
# From -- ./inp_files/27801.got.cif
#   From: 2010.05.17/outbox.cif.g08.bks.cpg/sg9_14_cif.got.tgz:27801.got - 2010.06.03 20:04:27.
