data_PCOD9135161
_publ_section_title
;
Structure prediction by ZEFSAII (Michael W. Deem and Ramdas Pophale) SiO2 
 PCOD9135161
Probable space group: C C
;
_chemical_formula_sum "Si O2"
_cell_formula_units_Z 32
_cell_length_a 9.615542
_cell_length_b 13.863578
_cell_length_c 15.652215
_cell_angle_alpha 90.000000
_cell_angle_beta 140.887741
_cell_angle_gamma 90.000000
_cell_volume 1316.271236
_symmetry_space_group_name_H-M "C C"
_symmetry_group_IT_number 9
_symmetry_cell_setting 'monoclinic'
loop_
_space_group_symop_operation_xyz
x,y,z
x,-y,1/2+z
1/2+x,1/2+y,z
1/2+x,1/2-y,1/2+z
loop_
_atom_site_type_symbol
_atom_site_label
_atom_site_fract_x
_atom_site_fract_y
_atom_site_fract_z
Si Si1 0.405000 0.333819 0.460340
Si Si2 0.142006 0.522438 0.283007
Si Si3 0.577906 0.948092 0.949204
Si Si4 0.711376 0.316842 0.754860
Si Si5 0.253203 0.903972 0.496170
Si Si6 0.304545 0.714658 0.284672
Si Si7 0.112434 0.662771 0.035234
Si Si8 0.434035 0.326492 0.220583
O O1 0.259172 0.421886 0.355624
O O2 0.482361 0.332906 0.595818
O O3 0.270471 0.241293 0.368022
O O4 0.633235 0.348388 0.515990
O O5 0.119250 0.560338 0.368369
O O6 0.288096 0.603441 0.306201
O O7 0.911858 0.518450 0.119612
O O8 0.321163 0.919635 0.828752
O O9 0.730809 0.873730 0.073458
O O10 0.624582 0.054096 0.007171
O O11 0.849092 0.249820 0.751405
O O12 0.426967 0.843578 0.522987
O O13 0.059005 0.912294 0.333215
O O14 0.300856 0.711337 0.180831
O O15 0.519258 0.767455 0.420119
O O16 0.106290 0.774581 0.238138
#
# Coordination Sequence:
#
# PCOD9135161 Si02
#       8
#     4   4   4   4   4   4   4   4
#     4  11  23  39  68  98 127 171 219 272 334 379
#     4  11  23  40  67  96 130 169 216 270 328 392
#     4  12  23  39  65 100 130 164 223 269 328 395
#     4  11  21  38  64  96 129 163 220 279 319 382
#     4   9  21  39  62  96 121 160 217 269 319 376
#     4  10  20  40  63  91 124 170 213 269 322 377
#     4  10  23  38  64  95 129 165 213 272 317 388
#     4  10  20  37  67  96 120 162 219 286 319 363
#
# _framework density 24.311095999999999
#
# number of rings (size 3 to 8) (size 9 to 14) (size 15 to 20)
#    0.000    1.500    3.750    1.500   10.500    3.000 
#    0.000    1.250    2.750    0.000    0.000    0.000 
#    0.000    0.000    0.000    0.000    0.000    0.000 
#
# Total GULP energy -89293.796878 kJ/mol
# GULP energy per Si atom -5580.862305 kJ/mol
# Density = 2.425576 g / cm^3
# Si number density = 24.311096 Si / 1000 Ang^3
#
#
#
# Elastic Constant Matrix: (Units=GPa)
#
#
# Indices 1 2 3 4 5 6 
#
# 1 54.0555 6.4572 28.4813 0.0000 -11.5638 0.0000
# 2 6.4572 75.7136 61.4101 0.0000 -7.2048 0.0000
# 3 28.4813 61.4101 211.1102 0.0001 -27.5568 0.0000
# 4 0.0000 0.0000 0.0001 41.1080 0.0000 -11.6213
# 5 -11.5638 -7.2048 -27.5568 0.0000 43.4138 0.0000
# 6 0.0000 0.0000 0.0000 -11.6213 0.0000 19.5853
#
#
#
# Elastic Compliance Matrix: (Units=1/GPa)
#
#
# Indices 1 2 3 4 5 6 
#
# 1 0.020568 0.000593 -0.002420 0.000000 0.004041 0.000000
# 2 0.000593 0.017308 -0.005146 0.000000 -0.000236 0.000000
# 3 -0.002420 -0.005146 0.006940 0.000000 0.002906 0.000000
# 4 0.000000 0.000000 0.000000 0.029229 0.000000 0.017344
# 5 0.004041 -0.000236 0.002906 0.000000 0.025916 0.000000
# 6 0.000000 0.000000 0.000000 0.017344 0.000000 0.061350
#
#
# Mechanical properties :
#
#
# Convention : Reuss Voigt Hill
#
# Bulk Modulus (GPa) = 32.39279 59.28629 45.83954
# Shear Modulus (GPa) = 26.94745 37.12346 32.03546
#
# Velocity S-wave (km/s) = 3.33294 3.91195 3.63399
# Velocity P-wave (km/s) = 5.30703 6.69656 6.04187
#
# Compressibility (1/GPa) = 0.03087107
#
# Stress axis : x y z
#
# Youngs Moduli (GPa) = 48.61885 57.77629 144.10224
#
# Poissons Ratio (x) = -0.03427 0.34872
# Poissons Ratio (y) = -0.02884 0.74149
# Poissons Ratio (z) = 0.11766 0.29729
#
# Static dielectric constant tensor:
#      x y z
#    x 2.030870 0.000000 0.064410 
#    y 0.000000 1.927930 0.000000 
#    z 0.064410 0.000000 2.018680 
# 
# From -- ./inp_files/7448.got.cif
#   From: 2010.05.17/outbox.cif.g08.bks.cpg/sg9_4_cif.got.tgz:7448.got - 2010.06.03 20:04:27.
