data_PCOD9135756
_publ_section_title
;
Structure prediction by ZEFSAII (Michael W. Deem and Ramdas Pophale) SiO2 
 PCOD9135756
Probable space group: C C
;
_chemical_formula_sum "Si O2"
_cell_formula_units_Z 20
_cell_length_a 9.360221
_cell_length_b 19.675944
_cell_length_c 6.191055
_cell_angle_alpha 90.000000
_cell_angle_beta 45.998922
_cell_angle_gamma 90.000000
_cell_volume 820.186359
_symmetry_space_group_name_H-M "C C"
_symmetry_group_IT_number 9
_symmetry_cell_setting 'monoclinic'
loop_
_space_group_symop_operation_xyz
x,y,z
x,-y,1/2+z
1/2+x,1/2+y,z
1/2+x,1/2-y,1/2+z
loop_
_atom_site_type_symbol
_atom_site_label
_atom_site_fract_x
_atom_site_fract_y
_atom_site_fract_z
Si Si1 0.704150 0.488217 0.360850
Si Si2 0.164045 0.836676 0.535629
Si Si3 0.601747 0.702284 0.677499
Si Si4 0.984180 0.334027 0.547988
Si Si5 0.375457 0.396260 0.186648
O O1 0.789759 0.499244 0.522700
O O2 0.670301 0.408476 0.407116
O O3 0.502008 0.534658 0.570460
O O4 0.371477 0.827203 0.440546
O O5 0.984193 0.850614 0.889173
O O6 0.127730 0.778955 0.398156
O O7 0.586033 0.765848 0.532640
O O8 0.416242 0.651669 0.849893
O O9 0.795404 0.659953 0.402544
O O10 0.142135 0.394814 0.387961
#
# Coordination Sequence:
#
# PCOD9135756 Si02
#       5
#     4   4   4   4   4
#     4  10  20  43  76  99 142 190 238 300 366 432
#     4  10  24  43  71 101 140 193 235 302 366 429
#     4  11  22  43  65  99 144 181 234 299 358 432
#     4  11  24  43  66 105 139 184 245 290 364 441
#     4  10  22  44  68 100 139 186 238 297 364 426
#
# _framework density 24.384702000000001
#
# number of rings (size 3 to 8) (size 9 to 14) (size 15 to 20)
#    0.000    1.600    4.000    0.000    0.000    4.800 
#    0.000   12.000    0.000    0.000    0.000    0.000 
#    0.000    0.000    0.000    0.000    0.000    0.000 
#
# Total GULP energy -55673.747217 kJ/mol
# GULP energy per Si atom -5567.374722 kJ/mol
# Density = 2.432920 g / cm^3
# Si number density = 24.384702 Si / 1000 Ang^3
#
#
#
# Elastic Constant Matrix: (Units=GPa)
#
#
# Indices 1 2 3 4 5 6 
#
# 1 154.5676 40.6165 59.7918 0.0000 11.7894 0.0000
# 2 40.6165 92.6317 28.0912 0.0000 6.5643 0.0000
# 3 59.7918 28.0912 61.7576 0.0000 14.7773 0.0000
# 4 0.0000 0.0000 0.0000 35.9880 0.0000 9.6352
# 5 11.7894 6.5643 14.7773 0.0000 47.3457 0.0000
# 6 0.0000 0.0000 0.0000 9.6352 0.0000 52.1530
#
#
#
# Elastic Compliance Matrix: (Units=1/GPa)
#
#
# Indices 1 2 3 4 5 6 
#
# 1 0.010606 -0.001781 -0.009603 0.000000 0.000603 0.000000
# 2 -0.001781 0.012822 -0.004094 0.000000 -0.000056 0.000000
# 3 -0.009603 -0.004094 0.028794 0.000000 -0.006028 0.000000
# 4 0.000000 0.000000 0.000000 0.029233 0.000000 -0.005401
# 5 0.000603 -0.000056 -0.006028 0.000000 0.022860 0.000000
# 6 0.000000 0.000000 0.000000 -0.005401 0.000000 0.020172
#
#
# Mechanical properties :
#
#
# Convention : Reuss Voigt Hill
#
# Bulk Modulus (GPa) = 47.02333 62.88397 54.95365
# Shear Modulus (GPa) = 30.76280 39.12785 34.94532
#
# Velocity S-wave (km/s) = 3.55570 4.01010 3.78972
# Velocity P-wave (km/s) = 6.01524 6.87644 6.46021
#
# Compressibility (1/GPa) = 0.02126604
#
# Stress axis : x y z
#
# Youngs Moduli (GPa) = 94.28216 77.99059 34.72896
#
# Poissons Ratio (x) = 0.13892 0.33350
# Poissons Ratio (y) = 0.16794 0.14219
# Poissons Ratio (z) = 0.90539 0.31931
#
# Static dielectric constant tensor:
#      x y z
#    x 2.090090 0.000000 0.088910 
#    y 0.000000 1.980560 0.000000 
#    z 0.088910 0.000000 1.977230 
# 
# From -- ./inp_files/640.got.cif
#   From: 2010.05.17/outbox.cif.g08.bks.cpg/sg9_1_cif.got.tgz:640.got - 2010.06.03 20:04:27.
