data_PCOD9135709
_publ_section_title
;
Structure prediction by ZEFSAII (Michael W. Deem and Ramdas Pophale) SiO2 
 PCOD9135709
Probable space group: C C
;
_chemical_formula_sum "Si O2"
_cell_formula_units_Z 32
_cell_length_a 26.146943
_cell_length_b 4.991916
_cell_length_c 13.104334
_cell_angle_alpha 90.000000
_cell_angle_beta 109.056267
_cell_angle_gamma 90.000000
_cell_volume 1616.687644
_symmetry_space_group_name_H-M "C C"
_symmetry_group_IT_number 9
_symmetry_cell_setting 'monoclinic'
loop_
_space_group_symop_operation_xyz
x,y,z
x,-y,1/2+z
1/2+x,1/2+y,z
1/2+x,1/2-y,1/2+z
loop_
_atom_site_type_symbol
_atom_site_label
_atom_site_fract_x
_atom_site_fract_y
_atom_site_fract_z
Si Si1 0.720370 0.815320 0.466490
Si Si2 0.192694 0.204790 0.216663
Si Si3 0.776261 0.302861 0.593608
Si Si4 0.498403 0.063088 0.688151
Si Si5 0.638786 0.800504 0.592998
Si Si6 0.453859 0.695157 0.348050
Si Si7 0.900835 0.658961 0.221355
Si Si8 0.026571 0.084167 0.583382
O O1 0.706120 0.750066 0.342069
O O2 0.758851 0.593489 0.542803
O O3 0.665971 0.819098 0.499563
O O4 0.751754 0.093571 0.497542
O O5 0.244142 0.258917 0.177504
O O6 0.145602 0.407552 0.147904
O O7 0.175037 0.902025 0.183572
O O8 0.839835 0.283084 0.652454
O O9 0.500887 0.185419 0.803657
O O10 0.516769 0.288062 0.620570
O O11 0.435060 0.971297 0.649864
O O12 0.528098 0.789411 0.679852
O O13 0.580546 0.661962 0.557408
O O14 0.430966 0.424614 0.281778
O O15 0.477474 0.647269 0.474536
O O16 0.408226 0.926108 0.311256
#
# Coordination Sequence:
#
# PCOD9135709 Si02
#       8
#     4   4   4   4   4   4   4   4
#     4  10  21  40  61  90 117 152 198 247 295 368
#     4  10  21  42  59  90 118 151 198 248 297 364
#     4  10  21  39  63  86 122 151 196 246 301 351
#     4  10  22  40  57  86 126 154 205 251 287 353
#     4  10  23  37  61  87 122 152 197 249 295 347
#     4  10  22  40  58  85 127 156 203 247 291 355
#     4  10  20  43  58  86 127 159 189 264 292 344
#     4  12  22  39  63  88 119 171 198 244 304 358
#
# _framework density 19.793558999999998
#
# number of rings (size 3 to 8) (size 9 to 14) (size 15 to 20)
#    0.750    1.000    1.250    3.000    0.000    2.000 
#    6.750    0.000    0.000    0.000    0.000    0.000 
#    0.000    0.000    0.000    0.000    0.000    0.000 
#
# Total GULP energy -89174.118210 kJ/mol
# GULP energy per Si atom -5573.382388 kJ/mol
# Density = 1.974851 g / cm^3
# Si number density = 19.793559 Si / 1000 Ang^3
#
#
#
# Elastic Constant Matrix: (Units=GPa)
#
#
# Indices 1 2 3 4 5 6 
#
# 1 71.1202 7.8811 1.7446 0.0000 4.7693 0.0000
# 2 7.8811 79.6883 -18.4561 0.0000 -1.8081 0.0000
# 3 1.7446 -18.4561 56.3905 0.0000 -7.8179 0.0000
# 4 0.0000 0.0000 0.0000 12.8211 0.0000 -5.1030
# 5 4.7693 -1.8081 -7.8179 0.0000 9.1299 0.0000
# 6 0.0000 0.0000 0.0000 -5.1030 0.0000 15.5936
#
#
#
# Elastic Compliance Matrix: (Units=1/GPa)
#
#
# Indices 1 2 3 4 5 6 
#
# 1 0.015107 -0.002368 -0.002725 0.000000 -0.010694 0.000000
# 2 -0.002368 0.014401 0.006074 0.000000 0.009290 0.000000
# 3 -0.002725 0.006074 0.022887 0.000000 0.022224 0.000000
# 4 0.000000 0.000000 0.000000 0.089677 0.000000 0.029347
# 5 -0.010694 0.009290 0.022224 0.000000 0.135987 0.000000
# 6 0.000000 0.000000 0.000000 0.029347 0.000000 0.073732
#
#
# Mechanical properties :
#
#
# Convention : Reuss Voigt Hill
#
# Bulk Modulus (GPa) = 18.39647 21.05982 19.72814
# Shear Modulus (GPa) = 13.58890 21.91089 17.74989
#
# Velocity S-wave (km/s) = 2.62302 3.33073 2.99783
# Velocity P-wave (km/s) = 4.29976 5.04524 4.68735
#
# Compressibility (1/GPa) = 0.05435826
#
# Stress axis : x y z
#
# Youngs Moduli (GPa) = 66.19415 69.44094 43.69278
#
# Poissons Ratio (x) = 0.16442 0.11906
# Poissons Ratio (y) = 0.15674 -0.26541
# Poissons Ratio (z) = 0.18038 -0.42182
#
# Static dielectric constant tensor:
#      x y z
#    x 1.721030 0.000000 -0.025910 
#    y 0.000000 1.699870 0.000000 
#    z -0.025910 0.000000 1.667760 
# 
# From -- ./inp_files/20603.got.cif
#   From: 2010.05.17/outbox.cif.g08.bks.cpg/sg9_11_cif.got.tgz:20603.got - 2010.06.03 20:04:27.
