data_PCOD9135408
_publ_section_title
;
Structure prediction by ZEFSAII (Michael W. Deem and Ramdas Pophale) SiO2 
 PCOD9135408
Probable space group: C C
;
_chemical_formula_sum "Si O2"
_cell_formula_units_Z 32
_cell_length_a 5.173863
_cell_length_b 37.128263
_cell_length_c 7.530842
_cell_angle_alpha 90.000000
_cell_angle_beta 66.719210
_cell_angle_gamma 90.000000
_cell_volume 1328.861075
_symmetry_space_group_name_H-M "C C"
_symmetry_group_IT_number 9
_symmetry_cell_setting 'monoclinic'
loop_
_space_group_symop_operation_xyz
x,y,z
x,-y,1/2+z
1/2+x,1/2+y,z
1/2+x,1/2-y,1/2+z
loop_
_atom_site_type_symbol
_atom_site_label
_atom_site_fract_x
_atom_site_fract_y
_atom_site_fract_z
Si Si1 0.039810 0.708000 0.558900
Si Si2 0.523045 0.292000 0.642293
Si Si3 0.455310 0.033479 0.979295
Si Si4 0.033257 0.110082 0.637918
Si Si5 0.529602 0.110082 0.063276
Si Si6 0.107552 0.033479 0.721898
Si Si7 0.781429 0.655853 0.850596
Si Si8 0.281428 0.164134 0.350598
O O1 0.281425 0.701254 0.350596
O O2 0.031428 0.750000 0.600596
O O3 0.032883 0.683919 0.737694
O O4 0.780329 0.691961 0.516094
O O5 0.529974 0.316081 0.463499
O O6 0.782522 0.308039 0.685102
O O7 0.473508 0.068015 0.103946
O O8 0.281430 1.000000 0.100596
O O9 0.281431 0.045148 0.850596
O O10 0.781431 0.023620 0.850597
O O11 0.089351 0.068015 0.597247
O O12 0.278427 0.128913 0.685653
O O13 0.032670 0.135224 0.465012
O O14 0.781431 0.112378 0.850597
O O15 0.530184 0.135224 0.236183
O O16 0.284434 0.128913 0.015537
#
# Coordination Sequence:
#
# PCOD9135408 Si02
#       8
#     4   4   4   4   4   4   4   4
#     4  11  22  39  58  88 119 160 209 269 330 396
#     4  11  22  39  58  88 119 160 209 269 330 396
#     4  11  24  44  70 105 145 185 233 287 352 413
#     4  10  21  41  64  89 127 173 222 273 335 405
#     4  10  21  41  64  89 127 173 222 273 335 405
#     4  11  24  44  70 105 145 185 233 287 352 413
#     4  10  20  40  59  84 124 158 218 268 329 400
#     4  10  24  40  63  92 122 170 224 266 345 398
#
# _framework density 24.080769
#
# number of rings (size 3 to 8) (size 9 to 14) (size 15 to 20)
#    0.000    1.500    2.500    2.250    1.750    1.000 
#    2.250    1.250    0.000    0.000    0.000    0.000 
#    0.000    0.000    0.000    0.000    0.000    0.000 
#
# Total GULP energy -89088.953777 kJ/mol
# GULP energy per Si atom -5568.059611 kJ/mol
# Density = 2.402596 g / cm^3
# Si number density = 24.080769 Si / 1000 Ang^3
#
#
#
# Elastic Constant Matrix: (Units=GPa)
#
#
# Indices 1 2 3 4 5 6 
#
# 1 58.9373 27.2932 21.3970 0.0000 -14.1683 0.0000
# 2 27.2932 235.5188 72.1785 0.0000 -19.1002 0.0000
# 3 21.3970 72.1785 134.9624 0.0000 -20.6733 0.0000
# 4 0.0000 0.0000 0.0000 36.5165 0.0000 -0.9268
# 5 -14.1683 -19.1002 -20.6733 0.0000 41.7435 0.0000
# 6 0.0000 0.0000 0.0000 -0.9268 0.0000 25.3336
#
#
#
# Elastic Compliance Matrix: (Units=1/GPa)
#
#
# Indices 1 2 3 4 5 6 
#
# 1 0.019408 -0.001350 -0.001559 0.000000 0.005198 0.000000
# 2 -0.001350 0.005216 -0.002467 0.000000 0.000707 0.000000
# 3 -0.001559 -0.002467 0.009438 0.000000 0.003016 0.000000
# 4 0.000000 0.000000 0.000000 0.027410 0.000000 0.001003
# 5 0.005198 0.000707 0.003016 0.000000 0.027537 0.000000
# 6 0.000000 0.000000 0.000000 0.001003 0.000000 0.039510
#
#
# Mechanical properties :
#
#
# Convention : Reuss Voigt Hill
#
# Bulk Modulus (GPa) = 42.90038 74.57287 58.73663
# Shear Modulus (GPa) = 34.00424 41.28871 37.64648
#
# Velocity S-wave (km/s) = 3.76186 4.14526 3.95820
# Velocity P-wave (km/s) = 6.05992 7.34479 6.73307
#
# Compressibility (1/GPa) = 0.02330982
#
# Stress axis : x y z
#
# Youngs Moduli (GPa) = 51.52598 191.72582 105.95357
#
# Poissons Ratio (x) = 0.25879 0.16517
# Poissons Ratio (y) = 0.06955 0.26141
# Poissons Ratio (z) = 0.08032 0.47303
#
# Static dielectric constant tensor:
#      x y z
#    x 2.240400 0.000000 0.114880 
#    y 0.000000 1.859510 0.000000 
#    z 0.114880 0.000000 2.132140 
# 
# From -- ./inp_files/4459.got.cif
#   From: 2010.05.17/outbox.cif.g08.bks.cpg/sg9_3_cif.got.tgz:4459.got - 2010.06.03 20:04:27.
