data_PCOD9135882
_publ_section_title
;
Structure prediction by ZEFSAII (Michael W. Deem and Ramdas Pophale) SiO2 
 PCOD9135882
Probable space group: C C
;
_chemical_formula_sum "Si O2"
_cell_formula_units_Z 28
_cell_length_a 17.023427
_cell_length_b 9.954334
_cell_length_c 16.143940
_cell_angle_alpha 90.000000
_cell_angle_beta 25.443558
_cell_angle_gamma 90.000000
_cell_volume 1175.316947
_symmetry_space_group_name_H-M "C C"
_symmetry_group_IT_number 9
_symmetry_cell_setting 'monoclinic'
loop_
_space_group_symop_operation_xyz
x,y,z
x,-y,1/2+z
1/2+x,1/2+y,z
1/2+x,1/2-y,1/2+z
loop_
_atom_site_type_symbol
_atom_site_label
_atom_site_fract_x
_atom_site_fract_y
_atom_site_fract_z
Si Si1 0.419140 0.525008 0.927030
Si Si2 0.223769 0.908493 0.733074
Si Si3 0.447473 0.939532 0.280639
Si Si4 0.107757 0.605277 0.809163
Si Si5 0.496901 0.587551 0.615988
Si Si6 0.031715 0.153437 0.172473
Si Si7 0.196050 0.683860 0.004417
O O1 0.623329 0.520918 0.770873
O O2 0.428377 0.397977 0.853871
O O3 0.284961 0.488813 0.131145
O O4 0.325344 0.642366 0.960214
O O5 0.179476 0.758321 0.741342
O O6 0.443206 0.919896 0.530176
O O7 0.116497 0.910364 0.921127
O O8 0.506190 0.925109 0.319682
O O9 0.235308 0.905513 0.479496
O O10 0.536402 0.809726 0.152968
O O11 0.529269 0.077983 0.169567
O O12 0.443918 0.434785 0.684658
O O13 0.616778 0.667413 0.571952
O O14 0.304888 0.661465 0.814312
#
# Coordination Sequence:
#
# PCOD9135882 Si02
#       7
#     4   4   4   4   4   4   4
#     4  10  21  36  60  91 120 161 208 262 302 367
#     4  12  20  35  59  91 129 158 212 260 315 368
#     4  11  19  36  65  92 113 160 214 265 299 364
#     4  11  19  31  59  92 119 152 205 268 305 351
#     4  11  24  39  57  94 129 169 195 261 327 381
#     4  11  20  37  62  91 122 158 216 255 309 370
#     4  10  23  40  60  91 130 164 208 257 323 373
#
# _framework density 23.823359
#
# number of rings (size 3 to 8) (size 9 to 14) (size 15 to 20)
#    0.000    1.143    4.286    4.286    0.000    0.000 
#    0.000    0.000    0.000    6.857    0.000    0.000 
#    0.000    0.000    0.000    0.000    0.000    0.000 
#
# Total GULP energy -78087.510418 kJ/mol
# GULP energy per Si atom -5577.679316 kJ/mol
# Density = 2.376914 g / cm^3
# Si number density = 23.823359 Si / 1000 Ang^3
#
#
#
# Elastic Constant Matrix: (Units=GPa)
#
#
# Indices 1 2 3 4 5 6 
#
# 1 42.3274 21.0382 15.9934 -0.0003 -3.5241 0.0001
# 2 21.0382 85.5191 11.1642 -0.0010 1.0292 0.0007
# 3 15.9934 11.1642 163.6464 -0.0006 1.1874 0.0005
# 4 -0.0003 -0.0010 -0.0006 33.0572 0.0004 -6.6091
# 5 -3.5241 1.0292 1.1874 0.0004 41.9064 -0.0003
# 6 0.0001 0.0007 0.0005 -6.6091 -0.0003 21.1561
#
#
#
# Elastic Compliance Matrix: (Units=1/GPa)
#
#
# Indices 1 2 3 4 5 6 
#
# 1 0.028001 -0.006619 -0.002304 0.000000 0.002583 0.000000
# 2 -0.006619 0.013366 -0.000259 0.000000 -0.000878 0.000000
# 3 -0.002304 -0.000259 0.006356 0.000000 -0.000367 0.000000
# 4 0.000000 0.000000 0.000000 0.032266 0.000000 0.010080
# 5 0.002583 -0.000878 -0.000367 0.000000 0.024112 0.000000
# 6 0.000000 0.000000 0.000000 0.010080 0.000000 0.050417
#
#
# Mechanical properties :
#
#
# Convention : Reuss Voigt Hill
#
# Bulk Modulus (GPa) = 34.05927 43.09827 38.57877
# Shear Modulus (GPa) = 27.37241 35.44375 31.40808
#
# Velocity S-wave (km/s) = 3.39333 3.86135 3.63488
# Velocity P-wave (km/s) = 5.44798 6.16523 5.81767
#
# Compressibility (1/GPa) = 0.02936058
#
# Stress axis : x y z
#
# Youngs Moduli (GPa) = 35.71365 74.81764 157.32685
#
# Poissons Ratio (x) = 0.49519 0.36244
# Poissons Ratio (y) = 0.23637 0.04069
# Poissons Ratio (z) = 0.08228 0.01935
#
# Static dielectric constant tensor:
#      x y z
#    x 2.019980 0.000000 -0.056340 
#    y 0.000000 1.863250 0.000000 
#    z -0.056340 0.000000 2.016380 
# 
# From -- ./inp_files/31283.got.cif
#   From: 2010.05.17/outbox.cif.g08.bks.cpg/sg9_16_cif.got.tgz:31283.got - 2010.06.03 20:04:27.
