data_PCOD9135178
_publ_section_title
;
Structure prediction by ZEFSAII (Michael W. Deem and Ramdas Pophale) SiO2 
 PCOD9135178
Probable space group: C C
;
_chemical_formula_sum "Si O2"
_cell_formula_units_Z 28
_cell_length_a 9.346819
_cell_length_b 21.891923
_cell_length_c 5.461310
_cell_angle_alpha 90.000000
_cell_angle_beta 108.370734
_cell_angle_gamma 90.000000
_cell_volume 1060.541755
_symmetry_space_group_name_H-M "C C"
_symmetry_group_IT_number 9
_symmetry_cell_setting 'monoclinic'
loop_
_space_group_symop_operation_xyz
x,y,z
x,-y,1/2+z
1/2+x,1/2+y,z
1/2+x,1/2-y,1/2+z
loop_
_atom_site_type_symbol
_atom_site_label
_atom_site_fract_x
_atom_site_fract_y
_atom_site_fract_z
Si Si1 0.295410 0.370638 0.929770
Si Si2 0.212130 0.629363 0.875207
Si Si3 0.582140 0.476577 0.767665
Si Si4 0.925365 0.523430 0.037317
Si Si5 0.610422 0.657014 0.395731
Si Si6 0.897128 0.342981 0.409267
Si Si7 0.753771 0.757453 0.152494
O O1 0.253770 0.400547 0.652487
O O2 0.253769 0.406170 0.152489
O O3 0.464174 0.345588 0.989959
O O4 0.199436 0.307351 0.920552
O O5 0.308107 0.692650 0.884436
O O6 0.043369 0.654416 0.815021
O O7 0.512661 0.510617 0.497784
O O8 0.753744 0.500013 0.902495
O O9 0.593751 0.404704 0.728460
O O10 0.994830 0.489383 0.307185
O O11 0.913805 0.595303 0.076559
O O12 0.753773 0.651974 0.652504
O O13 0.639793 0.713464 0.232976
O O14 0.867759 0.286531 0.572015
#
# Coordination Sequence:
#
# PCOD9135178 Si02
#       7
#     4   4   4   4   4   4   4
#     4  10  26  45  61  90 142 170 207 256 321 385
#     4  10  26  45  61  90 142 170 207 256 321 385
#     4  10  20  38  57  96 123 152 201 280 308 358
#     4  10  20  38  57  96 123 152 201 280 308 358
#     4  12  24  38  72  97 124 170 219 262 319 371
#     4  12  24  38  72  97 124 170 219 262 319 371
#     4  10  24  40  66  96 132 168 214 262 310 384
#
# _framework density 26.401602
#
# number of rings (size 3 to 8) (size 9 to 14) (size 15 to 20)
#    0.857    0.571    2.857    3.429    4.000    2.286 
#    0.000    0.000    0.000    5.143    0.000    0.000 
#    0.000    0.000    0.000    0.000    0.000    0.000 
#
# Total GULP energy -78223.349694 kJ/mol
# GULP energy per Si atom -5587.382121 kJ/mol
# Density = 2.634151 g / cm^3
# Si number density = 26.401602 Si / 1000 Ang^3
#
#
#
# Elastic Constant Matrix: (Units=GPa)
#
#
# Indices 1 2 3 4 5 6 
#
# 1 132.5635 -30.9390 47.0173 0.0000 -12.2080 0.0000
# 2 -30.9390 92.3905 -3.8254 0.0000 -1.3684 0.0000
# 3 47.0173 -3.8254 182.3990 0.0000 -30.3264 0.0000
# 4 0.0000 0.0000 0.0000 29.0553 0.0000 -11.4663
# 5 -12.2080 -1.3684 -30.3264 0.0000 44.8820 0.0000
# 6 0.0000 0.0000 0.0000 -11.4663 0.0000 22.0615
#
#
#
# Elastic Compliance Matrix: (Units=1/GPa)
#
#
# Indices 1 2 3 4 5 6 
#
# 1 0.009084 0.002973 -0.002088 0.000000 0.001151 0.000000
# 2 0.002973 0.011818 -0.000365 0.000000 0.000922 0.000000
# 3 -0.002088 -0.000365 0.006666 0.000000 0.003925 0.000000
# 4 0.000000 0.000000 0.000000 0.043298 0.000000 0.022504
# 5 0.001151 0.000922 0.003925 0.000000 0.025274 0.000000
# 6 0.000000 0.000000 0.000000 0.022504 0.000000 0.057024
#
#
# Mechanical properties :
#
#
# Convention : Reuss Voigt Hill
#
# Bulk Modulus (GPa) = 34.95762 47.98432 41.47097
# Shear Modulus (GPa) = 30.92923 45.53975 38.23449
#
# Velocity S-wave (km/s) = 3.42642 4.15768 3.80964
# Velocity P-wave (km/s) = 5.37803 6.42360 5.92393
#
# Compressibility (1/GPa) = 0.02860607
#
# Stress axis : x y z
#
# Youngs Moduli (GPa) = 110.08603 84.61974 150.02423
#
# Poissons Ratio (x) = -0.25153 0.31323
# Poissons Ratio (y) = -0.32723 0.05477
# Poissons Ratio (z) = 0.22985 0.03089
#
# Static dielectric constant tensor:
#      x y z
#    x 2.134260 0.000000 -0.017300 
#    y 0.000000 2.016180 0.000000 
#    z -0.017300 0.000000 2.228760 
# 
# From -- ./inp_files/1050.got.cif
#   From: 2010.05.17/outbox.cif.g08.bks.cpg/sg9_1_cif.got.tgz:1050.got - 2010.06.03 20:04:27.
