data_PCOD9135266
_publ_section_title
;
Structure prediction by ZEFSAII (Michael W. Deem and Ramdas Pophale) SiO2 
 PCOD9135266
Probable space group: C C
;
_chemical_formula_sum "Si O2"
_cell_formula_units_Z 32
_cell_length_a 20.671346
_cell_length_b 9.870889
_cell_length_c 10.152906
_cell_angle_alpha 90.000000
_cell_angle_beta 35.806734
_cell_angle_gamma 90.000000
_cell_volume 1212.022263
_symmetry_space_group_name_H-M "C C"
_symmetry_group_IT_number 9
_symmetry_cell_setting 'monoclinic'
loop_
_space_group_symop_operation_xyz
x,y,z
x,-y,1/2+z
1/2+x,1/2+y,z
1/2+x,1/2-y,1/2+z
loop_
_atom_site_type_symbol
_atom_site_label
_atom_site_fract_x
_atom_site_fract_y
_atom_site_fract_z
Si Si1 0.013630 0.897054 0.819230
Si Si2 0.949617 0.429571 0.600845
Si Si3 0.290368 0.312038 0.300557
Si Si4 0.337715 0.779547 0.279419
Si Si5 0.537265 0.693222 0.836528
Si Si6 0.577172 0.031974 0.154255
Si Si7 0.684371 0.356798 0.759723
Si Si8 0.187671 0.834480 0.311683
O O1 0.069417 0.870264 0.871468
O O2 0.088670 0.832228 0.582342
O O3 0.032337 0.056728 0.765538
O O4 0.885568 0.866532 0.044914
O O5 0.017704 0.423233 0.349321
O O6 0.040367 0.472897 0.562290
O O7 0.868769 0.298381 0.751090
O O8 0.871234 0.561328 0.725855
O O9 0.207574 0.439859 0.469479
O O10 0.202193 0.220746 0.365545
O O11 0.258063 0.774057 0.534113
O O12 0.279448 0.752103 0.236307
O O13 0.442936 0.684231 0.104682
O O14 0.514699 0.829625 0.798583
O O15 0.648197 0.717468 0.736714
O O16 0.721789 0.510458 0.726800
#
# Coordination Sequence:
#
# PCOD9135266 Si02
#       8
#     4   4   4   4   4   4   4   4
#     4  10  23  41  64  99 142 180 236 297 357 445
#     4  11  25  48  74 108 147 186 250 298 367 438
#     4  12  23  44  71 101 140 198 224 304 377 424
#     4  10  21  39  70 102 135 191 231 302 362 431
#     4  10  23  43  64 103 137 180 236 303 357 433
#     4  11  27  48  74 107 146 189 245 310 355 447
#     4  10  20  38  67 100 133 182 245 284 351 441
#     4  10  20  39  66  96 134 178 245 288 344 447
#
# _framework density 26.402156999999999
#
# number of rings (size 3 to 8) (size 9 to 14) (size 15 to 20)
#    0.000    1.500    1.250    3.000    5.250    2.000 
#   18.000    0.000    0.000    0.000    0.000    0.000 
#    0.000    0.000    0.000    0.000    0.000    0.000 
#
# Total GULP energy -89341.070261 kJ/mol
# GULP energy per Si atom -5583.816891 kJ/mol
# Density = 2.634206 g / cm^3
# Si number density = 26.402157 Si / 1000 Ang^3
#
#
#
# Elastic Constant Matrix: (Units=GPa)
#
#
# Indices 1 2 3 4 5 6 
#
# 1 102.1895 15.3212 -5.4019 0.0000 3.7379 0.0000
# 2 15.3212 35.1723 6.0058 0.0000 -6.7689 0.0000
# 3 -5.4019 6.0058 119.2837 0.0000 -10.5428 0.0000
# 4 0.0000 0.0000 0.0000 41.4299 0.0000 -5.7230
# 5 3.7379 -6.7689 -10.5428 0.0000 32.0804 0.0000
# 6 0.0000 0.0000 0.0000 -5.7230 0.0000 19.7572
#
#
#
# Elastic Compliance Matrix: (Units=1/GPa)
#
#
# Indices 1 2 3 4 5 6 
#
# 1 0.010666 -0.005154 0.000553 0.000000 -0.002149 0.000000
# 2 -0.005154 0.032234 -0.001238 0.000000 0.006995 0.000000
# 3 0.000553 -0.001238 0.008694 0.000000 0.002532 0.000000
# 4 0.000000 0.000000 0.000000 0.025143 0.000000 0.007283
# 5 -0.002149 0.006995 0.002532 0.000000 0.033730 0.000000
# 6 0.000000 0.000000 0.000000 0.007283 0.000000 0.052724
#
#
# Mechanical properties :
#
#
# Convention : Reuss Voigt Hill
#
# Bulk Modulus (GPa) = 25.05276 32.05508 28.55392
# Shear Modulus (GPa) = 26.57069 34.70150 30.63609
#
# Velocity S-wave (km/s) = 3.17580 3.62932 3.41011
# Velocity P-wave (km/s) = 4.79135 5.45253 5.13260
#
# Compressibility (1/GPa) = 0.03991576
#
# Stress axis : x y z
#
# Youngs Moduli (GPa) = 93.75307 31.02285 115.01526
#
# Poissons Ratio (x) = 0.15990 -0.06356
# Poissons Ratio (y) = 0.48322 0.14240
# Poissons Ratio (z) = -0.05181 0.03841
#
# Static dielectric constant tensor:
#      x y z
#    x 2.083990 0.000000 0.054330 
#    y 0.000000 2.060160 0.000000 
#    z 0.054330 0.000000 2.151850 
# 
# From -- ./inp_files/20309.got.cif
#   From: 2010.05.17/outbox.cif.g08.bks.cpg/sg9_11_cif.got.tgz:20309.got - 2010.06.03 20:04:27.
