data_PCOD9135950
_publ_section_title
;
Structure prediction by ZEFSAII (Michael W. Deem and Ramdas Pophale) SiO2 
 PCOD9135950
Probable space group: C C
;
_chemical_formula_sum "Si O2"
_cell_formula_units_Z 32
_cell_length_a 27.463791
_cell_length_b 9.402153
_cell_length_c 8.226508
_cell_angle_alpha 90.000000
_cell_angle_beta 145.045358
_cell_angle_gamma 90.000000
_cell_volume 1217.035378
_symmetry_space_group_name_H-M "C C"
_symmetry_group_IT_number 9
_symmetry_cell_setting 'monoclinic'
loop_
_space_group_symop_operation_xyz
x,y,z
x,-y,1/2+z
1/2+x,1/2+y,z
1/2+x,1/2-y,1/2+z
loop_
_atom_site_type_symbol
_atom_site_label
_atom_site_fract_x
_atom_site_fract_y
_atom_site_fract_z
Si Si1 0.395590 0.316517 0.844910
Si Si2 0.250542 0.299505 0.941005
Si Si3 0.981161 0.039449 0.869115
Si Si4 0.925319 0.462227 0.621245
Si Si5 0.139896 0.834554 0.621514
Si Si6 0.950447 0.280387 0.995419
Si Si7 0.730888 0.454919 0.169675
Si Si8 0.717035 0.089434 0.702390
O O1 0.457183 0.386234 0.875577
O O2 0.415735 0.154314 0.949587
O O3 0.302442 0.346144 0.519304
O O4 0.404980 0.402855 0.042949
O O5 0.217464 0.149537 0.785806
O O6 0.224801 0.421426 0.743185
O O7 0.351712 0.269422 0.231258
O O8 0.218171 0.362070 0.020403
O O9 0.995032 0.134377 0.070946
O O10 0.058756 0.086962 0.970083
O O11 0.966667 0.376938 0.880805
O O12 0.967285 0.609823 0.684675
O O13 0.829015 0.495868 0.416811
O O14 0.138872 0.667590 0.579579
O O15 0.172526 0.911264 0.547826
O O16 0.207668 0.867312 0.947369
#
# Coordination Sequence:
#
# PCOD9135950 Si02
#       8
#     4   4   4   4   4   4   4   4
#     4  11  23  41  65  95 135 169 229 269 329 393
#     4  11  24  38  68  98 128 164 227 281 332 383
#     4  11  25  43  62  99 135 178 214 276 339 402
#     4  10  21  37  62  94 121 163 215 279 310 383
#     4  12  24  42  68  93 142 175 222 271 342 401
#     4  10  22  38  61  91 129 162 218 266 335 386
#     4  11  22  42  62 100 129 175 219 275 331 398
#     4  12  23  41  66 100 127 176 220 287 320 396
#
# _framework density 26.293402
#
# number of rings (size 3 to 8) (size 9 to 14) (size 15 to 20)
#    0.000    1.000    2.500    5.250    3.500    0.000 
#    0.000    6.250    0.000    0.000    0.000    0.000 
#    0.000    0.000    0.000    0.000    0.000    0.000 
#
# Total GULP energy -89591.499894 kJ/mol
# GULP energy per Si atom -5599.468743 kJ/mol
# Density = 2.623356 g / cm^3
# Si number density = 26.293402 Si / 1000 Ang^3
#
#
#
# Elastic Constant Matrix: (Units=GPa)
#
#
# Indices 1 2 3 4 5 6 
#
# 1 106.5866 52.6251 8.9582 0.0000 -5.1353 0.0000
# 2 52.6251 156.6243 3.3118 0.0000 -3.0149 0.0000
# 3 8.9582 3.3118 28.0642 0.0000 -7.5626 0.0000
# 4 0.0000 0.0000 0.0000 29.3893 0.0000 -17.6396
# 5 -5.1353 -3.0149 -7.5626 0.0000 32.9340 0.0000
# 6 0.0000 0.0000 0.0000 -17.6396 0.0000 61.6815
#
#
#
# Elastic Compliance Matrix: (Units=1/GPa)
#
#
# Indices 1 2 3 4 5 6 
#
# 1 0.011551 -0.003802 -0.003035 0.000000 0.000756 0.000000
# 2 -0.003802 0.007658 0.000361 0.000000 0.000191 0.000000
# 3 -0.003035 0.000361 0.038844 0.000000 0.008480 0.000000
# 4 0.000000 0.000000 0.000000 0.041077 0.000000 0.011747
# 5 0.000756 0.000191 0.008480 0.000000 0.032446 0.000000
# 6 0.000000 0.000000 0.000000 0.011747 0.000000 0.019572
#
#
# Mechanical properties :
#
#
# Convention : Reuss Voigt Hill
#
# Bulk Modulus (GPa) = 22.17199 46.78503 34.47851
# Shear Modulus (GPa) = 27.91235 39.89297 33.90266
#
# Velocity S-wave (km/s) = 3.26171 3.89938 3.59471
# Velocity P-wave (km/s) = 4.75772 6.17298 5.51097
#
# Compressibility (1/GPa) = 0.04510195
#
# Stress axis : x y z
#
# Youngs Moduli (GPa) = 86.57380 130.57727 25.74423
#
# Poissons Ratio (x) = 0.49650 0.07812
# Poissons Ratio (y) = 0.32918 -0.00931
# Poissons Ratio (z) = 0.26272 -0.04720
#
# Static dielectric constant tensor:
#      x y z
#    x 2.073800 0.000000 0.008680 
#    y 0.000000 2.073120 0.000000 
#    z 0.008680 0.000000 2.153820 
# 
# From -- ./inp_files/12405.got.cif
#   From: 2010.05.17/outbox.cif.g08.bks.cpg/sg9_7_cif.got.tgz:12405.got - 2010.06.03 20:04:27.
