data_PCOD9135907
_publ_section_title
;
Structure prediction by ZEFSAII (Michael W. Deem and Ramdas Pophale) SiO2 
 PCOD9135907
Probable space group: C C
;
_chemical_formula_sum "Si O2"
_cell_formula_units_Z 32
_cell_length_a 4.869124
_cell_length_b 22.406538
_cell_length_c 12.041890
_cell_angle_alpha 90.000000
_cell_angle_beta 100.466101
_cell_angle_gamma 90.000000
_cell_volume 1291.914929
_symmetry_space_group_name_H-M "C C"
_symmetry_group_IT_number 9
_symmetry_cell_setting 'monoclinic'
loop_
_space_group_symop_operation_xyz
x,y,z
x,-y,1/2+z
1/2+x,1/2+y,z
1/2+x,1/2-y,1/2+z
loop_
_atom_site_type_symbol
_atom_site_label
_atom_site_fract_x
_atom_site_fract_y
_atom_site_fract_z
Si Si1 0.165640 0.806758 0.005020
Si Si2 0.984883 0.513826 0.522375
Si Si3 0.284125 0.934873 0.795791
Si Si4 0.148783 0.323245 0.410505
Si Si5 0.616760 0.823245 0.855008
Si Si6 0.099904 0.193242 0.760491
Si Si7 0.481402 0.434874 0.469733
Si Si8 0.780643 0.013825 0.743148
O O1 0.132769 0.821134 0.132755
O O2 0.111908 0.735775 0.981610
O O3 0.458181 0.812560 0.961029
O O4 0.928083 0.840898 0.915075
O O5 0.806083 0.555938 0.430764
O O6 0.779707 0.457781 0.533593
O O7 0.256249 0.483866 0.490009
O O8 0.132767 0.548611 0.632762
O O9 0.421886 0.871537 0.779523
O O10 0.509271 0.983867 0.775515
O O11 0.985814 0.957779 0.731931
O O12 0.307369 0.312560 0.304486
O O13 0.343650 0.371536 0.485994
O O14 0.837464 0.340898 0.350434
O O15 0.653631 0.764225 0.783899
O O16 0.459450 0.444065 0.334760
#
# Coordination Sequence:
#
# PCOD9135907 Si02
#       8
#     4   4   4   4   4   4   4   4
#     4  10  21  37  58  85 117 150 191 239 288 349
#     4  10  21  37  57  84 116 151 193 239 287 345
#     4  10  21  38  58  83 117 151 191 241 289 345
#     4  10  21  38  58  84 117 151 190 239 290 345
#     4  10  21  38  58  84 117 151 190 239 290 345
#     4  10  21  37  58  85 117 150 191 239 288 349
#     4  10  21  38  58  83 117 151 191 241 289 345
#     4  10  21  37  57  84 116 151 193 239 287 345
#
# _framework density 24.769432999999999
#
# number of rings (size 3 to 8) (size 9 to 14) (size 15 to 20)
#    0.000    2.000    0.000    3.000    0.000    3.000 
#    0.000    7.500    0.000    0.000    0.000    0.000 
#    0.000    0.000    0.000    0.000    0.000    0.000 
#
# Total GULP energy -89244.382524 kJ/mol
# GULP energy per Si atom -5577.773908 kJ/mol
# Density = 2.471306 g / cm^3
# Si number density = 24.769433 Si / 1000 Ang^3
#
#
#
# Elastic Constant Matrix: (Units=GPa)
#
#
# Indices 1 2 3 4 5 6 
#
# 1 125.5291 -7.6315 18.2763 0.0000 16.1928 0.0000
# 2 -7.6315 52.6355 -3.1526 0.0000 13.2249 0.0000
# 3 18.2763 -3.1526 66.4460 0.0000 19.6325 0.0000
# 4 0.0000 0.0000 0.0000 -0.3871 0.0000 2.0145
# 5 16.1928 13.2249 19.6325 0.0000 34.7614 0.0000
# 6 0.0000 0.0000 0.0000 2.0145 0.0000 37.8043
#
#
#
# Elastic Compliance Matrix: (Units=1/GPa)
#
#
# Indices 1 2 3 4 5 6 
#
# 1 0.008826 0.002332 -0.001008 0.000000 -0.004429 0.000000
# 2 0.002332 0.022562 0.003944 0.000000 -0.011898 0.000000
# 3 -0.001008 0.003944 0.018987 0.000000 -0.011755 0.000000
# 4 0.000000 0.000000 0.000000 -2.022356 0.000000 0.107766
# 5 -0.004429 -0.011898 -0.011755 0.000000 0.041996 0.000000
# 6 0.000000 0.000000 0.000000 0.107766 0.000000 0.020710
#
#
# Mechanical properties :
#
#
# Convention : Reuss Voigt Hill
#
# Bulk Modulus (GPa) = 16.41699 28.84391 22.63045
# Shear Modulus (GPa) = -2.63226 30.24360 13.80567
#
# Velocity S-wave (km/s) = -1.03199 3.49808 2.36342
# Velocity P-wave (km/s) = 2.28523 5.29015 4.07480
#
# Compressibility (1/GPa) = 0.06091251
#
# Stress axis : x y z
#
# Youngs Moduli (GPa) = 113.29865 44.32159 52.66647
#
# Poissons Ratio (x) = -0.10337 0.05311
# Poissons Ratio (y) = -0.26423 -0.20774
# Poissons Ratio (z) = 0.11425 -0.17482
#
# Static dielectric constant tensor:
#      x y z
#    x 1.923350 0.000000 -0.056770 
#    y 0.000000 1.997220 0.000000 
#    z -0.056770 0.000000 2.154060 
# 
# From -- ./inp_files/13827.got.cif
#   From: 2010.05.17/outbox.cif.g08.bks.cpg/sg9_7_cif.got.tgz:13827.got - 2010.06.03 20:04:27.
