data_PCOD9135848
_publ_section_title
;
Structure prediction by ZEFSAII (Michael W. Deem and Ramdas Pophale) SiO2 
 PCOD9135848
Probable space group: C C
;
_chemical_formula_sum "Si O2"
_cell_formula_units_Z 28
_cell_length_a 21.945956
_cell_length_b 12.411726
_cell_length_c 5.391918
_cell_angle_alpha 90.000000
_cell_angle_beta 126.872605
_cell_angle_gamma 90.000000
_cell_volume 1174.909885
_symmetry_space_group_name_H-M "C C"
_symmetry_group_IT_number 9
_symmetry_cell_setting 'monoclinic'
loop_
_space_group_symop_operation_xyz
x,y,z
x,-y,1/2+z
1/2+x,1/2+y,z
1/2+x,1/2-y,1/2+z
loop_
_atom_site_type_symbol
_atom_site_label
_atom_site_fract_x
_atom_site_fract_y
_atom_site_fract_z
Si Si1 0.834730 0.232282 0.256040
Si Si2 0.075013 0.049982 0.104352
Si Si3 0.898579 0.042286 0.684444
Si Si4 0.816080 0.467932 0.415171
Si Si5 0.944644 0.351374 0.231393
Si Si6 0.197465 0.431020 0.393091
Si Si7 0.540311 0.195430 0.467850
O O1 0.889685 0.161057 0.560424
O O2 0.823774 0.344009 0.369562
O O3 0.879046 0.261839 0.113463
O O4 0.758685 0.165553 0.029200
O O5 0.986708 0.010849 0.917298
O O6 0.108657 0.988490 0.948701
O O7 0.067861 0.178970 0.047198
O O8 0.864247 0.975058 0.370620
O O9 0.776605 0.518172 0.080139
O O10 0.895950 0.537049 0.622105
O O11 0.989441 0.332154 0.086905
O O12 0.998317 0.334324 0.604855
O O13 0.205832 0.488809 0.680217
O O14 0.114214 0.379247 0.168997
#
# Coordination Sequence:
#
# PCOD9135848 Si02
#       7
#     4   4   4   4   4   4   4
#     4  11  24  45  69 102 141 185 240 299 358 426
#     4  10  21  38  62  99 133 171 230 284 348 410
#     4  10  21  34  58  92 128 169 220 281 338 401
#     4  10  23  39  63 102 134 166 231 294 353 409
#     4  11  24  42  75 107 139 186 246 306 362 421
#     4  12  30  51  72 106 150 202 241 291 377 458
#     4  12  25  47  71 106 149 191 236 305 364 435
#
# _framework density 23.831613000000001
#
# number of rings (size 3 to 8) (size 9 to 14) (size 15 to 20)
#    0.000    1.143    1.429    4.286    4.000   11.429 
#    0.000    2.857    0.000    0.000    0.000    0.000 
#    0.000    0.000    0.000    0.000    0.000    0.000 
#
# Total GULP energy -78305.372508 kJ/mol
# GULP energy per Si atom -5593.240893 kJ/mol
# Density = 2.377737 g / cm^3
# Si number density = 23.831613 Si / 1000 Ang^3
#
#
#
# Elastic Constant Matrix: (Units=GPa)
#
#
# Indices 1 2 3 4 5 6 
#
# 1 121.0374 39.0104 69.3699 0.0000 -7.0015 0.0000
# 2 39.0104 139.1420 56.4472 0.0000 -2.5100 0.0000
# 3 69.3699 56.4472 155.6766 0.0000 -21.5606 0.0000
# 4 0.0000 0.0000 0.0000 48.0570 0.0000 -4.6024
# 5 -7.0015 -2.5100 -21.5606 0.0000 32.0004 0.0000
# 6 0.0000 0.0000 0.0000 -4.6024 0.0000 26.8388
#
#
#
# Elastic Compliance Matrix: (Units=1/GPa)
#
#
# Indices 1 2 3 4 5 6 
#
# 1 0.011316 -0.001286 -0.004684 0.000000 -0.000781 0.000000
# 2 -0.001286 0.008642 -0.002763 0.000000 -0.001465 0.000000
# 3 -0.004684 -0.002763 0.010302 0.000000 0.005700 0.000000
# 4 0.000000 0.000000 0.000000 0.021156 0.000000 0.003628
# 5 -0.000781 -0.001465 0.005700 0.000000 0.034804 0.000000
# 6 0.000000 0.000000 0.000000 0.003628 0.000000 0.037882
#
#
# Mechanical properties :
#
#
# Convention : Reuss Voigt Hill
#
# Bulk Modulus (GPa) = 78.17053 82.83456 80.50254
# Shear Modulus (GPa) = 34.28562 38.11449 36.20006
#
# Velocity S-wave (km/s) = 3.79708 4.00349 3.90165
# Velocity P-wave (km/s) = 7.21777 7.49696 7.35869
#
# Compressibility (1/GPa) = 0.01279254
#
# Stress axis : x y z
#
# Youngs Moduli (GPa) = 88.37080 115.71193 97.06703
#
# Poissons Ratio (x) = 0.14885 0.45468
# Poissons Ratio (y) = 0.11368 0.26823
# Poissons Ratio (z) = 0.41394 0.31975
#
# Static dielectric constant tensor:
#      x y z
#    x 1.922750 0.000000 -0.011730 
#    y 0.000000 1.912190 0.000000 
#    z -0.011730 0.000000 1.963640 
# 
# From -- ./inp_files/3171.got.cif
#   From: 2010.05.17/outbox.cif.g08.bks.cpg/sg9_2_cif.got.tgz:3171.got - 2010.06.03 20:04:27.
