data_PCOD9135847
_publ_section_title
;
Structure prediction by ZEFSAII (Michael W. Deem and Ramdas Pophale) SiO2 
 PCOD9135847
Probable space group: C C
;
_chemical_formula_sum "Si O2"
_cell_formula_units_Z 28
_cell_length_a 11.632665
_cell_length_b 22.347582
_cell_length_c 5.179522
_cell_angle_alpha 90.000000
_cell_angle_beta 57.828424
_cell_angle_gamma 90.000000
_cell_volume 1139.736766
_symmetry_space_group_name_H-M "C C"
_symmetry_group_IT_number 9
_symmetry_cell_setting 'monoclinic'
loop_
_space_group_symop_operation_xyz
x,y,z
x,-y,1/2+z
1/2+x,1/2+y,z
1/2+x,1/2-y,1/2+z
loop_
_atom_site_type_symbol
_atom_site_label
_atom_site_fract_x
_atom_site_fract_y
_atom_site_fract_z
Si Si1 0.653040 0.171596 0.318950
Si Si2 0.594274 0.703821 0.903333
Si Si3 0.368330 0.631592 0.381866
Si Si4 0.043605 0.962038 0.917735
Si Si5 0.291375 0.889451 0.376683
Si Si6 0.897727 0.234690 0.733707
Si Si7 0.431489 0.872394 0.706712
O O1 0.570618 0.227866 0.541955
O O2 0.724014 0.124686 0.422574
O O3 0.572983 0.139344 0.185159
O O4 0.783245 0.208553 0.061056
O O5 0.496289 0.644974 0.044037
O O6 0.725182 0.675546 0.888844
O O7 0.549372 0.720414 0.661341
O O8 0.413874 0.579695 0.516869
O O9 0.369990 0.695533 0.519420
O O10 0.176671 0.925591 0.669029
O O11 0.041018 0.015740 0.712821
O O12 0.416413 0.892743 0.429741
O O13 0.342388 0.908010 0.028734
O O14 0.875102 0.304702 0.748717
#
# Coordination Sequence:
#
# PCOD9135847 Si02
#       7
#     4   4   4   4   4   4   4
#     4  10  21  36  55  92 136 171 208 241 315 397
#     4   9  20  34  55  89 131 170 210 249 310 384
#     4  10  23  37  66  88 134 166 222 266 324 370
#     4  11  26  46  74  95 117 161 227 293 336 361
#     4  11  23  41  62  91 128 162 215 268 318 374
#     4  10  21  34  58  90 135 180 206 251 306 399
#     4  11  24  36  60  95 135 180 206 242 311 407
#
# _framework density 24.567076
#
# number of rings (size 3 to 8) (size 9 to 14) (size 15 to 20)
#    0.000    1.714    1.429    1.714   16.000    1.143 
#    0.000    0.000    0.000    5.143    0.000    0.000 
#    0.000    0.000    0.000    0.000    0.000    0.000 
#
# Total GULP energy -77967.744779 kJ/mol
# GULP energy per Si atom -5569.124627 kJ/mol
# Density = 2.451116 g / cm^3
# Si number density = 24.567076 Si / 1000 Ang^3
#
#
#
# Elastic Constant Matrix: (Units=GPa)
#
#
# Indices 1 2 3 4 5 6 
#
# 1 159.2817 13.3439 21.8076 0.0000 9.8876 0.0000
# 2 13.3439 23.3467 4.5102 0.0000 -2.4316 0.0000
# 3 21.8076 4.5102 51.3152 0.0000 14.8590 0.0000
# 4 0.0000 0.0000 0.0000 27.2035 0.0000 4.9539
# 5 9.8876 -2.4316 14.8590 0.0000 33.6840 0.0000
# 6 0.0000 0.0000 0.0000 4.9539 0.0000 23.8686
#
#
#
# Elastic Compliance Matrix: (Units=1/GPa)
#
#
# Indices 1 2 3 4 5 6 
#
# 1 0.006978 -0.003689 -0.002260 0.000000 -0.001318 0.000000
# 2 -0.003689 0.046445 -0.004355 0.000000 0.006357 0.000000
# 3 -0.002260 -0.004355 0.023765 0.000000 -0.010135 0.000000
# 4 0.000000 0.000000 0.000000 0.038204 0.000000 -0.007929
# 5 -0.001318 0.006357 -0.010135 0.000000 0.035004 0.000000
# 6 0.000000 0.000000 0.000000 -0.007929 0.000000 0.043542
#
#
# Mechanical properties :
#
#
# Convention : Reuss Voigt Hill
#
# Bulk Modulus (GPa) = 17.67407 34.80746 26.24077
# Shear Modulus (GPa) = 21.42188 29.90332 25.66260
#
# Velocity S-wave (km/s) = 2.95613 3.49264 3.23552
# Velocity P-wave (km/s) = 4.34297 5.51940 4.96615
#
# Compressibility (1/GPa) = 0.05658005
#
# Stress axis : x y z
#
# Youngs Moduli (GPa) = 143.29806 21.53101 42.07848
#
# Poissons Ratio (x) = 0.07943 0.09509
# Poissons Ratio (y) = 0.52867 0.18325
# Poissons Ratio (z) = 0.32382 0.09377
#
# Static dielectric constant tensor:
#      x y z
#    x 2.235370 0.000000 -0.278750 
#    y 0.000000 1.985930 0.000000 
#    z -0.278750 0.000000 2.388790 
# 
# From -- ./inp_files/1759.got.cif
#   From: 2010.05.17/outbox.cif.g08.bks.cpg/sg9_1_cif.got.tgz:1759.got - 2010.06.03 20:04:27.
