data_PCOD9135321
_publ_section_title
;
Structure prediction by ZEFSAII (Michael W. Deem and Ramdas Pophale) SiO2 
 PCOD9135321
Probable space group: C C
;
_chemical_formula_sum "Si O2"
_cell_formula_units_Z 32
_cell_length_a 13.075200
_cell_length_b 15.792049
_cell_length_c 8.416319
_cell_angle_alpha 90.000000
_cell_angle_beta 52.416702
_cell_angle_gamma 90.000000
_cell_volume 1377.179202
_symmetry_space_group_name_H-M "C C"
_symmetry_group_IT_number 9
_symmetry_cell_setting 'monoclinic'
loop_
_space_group_symop_operation_xyz
x,y,z
x,-y,1/2+z
1/2+x,1/2+y,z
1/2+x,1/2-y,1/2+z
loop_
_atom_site_type_symbol
_atom_site_label
_atom_site_fract_x
_atom_site_fract_y
_atom_site_fract_z
Si Si1 0.506130 0.694395 0.329060
Si Si2 0.514258 0.224685 0.466424
Si Si3 0.535083 0.950088 0.494441
Si Si4 0.482809 0.465627 0.642769
Si Si5 0.873110 0.418658 0.943525
Si Si6 0.730843 0.192043 0.679559
Si Si7 0.214531 0.603516 0.360917
Si Si8 0.580667 0.601414 0.745711
O O1 0.507286 0.597963 0.266891
O O2 0.639623 0.726056 0.278822
O O3 0.383067 0.708554 0.561311
O O4 0.499535 0.746658 0.165478
O O5 0.399065 0.161477 0.533700
O O6 0.641378 0.166995 0.314747
O O7 0.532565 0.306231 0.340447
O O8 0.452392 0.906420 0.707928
O O9 0.644919 0.884266 0.333467
O O10 0.435768 0.996513 0.465182
O O11 0.614524 0.029150 0.491558
O O12 0.347847 0.439617 0.689510
O O13 0.484516 0.558000 0.712892
O O14 0.585200 0.447392 0.410628
O O15 0.723136 0.414970 0.046091
O O16 0.741432 0.160799 0.487126
#
# Coordination Sequence:
#
# PCOD9135321 Si02
#       8
#     4   4   4   4   4   4   4   4
#     4   9  21  38  63  93 122 172 215 257 328 396
#     4   9  22  41  68  92 129 179 219 269 329 405
#     4  11  22  42  65  94 121 173 211 273 321 393
#     4  10  23  38  66  96 129 167 217 271 333 390
#     4  11  24  42  65  92 131 167 222 269 334 394
#     4  10  20  39  63  91 124 165 213 265 315 396
#     4   9  20  40  68  92 125 168 223 260 322 399
#     4  11  24  42  64  98 131 173 216 278 334 395
#
# _framework density 23.235900000000001
#
# number of rings (size 3 to 8) (size 9 to 14) (size 15 to 20)
#    0.000    2.000    1.250    0.750   12.250    1.000 
#    4.500    0.000    0.000    0.000    0.000    0.000 
#    0.000    0.000    0.000    0.000    0.000    0.000 
#
# Total GULP energy -89274.978989 kJ/mol
# GULP energy per Si atom -5579.686187 kJ/mol
# Density = 2.318301 g / cm^3
# Si number density = 23.235900 Si / 1000 Ang^3
#
#
#
# Elastic Constant Matrix: (Units=GPa)
#
#
# Indices 1 2 3 4 5 6 
#
# 1 40.7488 26.3410 19.8129 0.0000 -16.4864 0.0000
# 2 26.3410 92.1598 22.9697 0.0000 -7.6977 0.0000
# 3 19.8129 22.9697 86.2295 0.0000 -30.5079 0.0000
# 4 0.0000 0.0000 0.0000 24.8818 0.0000 3.0294
# 5 -16.4864 -7.6977 -30.5079 0.0000 24.6319 0.0000
# 6 0.0000 0.0000 0.0000 3.0294 0.0000 24.7059
#
#
#
# Elastic Compliance Matrix: (Units=1/GPa)
#
#
# Indices 1 2 3 4 5 6 
#
# 1 0.040976 -0.010173 0.003334 0.000000 0.028376 0.000000
# 2 -0.010173 0.014150 -0.004052 0.000000 -0.007405 0.000000
# 3 0.003334 -0.004052 0.021808 0.000000 0.027976 0.000000
# 4 0.000000 0.000000 0.000000 0.040799 0.000000 -0.005003
# 5 0.028376 -0.007405 0.027976 0.000000 0.091925 0.000000
# 6 0.000000 0.000000 0.000000 -0.005003 0.000000 0.041090
#
#
# Mechanical properties :
#
#
# Convention : Reuss Voigt Hill
#
# Bulk Modulus (GPa) = 18.13129 39.70947 28.92038
# Shear Modulus (GPa) = 17.18733 24.84487 21.01610
#
# Velocity S-wave (km/s) = 2.72267 3.27348 3.01070
# Velocity P-wave (km/s) = 4.20761 5.60485 4.95572
#
# Compressibility (1/GPa) = 0.05515328
#
# Stress axis : x y z
#
# Youngs Moduli (GPa) = 24.40463 70.67363 45.85494
#
# Poissons Ratio (x) = 0.71893 -0.15289
# Poissons Ratio (y) = 0.24826 0.18579
# Poissons Ratio (z) = -0.08137 0.28634
#
# Static dielectric constant tensor:
#      x y z
#    x 1.940580 0.000000 -0.036450 
#    y 0.000000 1.882720 0.000000 
#    z -0.036450 0.000000 1.869800 
# 
# From -- ./inp_files/7572.got.cif
#   From: 2010.05.17/outbox.cif.g08.bks.cpg/sg9_4_cif.got.tgz:7572.got - 2010.06.03 20:04:27.
