data_PCOD9135512
_publ_section_title
;
Structure prediction by ZEFSAII (Michael W. Deem and Ramdas Pophale) SiO2 
 PCOD9135512
Probable space group: C C
;
_chemical_formula_sum "Si O2"
_cell_formula_units_Z 32
_cell_length_a 7.707510
_cell_length_b 11.613318
_cell_length_c 15.606215
_cell_angle_alpha 90.000000
_cell_angle_beta 101.520318
_cell_angle_gamma 90.000000
_cell_volume 1368.766432
_symmetry_space_group_name_H-M "C C"
_symmetry_group_IT_number 9
_symmetry_cell_setting 'monoclinic'
loop_
_space_group_symop_operation_xyz
x,y,z
x,-y,1/2+z
1/2+x,1/2+y,z
1/2+x,1/2-y,1/2+z
loop_
_atom_site_type_symbol
_atom_site_label
_atom_site_fract_x
_atom_site_fract_y
_atom_site_fract_z
Si Si1 0.307980 0.150586 0.820950
Si Si2 0.229134 0.485997 0.629956
Si Si3 0.075826 0.694391 0.992831
Si Si4 0.133828 0.697017 0.723248
Si Si5 0.758507 0.448085 0.705228
Si Si6 0.555309 0.462918 0.034966
Si Si7 0.842083 0.096916 0.894028
Si Si8 0.159969 0.393764 0.795141
O O1 0.459107 0.177847 0.763431
O O2 0.186435 0.261815 0.817760
O O3 0.208157 0.039672 0.774401
O O4 0.418572 0.144438 0.918971
O O5 0.105535 0.389468 0.575246
O O6 0.139324 0.607298 0.645732
O O7 0.391315 0.511306 0.583102
O O8 0.280965 0.429684 0.726072
O O9 0.050613 0.828368 0.011134
O O10 0.254825 0.681564 0.954596
O O11 0.156360 0.827762 0.698440
O O12 0.300307 0.660349 0.800693
O O13 0.723026 0.505276 0.609749
O O14 0.962024 0.420763 0.746722
O O15 0.523802 0.546024 0.949685
O O16 0.721312 0.980274 0.875543
#
# Coordination Sequence:
#
# PCOD9135512 Si02
#       8
#     4   4   4   4   4   4   4   4
#     4  11  22  44  72  91 136 180 220 281 332 405
#     4  10  22  40  66  96 136 176 222 279 335 393
#     4  10  20  40  70 100 132 177 222 275 339 392
#     4  10  23  44  67  95 137 178 229 274 337 406
#     4  12  25  41  67 108 127 177 230 271 333 415
#     4  11  23  40  70  99 137 176 228 278 341 398
#     4   9  20  45  66  94 136 178 217 279 335 393
#     4  11  21  44  72  93 135 176 222 279 336 398
#
# _framework density 23.378716000000001
#
# number of rings (size 3 to 8) (size 9 to 14) (size 15 to 20)
#    0.000    1.500    5.000    1.500    3.500    1.000 
#    2.250    2.500    0.000    0.000    0.000    0.000 
#    0.000    0.000    0.000    0.000    0.000    0.000 
#
# Total GULP energy -89428.991735 kJ/mol
# GULP energy per Si atom -5589.311983 kJ/mol
# Density = 2.332550 g / cm^3
# Si number density = 23.378716 Si / 1000 Ang^3
#
#
#
# Elastic Constant Matrix: (Units=GPa)
#
#
# Indices 1 2 3 4 5 6 
#
# 1 54.6089 2.0757 -0.6306 0.0000 11.3191 0.0000
# 2 2.0757 145.1552 25.9762 0.0000 11.0156 0.0000
# 3 -0.6306 25.9762 76.1391 0.0000 19.8386 0.0000
# 4 0.0000 0.0000 0.0000 33.6452 0.0000 5.3338
# 5 11.3191 11.0156 19.8386 0.0000 33.3220 0.0000
# 6 0.0000 0.0000 0.0000 5.3338 0.0000 33.9518
#
#
#
# Elastic Compliance Matrix: (Units=1/GPa)
#
#
# Indices 1 2 3 4 5 6 
#
# 1 0.020033 -0.000082 0.002320 0.000000 -0.008159 0.000000
# 2 -0.000082 0.007372 -0.002235 0.000000 -0.001079 0.000000
# 3 0.002320 -0.002235 0.016486 0.000000 -0.009864 0.000000
# 4 0.000000 0.000000 0.000000 0.030481 0.000000 -0.004789
# 5 -0.008159 -0.001079 -0.009864 0.000000 0.039011 0.000000
# 6 0.000000 0.000000 0.000000 -0.004789 0.000000 0.030206
#
#
# Mechanical properties :
#
#
# Convention : Reuss Voigt Hill
#
# Bulk Modulus (GPa) = 22.78095 36.74953 29.76524
# Shear Modulus (GPa) = 31.60245 36.74927 34.17586
#
# Velocity S-wave (km/s) = 3.68062 3.96903 3.82754
# Velocity P-wave (km/s) = 5.27523 6.06281 5.68268
#
# Compressibility (1/GPa) = 0.04389633
#
# Stress axis : x y z
#
# Youngs Moduli (GPa) = 49.91734 135.64595 60.65855
#
# Poissons Ratio (x) = 0.01119 -0.14072
# Poissons Ratio (y) = 0.00412 0.13556
# Poissons Ratio (z) = -0.11580 0.30314
#
# Static dielectric constant tensor:
#      x y z
#    x 1.943070 0.000000 -0.013460 
#    y 0.000000 1.849510 0.000000 
#    z -0.013460 0.000000 1.894410 
# 
# From -- ./inp_files/22799.got.cif
#   From: 2010.05.17/outbox.cif.g08.bks.cpg/sg9_12_cif.got.tgz:22799.got - 2010.06.03 20:04:27.
