data_PCOD9135772
_publ_section_title
;
Structure prediction by ZEFSAII (Michael W. Deem and Ramdas Pophale) SiO2 
 PCOD9135772
Probable space group: C C
;
_chemical_formula_sum "Si O2"
_cell_formula_units_Z 32
_cell_length_a 14.861444
_cell_length_b 10.944557
_cell_length_c 19.084406
_cell_angle_alpha 90.000000
_cell_angle_beta 150.238545
_cell_angle_gamma 90.000000
_cell_volume 1540.852011
_symmetry_space_group_name_H-M "C C"
_symmetry_group_IT_number 9
_symmetry_cell_setting 'monoclinic'
loop_
_space_group_symop_operation_xyz
x,y,z
x,-y,1/2+z
1/2+x,1/2+y,z
1/2+x,1/2-y,1/2+z
loop_
_atom_site_type_symbol
_atom_site_label
_atom_site_fract_x
_atom_site_fract_y
_atom_site_fract_z
Si Si1 0.033050 0.120604 0.575730
Si Si2 0.673347 0.889150 0.452478
Si Si3 0.031182 0.852319 0.607665
Si Si4 0.356964 0.275082 0.359659
Si Si5 0.048865 0.328448 0.852971
Si Si6 0.735275 0.945702 0.770803
Si Si7 0.821627 0.218505 0.197082
Si Si8 0.420587 0.192684 0.109656
O O1 0.161352 0.187877 0.608089
O O2 0.835507 0.111731 0.406578
O O3 0.024934 0.193690 0.643005
O O4 0.102017 0.985004 0.634474
O O5 0.831984 0.871334 0.503427
O O6 0.765448 0.849700 0.588123
O O7 0.505669 0.798099 0.322679
O O8 0.615290 0.031993 0.411763
O O9 0.005937 0.771162 0.521203
O O10 0.172799 0.793591 0.755824
O O11 0.429836 0.215238 0.338092
O O12 0.298500 0.415318 0.310275
O O13 0.947042 0.324092 0.710007
O O14 0.213304 0.230613 0.958023
O O15 0.811046 0.877606 0.753792
O O16 0.521092 0.920478 0.638297
#
# Coordination Sequence:
#
# PCOD9135772 Si02
#       8
#     4   4   4   4   4   4   4   4
#     4  10  20  44  68  95 134 181 222 273 339 407
#     4  12  25  45  69 102 136 176 235 280 337 405
#     4  11  23  45  65  92 140 175 220 281 341 401
#     4  11  25  43  64  96 137 177 221 282 342 400
#     4  12  25  43  71 103 137 178 235 282 335 408
#     4  10  22  43  65  99 136 175 226 269 347 407
#     4  11  24  41  71  98 134 176 225 283 333 405
#     4  11  22  44  69  97 134 180 224 284 330 407
#
# _framework density 20.767731999999999
#
# number of rings (size 3 to 8) (size 9 to 14) (size 15 to 20)
#    0.000    1.000    3.750    3.000    3.500    1.000 
#    4.500    0.000    0.000    0.000    0.000    0.000 
#    0.000    0.000    0.000    0.000    0.000    0.000 
#
# Total GULP energy -89348.246149 kJ/mol
# GULP energy per Si atom -5584.265384 kJ/mol
# Density = 2.072046 g / cm^3
# Si number density = 20.767732 Si / 1000 Ang^3
#
#
#
# Elastic Constant Matrix: (Units=GPa)
#
#
# Indices 1 2 3 4 5 6 
#
# 1 86.1949 20.8298 9.2978 -0.0004 -12.6949 -0.0001
# 2 20.8298 56.2952 29.6489 -0.0007 -10.2394 -0.0002
# 3 9.2978 29.6489 48.1849 -0.0012 -7.6314 -0.0004
# 4 -0.0004 -0.0007 -0.0012 28.9209 -0.0004 0.4621
# 5 -12.6949 -10.2394 -7.6314 -0.0004 41.2292 -0.0001
# 6 -0.0001 -0.0002 -0.0004 0.4621 -0.0001 26.7102
#
#
#
# Elastic Compliance Matrix: (Units=1/GPa)
#
#
# Indices 1 2 3 4 5 6 
#
# 1 0.013102 -0.004763 0.000880 0.000000 0.003014 0.000000
# 2 -0.004763 0.028553 -0.016235 0.000000 0.002620 0.000000
# 3 0.000880 -0.016235 0.030883 0.000001 0.001955 0.000000
# 4 0.000000 0.000000 0.000001 0.034587 0.000001 -0.000598
# 5 0.003014 0.002620 0.001955 0.000001 0.026195 0.000000
# 6 0.000000 0.000000 0.000000 -0.000598 0.000000 0.037449
#
#
# Mechanical properties :
#
#
# Convention : Reuss Voigt Hill
#
# Bulk Modulus (GPa) = 30.95846 34.46976 32.71411
# Shear Modulus (GPa) = 22.54575 28.09864 25.32219
#
# Velocity S-wave (km/s) = 3.29844 3.68230 3.49564
# Velocity P-wave (km/s) = 5.42638 5.89176 5.66386
#
# Compressibility (1/GPa) = 0.03230135
#
# Stress axis : x y z
#
# Youngs Moduli (GPa) = 76.32641 35.02292 32.38039
#
# Poissons Ratio (x) = 0.16681 -0.02849
# Poissons Ratio (y) = 0.36354 0.52570
# Poissons Ratio (z) = -0.06717 0.56860
#
# Static dielectric constant tensor:
#      x y z
#    x 1.757380 0.000000 0.011780 
#    y 0.000000 1.731990 0.000000 
#    z 0.011780 0.000000 1.747950 
# 
# From -- ./inp_files/9270.got.cif
#   From: 2010.05.17/outbox.cif.g08.bks.cpg/sg9_5_cif.got.tgz:9270.got - 2010.06.03 20:04:27.
