data_PCOD9135189
_publ_section_title
;
Structure prediction by ZEFSAII (Michael W. Deem and Ramdas Pophale) SiO2 
 PCOD9135189
Probable space group: C C
;
_chemical_formula_sum "Si O2"
_cell_formula_units_Z 32
_cell_length_a 18.121486
_cell_length_b 6.630884
_cell_length_c 22.717129
_cell_angle_alpha 90.000000
_cell_angle_beta 33.596918
_cell_angle_gamma 90.000000
_cell_volume 1510.483696
_symmetry_space_group_name_H-M "C C"
_symmetry_group_IT_number 9
_symmetry_cell_setting 'monoclinic'
loop_
_space_group_symop_operation_xyz
x,y,z
x,-y,1/2+z
1/2+x,1/2+y,z
1/2+x,1/2-y,1/2+z
loop_
_atom_site_type_symbol
_atom_site_label
_atom_site_fract_x
_atom_site_fract_y
_atom_site_fract_z
Si Si1 0.425600 0.379829 0.029910
Si Si2 0.818345 0.223994 0.302870
Si Si3 0.386037 0.471075 0.360707
Si Si4 0.690221 0.527336 0.304447
Si Si5 0.931324 0.158416 0.659423
Si Si6 0.495293 0.898946 0.719341
Si Si7 0.194640 0.051398 0.167934
Si Si8 0.776649 0.836677 0.558837
O O1 0.475006 0.364946 0.063655
O O2 0.300068 0.233710 0.101823
O O3 0.371698 0.599209 0.048730
O O4 0.553107 0.351667 0.904125
O O5 0.706380 0.342094 0.339549
O O6 0.922925 0.398548 0.249675
O O7 0.790934 0.109081 0.382850
O O8 0.885040 0.052725 0.217718
O O9 0.403503 0.254803 0.317001
O O10 0.535440 0.570445 0.261975
O O11 0.336613 0.426170 0.459066
O O12 0.806661 0.687392 0.240120
O O13 0.699821 0.457237 0.230575
O O14 0.032508 0.270285 0.635958
O O15 0.630682 0.932654 0.664128
O O16 0.251259 0.900309 0.080990
#
# Coordination Sequence:
#
# PCOD9135189 Si02
#       8
#     4   4   4   4   4   4   4   4
#     4  11  22  38  63  91 118 166 212 251 318 371
#     4  10  20  38  60  84 126 164 198 266 310 364
#     4  10  21  39  60  89 123 162 208 254 315 372
#     4  10  21  39  60  89 123 162 208 254 315 372
#     4   9  21  38  58  86 124 161 202 261 309 373
#     4   9  21  38  58  86 124 161 202 261 309 373
#     4  10  22  42  58  88 134 156 206 272 302 370
#     4  11  22  38  63  91 118 166 212 251 318 371
#
# _framework density 21.185269000000002
#
# number of rings (size 3 to 8) (size 9 to 14) (size 15 to 20)
#    0.000    2.000    1.250    1.500    0.000    6.000 
#    9.000    0.000    0.000    0.000    0.000    0.000 
#    0.000    0.000    0.000    0.000    0.000    0.000 
#
# Total GULP energy -89193.352022 kJ/mol
# GULP energy per Si atom -5574.584501 kJ/mol
# Density = 2.113705 g / cm^3
# Si number density = 21.185269 Si / 1000 Ang^3
#
#
#
# Elastic Constant Matrix: (Units=GPa)
#
#
# Indices 1 2 3 4 5 6 
#
# 1 77.8118 25.0657 4.1776 -0.0007 9.3660 0.0012
# 2 25.0657 61.9195 22.0628 -0.0012 15.0010 0.0021
# 3 4.1776 22.0628 49.9556 -0.0005 11.3092 0.0010
# 4 -0.0007 -0.0012 -0.0005 17.7544 0.0001 1.5256
# 5 9.3660 15.0010 11.3092 0.0001 30.9693 -0.0003
# 6 0.0012 0.0021 0.0010 1.5256 -0.0003 28.9388
#
#
#
# Elastic Compliance Matrix: (Units=1/GPa)
#
#
# Indices 1 2 3 4 5 6 
#
# 1 0.015030 -0.006257 0.002016 0.000000 -0.002251 0.000000
# 2 -0.006257 0.023160 -0.008278 0.000001 -0.006303 -0.000001
# 3 0.002016 -0.008278 0.024784 0.000000 -0.005651 0.000000
# 4 0.000000 0.000001 0.000000 0.056580 -0.000001 -0.002983
# 5 -0.002251 -0.006303 -0.005651 -0.000001 0.038087 0.000001
# 6 0.000000 -0.000001 0.000000 -0.002983 0.000001 0.034713
#
#
# Mechanical properties :
#
#
# Convention : Reuss Voigt Hill
#
# Bulk Modulus (GPa) = 26.36082 32.47767 29.41925
# Shear Modulus (GPa) = 21.73552 24.75790 23.24671
#
# Velocity S-wave (km/s) = 3.20656 3.42224 3.31615
# Velocity P-wave (km/s) = 5.11658 5.56590 5.34596
#
# Compressibility (1/GPa) = 0.03793508
#
# Stress axis : x y z
#
# Youngs Moduli (GPa) = 66.53404 43.17857 40.34790
#
# Poissons Ratio (x) = 0.27018 -0.08135
# Poissons Ratio (y) = 0.41633 0.33401
# Poissons Ratio (z) = -0.13415 0.35744
#
# Static dielectric constant tensor:
#      x y z
#    x 1.798920 0.000000 0.014020 
#    y 0.000000 1.766170 0.000000 
#    z 0.014020 0.000000 1.741000 
# 
# From -- ./inp_files/19688.got.cif
#   From: 2010.05.17/outbox.cif.g08.bks.cpg/sg9_10_cif.got.tgz:19688.got - 2010.06.03 20:04:27.
