data_PCOD9135863
_publ_section_title
;
Structure prediction by ZEFSAII (Michael W. Deem and Ramdas Pophale) SiO2 
 PCOD9135863
Probable space group: C C
;
_chemical_formula_sum "Si O2"
_cell_formula_units_Z 20
_cell_length_a 9.183693
_cell_length_b 15.506592
_cell_length_c 4.964252
_cell_angle_alpha 90.000000
_cell_angle_beta 71.885501
_cell_angle_gamma 90.000000
_cell_volume 671.909698
_symmetry_space_group_name_H-M "C C"
_symmetry_group_IT_number 9
_symmetry_cell_setting 'monoclinic'
loop_
_space_group_symop_operation_xyz
x,y,z
x,-y,1/2+z
1/2+x,1/2+y,z
1/2+x,1/2-y,1/2+z
loop_
_atom_site_type_symbol
_atom_site_label
_atom_site_fract_x
_atom_site_fract_y
_atom_site_fract_z
Si Si1 0.276680 0.923548 0.384870
Si Si2 0.017952 0.200421 0.103426
Si Si3 0.478576 0.537192 0.500406
Si Si4 0.991717 0.687933 0.134499
Si Si5 0.594437 0.950558 0.928508
O O1 0.166807 0.842324 0.378622
O O2 0.152262 0.997919 0.967793
O O3 0.365397 0.878606 0.588286
O O4 0.410528 0.945263 0.096782
O O5 0.959455 0.122128 0.332103
O O6 0.434153 0.255103 0.397474
O O7 0.051006 0.269370 0.322929
O O8 0.416334 0.536596 0.835905
O O9 0.115398 0.634907 0.242028
O O10 0.642931 0.027931 0.701890
#
# Coordination Sequence:
#
# PCOD9135863 Si02
#       5
#     4   4   4   4   4
#     4  11  24  40  68  98 141 181 230 290 353 416
#     4  11  24  40  62  97 150 178 228 286 367 415
#     4  10  21  35  62  96 127 169 224 279 336 402
#     4  12  25  40  59 105 145 185 216 298 365 415
#     4  12  22  37  63  96 135 173 228 283 345 412
#
# _framework density 29.765906999999999
#
# number of rings (size 3 to 8) (size 9 to 14) (size 15 to 20)
#    0.000    0.800    4.000    4.800    8.400    0.000 
#    0.000    0.000    0.000    0.000    0.000   56.000 
#    0.000    0.000    0.000    0.000    0.000    0.000 
#
# Total GULP energy -55738.360011 kJ/mol
# GULP energy per Si atom -5573.836001 kJ/mol
# Density = 2.969816 g / cm^3
# Si number density = 29.765907 Si / 1000 Ang^3
#
#
#
# Elastic Constant Matrix: (Units=GPa)
#
#
# Indices 1 2 3 4 5 6 
#
# 1 138.0730 25.1347 59.4417 0.0000 18.8098 0.0000
# 2 25.1347 154.2575 49.2415 0.0000 12.4395 0.0000
# 3 59.4417 49.2415 194.6902 0.0000 42.3348 0.0000
# 4 0.0000 0.0000 0.0000 81.0093 0.0000 10.0070
# 5 18.8098 12.4395 42.3348 0.0000 71.9596 0.0000
# 6 0.0000 0.0000 0.0000 10.0070 0.0000 39.4603
#
#
#
# Elastic Compliance Matrix: (Units=1/GPa)
#
#
# Indices 1 2 3 4 5 6 
#
# 1 0.008426 -0.000591 -0.002255 0.000000 -0.000774 0.000000
# 2 -0.000591 0.007096 -0.001584 0.000000 -0.000140 0.000000
# 3 -0.002255 -0.001584 0.006923 0.000000 -0.003210 0.000000
# 4 0.000000 0.000000 0.000000 0.012743 0.000000 -0.003232
# 5 -0.000774 -0.000140 -0.003210 0.000000 0.016012 0.000000
# 6 0.000000 0.000000 0.000000 -0.003232 0.000000 0.026161
#
#
# Mechanical properties :
#
#
# Convention : Reuss Voigt Hill
#
# Bulk Modulus (GPa) = 73.60261 83.85072 78.72666
# Shear Modulus (GPa) = 55.09643 62.03271 58.56457
#
# Velocity S-wave (km/s) = 4.30698 4.57006 4.44047
# Velocity P-wave (km/s) = 7.03664 7.48855 7.26611
#
# Compressibility (1/GPa) = 0.01358647
#
# Stress axis : x y z
#
# Youngs Moduli (GPa) = 118.67608 140.92805 144.43765
#
# Poissons Ratio (x) = 0.08325 0.32571
# Poissons Ratio (y) = 0.07011 0.22876
# Poissons Ratio (z) = 0.26761 0.22320
#
# Static dielectric constant tensor:
#      x y z
#    x 2.535220 0.000000 -0.097760 
#    y 0.000000 2.557970 0.000000 
#    z -0.097760 0.000000 2.736500 
# 
# From -- ./inp_files/2425.got.cif
#   From: 2010.05.17/outbox.cif.g08.bks.cpg/sg9_2_cif.got.tgz:2425.got - 2010.06.03 20:04:27.
