data_PCOD9135215
_publ_section_title
;
Structure prediction by ZEFSAII (Michael W. Deem and Ramdas Pophale) SiO2 
 PCOD9135215
Probable space group: C C
;
_chemical_formula_sum "Si O2"
_cell_formula_units_Z 32
_cell_length_a 9.421849
_cell_length_b 9.752954
_cell_length_c 20.644945
_cell_angle_alpha 90.000000
_cell_angle_beta 53.884563
_cell_angle_gamma 90.000000
_cell_volume 1532.521654
_symmetry_space_group_name_H-M "C C"
_symmetry_group_IT_number 9
_symmetry_cell_setting 'monoclinic'
loop_
_space_group_symop_operation_xyz
x,y,z
x,-y,1/2+z
1/2+x,1/2+y,z
1/2+x,1/2-y,1/2+z
loop_
_atom_site_type_symbol
_atom_site_label
_atom_site_fract_x
_atom_site_fract_y
_atom_site_fract_z
Si Si1 0.220750 0.501880 0.029810
Si Si2 0.848026 0.274421 0.053197
Si Si3 0.018365 0.518130 0.948053
Si Si4 0.193470 0.170563 0.908030
Si Si5 0.848044 0.574864 0.300784
Si Si6 0.165250 0.658681 0.299672
Si Si7 0.982612 0.806604 0.903566
Si Si8 0.418974 0.848947 0.173077
O O1 0.227799 0.649317 0.062507
O O2 0.116820 0.389036 0.100143
O O3 0.122220 0.516850 0.987821
O O4 0.409436 0.438880 0.960881
O O5 0.817238 0.338289 0.131893
O O6 0.868974 0.401950 0.998431
O O7 0.042829 0.202674 0.000157
O O8 0.138524 0.470051 0.854932
O O9 0.954584 0.670379 0.953077
O O10 0.280836 0.023882 0.877285
O O11 0.110142 0.214698 0.861427
O O12 0.354072 0.275684 0.878066
O O13 0.186383 0.176521 0.332255
O O14 0.869593 0.474111 0.233899
O O15 0.028955 0.639233 0.277531
O O16 0.356913 0.707237 0.223607
#
# Coordination Sequence:
#
# PCOD9135215 Si02
#       8
#     4   4   4   4   4   4   4   4
#     4  11  22  42  67  96 129 176 218 276 325 384
#     4  10  20  42  65  90 132 172 211 268 332 382
#     4  10  23  36  66  97 128 161 223 275 320 387
#     4  10  20  38  62  94 121 162 220 270 317 384
#     4  11  23  37  65  96 129 170 224 267 326 386
#     4  10  20  39  60  92 129 171 208 269 324 385
#     4  12  22  38  68  99 122 162 224 275 317 382
#     4  10  22  40  65  92 136 178 216 260 335 398
#
# _framework density 20.880618999999999
#
# number of rings (size 3 to 8) (size 9 to 14) (size 15 to 20)
#    0.000    1.500    6.250    0.750    3.500    0.000 
#    0.000    5.000    2.750    0.000    0.000    0.000 
#    0.000    0.000    0.000    0.000    0.000    0.000 
#
# Total GULP energy -89070.476971 kJ/mol
# GULP energy per Si atom -5566.904811 kJ/mol
# Density = 2.083309 g / cm^3
# Si number density = 20.880619 Si / 1000 Ang^3
#
#
#
# Elastic Constant Matrix: (Units=GPa)
#
#
# Indices 1 2 3 4 5 6 
#
# 1 79.7755 32.7596 32.5434 0.0000 2.1239 0.0000
# 2 32.7596 88.2144 20.9777 0.0000 8.8861 0.0000
# 3 32.5434 20.9777 83.0203 0.0000 13.4974 0.0000
# 4 0.0000 0.0000 0.0000 24.7685 0.0000 3.5314
# 5 2.1239 8.8861 13.4974 0.0000 19.6253 0.0000
# 6 0.0000 0.0000 0.0000 3.5314 0.0000 43.4068
#
#
#
# Elastic Compliance Matrix: (Units=1/GPa)
#
#
# Indices 1 2 3 4 5 6 
#
# 1 0.017119 -0.005383 -0.006131 0.000000 0.004801 0.000000
# 2 -0.005383 0.014009 -0.000555 0.000000 -0.005379 0.000000
# 3 -0.006131 -0.000555 0.016258 0.000000 -0.010267 0.000000
# 4 0.000000 0.000000 0.000000 0.040848 0.000000 -0.003323
# 5 0.004801 -0.005379 -0.010267 0.000000 0.059931 0.000000
# 6 0.000000 0.000000 0.000000 -0.003323 0.000000 0.023308
#
#
# Mechanical properties :
#
#
# Convention : Reuss Voigt Hill
#
# Bulk Modulus (GPa) = 43.01544 47.06351 45.03947
# Shear Modulus (GPa) = 24.58692 28.54209 26.56450
#
# Velocity S-wave (km/s) = 3.43519 3.70120 3.57067
# Velocity P-wave (km/s) = 6.03154 6.39167 6.21421
#
# Compressibility (1/GPa) = 0.02324747
#
# Stress axis : x y z
#
# Youngs Moduli (GPa) = 58.41492 71.38303 61.50842
#
# Poissons Ratio (x) = 0.38426 0.37710
# Poissons Ratio (y) = 0.31445 0.03415
# Poissons Ratio (z) = 0.35814 0.03963
#
# Static dielectric constant tensor:
#      x y z
#    x 1.800800 0.000000 -0.000470 
#    y 0.000000 1.769240 0.000000 
#    z -0.000470 0.000000 1.809500 
# 
# From -- ./inp_files/33137.got.cif
#   From: 2010.05.17/outbox.cif.g08.bks.cpg/sg9_17_cif.got.tgz:33137.got - 2010.06.03 20:04:27.
