data_PCOD9135039
_publ_section_title
;
Structure prediction by ZEFSAII (Michael W. Deem and Ramdas Pophale) SiO2 
 PCOD9135039
Probable space group: C C
;
_chemical_formula_sum "Si O2"
_cell_formula_units_Z 32
_cell_length_a 18.060801
_cell_length_b 5.216050
_cell_length_c 18.000220
_cell_angle_alpha 90.000000
_cell_angle_beta 100.480044
_cell_angle_gamma 90.000000
_cell_volume 1667.441848
_symmetry_space_group_name_H-M "C C"
_symmetry_group_IT_number 9
_symmetry_cell_setting 'monoclinic'
loop_
_space_group_symop_operation_xyz
x,y,z
x,-y,1/2+z
1/2+x,1/2+y,z
1/2+x,1/2-y,1/2+z
loop_
_atom_site_type_symbol
_atom_site_label
_atom_site_fract_x
_atom_site_fract_y
_atom_site_fract_z
Si Si1 0.541010 0.762205 0.665130
Si Si2 0.248332 0.911854 0.478176
Si Si3 0.887478 0.683164 0.456913
Si Si4 0.562286 0.269848 0.765216
Si Si5 0.106825 0.804183 0.015182
Si Si6 0.135588 0.444158 0.890226
Si Si7 0.501084 0.568293 0.878054
Si Si8 0.898281 0.805788 0.049147
O O1 0.572066 0.522120 0.717523
O O2 0.584341 0.755842 0.594476
O O3 0.453230 0.718410 0.628461
O O4 0.547104 0.031420 0.708487
O O5 0.209978 0.723914 0.411353
O O6 0.310196 0.766496 0.539972
O O7 0.298659 0.121906 0.443683
O O8 0.182781 0.033644 0.515536
O O9 0.922428 0.415120 0.493201
O O10 0.925981 0.786241 0.389291
O O11 0.901925 0.908582 0.518466
O O12 0.498181 0.350077 0.814350
O O13 0.630838 0.177385 0.831259
O O14 0.120914 0.550816 0.969804
O O15 0.040901 0.954118 0.959023
O O16 0.063348 0.268323 0.859900
#
# Coordination Sequence:
#
# PCOD9135039 Si02
#       8
#     4   4   4   4   4   4   4   4
#     4  12  23  40  63  96 129 173 214 264 327 389
#     4   9  22  36  66  95 127 160 213 280 320 372
#     4  10  20  36  63  98 119 159 209 278 314 367
#     4  11  25  38  61  95 138 172 209 266 329 389
#     4  10  21  36  69  93 122 164 223 273 312 378
#     4  10  20  42  63  96 127 168 217 271 318 381
#     4  10  20  39  64  94 125 164 219 267 314 382
#     4  10  21  37  61  95 125 156 210 271 320 372
#
# _framework density 19.191075000000001
#
# number of rings (size 3 to 8) (size 9 to 14) (size 15 to 20)
#    0.750    1.000    2.500    2.250    5.250    0.000 
#    0.000    0.000    2.750    4.500    0.000    0.000 
#    0.000    0.000    0.000    0.000    0.000    0.000 
#
# Total GULP energy -89113.616699 kJ/mol
# GULP energy per Si atom -5569.601044 kJ/mol
# Density = 1.914740 g / cm^3
# Si number density = 19.191075 Si / 1000 Ang^3
#
#
#
# Elastic Constant Matrix: (Units=GPa)
#
#
# Indices 1 2 3 4 5 6 
#
# 1 84.9602 25.4698 32.9503 0.0000 -6.1619 0.0000
# 2 25.4698 114.3912 47.3487 0.0000 -0.9771 0.0000
# 3 32.9503 47.3487 112.6094 0.0000 -7.9582 0.0000
# 4 0.0000 0.0000 0.0000 36.3966 0.0000 4.1310
# 5 -6.1619 -0.9771 -7.9582 0.0000 7.2976 0.0000
# 6 0.0000 0.0000 0.0000 4.1310 0.0000 33.2997
#
#
#
# Elastic Compliance Matrix: (Units=1/GPa)
#
#
# Indices 1 2 3 4 5 6 
#
# 1 0.014017 -0.001940 -0.002674 0.000000 0.008660 0.000000
# 2 -0.001940 0.010947 -0.004385 0.000000 -0.004955 0.000000
# 3 -0.002674 -0.004385 0.012249 0.000000 0.010514 0.000000
# 4 0.000000 0.000000 0.000000 0.027867 0.000000 -0.003457
# 5 0.008660 -0.004955 0.010514 0.000000 0.155146 0.000000
# 6 0.000000 0.000000 0.000000 -0.003457 0.000000 0.030459
#
#
# Mechanical properties :
#
#
# Convention : Reuss Voigt Hill
#
# Bulk Modulus (GPa) = 52.04295 58.16649 55.10472
# Shear Modulus (GPa) = 18.17592 29.14490 23.66041
#
# Velocity S-wave (km/s) = 3.08084 3.90124 3.51506
# Velocity P-wave (km/s) = 6.31131 7.11813 6.72683
#
# Compressibility (1/GPa) = 0.01921490
#
# Stress axis : x y z
#
# Youngs Moduli (GPa) = 71.34249 91.35138 81.63662
#
# Poissons Ratio (x) = 0.17725 0.21826
# Poissons Ratio (y) = 0.13843 0.35799
# Poissons Ratio (z) = 0.19074 0.40059
#
# Static dielectric constant tensor:
#      x y z
#    x 1.699600 0.000000 0.000760 
#    y 0.000000 1.732720 0.000000 
#    z 0.000760 0.000000 1.671020 
# 
# From -- ./inp_files/30867.got.cif
#   From: 2010.05.17/outbox.cif.g08.bks.cpg/sg9_16_cif.got.tgz:30867.got - 2010.06.03 20:04:27.
