data_PCOD9135121
_publ_section_title
;
Structure prediction by ZEFSAII (Michael W. Deem and Ramdas Pophale) SiO2 
 PCOD9135121
Probable space group: C C
;
_chemical_formula_sum "Si O2"
_cell_formula_units_Z 32
_cell_length_a 8.210648
_cell_length_b 11.802809
_cell_length_c 23.022748
_cell_angle_alpha 90.000000
_cell_angle_beta 146.991224
_cell_angle_gamma 90.000000
_cell_volume 1215.433364
_symmetry_space_group_name_H-M "C C"
_symmetry_group_IT_number 9
_symmetry_cell_setting 'monoclinic'
loop_
_space_group_symop_operation_xyz
x,y,z
x,-y,1/2+z
1/2+x,1/2+y,z
1/2+x,1/2-y,1/2+z
loop_
_atom_site_type_symbol
_atom_site_label
_atom_site_fract_x
_atom_site_fract_y
_atom_site_fract_z
Si Si1 0.648060 0.933827 0.231340
Si Si2 0.604067 0.420024 0.537929
Si Si3 0.602154 0.806804 0.508726
Si Si4 0.973434 0.503409 0.383437
Si Si5 0.170762 0.723494 0.479669
Si Si6 0.876171 0.151549 0.349505
Si Si7 0.741932 0.294106 0.698145
Si Si8 0.742092 0.350095 0.217911
O O1 0.404664 0.007904 0.122567
O O2 0.884461 0.024982 0.327188
O O3 0.775860 0.835273 0.229036
O O4 0.451031 0.880983 0.225379
O O5 0.319352 0.496614 0.465476
O O6 0.532170 0.335811 0.464808
O O7 0.658037 0.336528 0.608364
O O8 0.478924 0.915911 0.438390
O O9 0.377793 0.765790 0.489927
O O10 0.620387 0.706237 0.465252
O O11 0.927625 0.828531 0.633553
O O12 0.926967 0.631847 0.388115
O O13 0.772235 0.452694 0.272588
O O14 0.405364 0.666669 0.594579
O O15 0.573607 0.155135 0.298563
O O16 0.832505 0.239736 0.283001
#
# Coordination Sequence:
#
# PCOD9135121 Si02
#       8
#     4   4   4   4   4   4   4   4
#     4  11  20  37  64  85 120 167 202 256 308 360
#     4  10  22  39  60  87 125 159 202 257 303 364
#     4  10  22  41  64  92 128 161 207 261 310 366
#     4  10  23  41  62  91 125 162 200 263 308 363
#     4  12  21  42  63  91 122 165 209 247 313 375
#     4  10  23  43  61  93 129 158 207 265 305 370
#     4  10  20  37  63  89 119 165 206 245 315 369
#     4  11  21  40  65  90 124 161 211 250 310 375
#
# _framework density 26.328059
#
# number of rings (size 3 to 8) (size 9 to 14) (size 15 to 20)
#    0.000    1.500    5.000    0.750    0.000    2.000 
#    0.000   10.000    0.000    0.000    0.000    0.000 
#    0.000    0.000    0.000    0.000    0.000    0.000 
#
# Total GULP energy -89619.952404 kJ/mol
# GULP energy per Si atom -5601.247025 kJ/mol
# Density = 2.626813 g / cm^3
# Si number density = 26.328059 Si / 1000 Ang^3
#
#
#
# Elastic Constant Matrix: (Units=GPa)
#
#
# Indices 1 2 3 4 5 6 
#
# 1 33.3533 46.6505 17.0503 0.0000 1.4027 0.0000
# 2 46.6505 163.2770 35.7105 0.0000 -19.6511 0.0000
# 3 17.0503 35.7105 95.6473 0.0000 3.9419 0.0000
# 4 0.0000 0.0000 0.0000 60.6986 0.0000 -11.7972
# 5 1.4027 -19.6511 3.9419 0.0000 28.4518 0.0000
# 6 0.0000 0.0000 0.0000 -11.7972 0.0000 49.3215
#
#
#
# Elastic Compliance Matrix: (Units=1/GPa)
#
#
# Indices 1 2 3 4 5 6 
#
# 1 0.055912 -0.017005 -0.003038 0.000000 -0.014081 0.000000
# 2 -0.017005 0.012625 -0.002088 0.000000 0.009848 0.000000
# 3 -0.003038 -0.002088 0.011897 0.000000 -0.002941 0.000000
# 4 0.000000 0.000000 0.000000 0.017278 0.000000 0.004133
# 5 -0.014081 0.009848 -0.002941 0.000000 0.043050 0.000000
# 6 0.000000 0.000000 0.000000 0.004133 0.000000 0.021264
#
#
# Mechanical properties :
#
#
# Convention : Reuss Voigt Hill
#
# Bulk Modulus (GPa) = 27.64542 54.56668 41.10605
# Shear Modulus (GPa) = 22.89952 40.55213 31.72583
#
# Velocity S-wave (km/s) = 2.95240 3.92888 3.47511
# Velocity P-wave (km/s) = 4.70589 6.43056 5.63460
#
# Compressibility (1/GPa) = 0.03617235
#
# Stress axis : x y z
#
# Youngs Moduli (GPa) = 17.88538 79.20781 84.05194
#
# Poissons Ratio (x) = 1.34693 0.25532
# Poissons Ratio (y) = 0.30414 0.17551
# Poissons Ratio (z) = 0.05433 0.16540
#
# Static dielectric constant tensor:
#      x y z
#    x 2.064750 0.000000 -0.016800 
#    y 0.000000 2.060480 0.000000 
#    z -0.016800 0.000000 2.078880 
# 
# From -- ./inp_files/29255.got.cif
#   From: 2010.05.17/outbox.cif.g08.bks.cpg/sg9_15_cif.got.tgz:29255.got - 2010.06.03 20:04:27.
