data_PCOD9135294
_publ_section_title
;
Structure prediction by ZEFSAII (Michael W. Deem and Ramdas Pophale) SiO2 
 PCOD9135294
Probable space group: C C
;
_chemical_formula_sum "Si O2"
_cell_formula_units_Z 32
_cell_length_a 7.793033
_cell_length_b 13.861670
_cell_length_c 14.070172
_cell_angle_alpha 90.000000
_cell_angle_beta 80.103451
_cell_angle_gamma 90.000000
_cell_volume 1497.305681
_symmetry_space_group_name_H-M "C C"
_symmetry_group_IT_number 9
_symmetry_cell_setting 'monoclinic'
loop_
_space_group_symop_operation_xyz
x,y,z
x,-y,1/2+z
1/2+x,1/2+y,z
1/2+x,1/2-y,1/2+z
loop_
_atom_site_type_symbol
_atom_site_label
_atom_site_fract_x
_atom_site_fract_y
_atom_site_fract_z
Si Si1 0.143950 0.186232 0.316090
Si Si2 0.284275 0.595082 0.122508
Si Si3 0.475451 0.502028 0.764066
Si Si4 0.144207 0.737502 0.412743
Si Si5 0.503091 0.074458 0.309318
Si Si6 0.282080 0.644728 0.912897
Si Si7 0.548465 0.768415 0.128411
Si Si8 0.836084 0.608880 0.772191
O O1 0.323865 0.132080 0.317358
O O2 0.145097 0.273730 0.391906
O O3 0.004351 0.099241 0.318349
O O4 0.150323 0.232960 0.211161
O O5 0.417284 0.520978 0.161802
O O6 0.385231 0.696437 0.126994
O O7 0.113000 0.587683 0.202680
O O8 0.244010 0.590275 0.015085
O O9 0.329857 0.567971 0.827001
O O10 0.658446 0.558241 0.754330
O O11 0.284675 0.795310 0.336272
O O12 0.111196 0.630154 0.378517
O O13 0.965585 0.798390 0.412893
O O14 0.165358 0.732990 0.523741
O O15 0.442161 0.965105 0.327775
O O16 0.456829 0.866484 0.170745
#
# Coordination Sequence:
#
# PCOD9135294 Si02
#       8
#     4   4   4   4   4   4   4   4
#     4   9  20  39  58  83 123 159 203 250 308 370
#     4  10  20  39  59  86 122 158 203 258 307 365
#     4   9  20  39  59  85 122 161 203 256 301 372
#     4   9  19  40  62  85 121 164 202 250 316 365
#     4  10  20  39  58  87 123 157 204 260 297 370
#     4   9  19  38  63  85 120 163 200 252 314 364
#     4  10  20  39  62  86 119 164 201 250 319 369
#     4  10  20  39  61  87 122 162 202 254 312 363
#
# _framework density 21.371721000000001
#
# number of rings (size 3 to 8) (size 9 to 14) (size 15 to 20)
#    0.000    2.500    1.250    0.000    1.750    0.000 
#   22.500    0.000    0.000    0.000    0.000    0.000 
#    0.000    0.000    0.000    0.000    0.000    0.000 
#
# Total GULP energy -89236.836700 kJ/mol
# GULP energy per Si atom -5577.302294 kJ/mol
# Density = 2.132308 g / cm^3
# Si number density = 21.371721 Si / 1000 Ang^3
#
#
#
# Elastic Constant Matrix: (Units=GPa)
#
#
# Indices 1 2 3 4 5 6 
#
# 1 45.2963 8.5361 -5.6002 0.0000 8.7563 0.0000
# 2 8.5361 90.2996 30.7339 0.0000 7.8402 0.0000
# 3 -5.6002 30.7339 95.0823 0.0000 4.4186 0.0000
# 4 0.0000 0.0000 0.0000 22.3798 0.0000 -0.3769
# 5 8.7563 7.8402 4.4186 0.0000 24.7950 0.0000
# 6 0.0000 0.0000 0.0000 -0.3769 0.0000 20.1657
#
#
#
# Elastic Compliance Matrix: (Units=1/GPa)
#
#
# Indices 1 2 3 4 5 6 
#
# 1 0.024481 -0.002487 0.002633 0.000000 -0.008328 0.000000
# 2 -0.002487 0.012960 -0.004221 0.000000 -0.002467 0.000000
# 3 0.002633 -0.004221 0.012118 0.000000 -0.001755 0.000000
# 4 0.000000 0.000000 0.000000 0.044697 0.000000 0.000835
# 5 -0.008328 -0.002467 -0.001755 0.000000 0.044365 0.000000
# 6 0.000000 0.000000 0.000000 0.000835 0.000000 0.049605
#
#
# Mechanical properties :
#
#
# Convention : Reuss Voigt Hill
#
# Bulk Modulus (GPa) = 24.14951 33.11310 28.63131
# Shear Modulus (GPa) = 23.78916 26.60200 25.19558
#
# Velocity S-wave (km/s) = 3.33996 3.53190 3.43727
# Velocity P-wave (km/s) = 5.11840 5.67097 5.40176
#
# Compressibility (1/GPa) = 0.04140871
#
# Stress axis : x y z
#
# Youngs Moduli (GPa) = 40.84791 77.15901 82.52047
#
# Poissons Ratio (x) = 0.19191 -0.21727
# Poissons Ratio (y) = 0.10160 0.34832
# Poissons Ratio (z) = -0.10755 0.32569
#
# Static dielectric constant tensor:
#      x y z
#    x 1.785140 0.000000 0.014610 
#    y 0.000000 1.813340 0.000000 
#    z 0.014610 0.000000 1.740560 
# 
# From -- ./inp_files/14612.got.cif
#   From: 2010.05.17/outbox.cif.g08.bks.cpg/sg9_8_cif.got.tgz:14612.got - 2010.06.03 20:04:27.
