data_PCOD9135556
_publ_section_title
;
Structure prediction by ZEFSAII (Michael W. Deem and Ramdas Pophale) SiO2 
 PCOD9135556
Probable space group: C C
;
_chemical_formula_sum "Si O2"
_cell_formula_units_Z 32
_cell_length_a 9.861169
_cell_length_b 10.115539
_cell_length_c 19.277774
_cell_angle_alpha 90.000000
_cell_angle_beta 135.555237
_cell_angle_gamma 90.000000
_cell_volume 1346.510186
_symmetry_space_group_name_H-M "C C"
_symmetry_group_IT_number 9
_symmetry_cell_setting 'monoclinic'
loop_
_space_group_symop_operation_xyz
x,y,z
x,-y,1/2+z
1/2+x,1/2+y,z
1/2+x,1/2-y,1/2+z
loop_
_atom_site_type_symbol
_atom_site_label
_atom_site_fract_x
_atom_site_fract_y
_atom_site_fract_z
Si Si1 0.712790 0.097338 0.323480
Si Si2 0.316385 0.390272 0.464241
Si Si3 0.995570 0.149595 0.596050
Si Si4 0.692912 0.511636 0.797335
Si Si5 0.142593 0.296802 0.059921
Si Si6 0.366457 0.216958 0.270825
Si Si7 0.516088 0.799159 0.469002
Si Si8 0.282061 0.499587 0.711456
O O1 0.578649 0.192110 0.319684
O O2 0.922911 0.164905 0.402834
O O3 0.695017 0.961007 0.359386
O O4 0.667598 0.085146 0.225803
O O5 0.449101 0.510777 0.540872
O O6 0.435117 0.267683 0.476476
O O7 0.189725 0.343745 0.483070
O O8 0.786216 0.199153 0.547743
O O9 0.073545 0.252968 0.567464
O O10 0.123982 0.110982 0.709885
O O11 0.801273 0.389718 0.801580
O O12 0.847898 0.589652 0.900895
O O13 0.492624 0.460349 0.758866
O O14 0.237956 0.204910 0.154207
O O15 0.157868 0.440743 0.102430
O O16 0.338370 0.369778 0.277707
#
# Coordination Sequence:
#
# PCOD9135556 Si02
#       8
#     4   4   4   4   4   4   4   4
#     4  11  22  40  63  91 128 162 207 263 309 375
#     4  11  23  40  59  94 128 161 209 264 313 370
#     4  10  22  44  64  87 131 165 210 263 312 375
#     4  11  20  44  65  91 128 171 209 263 315 370
#     4   9  21  43  63  89 123 165 210 259 315 369
#     4  10  20  41  65  86 126 164 210 258 311 369
#     4  11  24  41  65  97 127 167 212 258 318 374
#     4   9  22  39  64  91 117 165 213 250 313 378
#
# _framework density 23.765139000000001
#
# number of rings (size 3 to 8) (size 9 to 14) (size 15 to 20)
#    0.750    1.000    3.750    0.000    1.750    2.000 
#   11.250    0.000    0.000    0.000    0.000    0.000 
#    0.000    0.000    0.000    0.000    0.000    0.000 
#
# Total GULP energy -89325.570390 kJ/mol
# GULP energy per Si atom -5582.848149 kJ/mol
# Density = 2.371105 g / cm^3
# Si number density = 23.765139 Si / 1000 Ang^3
#
#
#
# Elastic Constant Matrix: (Units=GPa)
#
#
# Indices 1 2 3 4 5 6 
#
# 1 70.1924 56.7465 22.5865 0.0000 -17.9455 0.0000
# 2 56.7465 63.5103 4.1356 0.0000 -7.5058 0.0000
# 3 22.5865 4.1356 76.2798 0.0000 -19.3967 0.0000
# 4 0.0000 0.0000 0.0000 34.2019 0.0000 -5.3600
# 5 -17.9455 -7.5058 -19.3967 0.0000 32.5986 0.0000
# 6 0.0000 0.0000 0.0000 -5.3600 0.0000 33.8497
#
#
#
# Elastic Compliance Matrix: (Units=1/GPa)
#
#
# Indices 1 2 3 4 5 6 
#
# 1 0.075696 -0.064540 -0.014254 0.000000 0.018329 0.000000
# 2 -0.064540 0.071215 0.012236 0.000000 -0.011852 0.000000
# 3 -0.014254 0.012236 0.018131 0.000000 0.005759 0.000000
# 4 0.000000 0.000000 0.000000 0.029982 0.000000 0.004748
# 5 0.018329 -0.011852 0.005759 0.000000 0.041464 0.000000
# 6 0.000000 0.000000 0.000000 0.004748 0.000000 0.030294
#
#
# Mechanical properties :
#
#
# Convention : Reuss Voigt Hill
#
# Bulk Modulus (GPa) = 31.32284 41.87998 36.60141
# Shear Modulus (GPa) = 12.17903 28.56428 20.37166
#
# Velocity S-wave (km/s) = 2.26625 3.47066 2.93099
# Velocity P-wave (km/s) = 4.47846 5.80701 5.18546
#
# Compressibility (1/GPa) = 0.03192559
#
# Stress axis : x y z
#
# Youngs Moduli (GPa) = 13.21068 14.04200 55.15354
#
# Poissons Ratio (x) = 0.90628 0.78615
# Poissons Ratio (y) = 0.85262 -0.67484
# Poissons Ratio (z) = 0.18830 -0.17181
#
# Static dielectric constant tensor:
#      x y z
#    x 1.844430 0.000000 0.006060 
#    y 0.000000 1.940130 0.000000 
#    z 0.006060 0.000000 1.969090 
# 
# From -- ./inp_files/32514.got.cif
#   From: 2010.05.17/outbox.cif.g08.bks.cpg/sg9_17_cif.got.tgz:32514.got - 2010.06.03 20:04:27.
