data_PCOD9135112
_publ_section_title
;
Structure prediction by ZEFSAII (Michael W. Deem and Ramdas Pophale) SiO2 
 PCOD9135112
Probable space group: C C
;
_chemical_formula_sum "Si O2"
_cell_formula_units_Z 32
_cell_length_a 12.594882
_cell_length_b 10.070657
_cell_length_c 19.711955
_cell_angle_alpha 90.000000
_cell_angle_beta 39.984102
_cell_angle_gamma 90.000000
_cell_volume 1606.591448
_symmetry_space_group_name_H-M "C C"
_symmetry_group_IT_number 9
_symmetry_cell_setting 'monoclinic'
loop_
_space_group_symop_operation_xyz
x,y,z
x,-y,1/2+z
1/2+x,1/2+y,z
1/2+x,1/2-y,1/2+z
loop_
_atom_site_type_symbol
_atom_site_label
_atom_site_fract_x
_atom_site_fract_y
_atom_site_fract_z
Si Si1 0.027300 0.680645 0.279920
Si Si2 0.519203 0.318382 0.678010
Si Si3 0.991172 0.901757 0.535913
Si Si4 0.535428 0.386088 0.171033
Si Si5 0.150140 0.165164 0.465896
Si Si6 0.639001 0.120699 0.864102
Si Si7 0.135449 0.325697 0.878469
Si Si8 0.656638 0.084148 0.696890
O O1 0.105153 0.785587 0.191326
O O2 0.121222 0.682111 0.304386
O O3 0.031424 0.535948 0.244408
O O4 0.836935 0.710090 0.386404
O O5 0.504368 0.331997 0.603352
O O6 0.592523 0.464499 0.657601
O O7 0.330816 0.307432 0.799047
O O8 0.628685 0.201678 0.656977
O O9 0.020619 0.785075 0.468141
O O10 0.135653 0.010291 0.454178
O O11 0.830104 0.999917 0.611052
O O12 0.337337 0.388463 0.273927
O O13 0.567485 0.332602 0.080087
O O14 0.079768 0.259410 0.440929
O O15 0.616404 0.133495 0.793674
O O16 0.578151 0.977263 0.920262
#
# Coordination Sequence:
#
# PCOD9135112 Si02
#       8
#     4   4   4   4   4   4   4   4
#     4  10  21  36  62  87 123 160 208 262 322 377
#     4  10  21  42  63  86 126 167 206 261 320 374
#     4  11  22  42  60  90 132 158 216 267 309 383
#     4   9  19  39  60  86 124 158 206 262 313 372
#     4  10  20  37  62  89 118 166 202 266 311 383
#     4   9  19  41  60  84 127 158 204 259 319 368
#     4  10  21  40  61  88 125 165 203 263 313 380
#     4  11  21  41  62  88 123 170 199 268 321 371
#
# _framework density 19.917946000000001
#
# number of rings (size 3 to 8) (size 9 to 14) (size 15 to 20)
#    0.000    2.000    5.000    0.750    1.750    2.000 
#   15.750    0.000    0.000    0.000    0.000    0.000 
#    0.000    0.000    0.000    0.000    0.000    0.000 
#
# Total GULP energy -89076.856127 kJ/mol
# GULP energy per Si atom -5567.303508 kJ/mol
# Density = 1.987261 g / cm^3
# Si number density = 19.917946 Si / 1000 Ang^3
#
#
#
# Elastic Constant Matrix: (Units=GPa)
#
#
# Indices 1 2 3 4 5 6 
#
# 1 57.1768 54.2395 24.6145 0.0000 8.0295 0.0000
# 2 54.2395 144.8111 70.6636 0.0000 37.0372 0.0000
# 3 24.6145 70.6636 70.3867 0.0000 9.5256 0.0000
# 4 0.0000 0.0000 0.0000 38.0535 0.0000 10.7746
# 5 8.0295 37.0372 9.5256 0.0000 22.9697 0.0000
# 6 0.0000 0.0000 0.0000 10.7746 0.0000 39.2494
#
#
#
# Elastic Compliance Matrix: (Units=1/GPa)
#
#
# Indices 1 2 3 4 5 6 
#
# 1 0.030012 -0.018116 0.005466 0.000000 0.016453 0.000000
# 2 -0.018116 0.036541 -0.024614 0.000000 -0.042380 0.000000
# 3 0.005466 -0.024614 0.033791 0.000000 0.023766 0.000000
# 4 0.000000 0.000000 0.000000 0.028494 0.000000 -0.007822
# 5 0.016453 -0.042380 0.023766 0.000000 0.096264 0.000000
# 6 0.000000 0.000000 0.000000 -0.007822 0.000000 0.027625
#
#
# Mechanical properties :
#
#
# Convention : Reuss Voigt Hill
#
# Bulk Modulus (GPa) = 38.73888 63.48997 51.11443
# Shear Modulus (GPa) = 14.88710 28.24498 21.56604
#
# Velocity S-wave (km/s) = 2.73687 3.76981 3.29408
# Velocity P-wave (km/s) = 5.42943 7.13397 6.33925
#
# Compressibility (1/GPa) = 0.02581386
#
# Stress axis : x y z
#
# Youngs Moduli (GPa) = 33.32050 27.36622 29.59367
#
# Poissons Ratio (x) = 0.49577 -0.16175
# Poissons Ratio (y) = 0.60364 0.72843
# Poissons Ratio (z) = -0.18212 0.67361
#
# Static dielectric constant tensor:
#      x y z
#    x 1.749740 0.000000 -0.049620 
#    y 0.000000 1.746850 0.000000 
#    z -0.049620 0.000000 1.748090 
# 
# From -- ./inp_files/30589.got.cif
#   From: 2010.05.17/outbox.cif.g08.bks.cpg/sg9_16_cif.got.tgz:30589.got - 2010.06.03 20:04:27.
