data_PCOD9135487
_publ_section_title
;
Structure prediction by ZEFSAII (Michael W. Deem and Ramdas Pophale) SiO2 
 PCOD9135487
Probable space group: C C
;
_chemical_formula_sum "Si O2"
_cell_formula_units_Z 28
_cell_length_a 4.993120
_cell_length_b 31.459889
_cell_length_c 7.705158
_cell_angle_alpha 90.000000
_cell_angle_beta 113.434164
_cell_angle_gamma 90.000000
_cell_volume 1110.516888
_symmetry_space_group_name_H-M "C C"
_symmetry_group_IT_number 9
_symmetry_cell_setting 'monoclinic'
loop_
_space_group_symop_operation_xyz
x,y,z
x,-y,1/2+z
1/2+x,1/2+y,z
1/2+x,1/2-y,1/2+z
loop_
_atom_site_type_symbol
_atom_site_label
_atom_site_fract_x
_atom_site_fract_y
_atom_site_fract_z
Si Si1 0.779620 0.120174 0.619490
Si Si2 0.261684 0.466537 0.313466
Si Si3 0.673347 0.130812 0.224865
Si Si4 0.965518 0.203799 0.809875
Si Si5 0.915017 0.456827 0.558043
Si Si6 0.726504 0.336990 0.814358
Si Si7 0.334329 0.764362 0.080762
O O1 0.792698 0.072733 0.691078
O O2 0.875525 0.123255 0.445635
O O3 0.973636 0.153087 0.779807
O O4 0.443751 0.135051 0.495449
O O5 0.014108 0.453531 0.385553
O O6 0.137564 0.509294 0.197824
O O7 0.580068 0.471298 0.483626
O O8 0.480631 0.089411 0.150600
O O9 0.452303 0.169077 0.210677
O O10 0.935135 0.140770 0.165073
O O11 0.649463 0.214202 0.650839
O O12 0.908765 0.221597 0.990120
O O13 0.194201 0.227503 0.736908
O O14 0.649143 0.294301 0.899131
#
# Coordination Sequence:
#
# PCOD9135487 Si02
#       7
#     4   4   4   4   4   4   4
#     4   9  23  41  68  92 134 176 225 279 348 394
#     4  12  27  44  69 100 140 173 228 282 343 416
#     4  10  20  40  68  88 128 173 227 267 341 405
#     4  11  23  42  66  99 136 184 226 289 344 415
#     4  12  27  44  68 101 136 176 227 278 349 405
#     4   9  19  37  69  86 123 178 218 271 337 404
#     4  11  21  42  64  98 133 178 233 276 350 411
#
# _framework density 25.213484000000001
#
# number of rings (size 3 to 8) (size 9 to 14) (size 15 to 20)
#    0.857    0.571    1.429    3.429    4.000    0.000 
#    7.714    0.000    0.000    0.000    0.000    0.000 
#    0.000    0.000    0.000    0.000    0.000    0.000 
#
# Total GULP energy -78027.286676 kJ/mol
# GULP energy per Si atom -5573.377620 kJ/mol
# Density = 2.515610 g / cm^3
# Si number density = 25.213484 Si / 1000 Ang^3
#
#
#
# Elastic Constant Matrix: (Units=GPa)
#
#
# Indices 1 2 3 4 5 6 
#
# 1 163.2657 30.0836 13.9019 0.0000 5.8706 0.0000
# 2 30.0836 113.4281 21.9687 0.0000 11.1317 0.0000
# 3 13.9019 21.9687 57.0424 0.0000 -11.8122 0.0000
# 4 0.0000 0.0000 0.0000 44.5476 0.0000 -0.2368
# 5 5.8706 11.1317 -11.8122 0.0000 33.4797 0.0000
# 6 0.0000 0.0000 0.0000 -0.2368 0.0000 29.1441
#
#
#
# Elastic Compliance Matrix: (Units=1/GPa)
#
#
# Indices 1 2 3 4 5 6 
#
# 1 0.006529 -0.001366 -0.001303 0.000000 -0.001150 0.000000
# 2 -0.001366 0.010591 -0.004774 0.000000 -0.004966 0.000000
# 3 -0.001303 -0.004774 0.021644 0.000000 0.009452 0.000000
# 4 0.000000 0.000000 0.000000 0.022449 0.000000 0.000182
# 5 -0.001150 -0.004966 0.009452 0.000000 0.035057 0.000000
# 6 0.000000 0.000000 0.000000 0.000182 0.000000 0.034314
#
#
# Mechanical properties :
#
#
# Convention : Reuss Voigt Hill
#
# Bulk Modulus (GPa) = 41.88170 51.73829 46.80999
# Shear Modulus (GPa) = 32.58821 39.28640 35.93731
#
# Velocity S-wave (km/s) = 3.59902 3.95162 3.77944
# Velocity P-wave (km/s) = 5.82388 6.43312 6.13607
#
# Compressibility (1/GPa) = 0.02387678
#
# Stress axis : x y z
#
# Youngs Moduli (GPa) = 153.16092 94.42379 46.20122
#
# Poissons Ratio (x) = 0.12902 0.06021
# Poissons Ratio (y) = 0.20927 0.22057
# Poissons Ratio (z) = 0.19960 0.45079
#
# Static dielectric constant tensor:
#      x y z
#    x 2.200120 0.000000 -0.086450 
#    y 0.000000 1.780960 0.000000 
#    z -0.086450 0.000000 2.118700 
# 
# From -- ./inp_files/4534.got.cif
#   From: 2010.05.17/outbox.cif.g08.bks.cpg/sg9_3_cif.got.tgz:4534.got - 2010.06.03 20:04:27.
