data_PCOD9135052
_publ_section_title
;
Structure prediction by ZEFSAII (Michael W. Deem and Ramdas Pophale) SiO2 
 PCOD9135052
Probable space group: C C
;
_chemical_formula_sum "Si O2"
_cell_formula_units_Z 32
_cell_length_a 19.110130
_cell_length_b 11.951528
_cell_length_c 14.289604
_cell_angle_alpha 90.000000
_cell_angle_beta 24.663657
_cell_angle_gamma 90.000000
_cell_volume 1361.902426
_symmetry_space_group_name_H-M "C C"
_symmetry_group_IT_number 9
_symmetry_cell_setting 'monoclinic'
loop_
_space_group_symop_operation_xyz
x,y,z
x,-y,1/2+z
1/2+x,1/2+y,z
1/2+x,1/2-y,1/2+z
loop_
_atom_site_type_symbol
_atom_site_label
_atom_site_fract_x
_atom_site_fract_y
_atom_site_fract_z
Si Si1 0.716900 0.399880 0.482450
Si Si2 0.061303 0.097347 0.918110
Si Si3 0.747668 0.611284 0.164610
Si Si4 0.766180 0.028477 0.415682
Si Si5 0.083825 0.326302 0.577021
Si Si6 0.558972 0.218150 0.562800
Si Si7 0.994962 0.904067 0.278225
Si Si8 0.437583 0.769456 0.579400
O O1 0.739522 0.379104 0.564484
O O2 0.563167 0.327857 0.625324
O O3 0.662057 0.528890 0.541333
O O4 0.893653 0.350375 0.233332
O O5 0.999896 0.102136 0.884963
O O6 0.919414 0.034288 0.153357
O O7 0.222107 0.016484 0.724904
O O8 0.107352 0.217013 0.907619
O O9 0.584233 0.679582 0.396204
O O10 0.903580 0.670538 0.023279
O O11 0.674759 0.140184 0.487878
O O12 0.614550 0.939151 0.593972
O O13 0.850094 0.983011 0.410339
O O14 0.996539 0.220925 0.733567
O O15 0.269988 0.287488 0.321148
O O16 0.992988 0.355186 0.591199
#
# Coordination Sequence:
#
# PCOD9135052 Si02
#       8
#     4   4   4   4   4   4   4   4
#     4  11  23  42  69  97 143 185 236 289 360 427
#     4  11  24  47  70 100 143 194 230 297 360 424
#     4  10  21  40  67 102 132 182 235 296 343 426
#     4  12  24  47  71 101 141 196 242 294 363 430
#     4  11  22  41  68 100 133 185 228 297 353 417
#     4  12  25  43  71  99 141 191 238 287 365 429
#     4  11  25  46  75 101 146 187 242 295 359 424
#     4  10  20  36  67  96 133 170 235 287 355 405
#
# _framework density 23.496542000000002
#
# number of rings (size 3 to 8) (size 9 to 14) (size 15 to 20)
#    0.000    1.000    5.000    1.500    1.750    2.000 
#    2.250    0.000    0.000    0.000    0.000    0.000 
#    0.000    0.000    0.000    0.000    0.000    0.000 
#
# Total GULP energy -89138.402728 kJ/mol
# GULP energy per Si atom -5571.150170 kJ/mol
# Density = 2.344306 g / cm^3
# Si number density = 23.496542 Si / 1000 Ang^3
#
#
#
# Elastic Constant Matrix: (Units=GPa)
#
#
# Indices 1 2 3 4 5 6 
#
# 1 134.3791 59.1177 14.4125 0.0000 -2.7851 0.0000
# 2 59.1177 124.3239 10.2657 0.0000 -1.1786 0.0000
# 3 14.4125 10.2657 23.2780 0.0000 -5.5640 0.0000
# 4 0.0000 0.0000 0.0000 18.1880 0.0000 -10.9792
# 5 -2.7851 -1.1786 -5.5640 0.0000 22.7056 0.0000
# 6 0.0000 0.0000 0.0000 -10.9792 0.0000 38.0471
#
#
#
# Elastic Compliance Matrix: (Units=1/GPa)
#
#
# Indices 1 2 3 4 5 6 
#
# 1 0.009783 -0.004308 -0.004168 0.000000 -0.000045 0.000000
# 2 -0.004308 0.010250 -0.001967 0.000000 -0.000478 0.000000
# 3 -0.004168 -0.001967 0.049139 0.000000 0.011428 0.000000
# 4 0.000000 0.000000 0.000000 0.066579 0.000000 0.019213
# 5 -0.000045 -0.000478 0.011428 0.000000 0.046812 0.000000
# 6 0.000000 0.000000 0.000000 0.019213 0.000000 0.031827
#
#
# Mechanical properties :
#
#
# Convention : Reuss Voigt Hill
#
# Bulk Modulus (GPa) = 20.71042 49.95255 35.33148
# Shear Modulus (GPa) = 19.89084 29.00047 24.44566
#
# Velocity S-wave (km/s) = 2.91270 3.51699 3.22901
# Velocity P-wave (km/s) = 4.48833 6.14801 5.38252
#
# Compressibility (1/GPa) = 0.04828487
#
# Stress axis : x y z
#
# Youngs Moduli (GPa) = 102.21741 97.56060 20.35059
#
# Poissons Ratio (x) = 0.42032 0.08482
# Poissons Ratio (y) = 0.44038 0.04003
# Poissons Ratio (z) = 0.42604 0.19192
#
# Static dielectric constant tensor:
#      x y z
#    x 1.905490 0.000000 -0.026580 
#    y 0.000000 1.953030 0.000000 
#    z -0.026580 0.000000 1.962450 
# 
# From -- ./inp_files/9087.got.cif
#   From: 2010.05.17/outbox.cif.g08.bks.cpg/sg9_5_cif.got.tgz:9087.got - 2010.06.03 20:04:27.
