data_PCOD9135485
_publ_section_title
;
Structure prediction by ZEFSAII (Michael W. Deem and Ramdas Pophale) SiO2 
 PCOD9135485
Probable space group: C C
;
_chemical_formula_sum "Si O2"
_cell_formula_units_Z 28
_cell_length_a 13.300091
_cell_length_b 19.022903
_cell_length_c 8.900811
_cell_angle_alpha 90.000000
_cell_angle_beta 30.544717
_cell_angle_gamma 90.000000
_cell_volume 1144.470935
_symmetry_space_group_name_H-M "C C"
_symmetry_group_IT_number 9
_symmetry_cell_setting 'monoclinic'
loop_
_space_group_symop_operation_xyz
x,y,z
x,-y,1/2+z
1/2+x,1/2+y,z
1/2+x,1/2-y,1/2+z
loop_
_atom_site_type_symbol
_atom_site_label
_atom_site_fract_x
_atom_site_fract_y
_atom_site_fract_z
Si Si1 0.806830 0.095279 0.109570
Si Si2 0.674333 0.353430 0.758361
Si Si3 0.712304 0.245678 0.200586
Si Si4 0.222924 0.494326 0.978216
Si Si5 0.885656 0.650338 0.682305
Si Si6 0.491669 0.916212 0.537541
Si Si7 0.746244 0.209324 0.811331
O O1 0.562922 0.097239 0.419336
O O2 0.854842 0.051788 0.195482
O O3 0.857461 0.177404 0.046900
O O4 0.850933 0.050398 0.906426
O O5 0.441381 0.338771 0.060201
O O6 0.771976 0.405693 0.754601
O O7 0.761516 0.276105 0.684673
O O8 0.751021 0.371820 0.492958
O O9 0.774547 0.321471 0.178610
O O10 0.697693 0.236814 0.040903
O O11 0.520157 0.220141 0.541891
O O12 0.056203 0.534717 0.093712
O O13 0.120435 0.443124 0.230078
O O14 0.568694 0.839740 0.486756
#
# Coordination Sequence:
#
# PCOD9135485 Si02
#       7
#     4   4   4   4   4   4   4
#     4   9  20  36  64  86 116 165 212 248 324 373
#     4  12  24  39  66 100 133 167 217 275 334 393
#     4  10  21  39  59  91 127 159 207 263 332 378
#     4  10  20  40  68  82 124 180 216 256 314 400
#     4  10  21  39  59  91 127 159 207 263 332 378
#     4  11  22  44  66  92 130 177 220 264 334 389
#     4  12  24  39  66 100 133 167 217 275 334 393
#
# _framework density 24.465454999999999
#
# number of rings (size 3 to 8) (size 9 to 14) (size 15 to 20)
#    0.857    0.571    4.286    1.714    4.000    0.000 
#    0.000    1.429    0.000    0.000    0.000    0.000 
#    0.000    0.000    0.000    0.000    0.000    0.000 
#
# Total GULP energy -78145.111258 kJ/mol
# GULP energy per Si atom -5581.793661 kJ/mol
# Density = 2.440977 g / cm^3
# Si number density = 24.465455 Si / 1000 Ang^3
#
#
#
# Elastic Constant Matrix: (Units=GPa)
#
#
# Indices 1 2 3 4 5 6 
#
# 1 99.9936 22.7570 38.2771 -0.0058 23.9855 0.0189
# 2 22.7570 60.8430 -2.7372 -0.0020 21.4845 0.0090
# 3 38.2771 -2.7372 95.9270 -0.0063 4.5435 0.0170
# 4 -0.0058 -0.0020 -0.0063 23.1062 0.0004 3.7673
# 5 23.9855 21.4845 4.5435 0.0004 38.4829 -0.0048
# 6 0.0189 0.0090 0.0170 3.7673 -0.0048 41.0705
#
#
#
# Elastic Compliance Matrix: (Units=1/GPa)
#
#
# Indices 1 2 3 4 5 6 
#
# 1 0.014444 -0.003369 -0.005553 0.000003 -0.006466 -0.000005
# 2 -0.003369 0.021380 0.002434 0.000003 -0.010124 -0.000006
# 3 -0.005553 0.002434 0.012681 0.000003 0.000605 -0.000003
# 4 0.000003 0.000003 0.000003 0.043935 -0.000004 -0.004030
# 5 -0.006466 -0.010124 0.000605 -0.000004 0.035596 0.000010
# 6 -0.000005 -0.000006 -0.000003 -0.004030 0.000010 0.024718
#
#
# Mechanical properties :
#
#
# Convention : Reuss Voigt Hill
#
# Bulk Modulus (GPa) = 28.14637 41.48414 34.81526
# Shear Modulus (GPa) = 28.15698 33.76304 30.96001
#
# Velocity S-wave (km/s) = 3.39615 3.71890 3.56119
# Velocity P-wave (km/s) = 5.18729 5.95259 5.58307
#
# Compressibility (1/GPa) = 0.03552856
#
# Stress axis : x y z
#
# Youngs Moduli (GPa) = 69.23149 46.77214 78.85592
#
# Poissons Ratio (x) = 0.15758 0.43793
# Poissons Ratio (y) = 0.23325 -0.19193
# Poissons Ratio (z) = 0.38448 -0.11384
#
# Static dielectric constant tensor:
#      x y z
#    x 1.989370 0.000000 -0.043910 
#    y 0.000000 1.930970 0.000010 
#    z -0.043910 0.000010 1.929470 
# 
# From -- ./inp_files/8234.got.cif
#   From: 2010.05.17/outbox.cif.g08.bks.cpg/sg9_5_cif.got.tgz:8234.got - 2010.06.03 20:04:27.
