data_PCOD9135900
_publ_section_title
;
Structure prediction by ZEFSAII (Michael W. Deem and Ramdas Pophale) SiO2 
 PCOD9135900
Probable space group: C C
;
_chemical_formula_sum "Si O2"
_cell_formula_units_Z 32
_cell_length_a 21.630319
_cell_length_b 5.728285
_cell_length_c 17.163243
_cell_angle_alpha 90.000000
_cell_angle_beta 139.519885
_cell_angle_gamma 90.000000
_cell_volume 1380.558359
_symmetry_space_group_name_H-M "C C"
_symmetry_group_IT_number 9
_symmetry_cell_setting 'monoclinic'
loop_
_space_group_symop_operation_xyz
x,y,z
x,-y,1/2+z
1/2+x,1/2+y,z
1/2+x,1/2-y,1/2+z
loop_
_atom_site_type_symbol
_atom_site_label
_atom_site_fract_x
_atom_site_fract_y
_atom_site_fract_z
Si Si1 0.949250 0.535288 0.013210
Si Si2 0.966745 0.306793 0.883414
Si Si3 0.166246 0.102297 0.066623
Si Si4 0.729386 0.353468 0.287756
Si Si5 0.834673 0.613621 0.656804
Si Si6 0.799224 0.993224 0.247877
Si Si7 0.563535 0.707754 0.745705
Si Si8 0.496886 0.790379 0.202072
O O1 0.990117 0.319792 0.102611
O O2 0.989366 0.749202 0.102812
O O3 0.835177 0.547274 0.902674
O O4 0.990890 0.515784 0.966324
O O5 0.902119 0.404097 0.752110
O O6 0.891063 0.153559 0.858316
O O7 0.057390 0.158104 0.948407
O O8 0.222384 0.344799 0.127639
O O9 0.183466 0.982626 0.168083
O O10 0.224937 0.964958 0.056229
O O11 0.664290 0.339169 0.300829
O O12 0.748184 0.094220 0.274082
O O13 0.889606 0.693119 0.633153
O O14 0.837480 0.807502 0.726988
O O15 0.536053 0.464484 0.760479
O O16 0.554433 0.965807 0.778719
#
# Coordination Sequence:
#
# PCOD9135900 Si02
#       8
#     4   4   4   4   4   4   4   4
#     4  10  22  39  64  98 130 168 216 277 331 388
#     4  11  21  39  67  97 128 169 224 278 339 391
#     4  10  22  37  65  96 128 166 219 276 331 399
#     4  11  21  38  62 101 125 167 220 274 335 390
#     4  10  23  43  59  95 128 180 218 273 337 398
#     4  10  21  36  67  90 135 161 215 280 328 393
#     4  10  25  41  68  91 132 175 217 271 330 399
#     4  10  25  45  64  92 136 176 219 267 337 394
#
# _framework density 23.179027999999999
#
# number of rings (size 3 to 8) (size 9 to 14) (size 15 to 20)
#    0.750    1.000    3.750    1.500    8.750    2.000 
#    2.250    1.250    0.000    0.000    0.000    0.000 
#    0.000    0.000    0.000    0.000    0.000    0.000 
#
# Total GULP energy -89182.251348 kJ/mol
# GULP energy per Si atom -5573.890709 kJ/mol
# Density = 2.312627 g / cm^3
# Si number density = 23.179028 Si / 1000 Ang^3
#
#
#
# Elastic Constant Matrix: (Units=GPa)
#
#
# Indices 1 2 3 4 5 6 
#
# 1 69.3373 12.1086 3.4821 0.0000 25.8945 0.0000
# 2 12.1086 100.3449 11.5084 0.0001 13.4421 0.0000
# 3 3.4821 11.5084 67.3575 0.0000 15.4805 0.0000
# 4 0.0000 0.0001 0.0000 14.6201 0.0000 11.7375
# 5 25.8945 13.4421 15.4805 0.0000 35.7446 0.0000
# 6 0.0000 0.0000 0.0000 11.7375 0.0000 21.3712
#
#
#
# Elastic Compliance Matrix: (Units=1/GPa)
#
#
# Indices 1 2 3 4 5 6 
#
# 1 0.020205 -0.000660 0.002638 0.000000 -0.015532 0.000000
# 2 -0.000660 0.010575 -0.001076 0.000000 -0.003033 0.000000
# 3 0.002638 -0.001076 0.016924 0.000000 -0.008836 0.000000
# 4 0.000000 0.000000 0.000000 0.122346 0.000000 -0.067195
# 5 -0.015532 -0.003033 -0.008836 0.000000 0.044195 0.000000
# 6 0.000000 0.000000 0.000000 -0.067195 0.000000 0.083697
#
#
# Mechanical properties :
#
#
# Convention : Reuss Voigt Hill
#
# Bulk Modulus (GPa) = 20.19845 32.35976 26.27911
# Shear Modulus (GPa) = 15.99277 28.34320 22.16798
#
# Velocity S-wave (km/s) = 2.62957 3.50064 3.09590
# Velocity P-wave (km/s) = 4.23705 5.50731 4.91340
#
# Compressibility (1/GPa) = 0.04950874
#
# Stress axis : x y z
#
# Youngs Moduli (GPa) = 49.49163 94.56348 59.08647
#
# Poissons Ratio (x) = 0.06242 -0.15586
# Poissons Ratio (y) = 0.03267 0.06356
# Poissons Ratio (z) = -0.13055 0.10172
#
# Static dielectric constant tensor:
#      x y z
#    x 1.888040 0.000000 -0.036750 
#    y 0.000000 1.961000 0.000000 
#    z -0.036750 0.000000 1.864670 
# 
# From -- ./inp_files/27049.got.cif
#   From: 2010.05.17/outbox.cif.g08.bks.cpg/sg9_14_cif.got.tgz:27049.got - 2010.06.03 20:04:27.
