data_PCOD9135815
_publ_section_title
;
Structure prediction by ZEFSAII (Michael W. Deem and Ramdas Pophale) SiO2 
 PCOD9135815
Probable space group: C C
;
_chemical_formula_sum "Si O2"
_cell_formula_units_Z 32
_cell_length_a 4.990210
_cell_length_b 20.357628
_cell_length_c 12.425206
_cell_angle_alpha 90.000000
_cell_angle_beta 87.358151
_cell_angle_gamma 90.000000
_cell_volume 1260.920680
_symmetry_space_group_name_H-M "C C"
_symmetry_group_IT_number 9
_symmetry_cell_setting 'monoclinic'
loop_
_space_group_symop_operation_xyz
x,y,z
x,-y,1/2+z
1/2+x,1/2+y,z
1/2+x,1/2-y,1/2+z
loop_
_atom_site_type_symbol
_atom_site_label
_atom_site_fract_x
_atom_site_fract_y
_atom_site_fract_z
Si Si1 0.481590 0.246246 0.728200
Si Si2 0.856414 0.585085 0.544327
Si Si3 0.640504 0.419991 0.399739
Si Si4 0.505725 0.664191 0.716163
Si Si5 0.038724 0.051324 0.329912
Si Si6 0.628201 0.945713 0.534744
Si Si7 0.835809 0.353228 0.688573
Si Si8 0.662668 0.163158 0.383556
O O1 0.200251 0.224731 0.682800
O O2 0.632945 0.299081 0.650117
O O3 0.391596 0.284942 0.841686
O O4 0.695114 0.186032 0.729738
O O5 0.629165 0.609756 0.631974
O O6 0.700629 0.566640 0.436806
O O7 0.032178 0.519660 0.571743
O O8 0.046079 0.647202 0.503479
O O9 0.595074 0.353576 0.336639
O O10 0.539172 0.474621 0.317630
O O11 0.941861 0.430940 0.433331
O O12 0.438100 0.437281 0.499849
O O13 0.765331 0.089979 0.349735
O O14 0.172551 0.082808 0.225318
O O15 0.561175 0.884292 0.611995
O O16 0.933853 0.323765 0.800521
#
# Coordination Sequence:
#
# PCOD9135815 Si02
#       8
#     4   4   4   4   4   4   4   4
#     4  11  25  46  64  94 135 181 234 264 332 397
#     4  10  23  43  70 105 132 173 227 280 344 406
#     4  11  24  44  64 101 141 165 218 281 339 397
#     4  12  26  46  67  99 139 182 225 279 327 399
#     4   9  20  40  69 101 127 168 216 277 343 396
#     4  11  24  43  70 105 132 171 221 278 348 399
#     4  10  22  43  70  94 130 176 222 277 325 398
#     4  10  20  45  72  95 132 178 227 276 330 406
#
# _framework density 25.378281000000001
#
# number of rings (size 3 to 8) (size 9 to 14) (size 15 to 20)
#    0.000    1.500    2.500    1.500    5.250    0.000 
#    9.000    0.000    0.000    0.000    0.000    0.000 
#    0.000    0.000    0.000    0.000    0.000    0.000 
#
# Total GULP energy -89198.424457 kJ/mol
# GULP energy per Si atom -5574.901529 kJ/mol
# Density = 2.532052 g / cm^3
# Si number density = 25.378281 Si / 1000 Ang^3
#
#
#
# Elastic Constant Matrix: (Units=GPa)
#
#
# Indices 1 2 3 4 5 6 
#
# 1 94.4722 7.8520 30.0694 0.0000 -19.4580 0.0000
# 2 7.8520 67.8274 36.8542 0.0000 -10.6466 0.0000
# 3 30.0694 36.8542 71.8373 0.0000 -13.8591 0.0000
# 4 0.0000 0.0000 0.0000 33.6109 0.0000 -13.3253
# 5 -19.4580 -10.6466 -13.8591 0.0000 32.6032 0.0000
# 6 0.0000 0.0000 0.0000 -13.3253 0.0000 37.9140
#
#
#
# Elastic Compliance Matrix: (Units=1/GPa)
#
#
# Indices 1 2 3 4 5 6 
#
# 1 0.013529 0.002563 -0.005728 0.000000 0.006476 0.000000
# 2 0.002563 0.021103 -0.011192 0.000000 0.003663 0.000000
# 3 -0.005728 -0.011192 0.022544 0.000000 0.002510 0.000000
# 4 0.000000 0.000000 0.000000 0.034569 0.000000 0.012150
# 5 0.006476 0.003663 0.002510 0.000000 0.036800 0.000000
# 6 0.000000 0.000000 0.000000 0.012150 0.000000 0.030646
#
#
# Mechanical properties :
#
#
# Convention : Reuss Voigt Hill
#
# Bulk Modulus (GPa) = 35.13617 42.63201 38.88409
# Shear Modulus (GPa) = 25.33005 31.44970 28.38988
#
# Velocity S-wave (km/s) = 3.16270 3.52410 3.34828
# Velocity P-wave (km/s) = 5.21650 5.77876 5.50482
#
# Compressibility (1/GPa) = 0.02846070
#
# Stress axis : x y z
#
# Youngs Moduli (GPa) = 73.91366 47.38655 44.35723
#
# Poissons Ratio (x) = -0.12145 0.25410
# Poissons Ratio (y) = -0.18943 0.49646
# Poissons Ratio (z) = 0.42341 0.53037
#
# Static dielectric constant tensor:
#      x y z
#    x 2.028010 0.000000 -0.035180 
#    y 0.000000 2.096830 0.000000 
#    z -0.035180 0.000000 2.061980 
# 
# From -- ./inp_files/22157.got.cif
#   From: 2010.05.17/outbox.cif.g08.bks.cpg/sg9_12_cif.got.tgz:22157.got - 2010.06.03 20:04:27.
