data_PCOD9135661
_publ_section_title
;
Structure prediction by ZEFSAII (Michael W. Deem and Ramdas Pophale) SiO2 
 PCOD9135661
Probable space group: C C
;
_chemical_formula_sum "Si O2"
_cell_formula_units_Z 32
_cell_length_a 12.074657
_cell_length_b 14.097937
_cell_length_c 18.367196
_cell_angle_alpha 90.000000
_cell_angle_beta 30.053126
_cell_angle_gamma 90.000000
_cell_volume 1565.813248
_symmetry_space_group_name_H-M "C C"
_symmetry_group_IT_number 9
_symmetry_cell_setting 'monoclinic'
loop_
_space_group_symop_operation_xyz
x,y,z
x,-y,1/2+z
1/2+x,1/2+y,z
1/2+x,1/2-y,1/2+z
loop_
_atom_site_type_symbol
_atom_site_label
_atom_site_fract_x
_atom_site_fract_y
_atom_site_fract_z
Si Si1 0.248330 0.130661 0.197630
Si Si2 0.138401 0.257373 0.660142
Si Si3 0.507050 0.357435 0.362557
Si Si4 0.894911 0.829846 0.169847
Si Si5 0.788417 0.953323 0.923102
Si Si6 0.347811 0.969658 0.256405
Si Si7 0.866524 0.577374 0.383205
Si Si8 0.060770 0.515728 0.910364
O O1 0.317123 0.239215 0.168355
O O2 0.992956 0.115345 0.322466
O O3 0.300982 0.070209 0.241265
O O4 0.393485 0.078442 0.053703
O O5 0.338971 0.281146 0.492014
O O6 0.170130 0.187669 0.709998
O O7 0.944474 0.210716 0.722477
O O8 0.053273 0.355017 0.743125
O O9 0.371687 0.441613 0.400257
O O10 0.648540 0.402988 0.346028
O O11 0.717843 0.913368 0.276101
O O12 0.129211 0.872369 0.011850
O O13 0.709462 0.959183 0.884514
O O14 0.576330 0.931929 0.093301
O O15 0.360423 0.986448 0.334480
O O16 0.926086 0.549579 0.431357
#
# Coordination Sequence:
#
# PCOD9135661 Si02
#       8
#     4   4   4   4   4   4   4   4
#     4  10  22  41  68  97 127 174 221 272 330 398
#     4  12  22  41  65 103 122 170 231 275 324 393
#     4  11  23  40  69  95 133 170 229 276 331 395
#     4  12  23  41  70  95 132 170 228 275 322 399
#     4  10  20  42  67  95 131 172 217 270 346 391
#     4  10  23  41  66  93 133 177 215 267 339 397
#     4  12  25  40  65 100 132 173 225 269 333 399
#     4  11  24  40  64 100 132 172 216 276 337 396
#
# _framework density 20.436664
#
# number of rings (size 3 to 8) (size 9 to 14) (size 15 to 20)
#    0.000    1.000    5.000    2.250    5.250    0.000 
#    0.000    2.500    0.000    0.000    0.000    0.000 
#    0.000    0.000    0.000    0.000    0.000    0.000 
#
# Total GULP energy -89463.051952 kJ/mol
# GULP energy per Si atom -5591.440747 kJ/mol
# Density = 2.039015 g / cm^3
# Si number density = 20.436664 Si / 1000 Ang^3
#
#
#
# Elastic Constant Matrix: (Units=GPa)
#
#
# Indices 1 2 3 4 5 6 
#
# 1 96.3082 16.8239 34.8601 -0.0002 -4.3731 0.0006
# 2 16.8239 47.0642 24.7692 -0.0088 -7.0392 0.0017
# 3 34.8601 24.7692 79.1703 -0.0201 -11.1733 0.0027
# 4 -0.0002 -0.0088 -0.0201 25.6958 0.0015 -2.8705
# 5 -4.3731 -7.0392 -11.1733 0.0015 34.3570 0.0009
# 6 0.0006 0.0017 0.0027 -2.8705 0.0009 29.2937
#
#
#
# Elastic Compliance Matrix: (Units=1/GPa)
#
#
# Indices 1 2 3 4 5 6 
#
# 1 0.012495 -0.001918 -0.004960 -0.000004 -0.000416 0.000000
# 2 -0.001918 0.025980 -0.006883 0.000003 0.002840 -0.000001
# 3 -0.004960 -0.006883 0.017483 0.000011 0.003644 0.000000
# 4 -0.000004 0.000003 0.000011 0.039348 0.000002 0.003856
# 5 -0.000416 0.002840 0.003644 0.000002 0.030820 -0.000001
# 6 0.000000 -0.000001 0.000000 0.003856 -0.000001 0.034515
#
#
# Mechanical properties :
#
#
# Convention : Reuss Voigt Hill
#
# Bulk Modulus (GPa) = 35.16717 41.71659 38.44188
# Shear Modulus (GPa) = 25.29829 27.60860 26.45345
#
# Velocity S-wave (km/s) = 3.52218 3.67949 3.60170
# Velocity P-wave (km/s) = 5.81259 6.20552 6.01227
#
# Compressibility (1/GPa) = 0.02843561
#
# Stress axis : x y z
#
# Youngs Moduli (GPa) = 80.03204 38.49062 57.19923
#
# Poissons Ratio (x) = 0.07383 0.28373
# Poissons Ratio (y) = 0.15352 0.39369
# Poissons Ratio (z) = 0.39699 0.26492
#
# Static dielectric constant tensor:
#      x y z
#    x 1.713790 0.000000 0.013310 
#    y 0.000000 1.727470 0.000000 
#    z 0.013310 0.000000 1.719040 
# 
# From -- ./inp_files/7383.got.cif
#   From: 2010.05.17/outbox.cif.g08.bks.cpg/sg9_4_cif.got.tgz:7383.got - 2010.06.03 20:04:27.
