data_PCOD9135873
_publ_section_title
;
Structure prediction by ZEFSAII (Michael W. Deem and Ramdas Pophale) SiO2 
 PCOD9135873
Probable space group: C C
;
_chemical_formula_sum "Si O2"
_cell_formula_units_Z 32
_cell_length_a 12.265135
_cell_length_b 21.185570
_cell_length_c 5.118115
_cell_angle_alpha 90.000000
_cell_angle_beta 80.085722
_cell_angle_gamma 90.000000
_cell_volume 1310.050551
_symmetry_space_group_name_H-M "C C"
_symmetry_group_IT_number 9
_symmetry_cell_setting 'monoclinic'
loop_
_space_group_symop_operation_xyz
x,y,z
x,-y,1/2+z
1/2+x,1/2+y,z
1/2+x,1/2-y,1/2+z
loop_
_atom_site_type_symbol
_atom_site_label
_atom_site_fract_x
_atom_site_fract_y
_atom_site_fract_z
Si Si1 0.534990 0.038003 0.597190
Si Si2 0.473059 0.651757 0.356381
Si Si3 0.749388 0.117321 0.355280
Si Si4 0.369835 0.776736 0.140146
Si Si5 0.283669 0.041563 0.610787
Si Si6 0.032353 0.752760 0.227545
Si Si7 0.712372 0.196889 0.866931
Si Si8 0.187560 0.845278 0.448852
O O1 0.647777 0.072755 0.471884
O O2 0.411474 0.063831 0.588461
O O3 0.536746 0.977042 0.404214
O O4 0.378618 0.598728 0.352029
O O5 0.422556 0.710571 0.212489
O O6 0.474014 0.683611 0.641748
O O7 0.598879 0.636878 0.211867
O O8 0.735636 0.174217 0.569341
O O9 0.733711 0.141155 0.066668
O O10 0.314121 0.817908 0.389626
O O11 0.470299 0.800107 0.919734
O O12 0.283821 0.755626 0.946330
O O13 0.202290 0.096421 0.743707
O O14 0.269070 0.016048 0.323772
O O15 0.127779 0.783805 0.359090
O O16 0.086707 0.718935 0.957298
#
# Coordination Sequence:
#
# PCOD9135873 Si02
#       8
#     4   4   4   4   4   4   4   4
#     4  10  22  43  66  90 118 155 213 278 321 371
#     4  10  22  37  60  92 134 166 210 255 307 395
#     4  11  22  41  61  89 124 165 205 256 322 366
#     4   9  20  38  54  89 129 169 205 247 306 378
#     4  10  24  46  67  93 125 162 221 278 319 373
#     4  10  21  36  57  92 131 162 211 251 304 388
#     4  10  22  34  57  89 124 164 201 245 299 382
#     4  10  23  39  64  90 129 177 210 262 328 375
#
# _framework density 24.426541
#
# number of rings (size 3 to 8) (size 9 to 14) (size 15 to 20)
#    0.000    2.000    1.250    0.750   10.500    0.000 
#    0.000    1.250    0.000    0.000    0.000    0.000 
#    0.000    0.000    0.000    0.000    0.000    0.000 
#
# Total GULP energy -89102.393804 kJ/mol
# GULP energy per Si atom -5568.899613 kJ/mol
# Density = 2.437094 g / cm^3
# Si number density = 24.426541 Si / 1000 Ang^3
#
#
#
# Elastic Constant Matrix: (Units=GPa)
#
#
# Indices 1 2 3 4 5 6 
#
# 1 84.6465 18.5861 37.2957 0.0000 -30.1682 0.0000
# 2 18.5861 33.0776 14.9275 0.0000 -16.2487 0.0000
# 3 37.2957 14.9275 106.6965 0.0000 -23.7260 0.0000
# 4 0.0000 0.0000 0.0000 41.9626 0.0000 -21.7638
# 5 -30.1682 -16.2487 -23.7260 0.0000 50.5658 0.0000
# 6 0.0000 0.0000 0.0000 -21.7638 0.0000 26.9858
#
#
#
# Elastic Compliance Matrix: (Units=1/GPa)
#
#
# Indices 1 2 3 4 5 6 
#
# 1 0.016896 -0.004409 -0.003754 0.000000 0.006902 0.000000
# 2 -0.004409 0.037783 -0.001820 0.000000 0.008657 0.000000
# 3 -0.003754 -0.001820 0.011512 0.000000 0.002577 0.000000
# 4 0.000000 0.000000 0.000000 0.040966 0.000000 0.033039
# 5 0.006902 0.008657 0.002577 0.000000 0.027885 0.000000
# 6 0.000000 0.000000 0.000000 0.033039 0.000000 0.063702
#
#
# Mechanical properties :
#
#
# Convention : Reuss Voigt Hill
#
# Bulk Modulus (GPa) = 21.63338 40.67105 31.15221
# Shear Modulus (GPa) = 21.35658 34.14358 27.75008
#
# Velocity S-wave (km/s) = 2.96010 3.74278 3.37421
# Velocity P-wave (km/s) = 4.53416 5.94680 5.28786
#
# Compressibility (1/GPa) = 0.04622487
#
# Stress axis : x y z
#
# Youngs Moduli (GPa) = 59.18553 26.46688 86.86303
#
# Poissons Ratio (x) = 0.11669 0.32612
# Poissons Ratio (y) = 0.26095 0.15808
# Poissons Ratio (z) = 0.22220 0.04817
#
# Static dielectric constant tensor:
#      x y z
#    x 2.135870 0.000000 -0.073080 
#    y 0.000000 1.958360 0.000000 
#    z -0.073080 0.000000 1.999710 
# 
# From -- ./inp_files/1849.got.cif
#   From: 2010.05.17/outbox.cif.g08.bks.cpg/sg9_1_cif.got.tgz:1849.got - 2010.06.03 20:04:27.
