data_PCOD9135538
_publ_section_title
;
Structure prediction by ZEFSAII (Michael W. Deem and Ramdas Pophale) SiO2 
 PCOD9135538
Probable space group: C C
;
_chemical_formula_sum "Si O2"
_cell_formula_units_Z 32
_cell_length_a 8.337956
_cell_length_b 11.692368
_cell_length_c 14.515663
_cell_angle_alpha 90.000000
_cell_angle_beta 62.270038
_cell_angle_gamma 90.000000
_cell_volume 1252.610456
_symmetry_space_group_name_H-M "C C"
_symmetry_group_IT_number 9
_symmetry_cell_setting 'monoclinic'
loop_
_space_group_symop_operation_xyz
x,y,z
x,-y,1/2+z
1/2+x,1/2+y,z
1/2+x,1/2-y,1/2+z
loop_
_atom_site_type_symbol
_atom_site_label
_atom_site_fract_x
_atom_site_fract_y
_atom_site_fract_z
Si Si1 0.380750 0.428680 0.727620
Si Si2 0.279296 0.887568 0.562843
Si Si3 0.182807 0.796440 0.212979
Si Si4 0.590288 0.081872 0.459491
Si Si5 0.861737 0.680021 0.369936
Si Si6 0.779685 0.987946 0.068867
Si Si7 0.676222 0.553829 0.894301
Si Si8 0.587964 0.225794 0.064424
O O1 0.598034 0.426667 0.665170
O O2 0.322523 0.302252 0.705817
O O3 0.268468 0.450794 0.850852
O O4 0.307217 0.517352 0.670438
O O5 0.225140 0.867891 0.470141
O O6 0.379474 0.789186 0.594110
O O7 0.437664 0.983793 0.511054
O O8 0.184225 0.888443 0.292682
O O9 0.179845 0.823195 0.105315
O O10 0.982691 0.739895 0.262661
O O11 0.497832 0.178506 0.421662
O O12 0.662809 0.103294 0.542907
O O13 0.814858 0.551700 0.356460
O O14 0.683465 0.748207 0.441281
O O15 0.674838 0.107553 0.077629
O O16 0.978826 0.003667 0.972095
#
# Coordination Sequence:
#
# PCOD9135538 Si02
#       8
#     4   4   4   4   4   4   4   4
#     4   9  19  38  66  94 132 181 229 273 346 410
#     4   9  20  40  65  94 137 174 222 283 337 408
#     4  10  21  41  67  90 130 180 224 278 347 412
#     4   9  19  38  62  94 130 179 215 282 336 401
#     4  10  21  41  61  93 132 170 225 274 348 408
#     4   9  18  38  63  88 131 174 215 284 338 395
#     4  10  20  41  63  92 133 174 220 286 335 405
#     4  10  20  41  63  91 127 174 220 278 341 407
#
# _framework density 25.54665
#
# number of rings (size 3 to 8) (size 9 to 14) (size 15 to 20)
#    0.000    2.500    1.250    0.000    0.000    1.000 
#   27.000    2.500    5.500    0.000    0.000    0.000 
#    0.000    0.000    0.000    0.000    0.000    0.000 
#
# Total GULP energy -89355.658155 kJ/mol
# GULP energy per Si atom -5584.728635 kJ/mol
# Density = 2.548850 g / cm^3
# Si number density = 25.546650 Si / 1000 Ang^3
#
#
#
# Elastic Constant Matrix: (Units=GPa)
#
#
# Indices 1 2 3 4 5 6 
#
# 1 126.0866 26.0971 44.6934 0.0000 -1.0624 0.0000
# 2 26.0971 49.2021 7.5657 0.0000 2.5724 0.0000
# 3 44.6934 7.5657 103.3083 0.0000 -19.2155 0.0000
# 4 0.0000 0.0000 0.0000 28.4043 0.0000 3.3969
# 5 -1.0624 2.5724 -19.2155 0.0000 36.5785 0.0000
# 6 0.0000 0.0000 0.0000 3.3969 0.0000 29.5777
#
#
#
# Elastic Compliance Matrix: (Units=1/GPa)
#
#
# Indices 1 2 3 4 5 6 
#
# 1 0.010509 -0.004789 -0.004518 0.000000 -0.001731 0.000000
# 2 -0.004789 0.022943 0.000073 0.000000 -0.001714 0.000000
# 3 -0.004518 0.000073 0.012860 0.000000 0.006619 0.000000
# 4 0.000000 0.000000 0.000000 0.035696 0.000000 -0.004100
# 5 -0.001731 -0.001714 0.006619 0.000000 0.030886 0.000000
# 6 0.000000 0.000000 0.000000 -0.004100 0.000000 0.034280
#
#
# Mechanical properties :
#
#
# Convention : Reuss Voigt Hill
#
# Bulk Modulus (GPa) = 35.91418 48.36772 42.14095
# Shear Modulus (GPa) = 28.58393 32.26150 30.42272
#
# Velocity S-wave (km/s) = 3.34861 3.55751 3.45464
# Velocity P-wave (km/s) = 5.38885 5.98738 5.69598
#
# Compressibility (1/GPa) = 0.02784416
#
# Stress axis : x y z
#
# Youngs Moduli (GPa) = 95.15612 43.58665 77.75969
#
# Poissons Ratio (x) = 0.20873 0.35130
# Poissons Ratio (y) = 0.45569 -0.00565
# Poissons Ratio (z) = 0.42989 -0.00317
#
# Static dielectric constant tensor:
#      x y z
#    x 1.997320 0.000000 0.010820 
#    y 0.000000 2.053890 0.000000 
#    z 0.010820 0.000000 2.081130 
# 
# From -- ./inp_files/23198.got.cif
#   From: 2010.05.17/outbox.cif.g08.bks.cpg/sg9_12_cif.got.tgz:23198.got - 2010.06.03 20:04:27.
