data_PCOD9135022
_publ_section_title
;
Structure prediction by ZEFSAII (Michael W. Deem and Ramdas Pophale) SiO2 
 PCOD9135022
Probable space group: C C
;
_chemical_formula_sum "Si O2"
_cell_formula_units_Z 32
_cell_length_a 4.915737
_cell_length_b 19.956250
_cell_length_c 16.823059
_cell_angle_alpha 90.000000
_cell_angle_beta 75.027273
_cell_angle_gamma 90.000000
_cell_volume 1594.305927
_symmetry_space_group_name_H-M "C C"
_symmetry_group_IT_number 9
_symmetry_cell_setting 'monoclinic'
loop_
_space_group_symop_operation_xyz
x,y,z
x,-y,1/2+z
1/2+x,1/2+y,z
1/2+x,1/2-y,1/2+z
loop_
_atom_site_type_symbol
_atom_site_label
_atom_site_fract_x
_atom_site_fract_y
_atom_site_fract_z
Si Si1 0.893370 0.935213 0.140280
Si Si2 0.583885 0.821538 0.903354
Si Si3 0.312627 0.264486 0.730441
Si Si4 0.960576 0.564788 0.527442
Si Si5 0.676973 0.846611 0.583861
Si Si6 0.041317 0.735514 0.937281
Si Si7 0.770059 0.821538 0.264369
Si Si8 0.676973 0.563153 0.083861
O O1 0.676973 0.938360 0.083861
O O2 0.778221 0.893052 0.221916
O O3 0.176973 0.900570 0.083861
O O4 0.996870 0.010737 0.150716
O O5 0.755902 0.814340 0.808600
O O6 0.270211 0.794882 0.911219
O O7 0.737249 0.769113 0.951227
O O8 0.575725 0.893052 0.945807
O O9 0.253086 0.302081 0.653787
O O10 0.616695 0.230887 0.716495
O O11 0.083732 0.205118 0.756504
O O12 0.857076 0.489263 0.517006
O O13 0.600860 0.802081 0.513936
O O14 0.400032 0.892882 0.615300
O O15 0.953915 0.892882 0.552422
O O16 0.098043 0.685660 0.859122
#
# Coordination Sequence:
#
# PCOD9135022 Si02
#       8
#     4   4   4   4   4   4   4   4
#     4  10  20  36  62  80 112 153 194 248 270 329
#     4  10  21  40  56  91 115 143 198 236 296 333
#     4  10  23  36  60  86 122 147 181 248 287 360
#     4  10  20  36  62  80 112 153 194 248 270 329
#     4  12  22  39  58  83 120 158 188 224 310 334
#     4  10  23  36  60  86 122 147 181 248 287 360
#     4  10  21  40  56  91 115 143 198 236 296 333
#     4  10  22  39  54  85 116 152 206 236 258 352
#
# _framework density 20.071429999999999
#
# number of rings (size 3 to 8) (size 9 to 14) (size 15 to 20)
#    0.750    1.000    1.250    3.000    5.250    0.000 
#    0.000    2.500    0.000    0.000    0.000    0.000 
#    0.000    0.000    0.000    0.000    0.000    0.000 
#
# Total GULP energy -89260.680407 kJ/mol
# GULP energy per Si atom -5578.792525 kJ/mol
# Density = 2.002575 g / cm^3
# Si number density = 20.071430 Si / 1000 Ang^3
#
#
#
# Elastic Constant Matrix: (Units=GPa)
#
#
# Indices 1 2 3 4 5 6 
#
# 1 100.8609 1.5895 9.5288 0.0000 16.7507 0.0000
# 2 1.5895 45.6628 38.8921 0.0000 10.0471 0.0000
# 3 9.5288 38.8921 74.5194 0.0000 25.5576 0.0000
# 4 0.0000 0.0000 0.0000-1408.5637 0.0000 32.0814
# 5 16.7507 10.0471 25.5576 0.0000 23.3500 0.0000
# 6 0.0000 0.0000 0.0000 32.0814 0.0000 11.4858
#
#
#
# Elastic Compliance Matrix: (Units=1/GPa)
#
#
# Indices 1 2 3 4 5 6 
#
# 1 0.011471 0.000159 0.002075 0.000000 -0.010569 0.000000
# 2 0.000159 0.040616 -0.024312 0.000000 0.009020 0.000000
# 3 0.002075 -0.024312 0.036447 0.000000 -0.030921 0.000000
# 4 0.000000 0.000000 0.000000 -0.000667 0.000000 0.001864
# 5 -0.010569 0.009020 -0.030921 0.000000 0.080371 0.000000
# 6 0.000000 0.000000 0.000000 0.001864 0.000000 0.081857
#
#
# Mechanical properties :
#
#
# Convention : Reuss Voigt Hill
#
# Bulk Modulus (GPa) = 22.53316 35.67377 29.10347
# Shear Modulus (GPa) = 16.17892 -263.34340 -123.58224
#
# Velocity S-wave (km/s) = 2.84221 -11.46682 -7.85525
# Velocity P-wave (km/s) = 4.69273 12.55011 8.23054
#
# Compressibility (1/GPa) = 0.04437904
#
# Stress axis : x y z
#
# Youngs Moduli (GPa) = 87.17376 24.62064 27.43705
#
# Poissons Ratio (x) = -0.00391 -0.05693
# Poissons Ratio (y) = -0.01384 0.66704
# Poissons Ratio (z) = -0.18089 0.59857
#
# Static dielectric constant tensor:
#      x y z
#    x 1.730780 0.000000 -0.027680 
#    y 0.000000 1.732310 0.000000 
#    z -0.027680 0.000000 1.714070 
# 
# From -- ./inp_files/22159.got.cif
#   From: 2010.05.17/outbox.cif.g08.bks.cpg/sg9_12_cif.got.tgz:22159.got - 2010.06.03 20:04:27.
