data_PCOD9135384
_publ_section_title
;
Structure prediction by ZEFSAII (Michael W. Deem and Ramdas Pophale) SiO2 
 PCOD9135384
Probable space group: C C
;
_chemical_formula_sum "Si O2"
_cell_formula_units_Z 32
_cell_length_a 22.411336
_cell_length_b 7.982980
_cell_length_c 18.052353
_cell_angle_alpha 90.000000
_cell_angle_beta 25.068471
_cell_angle_gamma 90.000000
_cell_volume 1368.441174
_symmetry_space_group_name_H-M "C C"
_symmetry_group_IT_number 9
_symmetry_cell_setting 'monoclinic'
loop_
_space_group_symop_operation_xyz
x,y,z
x,-y,1/2+z
1/2+x,1/2+y,z
1/2+x,1/2-y,1/2+z
loop_
_atom_site_type_symbol
_atom_site_label
_atom_site_fract_x
_atom_site_fract_y
_atom_site_fract_z
Si Si1 0.975390 0.178407 0.900440
Si Si2 0.820107 0.808754 0.325086
Si Si3 0.377795 0.144381 0.015200
Si Si4 0.326719 0.926156 0.325040
Si Si5 0.992237 0.389769 0.004011
Si Si6 0.132300 0.148166 0.170719
Si Si7 0.777553 0.036803 0.720203
Si Si8 0.014718 0.361676 0.712147
O O1 0.954301 0.315972 0.860328
O O2 0.064069 0.254097 0.869168
O O3 0.046002 0.023778 0.778562
O O4 0.845932 0.108122 0.093505
O O5 0.788669 0.613785 0.338328
O O6 0.833382 0.928142 0.239926
O O7 0.682533 0.864959 0.525391
O O8 0.956249 0.785769 0.223448
O O9 0.260345 0.129590 0.084329
O O10 0.319617 0.297729 0.129176
O O11 0.402842 0.997860 0.046098
O O12 0.528087 0.202460 0.811484
O O13 0.393224 0.827902 0.181851
O O14 0.200232 0.843741 0.512754
O O15 0.446606 0.975422 0.250789
O O16 0.110935 0.504994 0.908105
#
# Coordination Sequence:
#
# PCOD9135384 Si02
#       8
#     4   4   4   4   4   4   4   4
#     4  11  26  41  69 104 138 171 237 289 348 401
#     4  10  20  39  68  96 125 177 232 267 327 422
#     4  11  23  44  71  95 137 179 233 277 341 414
#     4  10  22  41  68  93 135 176 229 272 348 401
#     4  12  24  42  68 100 139 179 220 297 344 404
#     4  11  24  47  67 101 130 185 230 283 340 418
#     4  11  23  44  66 104 130 183 233 277 344 418
#     4  10  20  40  67  97 126 184 222 274 326 424
#
# _framework density 23.384270000000001
#
# number of rings (size 3 to 8) (size 9 to 14) (size 15 to 20)
#    0.750    0.500    5.000    0.750    5.250    0.000 
#    2.250    2.500    0.000    0.000    0.000    0.000 
#    0.000    0.000    0.000    0.000    0.000    0.000 
#
# Total GULP energy -89308.017206 kJ/mol
# GULP energy per Si atom -5581.751075 kJ/mol
# Density = 2.333105 g / cm^3
# Si number density = 23.384270 Si / 1000 Ang^3
#
#
#
# Elastic Constant Matrix: (Units=GPa)
#
#
# Indices 1 2 3 4 5 6 
#
# 1 90.6741 8.6599 45.9426 0.0002 23.1907 0.0001
# 2 8.6599 25.7306 3.6118 -0.0005 13.7670 0.0006
# 3 45.9426 3.6118 112.6100 0.0009 28.3961 0.0020
# 4 0.0002 -0.0005 0.0009 -2.6689 -0.0001 -4.4803
# 5 23.1907 13.7670 28.3961 -0.0001 51.7428 -0.0008
# 6 0.0001 0.0006 0.0020 -4.4803 -0.0008 23.8722
#
#
#
# Elastic Compliance Matrix: (Units=1/GPa)
#
#
# Indices 1 2 3 4 5 6 
#
# 1 0.014655 -0.002569 -0.005121 0.000000 -0.003074 0.000000
# 2 -0.002569 0.046097 0.002753 -0.000003 -0.012624 -0.000002
# 3 -0.005121 0.002753 0.012172 0.000004 -0.005117 0.000000
# 4 0.000000 -0.000003 0.000004 -0.284917 -0.000003 -0.053473
# 5 -0.003074 -0.012624 -0.005117 -0.000003 0.026871 0.000001
# 6 0.000000 -0.000002 0.000000 -0.053473 0.000001 0.031854
#
#
# Mechanical properties :
#
#
# Convention : Reuss Voigt Hill
#
# Bulk Modulus (GPa) = 15.86060 38.38259 27.12160
# Shear Modulus (GPa) = -40.85710 25.97591 -7.44059
#
# Velocity S-wave (km/s) = -4.18449 3.33653 -1.78572
# Velocity P-wave (km/s) = 4.06808 5.59399 2.71508
#
# Compressibility (1/GPa) = 0.06304931
#
# Stress axis : x y z
#
# Youngs Moduli (GPa) = 68.23636 21.69345 82.15873
#
# Poissons Ratio (x) = 0.05572 0.42076
# Poissons Ratio (y) = 0.17527 -0.22617
# Poissons Ratio (z) = 0.34946 -0.05972
#
# Static dielectric constant tensor:
#      x y z
#    x 1.860730 0.000000 -0.001350 
#    y 0.000000 1.925250 0.000000 
#    z -0.001350 0.000000 1.873490 
# 
# From -- ./inp_files/31534.got.cif
#   From: 2010.05.17/outbox.cif.g08.bks.cpg/sg9_16_cif.got.tgz:31534.got - 2010.06.03 20:04:27.
