data_PCOD9135825
_publ_section_title
;
Structure prediction by ZEFSAII (Michael W. Deem and Ramdas Pophale) SiO2 
 PCOD9135825
Probable space group: C C
;
_chemical_formula_sum "Si O2"
_cell_formula_units_Z 32
_cell_length_a 10.146280
_cell_length_b 17.761586
_cell_length_c 13.346921
_cell_angle_alpha 90.000000
_cell_angle_beta 33.726677
_cell_angle_gamma 90.000000
_cell_volume 1335.500177
_symmetry_space_group_name_H-M "C C"
_symmetry_group_IT_number 9
_symmetry_cell_setting 'monoclinic'
loop_
_space_group_symop_operation_xyz
x,y,z
x,-y,1/2+z
1/2+x,1/2+y,z
1/2+x,1/2-y,1/2+z
loop_
_atom_site_type_symbol
_atom_site_label
_atom_site_fract_x
_atom_site_fract_y
_atom_site_fract_z
Si Si1 0.672860 0.177818 0.293070
Si Si2 0.652802 0.327457 0.179950
Si Si3 0.529950 0.378952 0.701073
Si Si4 0.045189 0.802296 0.014812
Si Si5 0.070620 0.349573 0.368847
Si Si6 0.146387 0.489942 0.454012
Si Si7 0.172493 0.066574 0.317197
Si Si8 0.361299 0.436032 0.508387
O O1 0.623898 0.255202 0.268318
O O2 0.429822 0.151121 0.497541
O O3 0.882499 0.186770 0.241502
O O4 0.760110 0.120069 0.153493
O O5 0.578086 0.303654 0.114342
O O6 0.506938 0.390766 0.330885
O O7 0.345391 0.448903 0.798478
O O8 0.551787 0.383230 0.806380
O O9 0.808645 0.371993 0.493819
O O10 0.775388 0.828392 0.161954
O O11 0.060019 0.721281 0.952731
O O12 0.228294 0.866479 0.859325
O O13 0.182347 0.418510 0.360058
O O14 0.173847 0.477325 0.556158
O O15 0.859215 0.484880 0.636934
O O16 0.008322 0.002577 0.467483
#
# Coordination Sequence:
#
# PCOD9135825 Si02
#       8
#     4   4   4   4   4   4   4   4
#     4  12  25  43  67 103 148 189 242 293 377 434
#     4  12  24  44  72 105 142 196 243 316 354 436
#     4  10  25  45  67 103 147 191 234 298 373 439
#     4  12  24  45  74 109 141 192 255 306 370 429
#     4  11  23  43  73 101 145 189 245 303 362 443
#     4  10  20  46  69  98 143 178 243 304 354 435
#     4  10  24  44  72 106 141 193 238 307 367 439
#     4  11  23  44  68 105 139 186 246 291 371 429
#
# _framework density 23.96106
#
# number of rings (size 3 to 8) (size 9 to 14) (size 15 to 20)
#    0.000    1.000    2.500    4.500    1.750    2.000 
#    6.750    0.000    0.000    0.000    0.000    0.000 
#    0.000    0.000    0.000    0.000    0.000    0.000 
#
# Total GULP energy -89186.968513 kJ/mol
# GULP energy per Si atom -5574.185532 kJ/mol
# Density = 2.390652 g / cm^3
# Si number density = 23.961060 Si / 1000 Ang^3
#
#
#
# Elastic Constant Matrix: (Units=GPa)
#
#
# Indices 1 2 3 4 5 6 
#
# 1 73.8712 15.1767 22.4759 0.0080 -10.8315 0.0179
# 2 15.1767 81.2132 10.9699 -0.0316 2.5276 -0.0054
# 3 22.4759 10.9699 105.1824 -0.0047 -7.9192 -0.0463
# 4 0.0080 -0.0316 -0.0047 46.3281 -0.0538 -0.4662
# 5 -10.8315 2.5276 -7.9192 -0.0538 27.7395 0.0251
# 6 0.0179 -0.0054 -0.0463 -0.4662 0.0251 20.2945
#
#
#
# Elastic Compliance Matrix: (Units=1/GPa)
#
#
# Indices 1 2 3 4 5 6 
#
# 1 0.015737 -0.002758 -0.002651 0.000001 0.005640 -0.000028
# 2 -0.002758 0.013038 -0.000962 0.000006 -0.002540 0.000007
# 3 -0.002651 -0.000962 0.010325 0.000003 0.002000 0.000023
# 4 0.000001 0.000006 0.000003 0.021590 0.000042 0.000496
# 5 0.005640 -0.002540 0.002000 0.000042 0.039054 -0.000048
# 6 -0.000028 0.000007 0.000023 0.000496 -0.000048 0.049286
#
#
# Mechanical properties :
#
#
# Convention : Reuss Voigt Hill
#
# Bulk Modulus (GPa) = 37.93838 39.72352 38.83095
# Shear Modulus (GPa) = 29.31574 32.98205 31.14889
#
# Velocity S-wave (km/s) = 3.50161 3.71413 3.60943
# Velocity P-wave (km/s) = 5.67593 5.91670 5.79756
#
# Compressibility (1/GPa) = 0.02635853
#
# Stress axis : x y z
#
# Youngs Moduli (GPa) = 63.54396 76.70090 96.85644
#
# Poissons Ratio (x) = 0.21157 0.25672
# Poissons Ratio (y) = 0.17528 0.09313
# Poissons Ratio (z) = 0.16842 0.07375
#
# Static dielectric constant tensor:
#      x y z
#    x 1.972730 0.000000 -0.086630 
#    y 0.000000 1.999190 0.000080 
#    z -0.086630 0.000080 1.996470 
# 
# From -- ./inp_files/25009.got.cif
#   From: 2010.05.17/outbox.cif.g08.bks.cpg/sg9_13_cif.got.tgz:25009.got - 2010.06.03 20:04:27.
