data_PCOD9135894
_publ_section_title
;
Structure prediction by ZEFSAII (Michael W. Deem and Ramdas Pophale) SiO2 
 PCOD9135894
Probable space group: C C
;
_chemical_formula_sum "Si O2"
_cell_formula_units_Z 32
_cell_length_a 9.113226
_cell_length_b 11.174540
_cell_length_c 15.217641
_cell_angle_alpha 90.000000
_cell_angle_beta 80.319435
_cell_angle_gamma 90.000000
_cell_volume 1527.638411
_symmetry_space_group_name_H-M "C C"
_symmetry_group_IT_number 9
_symmetry_cell_setting 'monoclinic'
loop_
_space_group_symop_operation_xyz
x,y,z
x,-y,1/2+z
1/2+x,1/2+y,z
1/2+x,1/2-y,1/2+z
loop_
_atom_site_type_symbol
_atom_site_label
_atom_site_fract_x
_atom_site_fract_y
_atom_site_fract_z
Si Si1 0.736290 0.119540 0.093780
Si Si2 0.124267 0.660516 0.914410
Si Si3 0.547963 0.003450 0.754365
Si Si4 0.014847 0.740548 0.524441
Si Si5 0.844023 0.477216 0.121879
Si Si6 0.853679 0.741768 0.046509
Si Si7 0.045990 0.141126 0.658544
Si Si8 0.932403 0.252911 0.838871
O O1 0.677521 0.025611 0.170762
O O2 0.647921 0.241354 0.128573
O O3 0.908247 0.158750 0.078585
O O4 0.686096 0.095476 0.997496
O O5 0.099920 0.578469 0.832323
O O6 0.257174 0.750980 0.877410
O O7 0.968028 0.722413 0.954627
O O8 0.484265 0.879300 0.796981
O O9 0.415433 0.057933 0.708452
O O10 0.182224 0.738341 0.541947
O O11 0.928258 0.613645 0.547051
O O12 0.016014 0.769492 0.421338
O O13 0.870705 0.616333 0.098182
O O14 0.667348 0.461195 0.138493
O O15 0.920282 0.848836 0.097607
O O16 0.973370 0.155799 0.760996
#
# Coordination Sequence:
#
# PCOD9135894 Si02
#       8
#     4   4   4   4   4   4   4   4
#     4   8  18  42  58  89 126 157 200 264 297 366
#     4  10  21  36  65  87 123 166 201 250 312 361
#     4  11  21  37  69  88 123 163 209 251 315 374
#     4  10  23  39  67  88 124 166 208 252 316 366
#     4  11  22  40  66  87 121 170 201 252 324 360
#     4  11  22  44  61  92 125 163 211 257 299 379
#     4   9  20  39  63  89 126 160 204 258 309 360
#     4  10  21  41  59  90 130 157 200 266 300 362
#
# _framework density 20.947365999999999
#
# number of rings (size 3 to 8) (size 9 to 14) (size 15 to 20)
#    0.000    2.000    3.750    1.500    3.500    1.000 
#    0.000    0.000    5.500    0.000    0.000    0.000 
#    0.000    0.000    0.000    0.000    0.000    0.000 
#
# Total GULP energy -89311.642923 kJ/mol
# GULP energy per Si atom -5581.977683 kJ/mol
# Density = 2.089969 g / cm^3
# Si number density = 20.947366 Si / 1000 Ang^3
#
#
#
# Elastic Constant Matrix: (Units=GPa)
#
#
# Indices 1 2 3 4 5 6 
#
# 1 182.0056 26.3088 56.7226 0.0000 -12.2129 0.0000
# 2 26.3088 40.6624 17.3099 0.0000 -6.1118 0.0000
# 3 56.7226 17.3099 122.5063 0.0000 -8.1353 0.0000
# 4 0.0000 0.0000 0.0000 19.6574 0.0000 -4.1327
# 5 -12.2129 -6.1118 -8.1353 0.0000 15.3694 0.0000
# 6 0.0000 0.0000 0.0000 -4.1327 0.0000 33.8954
#
#
#
# Elastic Compliance Matrix: (Units=1/GPa)
#
#
# Indices 1 2 3 4 5 6 
#
# 1 0.006926 -0.002930 -0.002596 0.000000 0.002964 0.000000
# 2 -0.002930 0.028595 -0.002159 0.000000 0.007900 0.000000
# 3 -0.002596 -0.002159 0.009821 0.000000 0.002277 0.000000
# 4 0.000000 0.000000 0.000000 0.052210 0.000000 0.006366
# 5 0.002964 0.007900 0.002277 0.000000 0.071766 0.000000
# 6 0.000000 0.000000 0.000000 0.006366 0.000000 0.030279
#
#
# Mechanical properties :
#
#
# Convention : Reuss Voigt Hill
#
# Bulk Modulus (GPa) = 33.36510 60.65077 47.00793
# Shear Modulus (GPa) = 22.22638 30.10666 26.16652
#
# Velocity S-wave (km/s) = 3.26092 3.79522 3.53817
# Velocity P-wave (km/s) = 5.49006 6.94419 6.25949
#
# Compressibility (1/GPa) = 0.02997144
#
# Stress axis : x y z
#
# Youngs Moduli (GPa) = 144.38671 34.97090 101.82198
#
# Poissons Ratio (x) = 0.10248 0.26432
# Poissons Ratio (y) = 0.42312 0.21983
# Poissons Ratio (z) = 0.37481 0.07550
#
# Static dielectric constant tensor:
#      x y z
#    x 1.774290 0.000000 0.002690 
#    y 0.000000 1.777110 0.000000 
#    z 0.002690 0.000000 1.768540 
# 
# From -- ./inp_files/23057.got.cif
#   From: 2010.05.17/outbox.cif.g08.bks.cpg/sg9_12_cif.got.tgz:23057.got - 2010.06.03 20:04:27.
