data_PCOD9135552
_publ_section_title
;
Structure prediction by ZEFSAII (Michael W. Deem and Ramdas Pophale) SiO2 
 PCOD9135552
Probable space group: C C
;
_chemical_formula_sum "Si O2"
_cell_formula_units_Z 28
_cell_length_a 16.604366
_cell_length_b 12.489516
_cell_length_c 7.492375
_cell_angle_alpha 90.000000
_cell_angle_beta 133.013075
_cell_angle_gamma 90.000000
_cell_volume 1136.115374
_symmetry_space_group_name_H-M "C C"
_symmetry_group_IT_number 9
_symmetry_cell_setting 'monoclinic'
loop_
_space_group_symop_operation_xyz
x,y,z
x,-y,1/2+z
1/2+x,1/2+y,z
1/2+x,1/2-y,1/2+z
loop_
_atom_site_type_symbol
_atom_site_label
_atom_site_fract_x
_atom_site_fract_y
_atom_site_fract_z
Si Si1 0.888600 0.372927 0.709220
Si Si2 0.641243 0.631480 0.811865
Si Si3 0.201863 0.356583 0.808555
Si Si4 0.769656 0.738167 0.553450
Si Si5 0.966799 0.588619 0.954497
Si Si6 0.345959 0.352814 0.327579
Si Si7 0.569184 0.419655 0.833504
O O1 0.766353 0.401505 0.451042
O O2 0.922404 0.468370 0.888002
O O3 0.965704 0.373181 0.656005
O O4 0.885120 0.259128 0.797748
O O5 0.658172 0.756372 0.863811
O O6 0.604821 0.543886 0.897660
O O7 0.560979 0.621635 0.522696
O O8 0.261362 0.304905 0.726479
O O9 0.091445 0.412173 0.573881
O O10 0.281631 0.413695 0.070613
O O11 0.880902 0.666145 0.723793
O O12 0.775187 0.817023 0.393083
O O13 0.665311 0.656175 0.394968
O O14 0.455003 0.410848 0.559525
#
# Coordination Sequence:
#
# PCOD9135552 Si02
#       7
#     4   4   4   4   4   4   4
#     4  11  22  41  69  98 126 173 219 277 322 377
#     4  10  20  41  64  95 125 163 218 268 316 374
#     4  10  25  43  66  96 130 176 214 267 332 385
#     4  11  21  40  68  97 130 163 225 272 321 379
#     4  12  22  42  68  99 133 165 226 277 321 386
#     4  11  25  42  68  95 133 174 214 265 332 391
#     4  11  23  39  65 102 123 168 218 266 326 378
#
# _framework density 24.645382999999999
#
# number of rings (size 3 to 8) (size 9 to 14) (size 15 to 20)
#    0.000    1.143    5.714    2.571    6.000    0.000 
#    2.571    1.429    3.143    0.000    0.000    0.000 
#    0.000    0.000    0.000    0.000    0.000    0.000 
#
# Total GULP energy -78283.139317 kJ/mol
# GULP energy per Si atom -5591.652808 kJ/mol
# Density = 2.458929 g / cm^3
# Si number density = 24.645383 Si / 1000 Ang^3
#
#
#
# Elastic Constant Matrix: (Units=GPa)
#
#
# Indices 1 2 3 4 5 6 
#
# 1 57.5106 2.2834 24.9206 0.0000 -8.7205 0.0000
# 2 2.2834 32.5846 2.3608 0.0000 4.6903 0.0000
# 3 24.9206 2.3608 114.9675 0.0000 8.5028 0.0000
# 4 0.0000 0.0000 0.0000 21.5934 0.0000 5.3807
# 5 -8.7205 4.6903 8.5028 0.0000 27.8603 0.0000
# 6 0.0000 0.0000 0.0000 5.3807 0.0000 16.8131
#
#
#
# Elastic Compliance Matrix: (Units=1/GPa)
#
#
# Indices 1 2 3 4 5 6 
#
# 1 0.020999 -0.002328 -0.005135 0.000000 0.008532 0.000000
# 2 -0.002328 0.031717 0.000309 0.000000 -0.006162 0.000000
# 3 -0.005135 0.000309 0.010157 0.000000 -0.004759 0.000000
# 4 0.000000 0.000000 0.000000 0.050324 0.000000 -0.016105
# 5 0.008532 -0.006162 -0.004759 0.000000 0.041054 0.000000
# 6 0.000000 0.000000 0.000000 -0.016105 0.000000 0.064631
#
#
# Mechanical properties :
#
#
# Convention : Reuss Voigt Hill
#
# Bulk Modulus (GPa) = 20.59054 29.35468 24.97261
# Shear Modulus (GPa) = 20.04986 24.95322 22.50154
#
# Velocity S-wave (km/s) = 2.85535 3.18542 3.02489
# Velocity P-wave (km/s) = 4.38674 5.04637 4.72808
#
# Compressibility (1/GPa) = 0.04856599
#
# Stress axis : x y z
#
# Youngs Moduli (GPa) = 47.62040 31.52870 98.45585
#
# Poissons Ratio (x) = 0.07339 0.50558
# Poissons Ratio (y) = 0.11084 -0.03042
# Poissons Ratio (z) = 0.24454 -0.00974
#
# Static dielectric constant tensor:
#      x y z
#    x 1.974730 0.000000 0.030990 
#    y 0.000000 1.963090 0.000000 
#    z 0.030990 0.000000 2.023060 
# 
# From -- ./inp_files/7251.got.cif
#   From: 2010.05.17/outbox.cif.g08.bks.cpg/sg9_4_cif.got.tgz:7251.got - 2010.06.03 20:04:27.
