data_PCOD9135668
_publ_section_title
;
Structure prediction by ZEFSAII (Michael W. Deem and Ramdas Pophale) SiO2 
 PCOD9135668
Probable space group: C C
;
_chemical_formula_sum "Si O2"
_cell_formula_units_Z 28
_cell_length_a 18.451532
_cell_length_b 6.717538
_cell_length_c 29.332246
_cell_angle_alpha 90.000000
_cell_angle_beta 162.306911
_cell_angle_gamma 90.000000
_cell_volume 1104.954810
_symmetry_space_group_name_H-M "C C"
_symmetry_group_IT_number 9
_symmetry_cell_setting 'monoclinic'
loop_
_space_group_symop_operation_xyz
x,y,z
x,-y,1/2+z
1/2+x,1/2+y,z
1/2+x,1/2-y,1/2+z
loop_
_atom_site_type_symbol
_atom_site_label
_atom_site_fract_x
_atom_site_fract_y
_atom_site_fract_z
Si Si1 0.037210 0.680360 0.159150
Si Si2 0.557919 0.208701 0.937278
Si Si3 0.516525 0.949726 0.243155
Si Si4 0.971568 0.096453 0.072724
Si Si5 0.220557 0.803752 0.634523
Si Si6 0.421957 0.756693 0.873037
Si Si7 0.063263 0.000725 0.871111
O O1 0.311484 0.687039 0.306618
O O2 0.053344 0.588197 0.220082
O O3 0.957808 0.909253 0.098754
O O4 0.815403 0.566380 0.001579
O O5 0.571806 0.274193 0.892555
O O6 0.523231 0.979050 0.927130
O O7 0.804198 0.292722 0.105898
O O8 0.742999 0.854971 0.404940
O O9 0.422212 0.096870 0.225463
O O10 0.162565 0.071234 0.144885
O O11 0.136073 0.252654 0.198488
O O12 0.994321 0.802127 0.466715
O O13 0.322188 0.581533 0.704295
O O14 0.548285 0.628230 0.909641
#
# Coordination Sequence:
#
# PCOD9135668 Si02
#       7
#     4   4   4   4   4   4   4
#     4  10  20  42  68 103 134 188 230 286 355 421
#     4  10  22  42  65  99 139 180 231 292 344 423
#     4  11  21  41  74 100 139 188 234 292 362 417
#     4  10  23  42  70 104 143 188 234 298 356 422
#     4  11  21  43  71 100 141 188 235 289 360 418
#     4  10  22  45  66  99 139 183 231 297 346 425
#     4  10  21  43  68  97 145 181 231 296 357 412
#
# _framework density 25.340402000000001
#
# number of rings (size 3 to 8) (size 9 to 14) (size 15 to 20)
#    0.000    1.714    4.286    0.857    0.000    0.000 
#   23.143    4.286    0.000    0.000    0.000    0.000 
#    0.000    0.000    0.000    0.000    0.000    0.000 
#
# Total GULP energy -78093.347141 kJ/mol
# GULP energy per Si atom -5578.096224 kJ/mol
# Density = 2.528273 g / cm^3
# Si number density = 25.340402 Si / 1000 Ang^3
#
#
#
# Elastic Constant Matrix: (Units=GPa)
#
#
# Indices 1 2 3 4 5 6 
#
# 1 66.1404 7.9630 13.2184 0.0151 -4.6412 -0.0032
# 2 7.9630 77.7396 14.9799 -0.0160 6.6034 0.0280
# 3 13.2184 14.9799 201.2582 -0.0431 -8.7066 0.0187
# 4 0.0151 -0.0160 -0.0431 41.7534 0.0159 3.2448
# 5 -4.6412 6.6034 -8.7066 0.0159 39.1386 0.0010
# 6 -0.0032 0.0280 0.0187 3.2448 0.0010 40.3993
#
#
#
# Elastic Compliance Matrix: (Units=1/GPa)
#
#
# Indices 1 2 3 4 5 6 
#
# 1 0.015613 -0.001606 -0.000822 -0.000008 0.001939 0.000003
# 2 -0.001606 0.013451 -0.001012 0.000006 -0.002685 -0.000009
# 3 -0.000822 -0.001012 0.005151 0.000005 0.001219 -0.000002
# 4 -0.000008 0.000006 0.000005 0.024101 -0.000011 -0.001936
# 5 0.001939 -0.002685 0.001219 -0.000011 0.026504 0.000002
# 6 0.000003 -0.000009 -0.000002 -0.001936 0.000002 0.024908
#
#
# Mechanical properties :
#
#
# Convention : Reuss Voigt Hill
#
# Bulk Modulus (GPa) = 36.58210 46.38454 41.48332
# Shear Modulus (GPa) = 39.77120 44.85673 42.31396
#
# Velocity S-wave (km/s) = 3.96596 4.21190 4.09078
# Velocity P-wave (km/s) = 5.95310 6.48057 6.22243
#
# Compressibility (1/GPa) = 0.02733577
#
# Stress axis : x y z
#
# Youngs Moduli (GPa) = 64.04897 74.34411 194.14514
#
# Poissons Ratio (x) = 0.11937 0.15959
# Poissons Ratio (y) = 0.10284 0.19645
# Poissons Ratio (z) = 0.05265 0.07523
#
# Static dielectric constant tensor:
#      x y z
#    x 2.022670 -0.000020 0.054560 
#    y -0.000020 2.084240 0.000000 
#    z 0.054560 0.000000 2.088060 
# 
# From -- ./inp_files/36861.got.cif
#   From: 2010.05.17/outbox.cif.g08.bks.cpg/sg9_19_cif.got.tgz:36861.got - 2010.06.03 20:04:27.
