data_PCOD9135948
_publ_section_title
;
Structure prediction by ZEFSAII (Michael W. Deem and Ramdas Pophale) SiO2 
 PCOD9135948
Probable space group: C C
;
_chemical_formula_sum "Si O2"
_cell_formula_units_Z 32
_cell_length_a 10.131990
_cell_length_b 26.035211
_cell_length_c 13.278679
_cell_angle_alpha 90.000000
_cell_angle_beta 156.237658
_cell_angle_gamma 90.000000
_cell_volume 1411.416709
_symmetry_space_group_name_H-M "C C"
_symmetry_group_IT_number 9
_symmetry_cell_setting 'monoclinic'
loop_
_space_group_symop_operation_xyz
x,y,z
x,-y,1/2+z
1/2+x,1/2+y,z
1/2+x,1/2-y,1/2+z
loop_
_atom_site_type_symbol
_atom_site_label
_atom_site_fract_x
_atom_site_fract_y
_atom_site_fract_z
Si Si1 0.405870 0.236704 0.801570
Si Si2 0.304202 0.919063 0.612275
Si Si3 0.973461 0.726656 0.543217
Si Si4 0.065863 0.463848 0.084770
Si Si5 0.817641 0.365021 0.817997
Si Si6 0.706745 0.926309 0.698184
Si Si7 0.693094 0.868466 0.492617
Si Si8 0.399024 0.969534 0.202111
O O1 0.681251 0.266533 0.923608
O O2 0.419406 0.175049 0.798188
O O3 0.052780 0.254146 0.515514
O O4 0.344243 0.872130 0.717648
O O5 0.466428 0.908093 0.618024
O O6 0.930964 0.939274 0.338712
O O7 0.476178 0.971031 0.777303
O O8 0.046373 0.670538 0.546506
O O9 0.304902 0.745210 0.829202
O O10 0.054713 0.522547 0.039022
O O11 0.933070 0.467249 0.105172
O O12 0.842570 0.423080 0.873762
O O13 0.468242 0.345076 0.612195
O O14 0.786247 0.882504 0.672506
O O15 0.031941 0.951438 0.973017
O O16 0.612912 0.923283 0.390844
#
# Coordination Sequence:
#
# PCOD9135948 Si02
#       8
#     4   4   4   4   4   4   4   4
#     4  10  22  37  60  97 132 156 212 285 325 374
#     4  10  23  40  56  90 129 166 208 262 321 388
#     4  10  22  37  60  97 132 156 212 285 325 374
#     4  10  21  37  62  88 124 164 217 261 311 386
#     4  12  22  35  65  90 122 167 215 264 327 381
#     4  10  23  40  56  90 129 166 208 262 321 388
#     4  12  22  35  65  90 122 167 215 264 327 381
#     4  10  21  37  62  88 124 164 217 261 311 386
#
# _framework density 22.672256999999998
#
# number of rings (size 3 to 8) (size 9 to 14) (size 15 to 20)
#    0.000    1.500    5.000    0.750    7.000    1.000 
#    0.000    0.000    0.000    1.500    0.000    0.000 
#    0.000    0.000    0.000    0.000    0.000    0.000 
#
# Total GULP energy -89194.436386 kJ/mol
# GULP energy per Si atom -5574.652274 kJ/mol
# Density = 2.262065 g / cm^3
# Si number density = 22.672257 Si / 1000 Ang^3
#
#
#
# Elastic Constant Matrix: (Units=GPa)
#
#
# Indices 1 2 3 4 5 6 
#
# 1 61.7664 18.5304 3.0000 0.0001 -0.3882 0.0000
# 2 18.5304 72.8495 11.2344 -0.0002 -16.4280 0.0000
# 3 3.0000 11.2344 60.6193 -0.0008 -11.4387 0.0001
# 4 0.0001 -0.0002 -0.0008 34.7489 -0.0001 -20.1191
# 5 -0.3882 -16.4280 -11.4387 -0.0001 25.6674 -0.0001
# 6 0.0000 0.0000 0.0001 -20.1191 -0.0001 22.0807
#
#
#
# Elastic Compliance Matrix: (Units=1/GPa)
#
#
# Indices 1 2 3 4 5 6 
#
# 1 0.017747 -0.005171 -0.000539 0.000000 -0.003282 0.000000
# 2 -0.005171 0.017620 -0.000979 0.000000 0.010763 0.000000
# 3 -0.000539 -0.000979 0.018107 0.000001 0.007435 0.000001
# 4 0.000000 0.000000 0.000001 0.060912 0.000001 0.055500
# 5 -0.003282 0.010763 0.007435 0.000001 0.049113 0.000001
# 6 0.000000 0.000000 0.000001 0.055500 0.000001 0.095858
#
#
# Mechanical properties :
#
#
# Convention : Reuss Voigt Hill
#
# Bulk Modulus (GPa) = 24.93947 28.97386 26.95667
# Shear Modulus (GPa) = 17.47637 27.33077 22.40357
#
# Velocity S-wave (km/s) = 2.77939 3.47576 3.14689
# Velocity P-wave (km/s) = 4.61778 5.37727 5.01193
#
# Compressibility (1/GPa) = 0.04009708
#
# Stress axis : x y z
#
# Youngs Moduli (GPa) = 56.34773 56.75254 55.22599
#
# Poissons Ratio (x) = 0.29347 0.02978
# Poissons Ratio (y) = 0.29138 0.05404
# Poissons Ratio (z) = 0.03038 0.05554
#
# Static dielectric constant tensor:
#      x y z
#    x 1.857050 0.000000 -0.016640 
#    y 0.000000 1.889770 0.000000 
#    z -0.016640 0.000000 1.934330 
# 
# From -- ./inp_files/2805.got.cif
#   From: 2010.05.17/outbox.cif.g08.bks.cpg/sg9_2_cif.got.tgz:2805.got - 2010.06.03 20:04:27.
