data_PCOD9135231
_publ_section_title
;
Structure prediction by ZEFSAII (Michael W. Deem and Ramdas Pophale) SiO2 
 PCOD9135231
Probable space group: C C
;
_chemical_formula_sum "Si O2"
_cell_formula_units_Z 32
_cell_length_a 10.138177
_cell_length_b 11.632338
_cell_length_c 21.418911
_cell_angle_alpha 90.000000
_cell_angle_beta 148.470781
_cell_angle_gamma 90.000000
_cell_volume 1320.901945
_symmetry_space_group_name_H-M "C C"
_symmetry_group_IT_number 9
_symmetry_cell_setting 'monoclinic'
loop_
_space_group_symop_operation_xyz
x,y,z
x,-y,1/2+z
1/2+x,1/2+y,z
1/2+x,1/2-y,1/2+z
loop_
_atom_site_type_symbol
_atom_site_label
_atom_site_fract_x
_atom_site_fract_y
_atom_site_fract_z
Si Si1 0.674360 0.444268 0.238000
Si Si2 0.708808 0.873312 0.653052
Si Si3 0.227843 0.263357 0.918569
Si Si4 0.722256 0.992890 0.982209
Si Si5 0.512507 0.197766 0.207556
Si Si6 0.889520 0.645713 0.692730
Si Si7 0.050502 0.973857 0.499484
Si Si8 0.844770 0.074007 0.788379
O O1 0.545923 0.335013 0.218581
O O2 0.809842 0.406813 0.227412
O O3 0.926789 0.484933 0.376374
O O4 0.435920 0.523390 0.120220
O O5 0.454637 0.830256 0.514515
O O6 0.654552 0.839025 0.702712
O O7 0.913038 0.782084 0.710524
O O8 0.790435 0.002651 0.703097
O O9 0.249205 0.355416 0.982695
O O10 0.167615 0.334415 0.831597
O O11 0.967814 0.194826 0.821902
O O12 0.823600 0.047768 0.957614
O O13 0.251191 0.127674 0.098291
O O14 0.650622 0.600270 0.557582
O O15 0.107869 0.594655 0.738274
O O16 0.030567 0.976267 0.416595
#
# Coordination Sequence:
#
# PCOD9135231 Si02
#       8
#     4   4   4   4   4   4   4   4
#     4  10  21  39  68 103 139 176 246 302 363 434
#     4  11  23  42  67 100 135 176 245 299 359 440
#     4  12  23  42  66  96 139 187 236 307 376 441
#     4  11  20  40  70 102 129 185 248 300 355 446
#     4  11  22  43  67  99 139 187 237 307 364 438
#     4  10  20  38  63  99 127 176 235 292 346 433
#     4  11  19  38  75  96 130 189 248 298 361 436
#     4  12  22  40  66  99 140 184 235 301 378 438
#
# _framework density 24.22587
#
# number of rings (size 3 to 8) (size 9 to 14) (size 15 to 20)
#    0.000    1.000    7.500    2.250    0.000    0.000 
#    4.500    3.750    0.000    0.000    0.000    0.000 
#    0.000    0.000    0.000    0.000    0.000    0.000 
#
# Total GULP energy -89092.178411 kJ/mol
# GULP energy per Si atom -5568.261151 kJ/mol
# Density = 2.417073 g / cm^3
# Si number density = 24.225870 Si / 1000 Ang^3
#
#
#
# Elastic Constant Matrix: (Units=GPa)
#
#
# Indices 1 2 3 4 5 6 
#
# 1 24.8532 33.8274 32.4295 0.0004 -26.4277 0.0005
# 2 33.8274 87.4095 38.7258 -0.0002 15.7441 -0.0001
# 3 32.4295 38.7258 136.2951 0.0000 14.3510 -0.0001
# 4 0.0004 -0.0002 0.0000 31.2565 0.0005 -7.4752
# 5 -26.4277 15.7441 14.3510 0.0005 18.0797 0.0004
# 6 0.0005 -0.0001 -0.0001 -7.4752 0.0004 29.8213
#
#
#
# Elastic Compliance Matrix: (Units=1/GPa)
#
#
# Indices 1 2 3 4 5 6 
#
# 1 -0.014894 0.009965 0.004276 0.000001 -0.033843 0.000001
# 2 0.009965 0.007997 -0.005940 0.000000 0.012318 0.000000
# 3 0.004276 -0.005940 0.007425 0.000000 0.005529 0.000000
# 4 0.000001 0.000000 0.000000 0.034034 0.000001 0.008531
# 5 -0.033843 0.012318 0.005529 0.000001 -0.009275 0.000001
# 6 0.000001 0.000000 0.000000 0.008531 0.000001 0.035672
#
#
# Mechanical properties :
#
#
# Convention : Reuss Voigt Hill
#
# Bulk Modulus (GPa) = 58.37729 50.94702 54.66215
# Shear Modulus (GPa) = 99.86662 25.40316 62.63489
#
# Velocity S-wave (km/s) = 6.42749 3.24172 5.09025
# Velocity P-wave (km/s) = 8.90129 5.92345 7.56043
#
# Compressibility (1/GPa) = 0.01712995
#
# Stress axis : x y z
#
# Youngs Moduli (GPa) = -67.14115 125.04939 134.67441
#
# Poissons Ratio (x) = -1.24617 -0.57584
# Poissons Ratio (y) = 0.66909 0.80001
# Poissons Ratio (z) = 0.28708 0.74283
#
# Static dielectric constant tensor:
#      x y z
#    x 1.950850 0.000000 0.027120 
#    y 0.000000 2.056600 0.000000 
#    z 0.027120 0.000000 2.113520 
# 
# From -- ./inp_files/35408.got.cif
#   From: 2010.05.17/outbox.cif.g08.bks.cpg/sg9_18_cif.got.tgz:35408.got - 2010.06.03 20:04:27.
