data_PCOD9135097
_publ_section_title
;
Structure prediction by ZEFSAII (Michael W. Deem and Ramdas Pophale) SiO2 
 PCOD9135097
Probable space group: C C
;
_chemical_formula_sum "Si O2"
_cell_formula_units_Z 32
_cell_length_a 10.212828
_cell_length_b 9.950684
_cell_length_c 15.251107
_cell_angle_alpha 90.000000
_cell_angle_beta 61.455778
_cell_angle_gamma 90.000000
_cell_volume 1361.496913
_symmetry_space_group_name_H-M "C C"
_symmetry_group_IT_number 9
_symmetry_cell_setting 'monoclinic'
loop_
_space_group_symop_operation_xyz
x,y,z
x,-y,1/2+z
1/2+x,1/2+y,z
1/2+x,1/2-y,1/2+z
loop_
_atom_site_type_symbol
_atom_site_label
_atom_site_fract_x
_atom_site_fract_y
_atom_site_fract_z
Si Si1 0.279900 0.222263 0.629200
Si Si2 0.843566 0.391446 0.355065
Si Si3 0.719364 0.949067 0.992155
Si Si4 0.789682 0.115535 0.295318
Si Si5 0.773474 0.669882 0.067807
Si Si6 0.436174 0.042604 0.163599
Si Si7 0.992973 0.071112 0.967634
Si Si8 0.024292 0.948731 0.136947
O O1 0.234451 0.319175 0.723279
O O2 0.360976 0.090512 0.643106
O O3 0.403470 0.301068 0.533601
O O4 0.131439 0.170961 0.629586
O O5 0.884097 0.240921 0.308465
O O6 0.860978 0.394458 0.455067
O O7 0.915308 0.508952 0.273008
O O8 0.664631 0.401545 0.393183
O O9 0.671969 0.917945 0.908403
O O10 0.729479 0.815043 0.046404
O O11 0.884455 0.011029 0.929695
O O12 0.606737 0.043017 0.079388
O O13 0.877355 0.981928 0.238277
O O14 0.854431 0.660989 0.135770
O O15 0.624599 0.582083 0.121772
O O16 0.992672 0.958666 0.044304
#
# Coordination Sequence:
#
# PCOD9135097 Si02
#       8
#     4   4   4   4   4   4   4   4
#     4   9  18  36  62  86 117 154 208 253 303 373
#     4   9  18  37  60  86 117 161 214 255 312 371
#     4  11  22  35  56  89 127 157 205 253 312 373
#     4   9  18  32  58  90 117 152 201 251 304 370
#     4   9  19  36  59  85 118 155 205 258 301 372
#     4  10  20  37  61  84 117 161 205 256 314 365
#     4  10  21  35  58  88 124 162 204 258 310 375
#     4   9  18  36  62  88 115 158 204 254 308 365
#
# _framework density 23.503540999999998
#
# number of rings (size 3 to 8) (size 9 to 14) (size 15 to 20)
#    0.000    2.500    0.000    3.750    5.250    1.000 
#    4.500    0.000    2.750    6.000    0.000    0.000 
#    0.000    0.000    0.000    0.000    0.000    0.000 
#
# Total GULP energy -89298.467748 kJ/mol
# GULP energy per Si atom -5581.154234 kJ/mol
# Density = 2.345005 g / cm^3
# Si number density = 23.503541 Si / 1000 Ang^3
#
#
#
# Elastic Constant Matrix: (Units=GPa)
#
#
# Indices 1 2 3 4 5 6 
#
# 1 57.1791 13.1968 11.5592 0.0000 -5.6271 0.0000
# 2 13.1968 70.7884 19.6659 0.0000 -7.1284 0.0000
# 3 11.5592 19.6659 98.8073 0.0000 -0.5535 0.0000
# 4 0.0000 0.0000 0.0000 19.0140 0.0000 -7.1094
# 5 -5.6271 -7.1284 -0.5535 0.0000 21.4660 0.0000
# 6 0.0000 0.0000 0.0000 -7.1094 0.0000 29.6489
#
#
#
# Elastic Compliance Matrix: (Units=1/GPa)
#
#
# Indices 1 2 3 4 5 6 
#
# 1 0.018829 -0.002647 -0.001654 0.000000 0.004014 0.000000
# 2 -0.002647 0.015857 -0.002821 0.000000 0.004499 0.000000
# 3 -0.001654 -0.002821 0.010870 0.000000 -0.001090 0.000000
# 4 0.000000 0.000000 0.000000 0.057772 0.000000 0.013853
# 5 0.004014 0.004499 -0.001090 0.000000 0.049104 0.000000
# 6 0.000000 0.000000 0.000000 0.013853 0.000000 0.037050
#
#
# Mechanical properties :
#
#
# Convention : Reuss Voigt Hill
#
# Bulk Modulus (GPa) = 31.93583 35.06875 33.50229
# Shear Modulus (GPa) = 23.34687 26.18264 24.76476
#
# Velocity S-wave (km/s) = 3.15514 3.34127 3.24954
# Velocity P-wave (km/s) = 5.18559 5.46246 5.32582
#
# Compressibility (1/GPa) = 0.03131279
#
# Stress axis : x y z
#
# Youngs Moduli (GPa) = 53.10934 63.06426 92.00006
#
# Poissons Ratio (x) = 0.16691 0.15212
# Poissons Ratio (y) = 0.14056 0.25955
# Poissons Ratio (z) = 0.08782 0.17792
#
# Static dielectric constant tensor:
#      x y z
#    x 1.920260 0.000000 0.013580 
#    y 0.000000 1.914340 0.000000 
#    z 0.013580 0.000000 1.865620 
# 
# From -- ./inp_files/30021.got.cif
#   From: 2010.05.17/outbox.cif.g08.bks.cpg/sg9_16_cif.got.tgz:30021.got - 2010.06.03 20:04:27.
