data_PCOD9135663
_publ_section_title
;
Structure prediction by ZEFSAII (Michael W. Deem and Ramdas Pophale) SiO2 
 PCOD9135663
Probable space group: C C
;
_chemical_formula_sum "Si O2"
_cell_formula_units_Z 32
_cell_length_a 8.907650
_cell_length_b 20.714742
_cell_length_c 7.427656
_cell_angle_alpha 90.000000
_cell_angle_beta 63.927539
_cell_angle_gamma 90.000000
_cell_volume 1231.080145
_symmetry_space_group_name_H-M "C C"
_symmetry_group_IT_number 9
_symmetry_cell_setting 'monoclinic'
loop_
_space_group_symop_operation_xyz
x,y,z
x,-y,1/2+z
1/2+x,1/2+y,z
1/2+x,1/2-y,1/2+z
loop_
_atom_site_type_symbol
_atom_site_label
_atom_site_fract_x
_atom_site_fract_y
_atom_site_fract_z
Si Si1 0.181660 0.663373 0.405160
Si Si2 0.021821 0.579896 0.205501
Si Si3 0.156139 0.869132 0.449054
Si Si4 0.720133 0.321986 0.828398
Si Si5 0.907215 0.236001 0.003137
Si Si6 0.419394 0.949889 0.406240
Si Si7 0.569260 0.511263 0.758749
Si Si8 0.413360 0.398010 0.050084
O O1 0.306471 0.710407 0.229280
O O2 0.250127 0.634004 0.552433
O O3 0.153059 0.608533 0.271152
O O4 0.012981 0.702908 0.509139
O O5 0.848613 0.620278 0.315090
O O6 0.007102 0.505198 0.253186
O O7 0.045072 0.582265 0.980926
O O8 0.184982 0.833218 0.631389
O O9 0.344466 0.894011 0.322363
O O10 0.079143 0.939400 0.424967
O O11 0.045908 0.819205 0.396722
O O12 0.542129 0.339021 0.004452
O O13 0.797160 0.258879 0.887695
O O14 0.259833 0.988018 0.593838
O O15 0.483596 0.443966 0.852785
O O16 0.450445 0.553328 0.692366
#
# Coordination Sequence:
#
# PCOD9135663 Si02
#       8
#     4   4   4   4   4   4   4   4
#     4  11  27  48  70 102 149 187 248 307 354 420
#     4  10  21  38  68  99 143 177 231 296 354 430
#     4  11  21  40  69 101 137 184 240 287 355 430
#     4  10  20  42  67  96 136 190 244 288 344 424
#     4  11  26  47  72  99 145 200 244 301 353 418
#     4  11  17  37  66 107 135 185 225 288 362 443
#     4  12  20  36  75 106 142 189 230 289 379 439
#     4  12  22  42  71 106 145 188 240 296 365 442
#
# _framework density 25.993431999999999
#
# number of rings (size 3 to 8) (size 9 to 14) (size 15 to 20)
#    0.000    1.000    7.500    0.000    1.750    2.000 
#    4.500    0.000    0.000    0.000    0.000    0.000 
#    0.000    0.000    0.000    0.000    0.000    0.000 
#
# Total GULP energy -89154.138760 kJ/mol
# GULP energy per Si atom -5572.133672 kJ/mol
# Density = 2.593427 g / cm^3
# Si number density = 25.993432 Si / 1000 Ang^3
#
#
#
# Elastic Constant Matrix: (Units=GPa)
#
#
# Indices 1 2 3 4 5 6 
#
# 1 123.5399 56.7506 59.2933 0.0000 43.4395 0.0000
# 2 56.7506 118.6485 40.7561 0.0000 11.7826 0.0000
# 3 59.2933 40.7561 83.6219 0.0000 22.8260 0.0000
# 4 0.0000 0.0000 0.0000 48.1690 0.0000 16.9198
# 5 43.4395 11.7826 22.8260 0.0000 29.3014 0.0000
# 6 0.0000 0.0000 0.0000 16.9198 0.0000 47.5925
#
#
#
# Elastic Compliance Matrix: (Units=1/GPa)
#
#
# Indices 1 2 3 4 5 6 
#
# 1 0.023879 -0.006546 -0.006092 0.000000 -0.028023 0.000000
# 2 -0.006546 0.011919 -0.003186 0.000000 0.007393 0.000000
# 3 -0.006092 -0.003186 0.019071 0.000000 -0.004544 0.000000
# 4 0.000000 0.000000 0.000000 0.023723 0.000000 -0.008434
# 5 -0.028023 0.007393 -0.004544 0.000000 0.076239 0.000000
# 6 0.000000 0.000000 0.000000 -0.008434 0.000000 0.024010
#
#
# Mechanical properties :
#
#
# Convention : Reuss Voigt Hill
#
# Bulk Modulus (GPa) = 43.06293 71.04558 57.05426
# Shear Modulus (GPa) = 22.91161 36.27995 29.59578
#
# Velocity S-wave (km/s) = 2.97212 3.74001 3.37796
# Velocity P-wave (km/s) = 5.32737 6.78540 6.10010
#
# Compressibility (1/GPa) = 0.02322183
#
# Stress axis : x y z
#
# Youngs Moduli (GPa) = 41.87795 83.89643 52.43459
#
# Poissons Ratio (x) = 0.54919 0.31943
# Poissons Ratio (y) = 0.27414 0.16705
# Poissons Ratio (z) = 0.25512 0.26729
#
# Static dielectric constant tensor:
#      x y z
#    x 2.059410 0.000000 -0.026910 
#    y 0.000000 2.025550 0.000000 
#    z -0.026910 0.000000 2.200450 
# 
# From -- ./inp_files/5936.got.cif
#   From: 2010.05.17/outbox.cif.g08.bks.cpg/sg9_3_cif.got.tgz:5936.got - 2010.06.03 20:04:27.
