data_PCOD9135360
_publ_section_title
;
Structure prediction by ZEFSAII (Michael W. Deem and Ramdas Pophale) SiO2 
 PCOD9135360
Probable space group: C C
;
_chemical_formula_sum "Si O2"
_cell_formula_units_Z 32
_cell_length_a 10.208659
_cell_length_b 9.416895
_cell_length_c 17.687119
_cell_angle_alpha 90.000000
_cell_angle_beta 45.018420
_cell_angle_gamma 90.000000
_cell_volume 1202.702189
_symmetry_space_group_name_H-M "C C"
_symmetry_group_IT_number 9
_symmetry_cell_setting 'monoclinic'
loop_
_space_group_symop_operation_xyz
x,y,z
x,-y,1/2+z
1/2+x,1/2+y,z
1/2+x,1/2-y,1/2+z
loop_
_atom_site_type_symbol
_atom_site_label
_atom_site_fract_x
_atom_site_fract_y
_atom_site_fract_z
Si Si1 0.007730 0.282062 0.923460
Si Si2 0.438337 0.558886 0.453352
Si Si3 0.601624 0.946192 0.643643
Si Si4 0.462162 0.507321 0.783620
Si Si5 0.163138 0.152217 0.069118
Si Si6 0.046337 0.425356 0.487969
Si Si7 0.277439 0.231089 0.694612
Si Si8 0.788734 0.450468 0.888314
O O1 0.208897 0.289898 0.803862
O O2 0.963628 0.114855 0.948652
O O3 0.879003 0.341431 0.909015
O O4 0.993690 0.408880 0.989643
O O5 0.248033 0.573227 0.575416
O O6 0.430441 0.598036 0.368545
O O7 0.612451 0.621065 0.423095
O O8 0.557290 0.902273 0.574803
O O9 0.699196 0.828439 0.657670
O O10 0.424467 0.989441 0.764665
O O11 0.541191 0.452319 0.672489
O O12 0.645063 0.594818 0.737554
O O13 0.258056 0.583601 0.866266
O O14 0.367422 0.155812 0.025986
O O15 0.997562 0.259769 0.112879
O O16 0.221509 0.081291 0.965750
#
# Coordination Sequence:
#
# PCOD9135360 Si02
#       8
#     4   4   4   4   4   4   4   4
#     4   9  20  38  66  94 125 174 225 275 336 404
#     4  10  20  39  67  95 128 175 227 269 342 408
#     4  10  21  38  60  97 134 175 216 276 345 406
#     4  10  22  39  68 100 130 183 223 284 345 403
#     4  11  21  36  67  96 130 178 232 275 339 410
#     4  10  21  38  65  98 137 173 226 286 347 396
#     4  10  20  39  66  93 133 177 230 270 339 414
#     4  10  21  35  59  95 135 169 219 279 329 399
#
# _framework density 26.606752
#
# number of rings (size 3 to 8) (size 9 to 14) (size 15 to 20)
#    0.000    2.000    2.500    0.750    3.500    0.000 
#    2.250    0.000   11.000   36.000    0.000    0.000 
#    0.000    0.000    0.000    0.000    0.000    0.000 
#
# Total GULP energy -89270.782361 kJ/mol
# GULP energy per Si atom -5579.423898 kJ/mol
# Density = 2.654619 g / cm^3
# Si number density = 26.606752 Si / 1000 Ang^3
#
#
#
# Elastic Constant Matrix: (Units=GPa)
#
#
# Indices 1 2 3 4 5 6 
#
# 1 171.6955 56.1024 82.9177 0.0000 -31.4835 0.0000
# 2 56.1024 69.9727 30.8554 0.0000 -23.1472 0.0000
# 3 82.9177 30.8554 209.3938 0.0000 -22.4608 0.0000
# 4 0.0000 0.0000 0.0000 14.0277 0.0000 -7.9782
# 5 -31.4835 -23.1472 -22.4608 0.0000 67.1607 0.0000
# 6 0.0000 0.0000 0.0000 -7.9782 0.0000 44.1758
#
#
#
# Elastic Compliance Matrix: (Units=1/GPa)
#
#
# Indices 1 2 3 4 5 6 
#
# 1 0.009263 -0.005769 -0.002661 0.000000 0.001464 0.000000
# 2 -0.005769 0.020443 -0.000272 0.000000 0.004250 0.000000
# 3 -0.002661 -0.000272 0.005939 0.000000 0.000645 0.000000
# 4 0.000000 0.000000 0.000000 0.079448 0.000000 0.014348
# 5 0.001464 0.004250 0.000645 0.000000 0.017257 0.000000
# 6 0.000000 0.000000 0.000000 0.014348 0.000000 0.025228
#
#
# Mechanical properties :
#
#
# Convention : Reuss Voigt Hill
#
# Bulk Modulus (GPa) = 54.82321 87.86811 71.34566
# Shear Modulus (GPa) = 27.61506 43.81861 35.71683
#
# Velocity S-wave (km/s) = 3.22514 4.06260 3.66785
# Velocity P-wave (km/s) = 5.87524 7.42312 6.69407
#
# Compressibility (1/GPa) = 0.01824045
#
# Stress axis : x y z
#
# Youngs Moduli (GPa) = 107.95882 48.91715 168.38954
#
# Poissons Ratio (x) = 0.28221 0.44806
# Poissons Ratio (y) = 0.62282 0.04579
# Poissons Ratio (z) = 0.28726 0.01330
#
# Static dielectric constant tensor:
#      x y z
#    x 2.080330 0.000000 -0.021300 
#    y 0.000000 2.291200 0.000000 
#    z -0.021300 0.000000 2.162110 
# 
# From -- ./inp_files/33272.got.cif
#   From: 2010.05.17/outbox.cif.g08.bks.cpg/sg9_17_cif.got.tgz:33272.got - 2010.06.03 20:04:27.
