data_PCOD9135851
_publ_section_title
;
Structure prediction by ZEFSAII (Michael W. Deem and Ramdas Pophale) SiO2 
 PCOD9135851
Probable space group: C C
;
_chemical_formula_sum "Si O2"
_cell_formula_units_Z 28
_cell_length_a 12.200071
_cell_length_b 17.042919
_cell_length_c 8.931961
_cell_angle_alpha 90.000000
_cell_angle_beta 125.763625
_cell_angle_gamma 90.000000
_cell_volume 1506.977976
_symmetry_space_group_name_H-M "C C"
_symmetry_group_IT_number 9
_symmetry_cell_setting 'monoclinic'
loop_
_space_group_symop_operation_xyz
x,y,z
x,-y,1/2+z
1/2+x,1/2+y,z
1/2+x,1/2-y,1/2+z
loop_
_atom_site_type_symbol
_atom_site_label
_atom_site_fract_x
_atom_site_fract_y
_atom_site_fract_z
Si Si1 0.671320 0.986479 0.065250
Si Si2 0.810342 0.912277 0.426203
Si Si3 0.942882 0.419929 0.545932
Si Si4 0.041298 0.679883 0.365041
Si Si5 0.117958 0.904928 0.758086
Si Si6 0.253085 0.245985 0.239356
Si Si7 0.767628 0.520213 0.646526
O O1 0.802005 0.959862 0.263552
O O2 0.713846 0.043009 0.965237
O O3 0.573037 0.032554 0.096979
O O4 0.592751 0.906660 0.957546
O O5 0.763272 0.825381 0.343465
O O6 0.958929 0.909943 0.610762
O O7 0.863336 0.468804 0.611924
O O8 0.849856 0.422302 0.323386
O O9 0.994445 0.338095 0.657312
O O10 0.165784 0.734735 0.518386
O O11 0.903781 0.712792 0.329655
O O12 0.170606 0.818534 0.764001
O O13 0.188862 0.960597 0.691171
O O14 0.168202 0.932980 0.959283
#
# Coordination Sequence:
#
# PCOD9135851 Si02
#       7
#     4   4   4   4   4   4   4
#     4  11  21  38  67  95 122 170 223 273 310 395
#     4  11  23  39  65  94 129 171 223 266 326 393
#     4  11  18  38  63  97 120 161 223 263 319 385
#     4  11  21  40  66  93 128 173 217 264 329 397
#     4  11  21  41  61  94 130 167 220 268 335 386
#     4  11  23  40  66  94 131 178 210 272 340 392
#     4  10  21  34  68  93 122 166 218 280 315 386
#
# _framework density 18.580231999999999
#
# number of rings (size 3 to 8) (size 9 to 14) (size 15 to 20)
#    0.000    1.143    5.714    1.714    0.000    1.143 
#    0.000    1.429    0.000    0.000    0.000    0.000 
#    0.000    0.000    0.000    0.000    0.000    0.000 
#
# Total GULP energy -78047.989644 kJ/mol
# GULP energy per Si atom -5574.856403 kJ/mol
# Density = 1.853794 g / cm^3
# Si number density = 18.580232 Si / 1000 Ang^3
#
#
#
# Elastic Constant Matrix: (Units=GPa)
#
#
# Indices 1 2 3 4 5 6 
#
# 1 79.1492 36.9832 42.1063 0.0000 9.9205 0.0000
# 2 36.9832 92.3822 53.0854 0.0000 -1.8088 0.0000
# 3 42.1063 53.0854 172.1004 0.0000 13.7339 0.0000
# 4 0.0000 0.0000 0.0000 22.5245 0.0000 2.0980
# 5 9.9205 -1.8088 13.7339 0.0000 35.0585 0.0000
# 6 0.0000 0.0000 0.0000 2.0980 0.0000 23.2896
#
#
#
# Elastic Compliance Matrix: (Units=1/GPa)
#
#
# Indices 1 2 3 4 5 6 
#
# 1 0.016912 -0.005679 -0.002045 0.000000 -0.004278 0.000000
# 2 -0.005679 0.015253 -0.003619 0.000000 0.003812 0.000000
# 3 -0.002045 -0.003619 0.007635 0.000000 -0.002599 0.000000
# 4 0.000000 0.000000 0.000000 0.044772 0.000000 -0.004033
# 5 -0.004278 0.003812 -0.002599 0.000000 0.030949 0.000000
# 6 0.000000 0.000000 0.000000 -0.004033 0.000000 0.043301
#
#
# Mechanical properties :
#
#
# Convention : Reuss Voigt Hill
#
# Bulk Modulus (GPa) = 58.43616 67.55352 62.99484
# Shear Modulus (GPa) = 26.70775 30.27163 28.48969
#
# Velocity S-wave (km/s) = 3.79546 4.04076 3.92003
# Velocity P-wave (km/s) = 7.12224 7.62935 7.38015
#
# Compressibility (1/GPa) = 0.01711269
#
# Stress axis : x y z
#
# Youngs Moduli (GPa) = 59.13012 65.56245 130.98207
#
# Poissons Ratio (x) = 0.37234 0.26780
# Poissons Ratio (y) = 0.33581 0.47409
# Poissons Ratio (z) = 0.12089 0.23730
#
# Static dielectric constant tensor:
#      x y z
#    x 1.611610 0.000000 0.012790 
#    y 0.000000 1.646330 0.000000 
#    z 0.012790 0.000000 1.706210 
# 
# From -- ./inp_files/7328.got.cif
#   From: 2010.05.17/outbox.cif.g08.bks.cpg/sg9_4_cif.got.tgz:7328.got - 2010.06.03 20:04:27.
