data_PCOD9135031
_publ_section_title
;
Structure prediction by ZEFSAII (Michael W. Deem and Ramdas Pophale) SiO2 
 PCOD9135031
Probable space group: C C
;
_chemical_formula_sum "Si O2"
_cell_formula_units_Z 32
_cell_length_a 5.605040
_cell_length_b 27.965322
_cell_length_c 9.014669
_cell_angle_alpha 90.000000
_cell_angle_beta 62.456288
_cell_angle_gamma 90.000000
_cell_volume 1252.865957
_symmetry_space_group_name_H-M "C C"
_symmetry_group_IT_number 9
_symmetry_cell_setting 'monoclinic'
loop_
_space_group_symop_operation_xyz
x,y,z
x,-y,1/2+z
1/2+x,1/2+y,z
1/2+x,1/2-y,1/2+z
loop_
_atom_site_type_symbol
_atom_site_label
_atom_site_fract_x
_atom_site_fract_y
_atom_site_fract_z
Si Si1 0.798940 0.917005 0.846540
Si Si2 0.370655 0.181314 0.205525
Si Si3 0.378349 0.673047 0.506098
Si Si4 0.578390 0.738564 0.049896
Si Si5 0.114597 0.593142 0.982848
Si Si6 0.649870 0.428033 0.438673
Si Si7 0.549683 0.713952 0.743404
Si Si8 0.316136 0.963728 0.822533
O O1 0.738619 0.866308 0.943378
O O2 0.970593 0.918391 0.641013
O O3 0.521089 0.943702 0.888404
O O4 0.016815 0.941593 0.893061
O O5 0.165023 0.197326 0.136067
O O6 0.492985 0.230610 0.222546
O O7 0.558404 0.139983 0.095295
O O8 0.192147 0.161083 0.388957
O O9 0.339630 0.727583 0.456156
O O10 0.376093 0.681437 0.684050
O O11 0.484425 0.710823 0.932619
O O12 0.373013 0.782424 0.143093
O O13 0.977278 0.550119 0.122326
O O14 0.930779 0.598545 0.889555
O O15 0.431817 0.585285 0.876087
O O16 0.751696 0.481270 0.374006
#
# Coordination Sequence:
#
# PCOD9135031 Si02
#       8
#     4   4   4   4   4   4   4   4
#     4  10  22  37  66  95 125 173 222 274 337 427
#     4  11  22  39  64 101 127 181 234 276 346 413
#     4  11  22  39  64 101 127 181 234 276 346 413
#     4  11  24  38  66  95 139 179 227 292 337 408
#     4  10  22  37  66  95 125 173 222 274 337 427
#     4  10  20  36  62  97 124 161 217 277 341 404
#     4  11  24  38  66  95 139 179 227 292 337 408
#     4  10  20  36  62  97 124 161 217 277 341 404
#
# _framework density 25.541437999999999
#
# number of rings (size 3 to 8) (size 9 to 14) (size 15 to 20)
#    0.000    1.500    5.000    0.750    7.000    0.000 
#    0.000    0.000    5.500    3.000    0.000    0.000 
#    0.000    0.000    0.000    0.000    0.000    0.000 
#
# Total GULP energy -89248.053875 kJ/mol
# GULP energy per Si atom -5578.003367 kJ/mol
# Density = 2.548330 g / cm^3
# Si number density = 25.541438 Si / 1000 Ang^3
#
#
#
# Elastic Constant Matrix: (Units=GPa)
#
#
# Indices 1 2 3 4 5 6 
#
# 1 171.5372 24.1872 12.9101 0.0000 8.5136 0.0000
# 2 24.1872 67.5114 12.1296 0.0000 -4.0011 0.0000
# 3 12.9101 12.1296 41.4817 0.0000 10.4052 0.0000
# 4 0.0000 0.0000 0.0000 32.4724 0.0000 -1.4740
# 5 8.5136 -4.0011 10.4052 0.0000 23.1144 0.0000
# 6 0.0000 0.0000 0.0000 -1.4740 0.0000 54.2543
#
#
#
# Elastic Compliance Matrix: (Units=1/GPa)
#
#
# Indices 1 2 3 4 5 6 
#
# 1 0.006324 -0.002284 -0.000695 0.000000 -0.002411 0.000000
# 2 -0.002284 0.017073 -0.005900 0.000000 0.006452 0.000000
# 3 -0.000695 -0.005900 0.029581 0.000000 -0.014081 0.000000
# 4 0.000000 0.000000 0.000000 0.030833 0.000000 0.000838
# 5 -0.002411 0.006452 -0.014081 0.000000 0.051607 0.000000
# 6 0.000000 0.000000 0.000000 0.000838 0.000000 0.018454
#
#
# Mechanical properties :
#
#
# Convention : Reuss Voigt Hill
#
# Bulk Modulus (GPa) = 28.39361 42.10934 35.25148
# Shear Modulus (GPa) = 27.26725 37.38845 32.32785
#
# Velocity S-wave (km/s) = 3.27091 3.83016 3.56153
# Velocity P-wave (km/s) = 5.04043 6.00688 5.54475
#
# Compressibility (1/GPa) = 0.03521919
#
# Stress axis : x y z
#
# Youngs Moduli (GPa) = 158.13673 58.57240 33.80566
#
# Poissons Ratio (x) = 0.13375 0.02351
# Poissons Ratio (y) = 0.36111 0.19946
# Poissons Ratio (z) = 0.10998 0.34558
#
# Static dielectric constant tensor:
#      x y z
#    x 2.188990 0.000000 0.004790 
#    y 0.000000 1.999050 0.000000 
#    z 0.004790 0.000000 2.103910 
# 
# From -- ./inp_files/4396.got.cif
#   From: 2010.05.17/outbox.cif.g08.bks.cpg/sg9_3_cif.got.tgz:4396.got - 2010.06.03 20:04:27.
