data_PCOD9135068
_publ_section_title
;
Structure prediction by ZEFSAII (Michael W. Deem and Ramdas Pophale) SiO2 
 PCOD9135068
Probable space group: C C
;
_chemical_formula_sum "Si O2"
_cell_formula_units_Z 20
_cell_length_a 5.417673
_cell_length_b 13.642614
_cell_length_c 8.157709
_cell_angle_alpha 90.000000
_cell_angle_beta 89.477491
_cell_angle_gamma 90.000000
_cell_volume 602.921165
_symmetry_space_group_name_H-M "C C"
_symmetry_group_IT_number 9
_symmetry_cell_setting 'monoclinic'
loop_
_space_group_symop_operation_xyz
x,y,z
x,-y,1/2+z
1/2+x,1/2+y,z
1/2+x,1/2-y,1/2+z
loop_
_atom_site_type_symbol
_atom_site_label
_atom_site_fract_x
_atom_site_fract_y
_atom_site_fract_z
Si Si1 0.638830 0.454973 0.837470
Si Si2 0.459849 0.345572 0.419917
Si Si3 0.478815 0.728733 0.528872
Si Si4 0.144030 0.505072 0.734520
Si Si5 0.980002 0.707857 0.648690
O O1 0.665225 0.566994 0.893882
O O2 0.553466 0.386905 0.985575
O O3 0.407720 0.450025 0.710765
O O4 0.911403 0.434127 0.763741
O O5 0.275441 0.269935 0.543424
O O6 0.230865 0.430157 0.392394
O O7 0.462613 0.292673 0.237456
O O8 0.178715 0.768471 0.537142
O O9 0.474269 0.757281 0.328866
O O10 0.041253 0.594670 0.622622
#
# Coordination Sequence:
#
# PCOD9135068 Si02
#       5
#     4   4   4   4   4
#     4  10  20  37  60  79 115 153 189 237 288 338
#     4   8  22  32  64  76 118 144 196 230 284 346
#     4  10  20  37  60  79 115 153 189 237 288 338
#     4  10  20  37  58  83 115 151 189 238 286 334
#     4  10  20  37  58  83 115 151 189 238 286 334
#
# _framework density 33.171833999999997
#
# number of rings (size 3 to 8) (size 9 to 14) (size 15 to 20)
#    2.400    0.000    0.000    3.600    0.000    0.000 
#    0.000    4.000    0.000    0.000    0.000    0.000 
#    0.000    0.000    0.000    0.000    0.000    0.000 
#
# Total GULP energy -55832.828687 kJ/mol
# GULP energy per Si atom -5583.282869 kJ/mol
# Density = 3.309633 g / cm^3
# Si number density = 33.171834 Si / 1000 Ang^3
#
#
#
# Elastic Constant Matrix: (Units=GPa)
#
#
# Indices 1 2 3 4 5 6 
#
# 1 313.9649 45.4271 95.3028 0.0000 -26.1033 0.0000
# 2 45.4271 211.9007 15.1088 0.0000 -1.6550 0.0000
# 3 95.3028 15.1088 188.5874 0.0000 -26.9547 0.0000
# 4 0.0000 0.0000 0.0000 70.1180 0.0000 13.5398
# 5 -26.1033 -1.6550 -26.9547 0.0000 94.3477 0.0000
# 6 0.0000 0.0000 0.0000 13.5398 0.0000 63.0124
#
#
#
# Elastic Compliance Matrix: (Units=1/GPa)
#
#
# Indices 1 2 3 4 5 6 
#
# 1 0.003887 -0.000698 -0.001831 0.000000 0.000540 0.000000
# 2 -0.000698 0.004872 -0.000055 0.000000 -0.000124 0.000000
# 3 -0.001831 -0.000055 0.006422 0.000000 0.001327 0.000000
# 4 0.000000 0.000000 0.000000 0.014879 0.000000 -0.003197
# 5 0.000540 -0.000124 0.001327 0.000000 0.011125 0.000000
# 6 0.000000 0.000000 0.000000 -0.003197 0.000000 0.016557
#
#
# Mechanical properties :
#
#
# Convention : Reuss Voigt Hill
#
# Bulk Modulus (GPa) = 99.88364 114.01448 106.94906
# Shear Modulus (GPa) = 75.47344 82.73658 79.10501
#
# Velocity S-wave (km/s) = 4.77511 4.99960 4.88864
# Velocity P-wave (km/s) = 7.78322 8.23246 8.01099
#
# Compressibility (1/GPa) = 0.01001165
#
# Stress axis : x y z
#
# Youngs Moduli (GPa) = 257.27814 205.25921 155.71440
#
# Poissons Ratio (x) = 0.14337 0.28513
# Poissons Ratio (y) = 0.17970 0.00856
# Poissons Ratio (z) = 0.47110 0.01129
#
# Static dielectric constant tensor:
#      x y z
#    x 3.609530 0.000000 -0.300750 
#    y 0.000000 2.581840 0.000000 
#    z -0.300750 0.000000 2.569960 
# 
# From -- ./inp_files/12889.got.cif
#   From: 2010.05.17/outbox.cif.g08.bks.cpg/sg9_7_cif.got.tgz:12889.got - 2010.06.03 20:04:27.
