data_PCOD9135465
_publ_section_title
;
Structure prediction by ZEFSAII (Michael W. Deem and Ramdas Pophale) SiO2 
 PCOD9135465
Probable space group: C C
;
_chemical_formula_sum "Si O2"
_cell_formula_units_Z 32
_cell_length_a 9.181399
_cell_length_b 24.677287
_cell_length_c 9.627617
_cell_angle_alpha 90.000000
_cell_angle_beta 134.064361
_cell_angle_gamma 90.000000
_cell_volume 1567.427742
_symmetry_space_group_name_H-M "C C"
_symmetry_group_IT_number 9
_symmetry_cell_setting 'monoclinic'
loop_
_space_group_symop_operation_xyz
x,y,z
x,-y,1/2+z
1/2+x,1/2+y,z
1/2+x,1/2-y,1/2+z
loop_
_atom_site_type_symbol
_atom_site_label
_atom_site_fract_x
_atom_site_fract_y
_atom_site_fract_z
Si Si1 0.325610 0.626631 0.824090
Si Si2 0.633262 0.450153 0.006020
Si Si3 0.696770 0.671094 0.210791
Si Si4 0.868464 0.119025 0.525740
Si Si5 0.605172 0.551783 0.162013
Si Si6 0.376430 0.157523 0.607414
Si Si7 0.007336 0.688492 0.203611
Si Si8 0.727010 0.296994 0.268161
O O1 0.367794 0.611778 0.691830
O O2 0.098326 0.647409 0.692788
O O3 0.481353 0.672031 0.989698
O O4 0.390866 0.573995 0.958394
O O5 0.448514 0.428273 0.979020
O O6 0.585626 0.461328 0.812273
O O7 0.694684 0.504089 0.128381
O O8 0.794234 0.400850 0.106571
O O9 0.741450 0.605936 0.234875
O O10 0.719137 0.680518 0.388536
O O11 0.867062 0.703179 0.241503
O O12 0.648820 0.138537 0.333753
O O13 0.027535 0.167851 0.607035
O O14 0.371761 0.198624 0.731938
O O15 0.150909 0.737780 0.256021
O O16 0.849708 0.677478 0.976796
#
# Coordination Sequence:
#
# PCOD9135465 Si02
#       8
#     4   4   4   4   4   4   4   4
#     4  10  20  40  66  91 126 167 210 264 324 380
#     4  10  21  40  64  94 137 166 217 268 317 383
#     4   9  21  40  66  90 129 164 216 262 321 386
#     4  11  22  39  68  91 126 174 211 272 319 381
#     4   9  20  38  62  94 131 168 210 267 313 389
#     4  10  22  41  64  93 127 173 205 276 325 373
#     4  12  22  41  64  93 123 172 216 263 324 382
#     4  11  24  39  64  92 125 162 225 264 317 392
#
# _framework density 20.415614000000001
#
# number of rings (size 3 to 8) (size 9 to 14) (size 15 to 20)
#    0.750    1.000    3.750    0.750    1.750    0.000 
#    2.250    3.750    0.000    0.000    0.000    0.000 
#    0.000    0.000    0.000    0.000    0.000    0.000 
#
# Total GULP energy -89155.508222 kJ/mol
# GULP energy per Si atom -5572.219264 kJ/mol
# Density = 2.036915 g / cm^3
# Si number density = 20.415614 Si / 1000 Ang^3
#
#
#
# Elastic Constant Matrix: (Units=GPa)
#
#
# Indices 1 2 3 4 5 6 
#
# 1 97.6932 17.9184 35.5956 0.0000 -15.7298 0.0000
# 2 17.9184 29.6014 14.3398 0.0000 -12.3165 0.0000
# 3 35.5956 14.3398 56.0588 0.0000 -4.8334 0.0000
# 4 0.0000 0.0000 0.0000 -2.3296 0.0000 -50.2144
# 5 -15.7298 -12.3165 -4.8334 0.0000 37.2918 0.0000
# 6 0.0000 0.0000 0.0000 -50.2144 0.0000 -177.8866
#
#
#
# Elastic Compliance Matrix: (Units=1/GPa)
#
#
# Indices 1 2 3 4 5 6 
#
# 1 0.014361 -0.003182 -0.007962 0.000000 0.003974 0.000000
# 2 -0.003182 0.044945 -0.008406 0.000000 0.012412 0.000000
# 3 -0.007962 -0.008406 0.024792 0.000000 -0.002921 0.000000
# 4 0.000000 0.000000 0.000000 0.084423 0.000000 -0.023831
# 5 0.003974 0.012412 -0.002921 0.000000 0.032213 0.000000
# 6 0.000000 0.000000 0.000000 -0.023831 0.000000 0.001106
#
#
# Mechanical properties :
#
#
# Convention : Reuss Voigt Hill
#
# Bulk Modulus (GPa) = 22.22337 35.45123 28.83730
# Shear Modulus (GPa) = 19.53584 -20.88492 -0.67454
#
# Velocity S-wave (km/s) = 3.09675 -3.20189 -0.57543
# Velocity P-wave (km/s) = 4.86781 1.93210 3.70328
#
# Compressibility (1/GPa) = 0.04499768
#
# Stress axis : x y z
#
# Youngs Moduli (GPa) = 69.63424 22.24937 40.33488
#
# Poissons Ratio (x) = 0.07080 0.32114
# Poissons Ratio (y) = 0.22159 0.33906
# Poissons Ratio (z) = 0.55443 0.18703
#
# Static dielectric constant tensor:
#      x y z
#    x 1.721370 0.000000 -0.019680 
#    y 0.000000 1.754620 0.000000 
#    z -0.019680 0.000000 1.741880 
# 
# From -- ./inp_files/6393.got.cif
#   From: 2010.05.17/outbox.cif.g08.bks.cpg/sg9_4_cif.got.tgz:6393.got - 2010.06.03 20:04:27.
