data_PCOD9135278
_publ_section_title
;
Structure prediction by ZEFSAII (Michael W. Deem and Ramdas Pophale) SiO2 
 PCOD9135278
Probable space group: C C
;
_chemical_formula_sum "Si O2"
_cell_formula_units_Z 32
_cell_length_a 16.407880
_cell_length_b 16.917254
_cell_length_c 10.849734
_cell_angle_alpha 90.000000
_cell_angle_beta 30.855539
_cell_angle_gamma 90.000000
_cell_volume 1544.589830
_symmetry_space_group_name_H-M "C C"
_symmetry_group_IT_number 9
_symmetry_cell_setting 'monoclinic'
loop_
_space_group_symop_operation_xyz
x,y,z
x,-y,1/2+z
1/2+x,1/2+y,z
1/2+x,1/2-y,1/2+z
loop_
_atom_site_type_symbol
_atom_site_label
_atom_site_fract_x
_atom_site_fract_y
_atom_site_fract_z
Si Si1 0.668220 0.295003 0.336720
Si Si2 0.108620 0.128290 0.281928
Si Si3 0.699113 0.794995 0.544257
Si Si4 0.258694 0.371719 0.099070
Si Si5 0.852666 0.734055 0.816486
Si Si6 0.339630 0.463854 0.432287
Si Si7 0.527700 0.463863 0.448714
Si Si8 0.014652 0.734044 0.064509
O O1 0.826530 0.289625 0.209934
O O2 0.539258 0.248307 0.588847
O O3 0.608381 0.383422 0.388840
O O4 0.683658 0.250008 0.190496
O O5 0.084513 0.180955 0.434416
O O6 0.933656 0.131786 0.440501
O O7 0.141281 0.036982 0.265233
O O8 0.252578 0.169852 0.022732
O O9 0.758963 0.883409 0.492142
O O10 0.540799 0.789633 0.671047
O O11 0.828062 0.748294 0.292146
O O12 0.282797 0.319056 0.946585
O O13 0.226038 0.463029 0.115769
O O14 0.114737 0.330159 0.358267
O O15 0.433661 0.448048 0.440508
O O16 0.433666 0.499996 0.190499
#
# Coordination Sequence:
#
# PCOD9135278 Si02
#       8
#     4   4   4   4   4   4   4   4
#     4  12  24  39  64  92 131 164 205 258 322 378
#     4  10  20  38  68  92 119 161 218 264 297 370
#     4  12  24  39  64  92 131 164 205 258 322 378
#     4  10  20  38  68  92 119 161 218 264 297 370
#     4  11  21  40  62  95 121 164 209 257 313 375
#     4  11  21  40  65  96 123 168 219 260 305 380
#     4  11  21  40  65  96 123 168 219 260 305 380
#     4  11  21  40  62  95 121 164 209 257 313 375
#
# _framework density 20.717472000000001
#
# number of rings (size 3 to 8) (size 9 to 14) (size 15 to 20)
#    0.000    1.000    5.000    3.750    0.000    0.000 
#    0.000    1.250    5.500    0.000    0.000    0.000 
#    0.000    0.000    0.000    0.000    0.000    0.000 
#
# Total GULP energy -89180.323984 kJ/mol
# GULP energy per Si atom -5573.770249 kJ/mol
# Density = 2.067032 g / cm^3
# Si number density = 20.717472 Si / 1000 Ang^3
#
#
#
# Elastic Constant Matrix: (Units=GPa)
#
#
# Indices 1 2 3 4 5 6 
#
# 1 91.7278 41.3605 -7.2270 0.0001 8.1112 -0.0001
# 2 41.3605 152.1388 31.7101 0.0001 -8.6793 -0.0001
# 3 -7.2270 31.7101 61.8032 0.0000 0.5189 -0.0001
# 4 0.0001 0.0001 0.0000 27.9311 -0.0001 4.1985
# 5 8.1112 -8.6793 0.5189 -0.0001 27.4267 0.0001
# 6 -0.0001 -0.0001 -0.0001 4.1985 0.0001 21.5541
#
#
#
# Elastic Compliance Matrix: (Units=1/GPa)
#
#
# Indices 1 2 3 4 5 6 
#
# 1 0.014023 -0.005035 0.004272 0.000000 -0.005821 0.000000
# 2 -0.005035 0.009329 -0.005414 0.000000 0.004544 0.000000
# 3 0.004272 -0.005414 0.019486 0.000000 -0.003345 0.000000
# 4 0.000000 0.000000 0.000000 0.036882 0.000000 -0.007184
# 5 -0.005821 0.004544 -0.003345 0.000000 0.039684 0.000000
# 6 0.000000 0.000000 0.000000 -0.007184 0.000000 0.047794
#
#
# Mechanical properties :
#
#
# Convention : Reuss Voigt Hill
#
# Bulk Modulus (GPa) = 32.80256 48.59521 40.69889
# Shear Modulus (GPa) = 26.35556 31.37081 28.86319
#
# Velocity S-wave (km/s) = 3.57058 3.89552 3.73658
# Velocity P-wave (km/s) = 5.73292 6.61366 6.18898
#
# Compressibility (1/GPa) = 0.03048542
#
# Stress axis : x y z
#
# Youngs Moduli (GPa) = 71.30914 107.18906 51.31979
#
# Poissons Ratio (x) = 0.53969 -0.21924
# Poissons Ratio (y) = 0.35904 0.27783
# Poissons Ratio (z) = -0.30464 0.58028
#
# Static dielectric constant tensor:
#      x y z
#    x 1.750460 0.000000 0.050010 
#    y 0.000000 1.702370 0.000000 
#    z 0.050010 0.000000 1.745660 
# 
# From -- ./inp_files/7957.got.cif
#   From: 2010.05.17/outbox.cif.g08.bks.cpg/sg9_4_cif.got.tgz:7957.got - 2010.06.03 20:04:27.
