data_PCOD9135596
_publ_section_title
;
Structure prediction by ZEFSAII (Michael W. Deem and Ramdas Pophale) SiO2 
 PCOD9135596
Probable space group: C C
;
_chemical_formula_sum "Si O2"
_cell_formula_units_Z 32
_cell_length_a 10.656226
_cell_length_b 11.262224
_cell_length_c 11.819964
_cell_angle_alpha 90.000000
_cell_angle_beta 105.642690
_cell_angle_gamma 90.000000
_cell_volume 1366.006785
_symmetry_space_group_name_H-M "C C"
_symmetry_group_IT_number 9
_symmetry_cell_setting 'monoclinic'
loop_
_space_group_symop_operation_xyz
x,y,z
x,-y,1/2+z
1/2+x,1/2+y,z
1/2+x,1/2-y,1/2+z
loop_
_atom_site_type_symbol
_atom_site_label
_atom_site_fract_x
_atom_site_fract_y
_atom_site_fract_z
Si Si1 0.022240 0.874529 0.551310
Si Si2 0.738765 0.788274 0.535335
Si Si3 0.351919 0.228143 0.794752
Si Si4 0.082710 0.560392 0.847697
Si Si5 0.224862 0.135475 0.304450
Si Si6 0.176155 0.311670 0.950032
Si Si7 0.021210 0.970504 0.855317
Si Si8 0.301342 0.351011 0.219645
O O1 0.113613 0.851571 0.679825
O O2 0.068177 0.775682 0.473663
O O3 0.873545 0.856957 0.546706
O O4 0.035372 0.998858 0.490765
O O5 0.753468 0.742572 0.665336
O O6 0.623773 0.878022 0.476703
O O7 0.730882 0.692576 0.432346
O O8 0.437567 0.109567 0.793649
O O9 0.454641 0.340192 0.824731
O O10 0.273232 0.243360 0.890621
O O11 0.180734 0.608912 0.773556
O O12 0.111295 0.422673 0.870233
O O13 0.331539 0.214453 0.264725
O O14 0.163625 0.011371 0.332560
O O15 0.256228 0.356573 0.079641
O O16 0.918363 0.061207 0.776154
#
# Coordination Sequence:
#
# PCOD9135596 Si02
#       8
#     4   4   4   4   4   4   4   4
#     4  11  23  43  68  98 135 185 225 281 355 411
#     4  11  19  44  67  94 135 175 229 287 339 404
#     4  12  23  41  68 106 130 177 237 279 342 416
#     4  11  22  42  69  99 126 183 227 278 348 407
#     4  10  22  41  68 103 132 175 232 281 345 413
#     4  11  25  43  64  97 144 173 228 285 341 417
#     4  12  20  39  70 101 124 175 233 277 334 411
#     4  10  20  41  70  96 130 181 225 282 348 401
#
# _framework density 23.425946
#
# number of rings (size 3 to 8) (size 9 to 14) (size 15 to 20)
#    0.000    1.000    7.500    1.500    1.750    0.000 
#    6.750    0.000    0.000    0.000    0.000    0.000 
#    0.000    0.000    0.000    0.000    0.000    0.000 
#
# Total GULP energy -89138.338893 kJ/mol
# GULP energy per Si atom -5571.146181 kJ/mol
# Density = 2.337263 g / cm^3
# Si number density = 23.425946 Si / 1000 Ang^3
#
#
#
# Elastic Constant Matrix: (Units=GPa)
#
#
# Indices 1 2 3 4 5 6 
#
# 1 37.0370 18.6330 13.7719 0.0000 -5.0712 0.0000
# 2 18.6330 53.8566 29.8273 0.0000 -6.4178 0.0000
# 3 13.7719 29.8273 129.9674 0.0000 1.7306 0.0000
# 4 0.0000 0.0000 0.0000 26.5106 0.0000 -3.7759
# 5 -5.0712 -6.4178 1.7306 0.0000 34.7204 0.0000
# 6 0.0000 0.0000 0.0000 -3.7759 0.0000 29.6098
#
#
#
# Elastic Compliance Matrix: (Units=1/GPa)
#
#
# Indices 1 2 3 4 5 6 
#
# 1 0.033095 -0.010463 -0.001145 0.000000 0.002957 0.000000
# 2 -0.010463 0.025203 -0.004720 0.000000 0.003366 0.000000
# 3 -0.001145 -0.004720 0.008919 0.000000 -0.001484 0.000000
# 4 0.000000 0.000000 0.000000 0.038419 0.000000 0.004899
# 5 0.002957 0.003366 -0.001484 0.000000 0.029929 0.000000
# 6 0.000000 0.000000 0.000000 0.004899 0.000000 0.034397
#
#
# Mechanical properties :
#
#
# Convention : Reuss Voigt Hill
#
# Bulk Modulus (GPa) = 28.93572 38.36948 33.65260
# Shear Modulus (GPa) = 23.34938 28.74342 26.04640
#
# Velocity S-wave (km/s) = 3.16053 3.50664 3.33808
# Velocity P-wave (km/s) = 5.06926 5.72800 5.40867
#
# Compressibility (1/GPa) = 0.03455937
#
# Stress axis : x y z
#
# Youngs Moduli (GPa) = 30.21640 39.67759 112.12555
#
# Poissons Ratio (x) = 0.41517 0.12837
# Poissons Ratio (y) = 0.31617 0.52925
# Poissons Ratio (z) = 0.03459 0.18728
#
# Static dielectric constant tensor:
#      x y z
#    x 1.953750 0.000000 -0.022740 
#    y 0.000000 2.007940 0.000000 
#    z -0.022740 0.000000 1.891220 
# 
# From -- ./inp_files/16250.got.cif
#   From: 2010.05.17/outbox.cif.g08.bks.cpg/sg9_9_cif.got.tgz:16250.got - 2010.06.03 20:04:27.
