data_PCOD9135944
_publ_section_title
;
Structure prediction by ZEFSAII (Michael W. Deem and Ramdas Pophale) SiO2 
 PCOD9135944
Probable space group: C C
;
_chemical_formula_sum "Si O2"
_cell_formula_units_Z 32
_cell_length_a 16.435232
_cell_length_b 5.280723
_cell_length_c 19.294893
_cell_angle_alpha 90.000000
_cell_angle_beta 42.979503
_cell_angle_gamma 90.000000
_cell_volume 1141.637598
_symmetry_space_group_name_H-M "C C"
_symmetry_group_IT_number 9
_symmetry_cell_setting 'monoclinic'
loop_
_space_group_symop_operation_xyz
x,y,z
x,-y,1/2+z
1/2+x,1/2+y,z
1/2+x,1/2-y,1/2+z
loop_
_atom_site_type_symbol
_atom_site_label
_atom_site_fract_x
_atom_site_fract_y
_atom_site_fract_z
Si Si1 0.004020 0.941622 0.457810
Si Si2 0.383327 0.583899 0.854400
Si Si3 0.893574 0.586142 0.798787
Si Si4 0.169901 0.596657 0.091063
Si Si5 0.746248 0.255111 0.807946
Si Si6 0.673801 0.789616 0.748721
Si Si7 0.686949 0.406094 0.539006
Si Si8 0.853040 0.447225 0.573042
O O1 0.049529 0.828085 0.354862
O O2 0.947709 0.679601 0.521602
O O3 0.127533 0.084821 0.398434
O O4 0.915259 0.173483 0.532356
O O5 0.455599 0.335085 0.790863
O O6 0.287430 0.592346 0.850114
O O7 0.451890 0.842457 0.798148
O O8 0.303443 0.575952 0.973100
O O9 0.852420 0.473754 0.750747
O O10 0.768746 0.605376 0.921049
O O11 0.183203 0.605408 0.164663
O O12 0.111145 0.343220 0.098667
O O13 0.113127 0.838730 0.089662
O O14 0.717594 0.023683 0.770919
O O15 0.752962 0.529440 0.691203
O O16 0.778320 0.442183 0.547111
#
# Coordination Sequence:
#
# PCOD9135944 Si02
#       8
#     4   4   4   4   4   4   4   4
#     4  12  25  41  61 100 134 172 223 279 340 401
#     4   8  16  32  53  88 116 161 219 257 319 398
#     4   8  16  30  57  86 115 159 219 252 320 400
#     4   9  18  32  60  91 117 164 223 263 318 396
#     4  10  21  37  61  96 127 173 215 278 327 408
#     4  11  24  41  67  98 137 179 230 279 337 396
#     4   9  17  35  57  91 119 163 218 262 323 395
#     4  11  25  40  64  96 133 177 219 280 338 400
#
# _framework density 28.029910999999998
#
# number of rings (size 3 to 8) (size 9 to 14) (size 15 to 20)
#    0.750    1.500    1.250    2.250    5.250    0.000 
#    0.000    0.000    0.000    1.500    3.250    0.000 
#    0.000    0.000    0.000    0.000    0.000    0.000 
#
# Total GULP energy -89093.734178 kJ/mol
# GULP energy per Si atom -5568.358386 kJ/mol
# Density = 2.796611 g / cm^3
# Si number density = 28.029911 Si / 1000 Ang^3
#
#
#
# Elastic Constant Matrix: (Units=GPa)
#
#
# Indices 1 2 3 4 5 6 
#
# 1 66.0924 6.9765 5.6224 -0.0012 6.3059 0.0038
# 2 6.9765 251.5874 -0.1482 -0.0033 -1.6172 0.0108
# 3 5.6224 -0.1482 72.3469 0.0004 -7.9050 0.0045
# 4 -0.0012 -0.0033 0.0004 28.9064 0.0005 -2.4774
# 5 6.3059 -1.6172 -7.9050 0.0005 46.1491 0.0016
# 6 0.0038 0.0108 0.0045 -2.4774 0.0016 29.9396
#
#
#
# Elastic Compliance Matrix: (Units=1/GPa)
#
#
# Indices 1 2 3 4 5 6 
#
# 1 0.015530 -0.000447 -0.001469 0.000001 -0.002389 -0.000001
# 2 -0.000447 0.003989 0.000066 0.000000 0.000212 -0.000001
# 3 -0.001469 0.000066 0.014225 0.000000 0.002640 -0.000002
# 4 0.000001 0.000000 0.000000 0.034842 -0.000001 0.002883
# 5 -0.002389 0.000212 0.002640 -0.000001 0.022455 -0.000001
# 6 -0.000001 -0.000001 -0.000002 0.002883 -0.000001 0.033639
#
#
# Mechanical properties :
#
#
# Convention : Reuss Voigt Hill
#
# Bulk Modulus (GPa) = 33.28391 46.10313 39.69352
# Shear Modulus (GPa) = 36.12873 46.17074 41.14973
#
# Velocity S-wave (km/s) = 3.59407 4.06297 3.83569
# Velocity P-wave (km/s) = 5.39660 6.20434 5.81451
#
# Compressibility (1/GPa) = 0.03004455
#
# Stress axis : x y z
#
# Youngs Moduli (GPa) = 64.38967 250.71730 70.29872
#
# Poissons Ratio (x) = 0.11204 0.10326
# Poissons Ratio (y) = 0.02877 -0.00465
# Poissons Ratio (z) = 0.09458 -0.01657
#
# Static dielectric constant tensor:
#      x y z
#    x 2.264990 -0.000010 0.067720 
#    y -0.000010 2.430010 0.000000 
#    z 0.067720 0.000000 2.275050 
# 
# From -- ./inp_files/34409.got.cif
#   From: 2010.05.17/outbox.cif.g08.bks.cpg/sg9_18_cif.got.tgz:34409.got - 2010.06.03 20:04:27.
