data_PCOD9135190
_publ_section_title
;
Structure prediction by ZEFSAII (Michael W. Deem and Ramdas Pophale) SiO2 
 PCOD9135190
Probable space group: C C
;
_chemical_formula_sum "Si O2"
_cell_formula_units_Z 28
_cell_length_a 6.405386
_cell_length_b 17.290658
_cell_length_c 11.388036
_cell_angle_alpha 90.000000
_cell_angle_beta 116.706047
_cell_angle_gamma 90.000000
_cell_volume 1126.716468
_symmetry_space_group_name_H-M "C C"
_symmetry_group_IT_number 9
_symmetry_cell_setting 'monoclinic'
loop_
_space_group_symop_operation_xyz
x,y,z
x,-y,1/2+z
1/2+x,1/2+y,z
1/2+x,1/2-y,1/2+z
loop_
_atom_site_type_symbol
_atom_site_label
_atom_site_fract_x
_atom_site_fract_y
_atom_site_fract_z
Si Si1 0.753030 0.943438 0.125000
Si Si2 0.272452 0.920970 0.303746
Si Si3 0.609321 0.801755 0.423265
Si Si4 0.465612 0.056562 0.221530
Si Si5 0.398264 0.648894 0.291447
Si Si6 0.320379 0.851106 0.055083
Si Si7 0.446190 0.420970 0.542783
O O1 0.574238 0.872066 0.065605
O O2 0.997200 0.924384 0.250287
O O3 0.609320 1.000000 0.173264
O O4 0.836922 0.993632 0.032976
O O5 0.418852 0.862976 0.422643
O O6 0.303573 0.884033 0.181317
O O7 0.381721 0.006368 0.313554
O O8 0.465034 0.739339 0.311852
O O9 0.753608 0.739339 0.534678
O O10 0.799790 0.862976 0.423886
O O11 0.644406 0.127933 0.280926
O O12 0.221442 0.075616 0.096243
O O13 0.609322 0.613338 0.423265
O O14 0.415068 0.615967 0.165213
#
# Coordination Sequence:
#
# PCOD9135190 Si02
#       7
#     4   4   4   4   4   4   4
#     4   9  20  38  60  86 117 155 200 243 292 354
#     4  10  20  38  60  85 118 157 197 244 295 347
#     4  10  22  38  60  90 120 154 198 244 298 356
#     4   9  20  38  60  86 117 155 200 243 292 354
#     4   9  21  38  57  85 120 153 195 245 291 355
#     4   9  21  38  57  85 120 153 195 245 291 355
#     4  10  20  38  60  85 118 157 197 244 295 347
#
# _framework density 24.850971999999999
#
# number of rings (size 3 to 8) (size 9 to 14) (size 15 to 20)
#    0.857    1.714    0.000    0.857    0.000    9.143 
#    0.000   10.000    0.000    0.000    0.000    0.000 
#    0.000    0.000    0.000    0.000    0.000    0.000 
#
# Total GULP energy -78056.657714 kJ/mol
# GULP energy per Si atom -5575.475551 kJ/mol
# Density = 2.479441 g / cm^3
# Si number density = 24.850972 Si / 1000 Ang^3
#
#
#
# Elastic Constant Matrix: (Units=GPa)
#
#
# Indices 1 2 3 4 5 6 
#
# 1 180.0403 75.6700 64.7131 0.0000 51.8931 0.0000
# 2 75.6700 112.6826 58.4594 0.0000 23.5009 0.0000
# 3 64.7131 58.4594 87.4912 0.0000 41.9773 0.0000
# 4 0.0000 0.0000 0.0000 52.7959 0.0000 35.3324
# 5 51.8931 23.5009 41.9773 0.0000 65.3474 0.0000
# 6 0.0000 0.0000 0.0000 35.3324 0.0000 27.2884
#
#
#
# Elastic Compliance Matrix: (Units=1/GPa)
#
#
# Indices 1 2 3 4 5 6 
#
# 1 0.009410 -0.004441 -0.001697 0.000000 -0.004786 0.000000
# 2 -0.004441 0.015764 -0.008991 0.000000 0.003633 0.000000
# 3 -0.001697 -0.008991 0.023843 0.000000 -0.010735 0.000000
# 4 0.000000 0.000000 0.000000 0.141877 0.000000 -0.183699
# 5 -0.004786 0.003633 -0.010735 0.000000 0.024692 0.000000
# 6 0.000000 0.000000 0.000000 -0.183699 0.000000 0.274494
#
#
# Mechanical properties :
#
#
# Convention : Reuss Voigt Hill
#
# Bulk Modulus (GPa) = 53.30841 86.43324 69.87082
# Shear Modulus (GPa) = 9.49504 41.17777 25.33640
#
# Velocity S-wave (km/s) = 1.95681 4.07503 3.19648
# Velocity P-wave (km/s) = 5.15783 7.54965 6.46531
#
# Compressibility (1/GPa) = 0.01875877
#
# Stress axis : x y z
#
# Youngs Moduli (GPa) = 106.27022 63.43759 41.94059
#
# Poissons Ratio (x) = 0.28171 0.07117
# Poissons Ratio (y) = 0.47191 0.37710
# Poissons Ratio (z) = 0.18033 0.57039
#
# Static dielectric constant tensor:
#      x y z
#    x 1.958070 0.000000 0.034420 
#    y 0.000000 2.048360 0.000000 
#    z 0.034420 0.000000 2.122500 
# 
# From -- ./inp_files/22193.got.cif
#   From: 2010.05.17/outbox.cif.g08.bks.cpg/sg9_12_cif.got.tgz:22193.got - 2010.06.03 20:04:27.
