data_PCOD9135210
_publ_section_title
;
Structure prediction by ZEFSAII (Michael W. Deem and Ramdas Pophale) SiO2 
 PCOD9135210
Probable space group: C C
;
_chemical_formula_sum "Si O2"
_cell_formula_units_Z 32
_cell_length_a 12.743788
_cell_length_b 20.989612
_cell_length_c 9.374038
_cell_angle_alpha 90.000000
_cell_angle_beta 137.356701
_cell_angle_gamma 90.000000
_cell_volume 1698.616739
_symmetry_space_group_name_H-M "C C"
_symmetry_group_IT_number 9
_symmetry_cell_setting 'monoclinic'
loop_
_space_group_symop_operation_xyz
x,y,z
x,-y,1/2+z
1/2+x,1/2+y,z
1/2+x,1/2-y,1/2+z
loop_
_atom_site_type_symbol
_atom_site_label
_atom_site_fract_x
_atom_site_fract_y
_atom_site_fract_z
Si Si1 0.214630 0.681073 0.271830
Si Si2 0.713493 0.559932 0.270328
Si Si3 0.714918 0.180345 0.603856
Si Si4 0.343587 0.559939 0.900435
Si Si5 0.841783 0.558292 0.718054
Si Si6 0.715299 0.941715 0.591582
Si Si7 0.842472 0.318919 0.399658
Si Si8 0.342162 0.180339 0.231086
O O1 0.259295 0.669265 0.481839
O O2 0.264467 0.623122 0.221473
O O3 0.278559 0.749994 0.292548
O O4 0.028551 0.683894 0.081950
O O5 0.773409 0.555989 0.491731
O O6 0.784059 0.501710 0.250970
O O7 0.771444 0.625364 0.257144
O O8 0.528539 0.556762 0.081734
O O9 0.785641 0.125377 0.771373
O O10 0.528541 0.179454 0.427567
O O11 0.778534 0.250005 0.706979
O O12 0.273003 0.501725 0.739913
O O13 0.283683 0.555988 0.002020
O O14 0.792628 0.623136 0.749603
O O15 0.028541 0.556996 0.897569
O O16 0.797797 0.330733 0.520322
#
# Coordination Sequence:
#
# PCOD9135210 Si02
#       8
#     4   4   4   4   4   4   4   4
#     4   9  20  37  61  88 116 151 193 238 290 349
#     4  12  25  40  60  89 120 155 199 250 302 358
#     4  10  20  38  62  89 120 157 198 244 297 357
#     4  12  25  40  60  89 120 155 199 250 302 358
#     4  11  23  41  62  86 118 159 200 244 299 360
#     4  11  23  41  62  86 118 159 200 244 299 360
#     4   9  20  37  61  88 116 151 193 238 290 349
#     4  10  20  38  62  89 120 157 198 244 297 357
#
# _framework density 18.838857999999998
#
# number of rings (size 3 to 8) (size 9 to 14) (size 15 to 20)
#    0.000    1.500    0.000    5.250    0.000    6.000 
#    0.000    2.500    0.000    0.000    0.000    0.000 
#    0.000    0.000    0.000    0.000    0.000    0.000 
#
# Total GULP energy -89472.322781 kJ/mol
# GULP energy per Si atom -5592.020174 kJ/mol
# Density = 1.879598 g / cm^3
# Si number density = 18.838858 Si / 1000 Ang^3
#
#
#
# Elastic Constant Matrix: (Units=GPa)
#
#
# Indices 1 2 3 4 5 6 
#
# 1 90.4255 54.9899 16.1468 0.0000 -16.8220 0.0000
# 2 54.9899 145.0419 57.0796 0.0000 -36.5535 0.0000
# 3 16.1468 57.0796 92.3489 0.0000 -16.6400 0.0000
# 4 0.0000 0.0000 0.0000 40.6588 0.0000 -3.1160
# 5 -16.8220 -36.5535 -16.6400 0.0000 33.8846 0.0000
# 6 0.0000 0.0000 0.0000 -3.1160 0.0000 40.4900
#
#
#
# Elastic Compliance Matrix: (Units=1/GPa)
#
#
# Indices 1 2 3 4 5 6 
#
# 1 0.014547 -0.005521 0.001203 0.000000 0.001857 0.000000
# 2 -0.005521 0.013534 -0.005774 0.000000 0.009024 0.000000
# 3 0.001203 -0.005774 0.014451 0.000000 0.001465 0.000000
# 4 0.000000 0.000000 0.000000 0.024741 0.000000 0.001904
# 5 0.001857 0.009024 0.001465 0.000000 0.040888 0.000000
# 6 0.000000 0.000000 0.000000 0.001904 0.000000 0.024844
#
#
# Mechanical properties :
#
#
# Convention : Reuss Voigt Hill
#
# Bulk Modulus (GPa) = 44.74408 64.91653 54.83031
# Shear Modulus (GPa) = 31.12613 36.31337 33.71975
#
# Velocity S-wave (km/s) = 4.06917 4.39518 4.23532
# Velocity P-wave (km/s) = 6.77348 7.76469 7.28596
#
# Compressibility (1/GPa) = 0.02234932
#
# Stress axis : x y z
#
# Youngs Moduli (GPa) = 68.74427 73.88744 69.19978
#
# Poissons Ratio (x) = 0.40791 -0.08328
# Poissons Ratio (y) = 0.37951 0.39956
# Poissons Ratio (z) = -0.08273 0.42663
#
# Static dielectric constant tensor:
#      x y z
#    x 1.629720 0.000000 0.001130 
#    y 0.000000 1.624800 0.000000 
#    z 0.001130 0.000000 1.629660 
# 
# From -- ./inp_files/8264.got.cif
#   From: 2010.05.17/outbox.cif.g08.bks.cpg/sg9_5_cif.got.tgz:8264.got - 2010.06.03 20:04:27.
