data_PCOD9135918
_publ_section_title
;
Structure prediction by ZEFSAII (Michael W. Deem and Ramdas Pophale) SiO2 
 PCOD9135918
Probable space group: C C
;
_chemical_formula_sum "Si O2"
_cell_formula_units_Z 32
_cell_length_a 9.501260
_cell_length_b 22.451959
_cell_length_c 13.982124
_cell_angle_alpha 90.000000
_cell_angle_beta 148.202714
_cell_angle_gamma 90.000000
_cell_volume 1571.627419
_symmetry_space_group_name_H-M "C C"
_symmetry_group_IT_number 9
_symmetry_cell_setting 'monoclinic'
loop_
_space_group_symop_operation_xyz
x,y,z
x,-y,1/2+z
1/2+x,1/2+y,z
1/2+x,1/2-y,1/2+z
loop_
_atom_site_type_symbol
_atom_site_label
_atom_site_fract_x
_atom_site_fract_y
_atom_site_fract_z
Si Si1 0.033400 0.553194 0.525140
Si Si2 0.295758 0.220102 0.777746
Si Si3 0.841382 0.844263 0.556508
Si Si4 0.673321 0.159269 0.744124
Si Si5 0.400780 0.734251 0.712433
Si Si6 0.949818 0.053974 0.263315
Si Si7 0.420594 0.163238 0.339882
Si Si8 0.072452 0.165393 0.458295
O O1 0.150425 0.601026 0.666757
O O2 0.242444 0.499780 0.647304
O O3 0.743332 0.533898 0.397072
O O4 0.982928 0.593739 0.399518
O O5 0.123784 0.183659 0.599307
O O6 0.346268 0.290225 0.787726
O O7 0.164169 0.216963 0.806210
O O8 0.595506 0.195620 0.946318
O O9 0.794144 0.854176 0.416865
O O10 0.835787 0.903229 0.615274
O O11 0.147612 0.822748 0.740365
O O12 0.846870 0.205995 0.785226
O O13 0.364651 0.178805 0.581361
O O14 0.382090 0.805892 0.714171
O O15 0.169206 0.701060 0.520828
O O16 0.996655 0.097969 0.382557
#
# Coordination Sequence:
#
# PCOD9135918 Si02
#       8
#     4   4   4   4   4   4   4   4
#     4   9  21  41  61  85 117 158 209 257 302 357
#     4  11  22  37  60  97 129 156 199 252 304 361
#     4  10  21  39  64  88 119 168 207 239 301 378
#     4   9  20  39  62  89 121 164 205 242 302 377
#     4  11  21  36  59  91 130 159 193 252 304 353
#     4  10  21  41  64  86 117 160 209 258 304 355
#     4  10  21  37  59  88 123 162 197 236 302 373
#     4  10  21  38  61  88 124 165 201 242 305 376
#
# _framework density 20.361059000000001
#
# number of rings (size 3 to 8) (size 9 to 14) (size 15 to 20)
#    0.000    2.000    0.000    3.750    0.000    9.000 
#    0.000   15.000    0.000    0.000    0.000    0.000 
#    0.000    0.000    0.000    0.000    0.000    0.000 
#
# Total GULP energy -89137.438849 kJ/mol
# GULP energy per Si atom -5571.089928 kJ/mol
# Density = 2.031472 g / cm^3
# Si number density = 20.361059 Si / 1000 Ang^3
#
#
#
# Elastic Constant Matrix: (Units=GPa)
#
#
# Indices 1 2 3 4 5 6 
#
# 1 87.1771 56.7093 7.4444 -0.0001 7.6643 -0.0001
# 2 56.7093 116.5642 46.4067 -0.0001 28.6361 -0.0001
# 3 7.4444 46.4067 65.9118 -0.0006 11.3284 -0.0008
# 4 -0.0001 -0.0001 -0.0006 43.5858 -0.0003 10.0418
# 5 7.6643 28.6361 11.3284 -0.0003 31.3365 -0.0002
# 6 -0.0001 -0.0001 -0.0008 10.0418 -0.0002 24.0421
#
#
#
# Elastic Compliance Matrix: (Units=1/GPa)
#
#
# Indices 1 2 3 4 5 6 
#
# 1 0.018821 -0.012747 0.006012 0.000000 0.004872 0.000000
# 2 -0.012747 0.023049 -0.012480 0.000000 -0.013434 0.000000
# 3 0.006012 -0.012480 0.023001 0.000000 0.001619 0.000001
# 4 0.000000 0.000000 0.000000 0.025386 0.000000 -0.010603
# 5 0.004872 -0.013434 0.001619 0.000000 0.042411 0.000000
# 6 0.000000 0.000000 0.000001 -0.010603 0.000000 0.046022
#
#
# Mechanical properties :
#
#
# Convention : Reuss Voigt Hill
#
# Bulk Modulus (GPa) = 37.81917 54.53042 46.17479
# Shear Modulus (GPa) = 22.13033 30.39904 26.26469
#
# Velocity S-wave (km/s) = 3.30039 3.86813 3.59548
# Velocity P-wave (km/s) = 5.75656 6.84030 6.32170
#
# Compressibility (1/GPa) = 0.02644162
#
# Stress axis : x y z
#
# Youngs Moduli (GPa) = 53.13188 43.38585 43.47609
#
# Poissons Ratio (x) = 0.55303 -0.26136
# Poissons Ratio (y) = 0.67726 0.54256
# Poissons Ratio (z) = -0.31941 0.54144
#
# Static dielectric constant tensor:
#      x y z
#    x 1.788570 0.000000 -0.048740 
#    y 0.000000 1.746790 0.000000 
#    z -0.048740 0.000000 1.783400 
# 
# From -- ./inp_files/11035.got.cif
#   From: 2010.05.17/outbox.cif.g08.bks.cpg/sg9_6_cif.got.tgz:11035.got - 2010.06.03 20:04:27.
