data_PCOD9135982
_publ_section_title
;
Structure prediction by ZEFSAII (Michael W. Deem and Ramdas Pophale) SiO2 
 PCOD9135982
Probable space group: C C
;
_chemical_formula_sum "Si O2"
_cell_formula_units_Z 32
_cell_length_a 8.021608
_cell_length_b 25.813640
_cell_length_c 11.222168
_cell_angle_alpha 90.000000
_cell_angle_beta 43.151408
_cell_angle_gamma 90.000000
_cell_volume 1589.272005
_symmetry_space_group_name_H-M "C C"
_symmetry_group_IT_number 9
_symmetry_cell_setting 'monoclinic'
loop_
_space_group_symop_operation_xyz
x,y,z
x,-y,1/2+z
1/2+x,1/2+y,z
1/2+x,1/2-y,1/2+z
loop_
_atom_site_type_symbol
_atom_site_label
_atom_site_fract_x
_atom_site_fract_y
_atom_site_fract_z
Si Si1 0.941950 0.688987 0.500000
Si Si2 0.113393 0.641684 0.185105
Si Si3 0.112017 0.199541 0.884090
Si Si4 0.903789 0.605066 0.829959
Si Si5 0.246360 0.597070 0.456743
Si Si6 0.704064 0.497806 0.390110
Si Si7 0.198188 0.532630 0.263746
Si Si8 0.288345 0.089084 0.161172
O O1 0.698506 0.697405 0.701970
O O2 0.931193 0.672245 0.368348
O O3 0.102976 0.740807 0.427819
O O4 0.072374 0.640415 0.493042
O O5 0.213797 0.590277 0.198982
O O6 0.973218 0.621529 0.143737
O O7 0.341978 0.677443 0.038431
O O8 0.291260 0.161723 0.865255
O O9 0.747010 0.562532 0.837801
O O10 0.169485 0.596975 0.634547
O O11 0.883971 0.588470 0.977080
O O12 0.209053 0.543989 0.400267
O O13 0.521911 0.613944 0.294807
O O14 0.438313 0.498381 0.592950
O O15 0.733533 0.535300 0.260849
O O16 0.935036 0.512990 0.354546
#
# Coordination Sequence:
#
# PCOD9135982 Si02
#       8
#     4   4   4   4   4   4   4   4
#     4  10  21  37  71  96 118 166 215 259 315 390
#     4  10  21  41  62  92 127 166 203 269 318 373
#     4  11  20  39  70  93 123 164 218 257 315 387
#     4  11  23  40  64  94 125 170 216 260 318 381
#     4  10  22  41  63  97 126 165 216 264 317 391
#     4  11  22  40  62  94 124 179 214 263 324 373
#     4  10  21  41  66  89 132 168 221 268 318 380
#     4  11  24  41  62  89 137 164 205 274 321 373
#
# _framework density 20.135006000000001
#
# number of rings (size 3 to 8) (size 9 to 14) (size 15 to 20)
#    0.000    1.500    3.750    1.500    1.750    1.000 
#    0.000    3.750    0.000    0.000    0.000    0.000 
#    0.000    0.000    0.000    0.000    0.000    0.000 
#
# Total GULP energy -89217.133385 kJ/mol
# GULP energy per Si atom -5576.070837 kJ/mol
# Density = 2.008918 g / cm^3
# Si number density = 20.135006 Si / 1000 Ang^3
#
#
#
# Elastic Constant Matrix: (Units=GPa)
#
#
# Indices 1 2 3 4 5 6 
#
# 1 51.2930 4.1791 44.4079 0.0000 6.3827 0.0000
# 2 4.1791 80.7609 24.7804 0.0000 14.6165 0.0000
# 3 44.4079 24.7804 163.1309 0.0000 27.1385 0.0000
# 4 0.0000 0.0000 0.0000 31.0574 0.0000 -4.2456
# 5 6.3827 14.6165 27.1385 0.0000 29.1727 0.0000
# 6 0.0000 0.0000 0.0000 -4.2456 0.0000 6.3636
#
#
#
# Elastic Compliance Matrix: (Units=1/GPa)
#
#
# Indices 1 2 3 4 5 6 
#
# 1 0.025575 0.000754 -0.007197 0.000000 0.000721 0.000000
# 2 0.000754 0.013810 -0.001330 0.000000 -0.005846 0.000000
# 3 -0.007197 -0.001330 0.009368 0.000000 -0.006474 0.000000
# 4 0.000000 0.000000 0.000000 0.035430 0.000000 0.023637
# 5 0.000721 -0.005846 -0.006474 0.000000 0.043072 0.000000
# 6 0.000000 0.000000 0.000000 0.023637 0.000000 0.172914
#
#
# Mechanical properties :
#
#
# Convention : Reuss Voigt Hill
#
# Bulk Modulus (GPa) = 30.11400 49.10217 39.60808
# Shear Modulus (GPa) = 15.30063 28.10656 21.70359
#
# Velocity S-wave (km/s) = 2.75962 3.74023 3.28671
# Velocity P-wave (km/s) = 5.01423 6.56444 5.84099
#
# Compressibility (1/GPa) = 0.03320715
#
# Stress axis : x y z
#
# Youngs Moduli (GPa) = 39.10009 72.41380 106.74331
#
# Poissons Ratio (x) = -0.05462 0.76821
# Poissons Ratio (y) = -0.02949 0.14202
# Poissons Ratio (z) = 0.28139 0.09634
#
# Static dielectric constant tensor:
#      x y z
#    x 1.702420 0.000000 0.034800 
#    y 0.000000 1.744530 0.000000 
#    z 0.034800 0.000000 1.774840 
# 
# From -- ./inp_files/15621.got.cif
#   From: 2010.05.17/outbox.cif.g08.bks.cpg/sg9_8_cif.got.tgz:15621.got - 2010.06.03 20:04:27.
