data_PCOD9135965
_publ_section_title
;
Structure prediction by ZEFSAII (Michael W. Deem and Ramdas Pophale) SiO2 
 PCOD9135965
Probable space group: C C
;
_chemical_formula_sum "Si O2"
_cell_formula_units_Z 32
_cell_length_a 12.953925
_cell_length_b 13.810866
_cell_length_c 8.461426
_cell_angle_alpha 90.000000
_cell_angle_beta 124.881359
_cell_angle_gamma 90.000000
_cell_volume 1241.820053
_symmetry_space_group_name_H-M "C C"
_symmetry_group_IT_number 9
_symmetry_cell_setting 'monoclinic'
loop_
_space_group_symop_operation_xyz
x,y,z
x,-y,1/2+z
1/2+x,1/2+y,z
1/2+x,1/2-y,1/2+z
loop_
_atom_site_type_symbol
_atom_site_label
_atom_site_fract_x
_atom_site_fract_y
_atom_site_fract_z
Si Si1 0.917840 0.708421 0.590410
Si Si2 0.741766 0.954892 0.770025
Si Si3 0.879294 0.097774 0.688024
Si Si4 0.770018 0.283821 0.554307
Si Si5 0.076338 0.549048 0.861176
Si Si6 0.133904 0.148366 0.390707
Si Si7 0.523435 0.821210 0.824378
Si Si8 0.135351 0.040735 0.068046
O O1 0.764931 0.709066 0.478495
O O2 0.978507 0.704356 0.465121
O O3 0.955414 0.605001 0.698249
O O4 0.007849 0.786462 0.759920
O O5 0.824351 0.999389 0.705820
O O6 0.678793 0.043776 0.810849
O O7 0.630198 0.907068 0.571221
O O8 0.836008 0.900135 0.968469
O O9 0.802914 0.188904 0.691000
O O10 0.019439 0.088217 0.870240
O O11 0.641670 0.242666 0.371433
O O12 0.908360 0.298977 0.604890
O O13 0.747737 0.389027 0.610126
O O14 0.054998 0.434029 0.859939
O O15 0.144017 0.074128 0.547368
O O16 0.122016 0.069488 0.238350
#
# Coordination Sequence:
#
# PCOD9135965 Si02
#       8
#     4   4   4   4   4   4   4   4
#     4  12  24  47  78 109 146 201 254 303 376 461
#     4  10  21  37  65 105 140 185 243 308 365 438
#     4  11  22  40  70 104 146 189 248 302 376 444
#     4  12  21  40  69 103 139 190 246 293 361 452
#     4  11  22  40  70 103 144 185 252 306 374 436
#     4  12  29  50  82 109 157 197 258 311 383 448
#     4  12  21  40  69 108 136 192 244 303 359 453
#     4  12  26  48  75 111 152 199 245 322 378 442
#
# _framework density 25.768630000000002
#
# number of rings (size 3 to 8) (size 9 to 14) (size 15 to 20)
#    0.000    0.500    7.500    1.500    0.000    2.000 
#    2.250    0.000    0.000    0.000    0.000    0.000 
#    0.000    0.000    0.000    0.000    0.000    0.000 
#
# Total GULP energy -89156.937286 kJ/mol
# GULP energy per Si atom -5572.308580 kJ/mol
# Density = 2.570998 g / cm^3
# Si number density = 25.768630 Si / 1000 Ang^3
#
#
#
# Elastic Constant Matrix: (Units=GPa)
#
#
# Indices 1 2 3 4 5 6 
#
# 1 63.2172 18.7073 33.9476 0.0000 32.7964 0.0000
# 2 18.7073 107.0632 11.1701 0.0000 7.9187 0.0000
# 3 33.9476 11.1701 96.1773 0.0000 15.3564 0.0000
# 4 0.0000 0.0000 0.0000 51.1773 0.0000 11.6233
# 5 32.7964 7.9187 15.3564 0.0000 37.7487 0.0000
# 6 0.0000 0.0000 0.0000 11.6233 0.0000 36.0536
#
#
#
# Elastic Compliance Matrix: (Units=1/GPa)
#
#
# Indices 1 2 3 4 5 6 
#
# 1 0.034429 -0.003290 -0.007598 0.000000 -0.026131 0.000000
# 2 -0.003290 0.009866 -0.000118 0.000000 0.000837 0.000000
# 3 -0.007598 -0.000118 0.012871 0.000000 0.001390 0.000000
# 4 0.000000 0.000000 0.000000 0.021084 0.000000 -0.006797
# 5 -0.026131 0.000837 0.001390 0.000000 0.048453 0.000000
# 6 0.000000 0.000000 0.000000 -0.006797 0.000000 0.029928
#
#
# Mechanical properties :
#
#
# Convention : Reuss Voigt Hill
#
# Bulk Modulus (GPa) = 28.44730 43.78975 36.11852
# Shear Modulus (GPa) = 26.26611 38.50477 32.38544
#
# Velocity S-wave (km/s) = 3.19612 3.86975 3.54895
# Velocity P-wave (km/s) = 4.96827 6.08251 5.55341
#
# Compressibility (1/GPa) = 0.03515272
#
# Stress axis : x y z
#
# Youngs Moduli (GPa) = 29.04563 101.36222 77.69364
#
# Poissons Ratio (x) = 0.33352 0.59030
# Poissons Ratio (y) = 0.09557 0.00917
# Poissons Ratio (z) = 0.22068 0.01197
#
# Static dielectric constant tensor:
#      x y z
#    x 2.121960 0.000000 0.046410 
#    y 0.000000 2.077030 0.000000 
#    z 0.046410 0.000000 2.200580 
# 
# From -- ./inp_files/9727.got.cif
#   From: 2010.05.17/outbox.cif.g08.bks.cpg/sg9_5_cif.got.tgz:9727.got - 2010.06.03 20:04:27.
