data_PCOD9135515
_publ_section_title
;
Structure prediction by ZEFSAII (Michael W. Deem and Ramdas Pophale) SiO2 
 PCOD9135515
Probable space group: C C
;
_chemical_formula_sum "Si O2"
_cell_formula_units_Z 28
_cell_length_a 24.453291
_cell_length_b 9.153510
_cell_length_c 18.894521
_cell_angle_alpha 90.000000
_cell_angle_beta 162.276566
_cell_angle_gamma 90.000000
_cell_volume 1287.472199
_symmetry_space_group_name_H-M "C C"
_symmetry_group_IT_number 9
_symmetry_cell_setting 'monoclinic'
loop_
_space_group_symop_operation_xyz
x,y,z
x,-y,1/2+z
1/2+x,1/2+y,z
1/2+x,1/2-y,1/2+z
loop_
_atom_site_type_symbol
_atom_site_label
_atom_site_fract_x
_atom_site_fract_y
_atom_site_fract_z
Si Si1 0.693390 0.949658 0.492960
Si Si2 0.072099 0.651686 0.588747
Si Si3 0.649553 0.293549 0.193791
Si Si4 0.489512 0.687020 0.269408
Si Si5 0.832112 0.592032 0.779748
Si Si6 0.754652 0.958433 0.923457
Si Si7 0.890776 0.050223 0.879756
O O1 0.512676 0.855664 0.277017
O O2 0.826919 0.829508 0.623611
O O3 0.697454 0.067036 0.434621
O O4 0.781719 0.005201 0.674196
O O5 0.113850 0.572489 0.714782
O O6 0.242175 0.607844 0.750961
O O7 0.888382 0.574384 0.337414
O O8 0.033322 0.821486 0.542260
O O9 0.774702 0.369211 0.289599
O O10 0.750836 0.191001 0.374928
O O11 0.514341 0.180513 0.988045
O O12 0.509658 0.412812 0.051443
O O13 0.666465 0.638787 0.528688
O O14 0.434975 0.558931 0.146836
#
# Coordination Sequence:
#
# PCOD9135515 Si02
#       7
#     4   4   4   4   4   4   4
#     4  10  23  41  70  97 138 177 224 275 342 407
#     4  11  27  41  70  99 140 175 234 281 349 392
#     4  11  20  41  69  98 133 173 231 280 333 396
#     4  10  20  40  70  95 138 178 222 275 339 409
#     4  11  20  40  68 101 130 180 227 280 327 418
#     4   9  24  41  67  98 136 174 227 282 344 399
#     4  12  24  44  70 100 133 185 229 283 334 419
#
# _framework density 21.748042000000002
#
# number of rings (size 3 to 8) (size 9 to 14) (size 15 to 20)
#    0.857    0.571    2.857    2.571    4.000    0.000 
#    0.000    8.571    3.143    0.000    0.000    0.000 
#    0.000    0.000    0.000    0.000    0.000    0.000 
#
# Total GULP energy -78039.171519 kJ/mol
# GULP energy per Si atom -5574.226537 kJ/mol
# Density = 2.169854 g / cm^3
# Si number density = 21.748042 Si / 1000 Ang^3
#
#
#
# Elastic Constant Matrix: (Units=GPa)
#
#
# Indices 1 2 3 4 5 6 
#
# 1 75.5397 31.7825 42.4179 0.0001 -10.3014 0.0000
# 2 31.7825 118.2740 27.7864 0.0002 -5.2070 0.0002
# 3 42.4179 27.7864 45.1949 0.0002 -0.1892 0.0001
# 4 0.0001 0.0002 0.0002 43.0776 0.0002 4.7648
# 5 -10.3014 -5.2070 -0.1892 0.0002 25.4019 0.0001
# 6 0.0000 0.0002 0.0001 4.7648 0.0001 25.8584
#
#
#
# Elastic Compliance Matrix: (Units=1/GPa)
#
#
# Indices 1 2 3 4 5 6 
#
# 1 0.031687 -0.001162 -0.028974 0.000000 0.012396 0.000000
# 2 -0.001162 0.010026 -0.005066 0.000000 0.001546 0.000000
# 3 -0.028974 -0.005066 0.052383 0.000000 -0.012398 0.000000
# 4 0.000000 0.000000 0.000000 0.023697 0.000000 -0.004366
# 5 0.012396 0.001546 -0.012398 0.000000 0.044619 0.000000
# 6 0.000000 0.000000 0.000000 -0.004366 0.000000 0.039477
#
#
# Mechanical properties :
#
#
# Convention : Reuss Voigt Hill
#
# Bulk Modulus (GPa) = 42.21077 49.22025 45.71551
# Shear Modulus (GPa) = 17.84505 28.00239 22.92372
#
# Velocity S-wave (km/s) = 2.86761 3.59218 3.25015
# Velocity P-wave (km/s) = 5.51501 6.31555 5.92881
#
# Compressibility (1/GPa) = 0.02369064
#
# Stress axis : x y z
#
# Youngs Moduli (GPa) = 31.55848 99.74439 19.09025
#
# Poissons Ratio (x) = 0.11594 0.55311
# Poissons Ratio (y) = 0.03668 0.09672
# Poissons Ratio (z) = 0.91436 0.50535
#
# Static dielectric constant tensor:
#      x y z
#    x 1.867670 0.000000 -0.002630 
#    y 0.000000 1.831260 0.000000 
#    z -0.002630 0.000000 1.826640 
# 
# From -- ./inp_files/34594.got.cif
#   From: 2010.05.17/outbox.cif.g08.bks.cpg/sg9_18_cif.got.tgz:34594.got - 2010.06.03 20:04:27.
