data_PCOD9135073
_publ_section_title
;
Structure prediction by ZEFSAII (Michael W. Deem and Ramdas Pophale) SiO2 
 PCOD9135073
Probable space group: C C
;
_chemical_formula_sum "Si O2"
_cell_formula_units_Z 32
_cell_length_a 10.247683
_cell_length_b 8.974514
_cell_length_c 13.748413
_cell_angle_alpha 90.000000
_cell_angle_beta 69.050449
_cell_angle_gamma 90.000000
_cell_volume 1180.830398
_symmetry_space_group_name_H-M "C C"
_symmetry_group_IT_number 9
_symmetry_cell_setting 'monoclinic'
loop_
_space_group_symop_operation_xyz
x,y,z
x,-y,1/2+z
1/2+x,1/2+y,z
1/2+x,1/2-y,1/2+z
loop_
_atom_site_type_symbol
_atom_site_label
_atom_site_fract_x
_atom_site_fract_y
_atom_site_fract_z
Si Si1 0.567270 0.999649 0.479780
Si Si2 0.769785 0.456049 0.025910
Si Si3 0.398226 0.288156 0.735088
Si Si4 0.002328 0.164476 0.549447
Si Si5 0.207642 0.288157 0.083616
Si Si6 0.103542 0.664477 0.269255
Si Si7 0.836084 0.543951 0.292795
Si Si8 0.538599 0.500351 0.838923
O O1 0.411785 0.065563 0.547805
O O2 0.553342 0.823624 0.495342
O O3 0.681653 0.077005 0.516238
O O4 0.594004 0.047182 0.361274
O O5 0.619647 0.389296 0.094871
O O6 0.753906 0.633544 0.022311
O O7 0.802935 0.395128 0.909352
O O8 0.552934 0.249999 0.659353
O O9 0.267538 0.327367 0.699919
O O10 0.424216 0.422993 0.802466
O O11 0.351960 0.133544 0.796395
O O12 0.838333 0.172633 0.618784
O O13 0.011867 0.047179 0.457429
O O14 0.986224 0.610700 0.223832
O O15 0.052527 0.823626 0.323357
O O16 0.694084 0.565565 0.270899
#
# Coordination Sequence:
#
# PCOD9135073 Si02
#       8
#     4   4   4   4   4   4   4   4
#     4  10  20  37  59  82 108 140 184 231 275 319
#     4   9  20  38  57  81 109 140 186 236 273 316
#     4  11  23  37  54  81 118 151 179 219 273 332
#     4  10  21  37  61  85 107 141 186 233 274 320
#     4  11  23  37  54  81 118 151 179 219 273 332
#     4  10  21  37  61  85 107 141 186 233 274 320
#     4   9  20  38  57  81 109 140 186 236 273 316
#     4  10  20  37  59  82 108 140 184 231 275 319
#
# _framework density 27.099575000000002
#
# number of rings (size 3 to 8) (size 9 to 14) (size 15 to 20)
#    0.000    2.000    0.000    5.250    0.000   13.000 
#    0.000    2.500    0.000    0.000    0.000    0.000 
#    0.000    0.000    0.000    0.000    0.000    0.000 
#
# Total GULP energy -89566.578455 kJ/mol
# GULP energy per Si atom -5597.911153 kJ/mol
# Density = 2.703790 g / cm^3
# Si number density = 27.099575 Si / 1000 Ang^3
#
#
#
# Elastic Constant Matrix: (Units=GPa)
#
#
# Indices 1 2 3 4 5 6 
#
# 1 247.3164 53.4700 27.1249 0.0000 -42.8068 0.0000
# 2 53.4700 125.7263 15.0083 0.0000 -3.1152 0.0000
# 3 27.1249 15.0083 76.8674 0.0000 -21.4747 0.0000
# 4 0.0000 0.0000 0.0000 36.8517 0.0000 -8.5970
# 5 -42.8068 -3.1152 -21.4747 0.0000 49.1961 0.0000
# 6 0.0000 0.0000 0.0000 -8.5970 0.0000 52.2347
#
#
#
# Elastic Compliance Matrix: (Units=1/GPa)
#
#
# Indices 1 2 3 4 5 6 
#
# 1 0.005279 -0.002109 -0.000234 0.000000 0.004358 0.000000
# 2 -0.002109 0.008988 -0.001554 0.000000 -0.001945 0.000000
# 3 -0.000234 -0.001554 0.015160 0.000000 0.006316 0.000000
# 4 0.000000 0.000000 0.000000 0.028219 0.000000 0.004644
# 5 0.004358 -0.001945 0.006316 0.000000 0.026753 0.000000
# 6 0.000000 0.000000 0.000000 0.004644 0.000000 0.019909
#
#
# Mechanical properties :
#
#
# Convention : Reuss Voigt Hill
#
# Bulk Modulus (GPa) = 46.22423 71.23518 58.72971
# Shear Modulus (GPa) = 41.90657 51.27694 46.59176
#
# Velocity S-wave (km/s) = 3.93669 4.35462 4.15092
# Velocity P-wave (km/s) = 6.14472 7.18521 6.68523
#
# Compressibility (1/GPa) = 0.02163367
#
# Stress axis : x y z
#
# Youngs Moduli (GPa) = 189.41472 111.25703 65.96452
#
# Poissons Ratio (x) = 0.23469 0.01541
# Poissons Ratio (y) = 0.39955 0.10250
# Poissons Ratio (z) = 0.04424 0.17287
#
# Static dielectric constant tensor:
#      x y z
#    x 2.123000 0.000000 -0.057490 
#    y 0.000000 2.032700 0.000000 
#    z -0.057490 0.000000 2.208050 
# 
# From -- ./inp_files/32505.got.cif
#   From: 2010.05.17/outbox.cif.g08.bks.cpg/sg9_17_cif.got.tgz:32505.got - 2010.06.03 20:04:27.
