data_PCOD9135227
_publ_section_title
;
Structure prediction by ZEFSAII (Michael W. Deem and Ramdas Pophale) SiO2 
 PCOD9135227
Probable space group: C C
;
_chemical_formula_sum "Si O2"
_cell_formula_units_Z 28
_cell_length_a 7.339414
_cell_length_b 22.051442
_cell_length_c 13.268993
_cell_angle_alpha 90.000000
_cell_angle_beta 141.843740
_cell_angle_gamma 90.000000
_cell_volume 1326.752988
_symmetry_space_group_name_H-M "C C"
_symmetry_group_IT_number 9
_symmetry_cell_setting 'monoclinic'
loop_
_space_group_symop_operation_xyz
x,y,z
x,-y,1/2+z
1/2+x,1/2+y,z
1/2+x,1/2-y,1/2+z
loop_
_atom_site_type_symbol
_atom_site_label
_atom_site_fract_x
_atom_site_fract_y
_atom_site_fract_z
Si Si1 0.577000 0.171649 0.266710
Si Si2 0.636636 0.689770 0.261888
Si Si3 0.847165 0.054118 0.443686
Si Si4 0.129436 0.690829 0.892761
Si Si5 0.591943 0.887345 0.035264
Si Si6 0.561184 0.069156 0.744467
Si Si7 0.458539 0.717114 0.601865
O O1 0.330755 0.180993 0.245333
O O2 0.681602 0.103224 0.299386
O O3 0.464510 0.211782 0.126749
O O4 0.857277 0.202139 0.444911
O O5 0.695481 0.750944 0.350317
O O6 0.747961 0.632299 0.374826
O O7 0.312760 0.691624 0.075202
O O8 0.718054 0.072929 0.497727
O O9 0.203220 0.060943 0.598523
O O10 0.733453 0.988558 0.362563
O O11 0.174105 0.628477 0.852467
O O12 0.783503 0.693554 0.761070
O O13 0.634385 0.918996 0.159457
O O14 0.756357 0.822334 0.090315
#
# Coordination Sequence:
#
# PCOD9135227 Si02
#       7
#     4   4   4   4   4   4   4
#     4  10  20  41  59  92 134 165 214 269 330 391
#     4  10  22  36  67 102 132 173 215 278 337 394
#     4  10  26  46  66  97 130 177 229 283 316 412
#     4  12  21  38  66 103 133 173 221 275 335 398
#     4  10  24  48  67  98 137 173 228 278 336 405
#     4  12  25  47  70  91 137 180 230 273 341 394
#     4  10  20  38  63  93 135 163 207 280 325 392
#
# _framework density 21.104153
#
# number of rings (size 3 to 8) (size 9 to 14) (size 15 to 20)
#    0.000    1.714    2.857    4.286    6.000    1.143 
#    0.000    0.000    0.000    0.000    0.000    0.000 
#    0.000    0.000    0.000    0.000    0.000    0.000 
#
# Total GULP energy -78140.358506 kJ/mol
# GULP energy per Si atom -5581.454179 kJ/mol
# Density = 2.105612 g / cm^3
# Si number density = 21.104153 Si / 1000 Ang^3
#
#
#
# Elastic Constant Matrix: (Units=GPa)
#
#
# Indices 1 2 3 4 5 6 
#
# 1 75.3621 43.1502 22.0938 0.0000 -1.0857 0.0000
# 2 43.1502 102.2888 24.3899 0.0000 -24.0571 0.0000
# 3 22.0938 24.3899 47.4128 0.0000 5.4759 0.0000
# 4 0.0000 0.0000 0.0000 43.9366 0.0000 -4.5087
# 5 -1.0857 -24.0571 5.4759 0.0000 29.3201 0.0000
# 6 0.0000 0.0000 0.0000 -4.5087 0.0000 26.7781
#
#
#
# Elastic Compliance Matrix: (Units=1/GPa)
#
#
# Indices 1 2 3 4 5 6 
#
# 1 0.019181 -0.008430 -0.003970 0.000000 -0.005465 0.000000
# 2 -0.008430 0.019193 -0.007898 0.000000 0.016911 0.000000
# 3 -0.003970 -0.007898 0.028382 0.000000 -0.011928 0.000000
# 4 0.000000 0.000000 0.000000 0.023160 0.000000 0.003900
# 5 -0.005465 0.016911 -0.011928 0.000000 0.050007 0.000000
# 6 0.000000 0.000000 0.000000 0.003900 0.000000 0.038000
#
#
# Mechanical properties :
#
#
# Convention : Reuss Voigt Hill
#
# Bulk Modulus (GPa) = 38.22751 44.92571 41.57661
# Shear Modulus (GPa) = 22.00314 29.03563 25.51938
#
# Velocity S-wave (km/s) = 3.23243 3.71324 3.48114
# Velocity P-wave (km/s) = 5.66432 6.30222 5.99177
#
# Compressibility (1/GPa) = 0.02615917
#
# Stress axis : x y z
#
# Youngs Moduli (GPa) = 52.13362 52.10270 35.23378
#
# Poissons Ratio (x) = 0.43924 0.13989
# Poissons Ratio (y) = 0.43950 0.27827
# Poissons Ratio (z) = 0.20699 0.41150
#
# Static dielectric constant tensor:
#      x y z
#    x 1.809080 0.000000 0.023950 
#    y 0.000000 1.769030 0.000000 
#    z 0.023950 0.000000 1.806700 
# 
# From -- ./inp_files/23778.got.cif
#   From: 2010.05.17/outbox.cif.g08.bks.cpg/sg9_12_cif.got.tgz:23778.got - 2010.06.03 20:04:27.
