data_PCOD9135550
_publ_section_title
;
Structure prediction by ZEFSAII (Michael W. Deem and Ramdas Pophale) SiO2 
 PCOD9135550
Probable space group: C C
;
_chemical_formula_sum "Si O2"
_cell_formula_units_Z 32
_cell_length_a 19.558114
_cell_length_b 5.374293
_cell_length_c 22.239858
_cell_angle_alpha 90.000000
_cell_angle_beta 34.327870
_cell_angle_gamma 90.000000
_cell_volume 1318.268394
_symmetry_space_group_name_H-M "C C"
_symmetry_group_IT_number 9
_symmetry_cell_setting 'monoclinic'
loop_
_space_group_symop_operation_xyz
x,y,z
x,-y,1/2+z
1/2+x,1/2+y,z
1/2+x,1/2-y,1/2+z
loop_
_atom_site_type_symbol
_atom_site_label
_atom_site_fract_x
_atom_site_fract_y
_atom_site_fract_z
Si Si1 0.170660 0.554931 0.562010
Si Si2 0.563137 0.526171 0.906135
Si Si3 0.878599 0.554445 0.943479
Si Si4 0.485909 0.472978 0.099614
Si Si5 0.303522 0.349773 0.571330
Si Si6 0.245661 0.849400 0.934260
Si Si7 0.142958 0.538781 0.792844
Si Si8 0.906180 0.460445 0.212845
O O1 0.274627 0.750289 0.502717
O O2 0.198990 0.369231 0.597092
O O3 0.206023 0.437945 0.471024
O O4 0.027317 0.585562 0.664834
O O5 0.649083 0.298904 0.823956
O O6 0.617071 0.796809 0.852577
O O7 0.524507 0.499766 0.002887
O O8 0.432955 0.515650 0.965613
O O9 0.850253 0.368583 0.908439
O O10 0.021930 0.585017 0.840704
O O11 0.843202 0.437497 0.034486
O O12 0.432047 0.202192 0.153036
O O13 0.399939 0.700097 0.181905
O O14 0.616131 0.483570 0.040078
O O15 0.250447 0.459836 0.670700
O O16 0.298757 0.960094 0.834938
#
# Coordination Sequence:
#
# PCOD9135550 Si02
#       8
#     4   4   4   4   4   4   4   4
#     4  10  20  41  64  93 133 161 204 267 317 380
#     4  11  25  43  63  92 129 167 217 269 309 371
#     4  10  20  41  64  93 133 161 204 267 317 380
#     4  11  25  43  63  92 129 167 217 269 309 371
#     4  10  23  40  64  95 129 167 209 259 321 383
#     4  10  23  40  64  95 129 167 209 259 321 383
#     4  11  24  41  67  94 123 172 213 257 325 381
#     4  11  24  41  67  94 123 172 213 257 325 381
#
# _framework density 24.274267999999999
#
# number of rings (size 3 to 8) (size 9 to 14) (size 15 to 20)
#    0.000    1.500    2.500    1.500    3.500    2.000 
#    0.000    0.000    0.000    0.000    0.000    0.000 
#    0.000    0.000    0.000    0.000    0.000    0.000 
#
# Total GULP energy -89215.034093 kJ/mol
# GULP energy per Si atom -5575.939631 kJ/mol
# Density = 2.421902 g / cm^3
# Si number density = 24.274268 Si / 1000 Ang^3
#
#
#
# Elastic Constant Matrix: (Units=GPa)
#
#
# Indices 1 2 3 4 5 6 
#
# 1 87.3884 2.7542 14.3493 0.0135 -19.0462 0.0724
# 2 2.7542 140.1823 55.4915 0.0264 7.7034 0.1317
# 3 14.3493 55.4915 109.7001 0.0624 -6.6454 0.1952
# 4 0.0135 0.0264 0.0624 26.0712 0.0257 10.4665
# 5 -19.0462 7.7034 -6.6454 0.0257 44.1350 0.0529
# 6 0.0724 0.1317 0.1952 10.4665 0.0529 -1.4826
#
#
#
# Elastic Compliance Matrix: (Units=1/GPa)
#
#
# Indices 1 2 3 4 5 6 
#
# 1 0.012828 -0.000011 -0.001349 -0.000069 0.005334 0.000150
# 2 -0.000011 0.009148 -0.004767 -0.000010 -0.002319 0.000035
# 3 -0.001349 -0.004767 0.011826 -0.000126 0.002030 0.000252
# 4 -0.000069 -0.000010 -0.000126 0.010007 -0.000137 0.070618
# 5 0.005334 -0.002319 0.002030 -0.000137 0.025670 0.000266
# 6 0.000150 0.000035 0.000252 0.070618 0.000266 -0.175906
#
#
# Mechanical properties :
#
#
# Convention : Reuss Voigt Hill
#
# Bulk Modulus (GPa) = 46.40920 53.60676 50.00798
# Shear Modulus (GPa) = -57.47719 31.38980 -13.04370
#
# Velocity S-wave (km/s) = -4.87131 3.59991 -2.32059
# Velocity P-wave (km/s) = 3.53261 6.27781 3.66957
#
# Compressibility (1/GPa) = 0.02154745
#
# Stress axis : x y z
#
# Youngs Moduli (GPa) = 77.95703 109.31253 84.55913
#
# Poissons Ratio (x) = 0.00122 0.11410
# Poissons Ratio (y) = 0.00087 0.40306
# Poissons Ratio (z) = 0.10519 0.52105
#
# Static dielectric constant tensor:
#      x y z
#    x 2.048400 -0.000040 -0.000890 
#    y -0.000040 2.142960 -0.000060 
#    z -0.000890 -0.000060 1.956340 
# 
# From -- ./inp_files/19785.got.cif
#   From: 2010.05.17/outbox.cif.g08.bks.cpg/sg9_10_cif.got.tgz:19785.got - 2010.06.03 20:04:27.
