data_PCOD9135343
_publ_section_title
;
Structure prediction by ZEFSAII (Michael W. Deem and Ramdas Pophale) SiO2 
 PCOD9135343
Probable space group: C C
;
_chemical_formula_sum "Si O2"
_cell_formula_units_Z 28
_cell_length_a 9.685780
_cell_length_b 15.436177
_cell_length_c 12.457818
_cell_angle_alpha 90.000000
_cell_angle_beta 141.169331
_cell_angle_gamma 90.000000
_cell_volume 1167.880310
_symmetry_space_group_name_H-M "C C"
_symmetry_group_IT_number 9
_symmetry_cell_setting 'monoclinic'
loop_
_space_group_symop_operation_xyz
x,y,z
x,-y,1/2+z
1/2+x,1/2+y,z
1/2+x,1/2-y,1/2+z
loop_
_atom_site_type_symbol
_atom_site_label
_atom_site_fract_x
_atom_site_fract_y
_atom_site_fract_z
Si Si1 0.664580 0.047265 0.431470
Si Si2 0.627951 0.875270 0.133744
Si Si3 0.859129 0.538727 0.066871
Si Si4 0.876126 0.807431 0.701471
Si Si5 0.318702 0.708797 0.940178
Si Si6 0.922030 0.621605 0.885149
Si Si7 0.544296 0.418261 0.002625
O O1 0.706610 0.101796 0.563274
O O2 0.879979 0.041878 0.489712
O O3 0.489494 0.087293 0.240774
O O4 0.554136 0.959028 0.409835
O O5 0.515332 0.958672 0.121280
O O6 0.814836 0.840846 0.326783
O O7 0.444791 0.799824 0.011701
O O8 0.814114 0.590596 0.931828
O O9 0.657017 0.494008 0.002837
O O10 0.915416 0.841114 0.601965
O O11 0.609448 0.811074 0.538695
O O12 0.060047 0.730842 0.807480
O O13 0.935779 0.861548 0.842738
O O14 0.724341 0.635688 0.680906
#
# Coordination Sequence:
#
# PCOD9135343 Si02
#       7
#     4   4   4   4   4   4   4
#     4  10  22  38  63  95 137 162 209 278 330 388
#     4  10  21  41  65  95 124 174 226 266 323 394
#     4  10  20  39  64  98 131 166 218 267 332 404
#     4  11  22  40  67  95 127 171 225 273 317 386
#     4  10  22  40  69  91 127 179 230 265 314 400
#     4  10  23  38  64 100 131 167 215 263 332 401
#     4  11  22  38  62  96 131 169 207 262 338 381
#
# _framework density 23.975059999999999
#
# number of rings (size 3 to 8) (size 9 to 14) (size 15 to 20)
#    0.000    1.714    2.857    1.714    4.000    1.143 
#    0.000    4.286    0.000    0.000    0.000    0.000 
#    0.000    0.000    0.000    0.000    0.000    0.000 
#
# Total GULP energy -78102.216336 kJ/mol
# GULP energy per Si atom -5578.729738 kJ/mol
# Density = 2.392049 g / cm^3
# Si number density = 23.975060 Si / 1000 Ang^3
#
#
#
# Elastic Constant Matrix: (Units=GPa)
#
#
# Indices 1 2 3 4 5 6 
#
# 1 173.8780 26.5657 67.4119 0.0000 -39.1813 0.0000
# 2 26.5657 43.3463 52.9369 0.0000 -21.4607 0.0000
# 3 67.4119 52.9369 189.9352 0.0000 -51.6807 0.0000
# 4 0.0000 0.0000 0.0000 41.5827 0.0000 -6.2669
# 5 -39.1813 -21.4607 -51.6807 0.0000 49.1388 0.0000
# 6 0.0000 0.0000 0.0000 -6.2669 0.0000 21.3173
#
#
#
# Elastic Compliance Matrix: (Units=1/GPa)
#
#
# Indices 1 2 3 4 5 6 
#
# 1 0.007294 -0.000962 -0.001194 0.000000 0.004140 0.000000
# 2 -0.000962 0.036929 -0.008085 0.000000 0.006858 0.000000
# 3 -0.001194 -0.008085 0.009417 0.000000 0.005421 0.000000
# 4 0.000000 0.000000 0.000000 0.025163 0.000000 0.007398
# 5 0.004140 0.006858 0.005421 0.000000 0.032348 0.000000
# 6 0.000000 0.000000 0.000000 0.007398 0.000000 0.049085
#
#
# Mechanical properties :
#
#
# Convention : Reuss Voigt Hill
#
# Bulk Modulus (GPa) = 30.15943 77.88761 54.02352
# Shear Modulus (GPa) = 26.07268 39.75743 32.91505
#
# Velocity S-wave (km/s) = 3.30129 4.07662 3.70927
# Velocity P-wave (km/s) = 5.20943 7.39702 6.39742
#
# Compressibility (1/GPa) = 0.03315712
#
# Stress axis : x y z
#
# Youngs Moduli (GPa) = 137.09909 27.07916 106.18824
#
# Poissons Ratio (x) = 0.02606 0.12681
# Poissons Ratio (y) = 0.13193 0.85852
# Poissons Ratio (z) = 0.16372 0.21893
#
# Static dielectric constant tensor:
#      x y z
#    x 1.936720 0.000000 0.009060 
#    y 0.000000 2.023250 0.000000 
#    z 0.009060 0.000000 1.960110 
# 
# From -- ./inp_files/15497.got.cif
#   From: 2010.05.17/outbox.cif.g08.bks.cpg/sg9_8_cif.got.tgz:15497.got - 2010.06.03 20:04:27.
