data_PCOD9135806
_publ_section_title
;
Structure prediction by ZEFSAII (Michael W. Deem and Ramdas Pophale) SiO2 
 PCOD9135806
Probable space group: C C
;
_chemical_formula_sum "Si O2"
_cell_formula_units_Z 32
_cell_length_a 7.447508
_cell_length_b 20.660985
_cell_length_c 13.783560
_cell_angle_alpha 90.000000
_cell_angle_beta 138.361036
_cell_angle_gamma 90.000000
_cell_volume 1409.209757
_symmetry_space_group_name_H-M "C C"
_symmetry_group_IT_number 9
_symmetry_cell_setting 'monoclinic'
loop_
_space_group_symop_operation_xyz
x,y,z
x,-y,1/2+z
1/2+x,1/2+y,z
1/2+x,1/2-y,1/2+z
loop_
_atom_site_type_symbol
_atom_site_label
_atom_site_fract_x
_atom_site_fract_y
_atom_site_fract_z
Si Si1 0.670770 0.682352 0.619770
Si Si2 0.311806 0.540428 0.940660
Si Si3 0.356972 0.998213 0.395312
Si Si4 0.316055 0.947877 0.090220
Si Si5 0.634368 0.618372 0.199563
Si Si6 0.209984 0.140860 0.850295
Si Si7 0.091897 0.281186 0.834275
Si Si8 0.737777 0.179705 0.174238
O O1 0.728652 0.626507 0.567284
O O2 0.779040 0.656964 0.766400
O O3 0.352798 0.699357 0.503773
O O4 0.791039 0.751717 0.642534
O O5 0.145493 0.524654 0.971331
O O6 0.082896 0.542645 0.765066
O O7 0.549954 0.489666 0.012790
O O8 0.457831 0.607273 0.030810
O O9 0.156216 0.936042 0.326081
O O10 0.384671 0.031656 0.509627
O O11 0.267086 0.049795 0.278676
O O12 0.471836 0.634277 0.231695
O O13 0.846630 0.674381 0.265400
O O14 0.034439 0.203845 0.810879
O O15 0.465667 0.148400 0.023489
O O16 0.193288 0.302412 0.767757
#
# Coordination Sequence:
#
# PCOD9135806 Si02
#       8
#     4   4   4   4   4   4   4   4
#     4  10  20  45  68  98 141 183 235 302 361 426
#     4  12  26  46  70 103 148 185 241 306 353 440
#     4  12  26  44  74 107 147 195 243 302 372 437
#     4  12  27  45  71 105 143 193 239 298 371 433
#     4  12  24  44  70 107 139 183 242 301 352 440
#     4  10  21  46  68  97 141 189 229 294 367 421
#     4  10  24  43  72  99 139 188 239 300 361 429
#     4  10  22  43  73  96 136 188 238 293 363 430
#
# _framework density 22.707764000000001
#
# number of rings (size 3 to 8) (size 9 to 14) (size 15 to 20)
#    0.000    1.000    3.750    1.500    3.500    0.000 
#    2.250   15.000    0.000    0.000    0.000    0.000 
#    0.000    0.000    0.000    0.000    0.000    0.000 
#
# Total GULP energy -89338.397482 kJ/mol
# GULP energy per Si atom -5583.649843 kJ/mol
# Density = 2.265608 g / cm^3
# Si number density = 22.707764 Si / 1000 Ang^3
#
#
#
# Elastic Constant Matrix: (Units=GPa)
#
#
# Indices 1 2 3 4 5 6 
#
# 1 46.9229 9.1863 22.0372 0.0000 0.6472 0.0000
# 2 9.1863 77.5064 15.6024 0.0000 9.9596 0.0000
# 3 22.0372 15.6024 84.8067 0.0000 8.8449 0.0000
# 4 0.0000 0.0000 0.0000 31.3176 0.0000 -2.6277
# 5 0.6472 9.9596 8.8449 0.0000 26.2981 0.0000
# 6 0.0000 0.0000 0.0000 -2.6277 0.0000 27.6289
#
#
#
# Elastic Compliance Matrix: (Units=1/GPa)
#
#
# Indices 1 2 3 4 5 6 
#
# 1 0.024606 -0.001942 -0.006270 0.000000 0.002239 0.000000
# 2 -0.001942 0.014061 -0.001588 0.000000 -0.004744 0.000000
# 3 -0.006270 -0.001588 0.014130 0.000000 -0.003997 0.000000
# 4 0.000000 0.000000 0.000000 0.032188 0.000000 0.003061
# 5 0.002239 -0.004744 -0.003997 0.000000 0.041111 0.000000
# 6 0.000000 0.000000 0.000000 0.003061 0.000000 0.036485
#
#
# Mechanical properties :
#
#
# Convention : Reuss Voigt Hill
#
# Bulk Modulus (GPa) = 30.12253 33.65420 31.88837
# Shear Modulus (GPa) = 25.87378 27.87626 26.87502
#
# Velocity S-wave (km/s) = 3.37920 3.50753 3.44396
# Velocity P-wave (km/s) = 5.34036 5.59074 5.46698
#
# Compressibility (1/GPa) = 0.03319774
#
# Stress axis : x y z
#
# Youngs Moduli (GPa) = 40.64125 71.11631 70.77271
#
# Poissons Ratio (x) = 0.13809 0.44375
# Poissons Ratio (y) = 0.07892 0.11236
# Poissons Ratio (z) = 0.25482 0.11291
#
# Static dielectric constant tensor:
#      x y z
#    x 1.815970 0.000000 0.011830 
#    y 0.000000 1.873340 0.000000 
#    z 0.011830 0.000000 1.877600 
# 
# From -- ./inp_files/23776.got.cif
#   From: 2010.05.17/outbox.cif.g08.bks.cpg/sg9_12_cif.got.tgz:23776.got - 2010.06.03 20:04:27.
