data_PCOD9135132
_publ_section_title
;
Structure prediction by ZEFSAII (Michael W. Deem and Ramdas Pophale) SiO2 
 PCOD9135132
Probable space group: C C
;
_chemical_formula_sum "Si O2"
_cell_formula_units_Z 32
_cell_length_a 23.182361
_cell_length_b 10.148113
_cell_length_c 12.853041
_cell_angle_alpha 90.000000
_cell_angle_beta 156.256667
_cell_angle_gamma 90.000000
_cell_volume 1217.491573
_symmetry_space_group_name_H-M "C C"
_symmetry_group_IT_number 9
_symmetry_cell_setting 'monoclinic'
loop_
_space_group_symop_operation_xyz
x,y,z
x,-y,1/2+z
1/2+x,1/2+y,z
1/2+x,1/2-y,1/2+z
loop_
_atom_site_type_symbol
_atom_site_label
_atom_site_fract_x
_atom_site_fract_y
_atom_site_fract_z
Si Si1 0.674020 0.516089 0.035150
Si Si2 0.051942 0.566152 0.891258
Si Si3 0.390120 0.394340 0.659274
Si Si4 0.545202 0.236008 0.072644
Si Si5 0.533313 0.799755 0.788397
Si Si6 0.715655 0.489381 0.874437
Si Si7 0.892315 0.709523 0.476868
Si Si8 0.939623 0.841267 0.332456
O O1 0.704573 0.452568 0.976331
O O2 0.551153 0.430250 0.885072
O O3 0.654305 0.639217 0.761746
O O4 0.605725 0.658231 0.899313
O O5 0.118185 0.429754 0.963305
O O6 0.883092 0.531688 0.629525
O O7 0.041883 0.666063 0.777594
O O8 0.103662 0.630925 0.083858
O O9 0.328588 0.311108 0.459829
O O10 0.409257 0.298674 0.788387
O O11 0.345000 0.535786 0.632817
O O12 0.496932 0.181740 0.105676
O O13 0.442673 0.763164 0.743395
O O14 0.813072 0.430686 0.823604
O O15 0.598938 0.399454 0.620856
O O16 0.898175 0.778143 0.374169
#
# Coordination Sequence:
#
# PCOD9135132 Si02
#       8
#     4   4   4   4   4   4   4   4
#     4  10  20  39  65  92 122 164 211 262 325 381
#     4  11  23  38  64  93 123 169 211 263 319 389
#     4   9  19  38  63  90 124 163 211 267 312 379
#     4   9  21  39  58  90 129 157 211 266 314 381
#     4  10  22  37  57  89 129 162 203 270 316 376
#     4  10  20  41  69  91 123 167 216 262 321 385
#     4  11  21  37  66  92 122 163 218 261 319 387
#     4  10  20  37  64  89 122 165 211 265 322 374
#
# _framework density 26.283548
#
# number of rings (size 3 to 8) (size 9 to 14) (size 15 to 20)
#    0.000    2.000    1.250    3.000    5.250    0.000 
#    0.000    5.000    8.250    0.000    0.000    0.000 
#    0.000    0.000    0.000    0.000    0.000    0.000 
#
# Total GULP energy -89122.205535 kJ/mol
# GULP energy per Si atom -5570.137846 kJ/mol
# Density = 2.622373 g / cm^3
# Si number density = 26.283548 Si / 1000 Ang^3
#
#
#
# Elastic Constant Matrix: (Units=GPa)
#
#
# Indices 1 2 3 4 5 6 
#
# 1 109.1989 32.5347 66.0648 0.0000 -42.9012 0.0000
# 2 32.5347 150.8560 43.0138 0.0000 -16.9220 0.0000
# 3 66.0648 43.0138 124.7432 0.0000 -33.4567 0.0000
# 4 0.0000 0.0000 0.0000 38.5534 0.0000 7.3137
# 5 -42.9012 -16.9220 -33.4567 0.0000 55.9540 0.0000
# 6 0.0000 0.0000 0.0000 7.3137 0.0000 5.4736
#
#
#
# Elastic Compliance Matrix: (Units=1/GPa)
#
#
# Indices 1 2 3 4 5 6 
#
# 1 0.016566 -0.000840 -0.006128 0.000000 0.008783 0.000000
# 2 -0.000840 0.007428 -0.002009 0.000000 0.000401 0.000000
# 3 -0.006128 -0.002009 0.012543 0.000000 0.002194 0.000000
# 4 0.000000 0.000000 0.000000 0.034745 0.000000 -0.046425
# 5 0.008783 0.000401 0.002194 0.000000 0.026039 0.000000
# 6 0.000000 0.000000 0.000000 -0.046425 0.000000 0.244725
#
#
# Mechanical properties :
#
#
# Convention : Reuss Voigt Hill
#
# Bulk Modulus (GPa) = 53.81284 74.22497 64.01890
# Shear Modulus (GPa) = 13.65396 36.20853 24.93125
#
# Velocity S-wave (km/s) = 2.28170 3.71565 3.08319
# Velocity P-wave (km/s) = 5.24022 6.83443 6.08972
#
# Compressibility (1/GPa) = 0.01858293
#
# Stress axis : x y z
#
# Youngs Moduli (GPa) = 60.36423 134.62983 79.72598
#
# Poissons Ratio (x) = 0.11312 0.48857
# Poissons Ratio (y) = 0.05072 0.16014
# Poissons Ratio (z) = 0.36992 0.27043
#
# Static dielectric constant tensor:
#      x y z
#    x 2.262840 0.000000 -0.024630 
#    y 0.000000 2.149150 0.000000 
#    z -0.024630 0.000000 2.219600 
# 
# From -- ./inp_files/20880.got.cif
#   From: 2010.05.17/outbox.cif.g08.bks.cpg/sg9_11_cif.got.tgz:20880.got - 2010.06.03 20:04:27.
