data_PCOD9135938
_publ_section_title
;
Structure prediction by ZEFSAII (Michael W. Deem and Ramdas Pophale) SiO2 
 PCOD9135938
Probable space group: C C
;
_chemical_formula_sum "Si O2"
_cell_formula_units_Z 32
_cell_length_a 13.174534
_cell_length_b 7.880555
_cell_length_c 22.983690
_cell_angle_alpha 90.000000
_cell_angle_beta 36.193285
_cell_angle_gamma 90.000000
_cell_volume 1409.093721
_symmetry_space_group_name_H-M "C C"
_symmetry_group_IT_number 9
_symmetry_cell_setting 'monoclinic'
loop_
_space_group_symop_operation_xyz
x,y,z
x,-y,1/2+z
1/2+x,1/2+y,z
1/2+x,1/2-y,1/2+z
loop_
_atom_site_type_symbol
_atom_site_label
_atom_site_fract_x
_atom_site_fract_y
_atom_site_fract_z
Si Si1 0.912110 0.013096 0.287580
Si Si2 0.717073 0.287520 0.842024
Si Si3 0.652109 0.634261 0.578911
Si Si4 0.928412 0.408180 0.408185
Si Si5 0.095956 0.668730 0.718673
Si Si6 0.633024 0.187828 0.488305
Si Si7 0.480079 0.536928 0.539634
Si Si8 0.512874 0.977594 0.646022
O O1 0.741193 0.123368 0.382501
O O2 0.052696 0.135065 0.254199
O O3 0.836487 0.822430 0.331213
O O4 0.016509 0.974033 0.179862
O O5 0.593778 0.159991 0.864762
O O6 0.835387 0.383777 0.741265
O O7 0.591643 0.414204 0.932487
O O8 0.578196 0.620949 0.548400
O O9 0.650963 0.830416 0.597552
O O10 0.838235 0.551131 0.488418
O O11 0.995091 0.447304 0.312178
O O12 0.777304 0.270800 0.465056
O O13 0.292793 0.616999 0.626233
O O14 0.025305 0.628449 0.687039
O O15 0.496690 0.335064 0.538943
O O16 0.544511 0.041011 0.566558
#
# Coordination Sequence:
#
# PCOD9135938 Si02
#       8
#     4   4   4   4   4   4   4   4
#     4  10  21  37  61  86 121 160 203 251 308 362
#     4  11  22  39  64  93 122 165 210 259 312 374
#     4  10  21  39  61  89 121 162 204 260 314 370
#     4  10  22  40  63  87 120 163 208 257 319 370
#     4  11  22  40  61  89 123 163 206 258 315 375
#     4  10  22  40  62  91 124 166 207 259 312 371
#     4  11  22  39  64  90 123 163 208 256 314 375
#     4  11  22  38  60  89 126 162 208 260 312 371
#
# _framework density 22.709633
#
# number of rings (size 3 to 8) (size 9 to 14) (size 15 to 20)
#    0.000    1.500    0.000    7.500    0.000    2.000 
#    0.000   11.250    0.000    3.000    0.000    0.000 
#    0.000    0.000    0.000    0.000    0.000    0.000 
#
# Total GULP energy -89214.319436 kJ/mol
# GULP energy per Si atom -5575.894965 kJ/mol
# Density = 2.265794 g / cm^3
# Si number density = 22.709633 Si / 1000 Ang^3
#
#
#
# Elastic Constant Matrix: (Units=GPa)
#
#
# Indices 1 2 3 4 5 6 
#
# 1 35.6936 15.1745 20.5779 0.0000 -12.4095 -0.0001
# 2 15.1745 107.0060 56.2345 0.0001 -11.4255 -0.0002
# 3 20.5779 56.2345 169.8305 0.0000 -10.9519 0.0000
# 4 0.0000 0.0001 0.0000 33.2575 0.0000 9.4378
# 5 -12.4095 -11.4255 -10.9519 0.0000 35.5321 0.0000
# 6 -0.0001 -0.0002 0.0000 9.4378 0.0000 8.7195
#
#
#
# Elastic Compliance Matrix: (Units=1/GPa)
#
#
# Indices 1 2 3 4 5 6 
#
# 1 0.034159 -0.002318 -0.002704 0.000000 0.010351 0.000001
# 2 -0.002318 0.011699 -0.003472 0.000000 0.001882 0.000000
# 3 -0.002704 -0.003472 0.007379 0.000000 0.000214 0.000000
# 4 0.000000 0.000000 0.000000 0.043398 0.000000 -0.046973
# 5 0.010351 0.001882 0.000214 0.000000 0.032430 0.000000
# 6 0.000001 0.000000 0.000000 -0.046973 0.000000 0.165527
#
#
# Mechanical properties :
#
#
# Convention : Reuss Voigt Hill
#
# Bulk Modulus (GPa) = 27.58556 55.16710 41.37633
# Shear Modulus (GPa) = 15.44812 30.20472 22.82642
#
# Velocity S-wave (km/s) = 2.61098 3.65093 3.17384
# Velocity P-wave (km/s) = 4.61119 6.48980 5.62941
#
# Compressibility (1/GPa) = 0.03625086
#
# Stress axis : x y z
#
# Youngs Moduli (GPa) = 29.27465 85.47432 135.51626
#
# Poissons Ratio (x) = 0.19812 0.36643
# Poissons Ratio (y) = 0.06785 0.47047
# Poissons Ratio (z) = 0.07916 0.29674
#
# Static dielectric constant tensor:
#      x y z
#    x 1.881530 0.000000 0.001940 
#    y 0.000000 1.888120 0.000000 
#    z 0.001940 0.000000 1.824250 
# 
# From -- ./inp_files/27700.got.cif
#   From: 2010.05.17/outbox.cif.g08.bks.cpg/sg9_14_cif.got.tgz:27700.got - 2010.06.03 20:04:27.
