data_PCOD9135286
_publ_section_title
;
Structure prediction by ZEFSAII (Michael W. Deem and Ramdas Pophale) SiO2 
 PCOD9135286
Probable space group: C C
;
_chemical_formula_sum "Si O2"
_cell_formula_units_Z 28
_cell_length_a 21.503183
_cell_length_b 10.013316
_cell_length_c 9.084535
_cell_angle_alpha 90.000000
_cell_angle_beta 136.558474
_cell_angle_gamma 90.000000
_cell_volume 1345.017823
_symmetry_space_group_name_H-M "C C"
_symmetry_group_IT_number 9
_symmetry_cell_setting 'monoclinic'
loop_
_space_group_symop_operation_xyz
x,y,z
x,-y,1/2+z
1/2+x,1/2+y,z
1/2+x,1/2-y,1/2+z
loop_
_atom_site_type_symbol
_atom_site_label
_atom_site_fract_x
_atom_site_fract_y
_atom_site_fract_z
Si Si1 0.243620 0.388844 0.148490
Si Si2 0.978772 0.252754 0.439251
Si Si3 0.738378 0.391606 0.808155
Si Si4 0.535566 0.536967 0.013170
Si Si5 0.433691 0.408782 0.596101
Si Si6 0.170315 0.628117 0.195319
Si Si7 0.295870 0.847515 0.245889
O O1 0.243187 0.243047 0.220952
O O2 0.343837 0.443756 0.354749
O O3 0.178060 0.490915 0.118830
O O4 0.220660 0.384975 0.938226
O O5 0.927044 0.213334 0.198308
O O6 0.900148 0.298759 0.413246
O O7 0.065166 0.342453 0.549506
O O8 0.025527 0.112261 0.562543
O O9 0.634111 0.436637 0.626032
O O10 0.792439 0.513496 0.828143
O O11 0.763652 0.370781 0.022299
O O12 0.466381 0.528034 0.758565
O O13 0.507030 0.628897 0.098945
O O14 0.225417 0.743023 0.200074
#
# Coordination Sequence:
#
# PCOD9135286 Si02
#       7
#     4   4   4   4   4   4   4
#     4  12  26  45  69 104 141 185 230 286 357 405
#     4  10  24  43  70  99 141 183 231 284 347 413
#     4  12  23  42  72 106 137 183 229 288 346 410
#     4  10  20  38  70  98 135 176 235 275 336 408
#     4  10  21  42  66 100 136 177 234 280 337 416
#     4  12  26  47  70 102 145 182 233 292 346 416
#     4  12  24  47  73  99 145 180 232 291 343 420
#
# _framework density 20.817567
#
# number of rings (size 3 to 8) (size 9 to 14) (size 15 to 20)
#    0.857    0.000    2.857    5.143    2.000    1.143 
#    2.571    0.000    0.000    0.000    0.000    0.000 
#    0.000    0.000    0.000    0.000    0.000    0.000 
#
# Total GULP energy -78124.447311 kJ/mol
# GULP energy per Si atom -5580.317665 kJ/mol
# Density = 2.077018 g / cm^3
# Si number density = 20.817567 Si / 1000 Ang^3
#
#
#
# Elastic Constant Matrix: (Units=GPa)
#
#
# Indices 1 2 3 4 5 6 
#
# 1 113.0989 32.9998 27.9999 0.0000 -2.0678 0.0000
# 2 32.9998 83.3552 11.6091 0.0000 -10.1076 0.0000
# 3 27.9999 11.6091 84.1154 0.0000 -21.1082 0.0000
# 4 0.0000 0.0000 0.0000 24.5399 0.0000 -7.9776
# 5 -2.0678 -10.1076 -21.1082 0.0000 49.4261 0.0000
# 6 0.0000 0.0000 0.0000 -7.9776 0.0000 45.1401
#
#
#
# Elastic Compliance Matrix: (Units=1/GPa)
#
#
# Indices 1 2 3 4 5 6 
#
# 1 0.010858 -0.004035 -0.003529 0.000000 -0.001878 0.000000
# 2 -0.004035 0.013909 0.000106 0.000000 0.002721 0.000000
# 3 -0.003529 0.000106 0.014579 0.000000 0.006100 0.000000
# 4 0.000000 0.000000 0.000000 0.043234 0.000000 0.007641
# 5 -0.001878 0.002721 0.006100 0.000000 0.023315 0.000000
# 6 0.000000 0.000000 0.000000 0.007641 0.000000 0.023504
#
#
# Mechanical properties :
#
#
# Convention : Reuss Voigt Hill
#
# Bulk Modulus (GPa) = 40.92996 47.30966 44.11981
# Shear Modulus (GPa) = 32.79563 37.68526 35.24044
#
# Velocity S-wave (km/s) = 3.97341 4.25933 4.11886
# Velocity P-wave (km/s) = 6.38394 6.85306 6.62265
#
# Compressibility (1/GPa) = 0.02443198
#
# Stress axis : x y z
#
# Youngs Moduli (GPa) = 92.09408 71.89357 68.59040
#
# Poissons Ratio (x) = 0.29009 0.24205
# Poissons Ratio (y) = 0.37160 -0.00729
# Poissons Ratio (z) = 0.32499 -0.00764
#
# Static dielectric constant tensor:
#      x y z
#    x 1.794610 0.000000 0.012030 
#    y 0.000000 1.768330 0.000000 
#    z 0.012030 0.000000 1.741670 
# 
# From -- ./inp_files/11378.got.cif
#   From: 2010.05.17/outbox.cif.g08.bks.cpg/sg9_6_cif.got.tgz:11378.got - 2010.06.03 20:04:27.
