data_PCOD9135004
_publ_section_title
;
Structure prediction by ZEFSAII (Michael W. Deem and Ramdas Pophale) SiO2 
 PCOD9135004
Probable space group: C C
;
_chemical_formula_sum "Si O2"
_cell_formula_units_Z 24
_cell_length_a 13.027944
_cell_length_b 8.908139
_cell_length_c 8.687520
_cell_angle_alpha 90.000000
_cell_angle_beta 71.275468
_cell_angle_gamma 90.000000
_cell_volume 954.865281
_symmetry_space_group_name_H-M "C C"
_symmetry_group_IT_number 9
_symmetry_cell_setting 'monoclinic'
loop_
_space_group_symop_operation_xyz
x,y,z
x,-y,1/2+z
1/2+x,1/2+y,z
1/2+x,1/2-y,1/2+z
loop_
_atom_site_type_symbol
_atom_site_label
_atom_site_fract_x
_atom_site_fract_y
_atom_site_fract_z
Si Si1 0.423220 0.209004 0.784760
Si Si2 0.054425 0.790019 0.253639
Si Si3 0.987588 0.515882 0.468130
Si Si4 0.278761 0.611603 0.115048
Si Si5 0.223835 0.347463 0.323606
Si Si6 0.576763 0.591075 0.408451
O O1 0.472497 0.086373 0.642995
O O2 0.506793 0.329013 0.810782
O O3 0.401085 0.105954 0.946880
O O4 0.342240 0.303185 0.718426
O O5 0.981297 0.659919 0.359904
O O6 0.074518 0.916525 0.372645
O O7 0.165308 0.699098 0.172136
O O8 0.032275 0.866400 0.099158
O O9 0.106739 0.435115 0.405940
O O10 0.307129 0.622506 0.922227
O O11 0.268824 0.435367 0.155924
O O12 0.193086 0.173170 0.333780
#
# Coordination Sequence:
#
# PCOD9135004 Si02
#       6
#     4   4   4   4   4   4
#     4  11  22  37  58  86 113 146 190 238 285 330
#     4  10  21  38  60  84 113 151 191 228 278 344
#     4  10  20  39  61  80 113 155 189 228 282 345
#     4  10  22  37  57  84 112 146 189 236 284 328
#     4   9  19  39  59  78 111 153 188 224 281 346
#     4  10  20  36  59  86 112 149 191 230 278 343
#
# _framework density 25.134433000000001
#
# number of rings (size 3 to 8) (size 9 to 14) (size 15 to 20)
#    0.000    2.000    0.000    6.000    0.000    6.667 
#    0.000    1.667    0.000    0.000    0.000    0.000 
#    0.000    0.000    0.000    0.000    0.000    0.000 
#
# Total GULP energy -67028.083375 kJ/mol
# GULP energy per Si atom -5585.673615 kJ/mol
# Density = 2.507723 g / cm^3
# Si number density = 25.134433 Si / 1000 Ang^3
#
#
#
# Elastic Constant Matrix: (Units=GPa)
#
#
# Indices 1 2 3 4 5 6 
#
# 1 72.1422 13.9825 26.5431 0.0000 32.8441 0.0000
# 2 13.9825 151.0703 26.3150 0.0000 15.3783 0.0000
# 3 26.5431 26.3150 64.0259 0.0000 30.1797 0.0000
# 4 0.0000 0.0000 0.0000 52.2219 0.0000 19.0826
# 5 32.8441 15.3783 30.1797 0.0000 31.9635 0.0000
# 6 0.0000 0.0000 0.0000 19.0826 0.0000 47.5343
#
#
#
# Elastic Compliance Matrix: (Units=1/GPa)
#
#
# Indices 1 2 3 4 5 6 
#
# 1 0.026434 0.000064 0.003303 0.000000 -0.030311 0.000000
# 2 0.000064 0.007155 -0.002367 0.000000 -0.001273 0.000000
# 3 0.003303 -0.002367 0.029346 0.000000 -0.029963 0.000000
# 4 0.000000 0.000000 0.000000 0.022441 0.000000 -0.009009
# 5 -0.030311 -0.001273 -0.029963 0.000000 0.091335 0.000000
# 6 0.000000 0.000000 0.000000 -0.009009 0.000000 0.024654
#
#
# Mechanical properties :
#
#
# Convention : Reuss Voigt Hill
#
# Bulk Modulus (GPa) = 15.40039 46.76886 31.08462
# Shear Modulus (GPa) = 22.62326 41.03712 31.83019
#
# Velocity S-wave (km/s) = 3.00341 4.04506 3.56251
# Velocity P-wave (km/s) = 4.26237 6.36117 5.41444
#
# Compressibility (1/GPa) = 0.06493341
#
# Stress axis : x y z
#
# Youngs Moduli (GPa) = 37.83069 139.75294 34.07609
#
# Poissons Ratio (x) = -0.00889 -0.11255
# Poissons Ratio (y) = -0.00241 0.08067
# Poissons Ratio (z) = -0.12495 0.33085
#
# Static dielectric constant tensor:
#      x y z
#    x 2.026220 0.000000 -0.019690 
#    y 0.000000 1.955600 0.000000 
#    z -0.019690 0.000000 2.099850 
# 
# From -- ./inp_files/10414.got.cif
#   From: 2010.05.17/outbox.cif.g08.bks.cpg/sg9_6_cif.got.tgz:10414.got - 2010.06.03 20:04:27.
