data_PCOD9135911
_publ_section_title
;
Structure prediction by ZEFSAII (Michael W. Deem and Ramdas Pophale) SiO2 
 PCOD9135911
Probable space group: C C
;
_chemical_formula_sum "Si O2"
_cell_formula_units_Z 32
_cell_length_a 12.089147
_cell_length_b 23.722687
_cell_length_c 5.708610
_cell_angle_alpha 90.000000
_cell_angle_beta 128.793189
_cell_angle_gamma 90.000000
_cell_volume 1276.019314
_symmetry_space_group_name_H-M "C C"
_symmetry_group_IT_number 9
_symmetry_cell_setting 'monoclinic'
loop_
_space_group_symop_operation_xyz
x,y,z
x,-y,1/2+z
1/2+x,1/2+y,z
1/2+x,1/2-y,1/2+z
loop_
_atom_site_type_symbol
_atom_site_label
_atom_site_fract_x
_atom_site_fract_y
_atom_site_fract_z
Si Si1 0.745740 0.855953 0.683920
Si Si2 0.341516 0.161166 0.268543
Si Si3 0.326843 0.144684 0.758391
Si Si4 0.022935 0.152437 0.803394
Si Si5 0.590705 0.973278 0.532971
Si Si6 0.123796 0.753633 0.134534
Si Si7 0.369365 0.284552 0.461752
Si Si8 0.745226 0.525898 0.601321
O O1 0.654485 0.911569 0.573274
O O2 0.684036 0.807506 0.772720
O O3 0.751241 0.815806 0.461362
O O4 0.907704 0.871579 0.970576
O O5 0.398409 0.144222 0.598181
O O6 0.323652 0.228996 0.256878
O O7 0.410878 0.141250 0.117158
O O8 0.183935 0.132643 0.044114
O O9 0.238637 0.202379 0.678280
O O10 0.219736 0.092223 0.603665
O O11 0.941708 0.162000 0.933872
O O12 0.048637 0.216632 0.752867
O O13 0.418509 0.976705 0.317465
O O14 0.635654 0.006876 0.355120
O O15 0.994508 0.756818 0.781684
O O16 0.696828 0.504022 0.280315
#
# Coordination Sequence:
#
# PCOD9135911 Si02
#       8
#     4   4   4   4   4   4   4   4
#     4  11  23  38  68  92 128 180 208 271 334 397
#     4  11  23  37  60  93 135 171 205 263 316 381
#     4  11  21  41  62  95 134 168 209 267 327 383
#     4  10  21  37  57  89 133 172 213 254 315 392
#     4  10  25  47  65  94 128 165 228 281 320 380
#     4  10  22  38  58 100 138 166 211 260 332 400
#     4  11  21  37  59  94 135 172 213 255 321 405
#     4  10  22  43  69  97 127 172 221 273 325 382
#
# _framework density 25.077988999999999
#
# number of rings (size 3 to 8) (size 9 to 14) (size 15 to 20)
#    0.000    1.500    2.500    2.250    5.250    0.000 
#    0.000    0.000    0.000   19.500    0.000    0.000 
#    0.000    0.000    0.000    0.000    0.000    0.000 
#
# Total GULP energy -89223.252015 kJ/mol
# GULP energy per Si atom -5576.453251 kJ/mol
# Density = 2.502091 g / cm^3
# Si number density = 25.077989 Si / 1000 Ang^3
#
#
#
# Elastic Constant Matrix: (Units=GPa)
#
#
# Indices 1 2 3 4 5 6 
#
# 1 85.5581 18.5919 44.9714 0.0000 -17.5211 0.0000
# 2 18.5919 100.5765 40.7650 0.0000 -13.0641 0.0000
# 3 44.9714 40.7650 116.1356 0.0000 -40.9372 0.0000
# 4 0.0000 0.0000 0.0000 32.4678 0.0000 -10.2164
# 5 -17.5211 -13.0641 -40.9372 0.0000 42.7085 0.0000
# 6 0.0000 0.0000 0.0000 -10.2164 0.0000 26.7442
#
#
#
# Elastic Compliance Matrix: (Units=1/GPa)
#
#
# Indices 1 2 3 4 5 6 
#
# 1 0.014717 -0.000492 -0.005212 0.000000 0.000891 0.000000
# 2 -0.000492 0.011616 -0.004086 0.000000 -0.000565 0.000000
# 3 -0.005212 -0.004086 0.016415 0.000000 0.012346 0.000000
# 4 0.000000 0.000000 0.000000 0.035008 0.000000 0.013373
# 5 0.000891 -0.000565 0.012346 0.000000 0.035441 0.000000
# 6 0.000000 0.000000 0.000000 0.013373 0.000000 0.042500
#
#
# Mechanical properties :
#
#
# Convention : Reuss Voigt Hill
#
# Bulk Modulus (GPa) = 43.16327 56.76966 49.96647
# Shear Modulus (GPa) = 27.32226 33.58021 30.45124
#
# Velocity S-wave (km/s) = 3.30433 3.66325 3.48841
# Velocity P-wave (km/s) = 5.63978 6.37016 6.01606
#
# Compressibility (1/GPa) = 0.02316785
#
# Stress axis : x y z
#
# Youngs Moduli (GPa) = 67.94880 86.08499 60.91938
#
# Poissons Ratio (x) = 0.04238 0.31751
# Poissons Ratio (y) = 0.03345 0.24893
# Poissons Ratio (z) = 0.35414 0.35176
#
# Static dielectric constant tensor:
#      x y z
#    x 2.015950 0.000000 -0.039040 
#    y 0.000000 1.987660 0.000000 
#    z -0.039040 0.000000 2.131300 
# 
# From -- ./inp_files/2711.got.cif
#   From: 2010.05.17/outbox.cif.g08.bks.cpg/sg9_2_cif.got.tgz:2711.got - 2010.06.03 20:04:27.
