data_PCOD9135474
_publ_section_title
;
Structure prediction by ZEFSAII (Michael W. Deem and Ramdas Pophale) SiO2 
 PCOD9135474
Probable space group: C C
;
_chemical_formula_sum "Si O2"
_cell_formula_units_Z 32
_cell_length_a 15.946081
_cell_length_b 15.125312
_cell_length_c 5.368542
_cell_angle_alpha 90.000000
_cell_angle_beta 102.151681
_cell_angle_gamma 90.000000
_cell_volume 1265.823298
_symmetry_space_group_name_H-M "C C"
_symmetry_group_IT_number 9
_symmetry_cell_setting 'monoclinic'
loop_
_space_group_symop_operation_xyz
x,y,z
x,-y,1/2+z
1/2+x,1/2+y,z
1/2+x,1/2-y,1/2+z
loop_
_atom_site_type_symbol
_atom_site_label
_atom_site_fract_x
_atom_site_fract_y
_atom_site_fract_z
Si Si1 0.949680 0.525423 0.238200
Si Si2 0.717993 0.056303 0.604488
Si Si3 0.505456 0.225585 0.354737
Si Si4 0.674400 0.269329 0.184203
Si Si5 0.437165 0.554911 0.250539
Si Si6 0.578896 0.135298 0.797851
Si Si7 0.641739 0.445122 0.892384
Si Si8 0.843550 0.808167 0.992407
O O1 0.900957 0.509427 0.466140
O O2 0.982767 0.625500 0.240633
O O3 0.028478 0.454725 0.323367
O O4 0.633599 0.115000 0.584994
O O5 0.795251 0.122329 0.635247
O O6 0.717278 0.001741 0.351323
O O7 0.590830 0.277380 0.313290
O O8 0.513214 0.209402 0.656963
O O9 0.424273 0.275796 0.197838
O O10 0.679265 0.349904 0.992986
O O11 0.767038 0.258151 0.368038
O O12 0.645755 0.178166 0.027858
O O13 0.419969 0.491235 0.477154
O O14 0.538922 0.571280 0.324508
O O15 0.379639 0.359969 0.774015
O O16 0.662514 0.511953 0.136389
#
# Coordination Sequence:
#
# PCOD9135474 Si02
#       8
#     4   4   4   4   4   4   4   4
#     4  10  20  40  67 101 138 190 233 287 368 436
#     4  12  25  44  71 111 155 189 242 315 391 460
#     4  11  24  46  66 104 150 192 244 301 361 453
#     4  12  25  48  73 109 148 192 251 312 371 447
#     4  10  22  43  66 101 140 182 235 304 372 440
#     4  11  24  43  77 106 146 193 241 305 386 451
#     4  10  24  46  77  98 138 197 251 300 364 430
#     4  12  26  44  69 108 145 193 245 304 379 439
#
# _framework density 25.279990999999999
#
# number of rings (size 3 to 8) (size 9 to 14) (size 15 to 20)
#    0.000    1.000    3.750    3.000    1.750    2.000 
#    4.500    2.500    0.000    0.000    0.000    0.000 
#    0.000    0.000    0.000    0.000    0.000    0.000 
#
# Total GULP energy -89506.344184 kJ/mol
# GULP energy per Si atom -5594.146512 kJ/mol
# Density = 2.522245 g / cm^3
# Si number density = 25.279991 Si / 1000 Ang^3
#
#
#
# Elastic Constant Matrix: (Units=GPa)
#
#
# Indices 1 2 3 4 5 6 
#
# 1 50.4039 9.0403 26.4237 0.0000 21.1443 0.0000
# 2 9.0403 70.1966 15.5178 0.0000 -2.2934 0.0000
# 3 26.4237 15.5178 92.9841 0.0000 -8.3305 0.0000
# 4 0.0000 0.0000 0.0000 50.1185 0.0000 10.7124
# 5 21.1443 -2.2934 -8.3305 0.0000 35.0880 0.0000
# 6 0.0000 0.0000 0.0000 10.7124 0.0000 31.4265
#
#
#
# Elastic Compliance Matrix: (Units=1/GPa)
#
#
# Indices 1 2 3 4 5 6 
#
# 1 0.037893 -0.002943 -0.012608 0.000000 -0.026020 0.000000
# 2 -0.002943 0.015025 -0.001455 0.000000 0.002410 0.000000
# 3 -0.012608 -0.001455 0.015584 0.000000 0.011203 0.000000
# 4 0.000000 0.000000 0.000000 0.021521 0.000000 -0.007336
# 5 -0.026020 0.002410 0.011203 0.000000 0.046997 0.000000
# 6 0.000000 0.000000 0.000000 -0.007336 0.000000 0.034321
#
#
# Mechanical properties :
#
#
# Convention : Reuss Voigt Hill
#
# Bulk Modulus (GPa) = 28.99472 35.06092 32.02782
# Shear Modulus (GPa) = 23.05744 34.16677 28.61210
#
# Velocity S-wave (km/s) = 3.02335 3.68031 3.36789
# Velocity P-wave (km/s) = 4.86640 5.65320 5.27449
#
# Compressibility (1/GPa) = 0.03448903
#
# Stress axis : x y z
#
# Youngs Moduli (GPa) = 26.39025 66.55506 64.16853
#
# Poissons Ratio (x) = 0.19587 0.80905
# Poissons Ratio (y) = 0.07767 0.09338
# Poissons Ratio (z) = 0.33273 0.09685
#
# Static dielectric constant tensor:
#      x y z
#    x 2.026150 0.000000 -0.017220 
#    y 0.000000 2.044270 0.000000 
#    z -0.017220 0.000000 2.084230 
# 
# From -- ./inp_files/2971.got.cif
#   From: 2010.05.17/outbox.cif.g08.bks.cpg/sg9_2_cif.got.tgz:2971.got - 2010.06.03 20:04:27.
