data_PCOD9135936
_publ_section_title
;
Structure prediction by ZEFSAII (Michael W. Deem and Ramdas Pophale) SiO2 
 PCOD9135936
Probable space group: C C
;
_chemical_formula_sum "Si O2"
_cell_formula_units_Z 32
_cell_length_a 5.045738
_cell_length_b 19.798363
_cell_length_c 15.515782
_cell_angle_alpha 90.000000
_cell_angle_beta 119.637887
_cell_angle_gamma 90.000000
_cell_volume 1347.198020
_symmetry_space_group_name_H-M "C C"
_symmetry_group_IT_number 9
_symmetry_cell_setting 'monoclinic'
loop_
_space_group_symop_operation_xyz
x,y,z
x,-y,1/2+z
1/2+x,1/2+y,z
1/2+x,1/2-y,1/2+z
loop_
_atom_site_type_symbol
_atom_site_label
_atom_site_fract_x
_atom_site_fract_y
_atom_site_fract_z
Si Si1 0.786250 0.802381 0.303430
Si Si2 0.437785 0.723658 0.108852
Si Si3 0.224723 0.389059 0.464195
Si Si4 0.757125 0.518747 0.815147
Si Si5 0.602891 0.059316 0.710900
Si Si6 0.011369 0.591075 0.435178
Si Si7 0.766282 0.762496 0.987704
Si Si8 0.114948 0.018971 0.505993
O O1 0.597125 0.742712 0.225235
O O2 0.690434 0.834120 0.381215
O O3 0.731839 0.864229 0.227780
O O4 0.129294 0.781170 0.385879
O O5 0.305143 0.648955 0.065571
O O6 0.672749 0.734820 0.067320
O O7 0.131286 0.768794 0.046103
O O8 0.486629 0.443004 0.480477
O O9 0.929995 0.437195 0.415992
O O10 0.404985 0.517430 0.776234
O O11 0.851364 0.558162 0.744955
O O12 0.920830 0.446392 0.832142
O O13 0.429504 0.024301 0.606561
O O14 0.076784 0.668885 0.447570
O O15 0.338381 0.557693 0.509857
O O16 0.719603 0.565949 0.442773
#
# Coordination Sequence:
#
# PCOD9135936 Si02
#       8
#     4   4   4   4   4   4   4   4
#     4  10  22  41  65  91 129 174 216 269 334 405
#     4  11  24  41  65  93 127 174 223 271 329 404
#     4   9  22  43  64  95 131 174 223 274 339 397
#     4  10  21  37  61  85 121 161 204 265 326 394
#     4  11  21  37  60  90 117 160 216 262 326 394
#     4  11  21  39  59  87 121 163 206 258 333 387
#     4  11  24  41  63  95 132 169 218 277 328 401
#     4  11  23  39  65  90 126 167 216 282 329 392
#
# _framework density 23.753005000000002
#
# number of rings (size 3 to 8) (size 9 to 14) (size 15 to 20)
#    0.000    1.500    0.000    6.000    0.000    9.000 
#    0.000    2.500    0.000    0.000    0.000    0.000 
#    0.000    0.000    0.000    0.000    0.000    0.000 
#
# Total GULP energy -89123.633837 kJ/mol
# GULP energy per Si atom -5570.227115 kJ/mol
# Density = 2.369894 g / cm^3
# Si number density = 23.753005 Si / 1000 Ang^3
#
#
#
# Elastic Constant Matrix: (Units=GPa)
#
#
# Indices 1 2 3 4 5 6 
#
# 1 102.8147 17.4387 29.9339 0.0000 14.6793 0.0000
# 2 17.4387 40.1070 4.9373 0.0000 -7.0480 0.0000
# 3 29.9339 4.9373 107.6440 0.0000 21.6847 0.0000
# 4 0.0000 0.0000 0.0000 26.7370 0.0000 4.2383
# 5 14.6793 -7.0480 21.6847 0.0000 24.3175 0.0000
# 6 0.0000 0.0000 0.0000 4.2383 0.0000 22.0704
#
#
#
# Elastic Compliance Matrix: (Units=1/GPa)
#
#
# Indices 1 2 3 4 5 6 
#
# 1 0.012452 -0.006645 -0.001531 0.000000 -0.008078 0.000000
# 2 -0.006645 0.030841 -0.002652 0.000000 0.015315 0.000000
# 3 -0.001531 -0.002652 0.011953 0.000000 -0.010504 0.000000
# 4 0.000000 0.000000 0.000000 0.038576 0.000000 -0.007408
# 5 -0.008078 0.015315 -0.010504 0.000000 0.059804 0.000000
# 6 0.000000 0.000000 0.000000 -0.007408 0.000000 0.046732
#
#
# Mechanical properties :
#
#
# Convention : Reuss Voigt Hill
#
# Bulk Modulus (GPa) = 29.77054 39.46506 34.61780
# Shear Modulus (GPa) = 21.43988 27.84204 24.64096
#
# Velocity S-wave (km/s) = 3.00762 3.42738 3.22434
# Velocity P-wave (km/s) = 4.96202 5.68449 5.33550
#
# Compressibility (1/GPa) = 0.03359026
#
# Stress axis : x y z
#
# Youngs Moduli (GPa) = 80.30594 32.42488 83.66046
#
# Poissons Ratio (x) = 0.21548 0.12806
# Poissons Ratio (y) = 0.53367 0.22184
# Poissons Ratio (z) = 0.12292 0.08598
#
# Static dielectric constant tensor:
#      x y z
#    x 1.927710 0.000000 -0.098200 
#    y 0.000000 2.024930 0.000000 
#    z -0.098200 0.000000 2.040520 
# 
# From -- ./inp_files/28855.got.cif
#   From: 2010.05.17/outbox.cif.g08.bks.cpg/sg9_15_cif.got.tgz:28855.got - 2010.06.03 20:04:27.
