data_PCOD9135053
_publ_section_title
;
Structure prediction by ZEFSAII (Michael W. Deem and Ramdas Pophale) SiO2 
 PCOD9135053
Probable space group: C C
;
_chemical_formula_sum "Si O2"
_cell_formula_units_Z 32
_cell_length_a 9.355893
_cell_length_b 28.449445
_cell_length_c 11.513374
_cell_angle_alpha 90.000000
_cell_angle_beta 27.104821
_cell_angle_gamma 90.000000
_cell_volume 1396.253440
_symmetry_space_group_name_H-M "C C"
_symmetry_group_IT_number 9
_symmetry_cell_setting 'monoclinic'
loop_
_space_group_symop_operation_xyz
x,y,z
x,-y,1/2+z
1/2+x,1/2+y,z
1/2+x,1/2-y,1/2+z
loop_
_atom_site_type_symbol
_atom_site_label
_atom_site_fract_x
_atom_site_fract_y
_atom_site_fract_z
Si Si1 0.862070 0.499344 0.364550
Si Si2 0.738929 0.130693 0.265297
Si Si3 0.368839 0.263996 0.621037
Si Si4 0.623738 0.595271 0.610229
Si Si5 0.250807 0.376208 0.166767
Si Si6 0.494786 0.543158 0.938677
Si Si7 0.288740 0.274202 0.025946
Si Si8 0.567387 0.583148 0.219802
O O1 0.774202 0.553987 0.423932
O O2 0.802476 0.477292 0.280349
O O3 0.645750 0.468915 0.611094
O O4 0.220159 0.504165 0.148415
O O5 0.887476 0.181414 0.139374
O O6 0.384383 0.129332 0.476490
O O7 0.782923 0.110556 0.361759
O O8 0.911946 0.089885 0.069728
O O9 0.518207 0.253456 0.390159
O O10 0.569507 0.233121 0.569500
O O11 0.388968 0.622083 0.696836
O O12 0.503721 0.563542 0.803422
O O13 0.265745 0.325232 0.097405
O O14 0.889816 0.391625 0.445410
O O15 0.464706 0.409004 0.926865
O O16 0.133599 0.238897 0.231612
#
# Coordination Sequence:
#
# PCOD9135053 Si02
#       8
#     4   4   4   4   4   4   4   4
#     4  10  24  43  67 101 137 190 244 288 351 413
#     4  10  24  44  66 106 139 185 233 295 360 418
#     4  10  20  36  67  98 131 171 225 290 343 410
#     4  11  27  44  69  97 151 189 229 299 363 428
#     4  12  26  45  72 109 143 188 237 297 365 421
#     4  10  24  44  69  98 144 187 239 292 350 424
#     4  10  20  40  67 100 135 174 230 294 344 417
#     4  11  25  42  75 105 138 188 245 293 342 427
#
# _framework density 22.918475000000001
#
# number of rings (size 3 to 8) (size 9 to 14) (size 15 to 20)
#    0.000    1.500    0.000    4.500   12.250    2.000 
#    0.000    1.250    0.000    0.000    0.000    0.000 
#    0.000    0.000    0.000    0.000    0.000    0.000 
#
# Total GULP energy -89306.510102 kJ/mol
# GULP energy per Si atom -5581.656881 kJ/mol
# Density = 2.286631 g / cm^3
# Si number density = 22.918475 Si / 1000 Ang^3
#
#
#
# Elastic Constant Matrix: (Units=GPa)
#
#
# Indices 1 2 3 4 5 6 
#
# 1 108.3590 22.9541 22.4521 0.0000 -3.5875 0.0000
# 2 22.9541 75.8728 31.5692 0.0000 -10.7914 0.0000
# 3 22.4521 31.5692 66.7482 0.0000 14.5997 0.0000
# 4 0.0000 0.0000 0.0000 23.1485 0.0000 -1.9273
# 5 -3.5875 -10.7914 14.5997 0.0000 29.7376 0.0000
# 6 0.0000 0.0000 0.0000 -1.9273 0.0000 28.0143
#
#
#
# Elastic Compliance Matrix: (Units=1/GPa)
#
#
# Indices 1 2 3 4 5 6 
#
# 1 0.010290 -0.001396 -0.003318 0.000000 0.002363 0.000000
# 2 -0.001396 0.020538 -0.012141 0.000000 0.013245 0.000000
# 3 -0.003318 -0.012141 0.025645 0.000000 -0.017397 0.000000
# 4 0.000000 0.000000 0.000000 0.043448 0.000000 0.002989
# 5 0.002363 0.013245 -0.017397 0.000000 0.047260 0.000000
# 6 0.000000 0.000000 0.000000 0.002989 0.000000 0.035902
#
#
# Mechanical properties :
#
#
# Convention : Reuss Voigt Hill
#
# Bulk Modulus (GPa) = 43.93176 44.99231 44.46204
# Shear Modulus (GPa) = 22.28353 27.78038 25.03196
#
# Velocity S-wave (km/s) = 3.12155 3.48536 3.30846
# Velocity P-wave (km/s) = 5.67472 5.98924 5.83410
#
# Compressibility (1/GPa) = 0.02276257
#
# Stress axis : x y z
#
# Youngs Moduli (GPa) = 97.18077 48.69033 38.99397
#
# Poissons Ratio (x) = 0.06800 0.12937
# Poissons Ratio (y) = 0.13571 0.47343
# Poissons Ratio (z) = 0.32242 0.59115
#
# Static dielectric constant tensor:
#      x y z
#    x 1.963030 0.000000 0.061420 
#    y 0.000000 1.845370 0.000000 
#    z 0.061420 0.000000 1.957270 
# 
# From -- ./inp_files/15737.got.cif
#   From: 2010.05.17/outbox.cif.g08.bks.cpg/sg9_8_cif.got.tgz:15737.got - 2010.06.03 20:04:27.
