data_PCOD9135268
_publ_section_title
;
Structure prediction by ZEFSAII (Michael W. Deem and Ramdas Pophale) SiO2 
 PCOD9135268
Probable space group: C C
;
_chemical_formula_sum "Si O2"
_cell_formula_units_Z 24
_cell_length_a 12.299077
_cell_length_b 8.010156
_cell_length_c 9.105081
_cell_angle_alpha 90.000000
_cell_angle_beta 105.115831
_cell_angle_gamma 90.000000
_cell_volume 865.974054
_symmetry_space_group_name_H-M "C C"
_symmetry_group_IT_number 9
_symmetry_cell_setting 'monoclinic'
loop_
_space_group_symop_operation_xyz
x,y,z
x,-y,1/2+z
1/2+x,1/2+y,z
1/2+x,1/2-y,1/2+z
loop_
_atom_site_type_symbol
_atom_site_label
_atom_site_fract_x
_atom_site_fract_y
_atom_site_fract_z
Si Si1 0.987300 0.678166 0.088010
Si Si2 0.058633 0.829790 0.575993
Si Si3 0.287884 0.668490 0.720966
Si Si4 0.324788 0.911468 0.006697
Si Si5 0.687125 0.362453 0.254229
Si Si6 0.459175 0.582519 0.307599
O O1 0.888127 0.766435 0.148526
O O2 0.105527 0.703821 0.212765
O O3 0.949934 0.489294 0.048598
O O4 0.994482 0.775145 0.936655
O O5 0.162886 0.702509 0.613698
O O6 0.953834 0.813084 0.650132
O O7 0.101400 0.982300 0.697204
O O8 0.019386 0.919428 0.413703
O O9 0.297512 0.777578 0.872097
O O10 0.329509 0.482838 0.772249
O O11 0.257756 0.078286 0.917775
O O12 0.267060 0.878597 0.141018
#
# Coordination Sequence:
#
# PCOD9135268 Si02
#       6
#     4   4   4   4   4   4
#     4  11  22  38  68  98 130 175 219 265 335 390
#     4  10  20  38  67  91 128 169 218 264 330 380
#     4  11  22  38  68  98 130 175 219 265 335 390
#     4  11  22  42  69  95 132 175 217 274 329 391
#     4  10  20  38  67  91 128 169 218 264 330 380
#     4  11  22  42  69  95 132 175 217 274 329 391
#
# _framework density 27.714452999999999
#
# number of rings (size 3 to 8) (size 9 to 14) (size 15 to 20)
#    0.000    1.333    6.667    4.000    0.000    1.333 
#    0.000    1.667    7.333    0.000    0.000    0.000 
#    0.000    0.000    0.000    0.000    0.000    0.000 
#
# Total GULP energy -66990.277715 kJ/mol
# GULP energy per Si atom -5582.523143 kJ/mol
# Density = 2.765137 g / cm^3
# Si number density = 27.714453 Si / 1000 Ang^3
#
#
#
# Elastic Constant Matrix: (Units=GPa)
#
#
# Indices 1 2 3 4 5 6 
#
# 1 289.6551 78.6690 3.6915 0.0000 -32.5851 0.0000
# 2 78.6690 98.1470 12.1235 0.0000 5.4523 0.0000
# 3 3.6915 12.1235 80.6055 0.0000 -14.1940 0.0000
# 4 0.0000 0.0000 0.0000 68.9629 0.0000 -68.8322
# 5 -32.5851 5.4523 -14.1940 0.0000 49.6346 0.0000
# 6 0.0000 0.0000 0.0000 -68.8322 0.0000 163.9550
#
#
#
# Elastic Compliance Matrix: (Units=1/GPa)
#
#
# Indices 1 2 3 4 5 6 
#
# 1 0.005129 -0.004490 0.001180 0.000000 0.004198 0.000000
# 2 -0.004490 0.014446 -0.002912 0.000000 -0.005367 0.000000
# 3 0.001180 -0.002912 0.013671 0.000000 0.005004 0.000000
# 4 0.000000 0.000000 0.000000 0.024959 0.000000 0.010478
# 5 0.004198 -0.005367 0.005004 0.000000 0.024924 0.000000
# 6 0.000000 0.000000 0.000000 0.010478 0.000000 0.010498
#
#
# Mechanical properties :
#
#
# Convention : Reuss Voigt Hill
#
# Bulk Modulus (GPa) = 48.07542 73.04174 60.55858
# Shear Modulus (GPa) = 44.24543 81.43875 62.84209
#
# Velocity S-wave (km/s) = 3.99993 5.42667 4.76698
# Velocity P-wave (km/s) = 6.22229 8.10415 7.22476
#
# Compressibility (1/GPa) = 0.02080065
#
# Stress axis : x y z
#
# Youngs Moduli (GPa) = 194.96707 69.22481 73.14627
#
# Poissons Ratio (x) = 0.31083 -0.08629
# Poissons Ratio (y) = 0.87542 0.21302
# Poissons Ratio (z) = -0.22999 0.20160
#
# Static dielectric constant tensor:
#      x y z
#    x 1.984330 0.000000 0.312380 
#    y 0.000000 2.085830 0.000000 
#    z 0.312380 0.000000 1.988620 
# 
# From -- ./inp_files/6969.got.cif
#   From: 2010.05.17/outbox.cif.g08.bks.cpg/sg9_4_cif.got.tgz:6969.got - 2010.06.03 20:04:27.
