data_PCOD9135652
_publ_section_title
;
Structure prediction by ZEFSAII (Michael W. Deem and Ramdas Pophale) SiO2 
 PCOD9135652
Probable space group: C C
;
_chemical_formula_sum "Si O2"
_cell_formula_units_Z 24
_cell_length_a 5.722639
_cell_length_b 18.386406
_cell_length_c 11.060591
_cell_angle_alpha 90.000000
_cell_angle_beta 122.480855
_cell_angle_gamma 90.000000
_cell_volume 981.732428
_symmetry_space_group_name_H-M "C C"
_symmetry_group_IT_number 9
_symmetry_cell_setting 'monoclinic'
loop_
_space_group_symop_operation_xyz
x,y,z
x,-y,1/2+z
1/2+x,1/2+y,z
1/2+x,1/2-y,1/2+z
loop_
_atom_site_type_symbol
_atom_site_label
_atom_site_fract_x
_atom_site_fract_y
_atom_site_fract_z
Si Si1 0.799990 0.550604 0.096260
Si Si2 0.671196 0.827243 0.180830
Si Si3 0.060250 0.810843 0.958505
Si Si4 0.888182 0.948552 0.060502
Si Si5 0.230606 0.457623 0.322392
Si Si6 0.523003 0.211284 0.178086
O O1 0.879509 0.633336 0.139016
O O2 0.085606 0.505500 0.177232
O O3 0.626216 0.507557 0.151719
O O4 0.566826 0.546799 0.926138
O O5 0.619256 0.874513 0.287543
O O6 0.880978 0.760991 0.241466
O O7 0.807049 0.891564 0.139126
O O8 0.388723 0.804222 0.037442
O O9 0.005868 0.892813 0.990190
O O10 0.850993 0.796527 0.791679
O O11 0.979873 0.754705 0.042322
O O12 0.664852 0.997125 0.926771
#
# Coordination Sequence:
#
# PCOD9135652 Si02
#       6
#     4   4   4   4   4   4
#     4  10  20  43  66  95 136 172 228 282 334 405
#     4  11  23  45  68  97 139 181 224 290 350 404
#     4  11  23  44  67  99 140 185 229 284 350 419
#     4   9  22  43  68  96 135 176 232 281 335 409
#     4  10  20  42  66  97 131 176 227 284 332 412
#     4  11  24  43  67 104 139 182 230 287 349 421
#
# _framework density 24.446580000000001
#
# number of rings (size 3 to 8) (size 9 to 14) (size 15 to 20)
#    1.000    0.667    3.333    1.000    0.000    4.000 
#    9.000    0.000    0.000    0.000    0.000    0.000 
#    0.000    0.000    0.000    0.000    0.000    0.000 
#
# Total GULP energy -66885.821831 kJ/mol
# GULP energy per Si atom -5573.818486 kJ/mol
# Density = 2.439094 g / cm^3
# Si number density = 24.446580 Si / 1000 Ang^3
#
#
#
# Elastic Constant Matrix: (Units=GPa)
#
#
# Indices 1 2 3 4 5 6 
#
# 1 33.3340 26.9369 20.9201 0.0000 14.6890 0.0000
# 2 26.9369 182.1530 51.7180 0.0000 21.1113 0.0000
# 3 20.9201 51.7180 179.8056 0.0000 35.7592 0.0000
# 4 0.0000 0.0000 0.0000 32.1656 0.0000 5.8883
# 5 14.6890 21.1113 35.7592 0.0000 33.9817 0.0000
# 6 0.0000 0.0000 0.0000 5.8883 0.0000 31.2904
#
#
#
# Elastic Compliance Matrix: (Units=1/GPa)
#
#
# Indices 1 2 3 4 5 6 
#
# 1 0.039893 -0.004084 -0.000685 0.000000 -0.013986 0.000000
# 2 -0.004084 0.006556 -0.001204 0.000000 -0.001041 0.000000
# 3 -0.000685 -0.001204 0.007310 0.000000 -0.006648 0.000000
# 4 0.000000 0.000000 0.000000 0.032198 0.000000 -0.006059
# 5 -0.013986 -0.001041 -0.006648 0.000000 0.043116 0.000000
# 6 0.000000 0.000000 0.000000 -0.006059 0.000000 0.033099
#
#
# Mechanical properties :
#
#
# Convention : Reuss Voigt Hill
#
# Bulk Modulus (GPa) = 23.91600 66.04916 44.98258
# Shear Modulus (GPa) = 26.58803 39.20205 32.89504
#
# Velocity S-wave (km/s) = 3.30145 4.00882 3.67221
# Velocity P-wave (km/s) = 4.93325 6.96447 6.03493
#
# Compressibility (1/GPa) = 0.04181301
#
# Stress axis : x y z
#
# Youngs Moduli (GPa) = 25.06728 152.52710 136.80611
#
# Poissons Ratio (x) = 0.62289 0.09376
# Poissons Ratio (y) = 0.10237 0.16465
# Poissons Ratio (z) = 0.01718 0.18357
#
# Static dielectric constant tensor:
#      x y z
#    x 2.190350 0.000000 -0.066710 
#    y 0.000000 1.960510 0.000000 
#    z -0.066710 0.000000 1.969360 
# 
# From -- ./inp_files/13140.got.cif
#   From: 2010.05.17/outbox.cif.g08.bks.cpg/sg9_7_cif.got.tgz:13140.got - 2010.06.03 20:04:27.
