data_PCOD9135549
_publ_section_title
;
Structure prediction by ZEFSAII (Michael W. Deem and Ramdas Pophale) SiO2 
 PCOD9135549
Probable space group: C C
;
_chemical_formula_sum "Si O2"
_cell_formula_units_Z 32
_cell_length_a 7.581168
_cell_length_b 26.908678
_cell_length_c 8.848976
_cell_angle_alpha 90.000000
_cell_angle_beta 51.970454
_cell_angle_gamma 90.000000
_cell_volume 1421.931182
_symmetry_space_group_name_H-M "C C"
_symmetry_group_IT_number 9
_symmetry_cell_setting 'monoclinic'
loop_
_space_group_symop_operation_xyz
x,y,z
x,-y,1/2+z
1/2+x,1/2+y,z
1/2+x,1/2-y,1/2+z
loop_
_atom_site_type_symbol
_atom_site_label
_atom_site_fract_x
_atom_site_fract_y
_atom_site_fract_z
Si Si1 0.364180 0.983216 0.520620
Si Si2 0.093959 0.128720 0.954034
Si Si3 0.617773 0.558512 0.437444
Si Si4 0.963066 0.567143 0.677293
Si Si5 0.131580 0.208374 0.343532
Si Si6 0.325586 0.380208 0.884530
Si Si7 0.997456 0.844595 0.183573
Si Si8 0.493536 0.181960 0.926519
O O1 0.173174 0.012938 0.522267
O O2 0.502015 0.026247 0.529683
O O3 0.505629 0.952877 0.323535
O O4 0.284391 0.949471 0.704748
O O5 0.197890 0.078412 0.832022
O O6 0.295190 0.154899 0.940156
O O7 0.025414 0.160192 0.846822
O O8 0.899068 0.115521 0.173694
O O9 0.400425 0.572544 0.449438
O O10 0.618715 0.607518 0.543337
O O11 0.066384 0.617902 0.557485
O O12 0.951154 0.168564 0.376348
O O13 0.103766 0.201493 0.537105
O O14 0.063218 0.263429 0.329990
O O15 0.371261 0.191952 0.151836
O O16 0.727740 0.847234 0.303850
#
# Coordination Sequence:
#
# PCOD9135549 Si02
#       8
#     4   4   4   4   4   4   4   4
#     4  10  22  40  68  91 138 180 225 288 335 407
#     4  11  23  44  69  98 139 178 228 282 339 410
#     4  10  20  41  64  93 132 177 223 279 337 397
#     4  11  22  43  64 101 133 177 229 284 342 402
#     4  10  22  44  69  97 134 177 224 284 340 412
#     4  10  23  41  66  96 133 177 222 276 353 401
#     4  11  23  44  68 104 135 183 224 282 345 401
#     4  11  23  45  70  98 138 177 227 281 345 410
#
# _framework density 22.504605999999999
#
# number of rings (size 3 to 8) (size 9 to 14) (size 15 to 20)
#    0.000    1.500    3.750    1.500    0.000    2.000 
#    6.750    2.500    0.000    0.000    0.000    0.000 
#    0.000    0.000    0.000    0.000    0.000    0.000 
#
# Total GULP energy -89080.631821 kJ/mol
# GULP energy per Si atom -5567.539489 kJ/mol
# Density = 2.245338 g / cm^3
# Si number density = 22.504606 Si / 1000 Ang^3
#
#
#
# Elastic Constant Matrix: (Units=GPa)
#
#
# Indices 1 2 3 4 5 6 
#
# 1 50.8635 19.3670 34.2488 0.0000 21.7279 0.0000
# 2 19.3670 83.2668 31.5130 0.0000 -5.3467 0.0000
# 3 34.2488 31.5130 167.2286 0.0000 17.7817 0.0000
# 4 0.0000 0.0000 0.0000 35.2029 0.0000 -4.1330
# 5 21.7279 -5.3467 17.7817 0.0000 33.1745 0.0000
# 6 0.0000 0.0000 0.0000 -4.1330 0.0000 20.3001
#
#
#
# Elastic Compliance Matrix: (Units=1/GPa)
#
#
# Indices 1 2 3 4 5 6 
#
# 1 0.034369 -0.008232 -0.003132 0.000000 -0.022158 0.000000
# 2 -0.008232 0.015321 -0.002160 0.000000 0.009018 0.000000
# 3 -0.003132 -0.002160 0.007261 0.000000 -0.002189 0.000000
# 4 0.000000 0.000000 0.000000 0.029102 0.000000 0.005925
# 5 -0.022158 0.009018 -0.002189 0.000000 0.047283 0.000000
# 6 0.000000 0.000000 0.000000 0.005925 0.000000 0.050467
#
#
# Mechanical properties :
#
#
# Convention : Reuss Voigt Hill
#
# Bulk Modulus (GPa) = 33.44007 52.40183 42.92095
# Shear Modulus (GPa) = 22.64309 32.15086 27.39697
#
# Velocity S-wave (km/s) = 3.17543 3.78383 3.49290
# Velocity P-wave (km/s) = 5.32315 6.51347 5.94816
#
# Compressibility (1/GPa) = 0.02990424
#
# Stress axis : x y z
#
# Youngs Moduli (GPa) = 29.09602 65.27086 137.72159
#
# Poissons Ratio (x) = 0.53728 0.43128
# Poissons Ratio (y) = 0.23950 0.29750
# Poissons Ratio (z) = 0.09112 0.14100
#
# Static dielectric constant tensor:
#      x y z
#    x 2.001690 0.000000 -0.016410 
#    y 0.000000 1.899140 0.000000 
#    z -0.016410 0.000000 1.889510 
# 
# From -- ./inp_files/6361.got.cif
#   From: 2010.05.17/outbox.cif.g08.bks.cpg/sg9_4_cif.got.tgz:6361.got - 2010.06.03 20:04:27.
