data_PCOD9135627
_publ_section_title
;
Structure prediction by ZEFSAII (Michael W. Deem and Ramdas Pophale) SiO2 
 PCOD9135627
Probable space group: C C
;
_chemical_formula_sum "Si O2"
_cell_formula_units_Z 28
_cell_length_a 5.227800
_cell_length_b 25.023926
_cell_length_c 10.263211
_cell_angle_alpha 90.000000
_cell_angle_beta 56.695191
_cell_angle_gamma 90.000000
_cell_volume 1122.121580
_symmetry_space_group_name_H-M "C C"
_symmetry_group_IT_number 9
_symmetry_cell_setting 'monoclinic'
loop_
_space_group_symop_operation_xyz
x,y,z
x,-y,1/2+z
1/2+x,1/2+y,z
1/2+x,1/2-y,1/2+z
loop_
_atom_site_type_symbol
_atom_site_label
_atom_site_fract_x
_atom_site_fract_y
_atom_site_fract_z
Si Si1 0.333100 0.794278 0.433670
Si Si2 0.276415 0.380540 0.979882
Si Si3 0.667738 0.352408 0.243307
Si Si4 0.797779 0.193975 0.262366
Si Si5 0.915201 0.956950 0.370668
Si Si6 0.145575 0.517754 0.673313
Si Si7 0.607855 0.715818 0.527566
O O1 0.342521 0.842810 0.330602
O O2 0.402921 0.743254 0.323969
O O3 0.513638 0.775620 0.511549
O O4 0.983150 0.798239 0.579406
O O5 0.384812 0.363063 0.805800
O O6 0.331000 0.434242 0.045065
O O7 0.378301 0.328702 0.033516
O O8 0.907985 0.380099 0.079161
O O9 0.400278 0.393690 0.343509
O O10 0.594952 0.298439 0.185158
O O11 0.434065 0.200182 0.374386
O O12 0.278653 0.971478 0.281479
O O13 0.731152 0.969341 0.553687
O O14 0.771512 0.986312 0.284904
#
# Coordination Sequence:
#
# PCOD9135627 Si02
#       7
#     4   4   4   4   4   4   4
#     4  11  23  39  60  91 127 169 226 272 331 410
#     4   9  20  39  64  89 128 176 220 270 346 405
#     4  10  22  41  65  95 132 179 229 272 348 408
#     4  10  22  37  60  95 121 174 219 282 331 404
#     4  11  24  45  74 106 143 190 231 302 353 434
#     4  11  23  45  73 106 142 185 239 289 365 422
#     4  10  20  42  64  84 131 177 214 275 344 395
#
# _framework density 24.952735000000001
#
# number of rings (size 3 to 8) (size 9 to 14) (size 15 to 20)
#    0.000    1.714    1.429    3.429    0.000    8.000 
#    2.571    1.429    0.000    0.000    0.000    0.000 
#    0.000    0.000    0.000    0.000    0.000    0.000 
#
# Total GULP energy -78066.206953 kJ/mol
# GULP energy per Si atom -5576.157639 kJ/mol
# Density = 2.489594 g / cm^3
# Si number density = 24.952735 Si / 1000 Ang^3
#
#
#
# Elastic Constant Matrix: (Units=GPa)
#
#
# Indices 1 2 3 4 5 6 
#
# 1 112.7520 -3.7423 34.2804 0.0000 17.6001 0.0000
# 2 -3.7423 15.1146 6.1510 0.0000 5.0857 0.0000
# 3 34.2804 6.1510 101.4567 0.0000 -6.9657 0.0000
# 4 0.0000 0.0000 0.0000 27.7845 0.0000 2.0751
# 5 17.6001 5.0857 -6.9657 0.0000 36.1482 0.0000
# 6 0.0000 0.0000 0.0000 2.0751 0.0000 22.5486
#
#
#
# Elastic Compliance Matrix: (Units=1/GPa)
#
#
# Indices 1 2 3 4 5 6 
#
# 1 0.011862 0.007601 -0.005005 0.000000 -0.007809 0.000000
# 2 0.007601 0.076860 -0.008335 0.000000 -0.016121 0.000000
# 3 -0.005005 -0.008335 0.012466 0.000000 0.006012 0.000000
# 4 0.000000 0.000000 0.000000 0.036240 0.000000 -0.003335
# 5 -0.007809 -0.016121 0.006012 0.000000 0.034893 0.000000
# 6 0.000000 0.000000 0.000000 -0.003335 0.000000 0.044656
#
#
# Mechanical properties :
#
#
# Convention : Reuss Voigt Hill
#
# Bulk Modulus (GPa) = 11.14700 33.63350 22.39025
# Shear Modulus (GPa) = 19.35315 30.13855 24.74585
#
# Velocity S-wave (km/s) = 2.78797 3.47915 3.15256
# Velocity P-wave (km/s) = 3.85235 5.44495 4.71636
#
# Compressibility (1/GPa) = 0.08971027
#
# Stress axis : x y z
#
# Youngs Moduli (GPa) = 84.30281 13.01074 80.22101
#
# Poissons Ratio (x) = -0.09890 0.40150
# Poissons Ratio (y) = -0.64082 0.66863
# Poissons Ratio (z) = 0.42193 0.10844
#
# Static dielectric constant tensor:
#      x y z
#    x 2.089920 0.000000 0.049740 
#    y 0.000000 2.056270 0.000000 
#    z 0.049740 0.000000 1.944910 
# 
# From -- ./inp_files/4123.got.cif
#   From: 2010.05.17/outbox.cif.g08.bks.cpg/sg9_3_cif.got.tgz:4123.got - 2010.06.03 20:04:27.
