data_PCOD9135464
_publ_section_title
;
Structure prediction by ZEFSAII (Michael W. Deem and Ramdas Pophale) SiO2 
 PCOD9135464
Probable space group: C C
;
_chemical_formula_sum "Si O2"
_cell_formula_units_Z 28
_cell_length_a 11.493051
_cell_length_b 9.041136
_cell_length_c 14.544478
_cell_angle_alpha 90.000000
_cell_angle_beta 62.257069
_cell_angle_gamma 90.000000
_cell_volume 1337.586466
_symmetry_space_group_name_H-M "C C"
_symmetry_group_IT_number 9
_symmetry_cell_setting 'monoclinic'
loop_
_space_group_symop_operation_xyz
x,y,z
x,-y,1/2+z
1/2+x,1/2+y,z
1/2+x,1/2-y,1/2+z
loop_
_atom_site_type_symbol
_atom_site_label
_atom_site_fract_x
_atom_site_fract_y
_atom_site_fract_z
Si Si1 0.122710 0.397343 0.580830
Si Si2 0.511139 0.678284 0.490116
Si Si3 0.663912 0.416429 0.366445
Si Si4 0.836601 0.950030 0.635051
Si Si5 0.841197 0.561442 0.971249
Si Si6 0.073735 0.628823 0.302659
Si Si7 0.384262 0.110881 0.633301
O O1 0.118626 0.280865 0.500600
O O2 0.264522 0.451925 0.561471
O O3 0.067639 0.327960 0.697058
O O4 0.023515 0.529327 0.591907
O O5 0.576225 0.563279 0.396476
O O6 0.438884 0.580937 0.594757
O O7 0.405723 0.787756 0.484044
O O8 0.585885 0.271136 0.362717
O O9 0.789000 0.425029 0.253190
O O10 0.720159 0.408130 0.449007
O O11 0.714629 0.957619 0.751197
O O12 0.896776 0.787337 0.623952
O O13 0.954959 0.474852 0.873872
O O14 0.814908 0.456341 0.068291
#
# Coordination Sequence:
#
# PCOD9135464 Si02
#       7
#     4   4   4   4   4   4   4
#     4   9  20  41  61  85 121 158 201 252 297 354
#     4  11  24  37  62  95 117 159 212 238 310 361
#     4  11  22  41  60  93 123 161 203 252 300 367
#     4   9  20  39  60  87 118 156 201 250 297 356
#     4  11  23  40  62  91 123 161 202 255 301 362
#     4   9  21  42  61  86 125 159 202 249 309 348
#     4  10  20  40  66  85 123 164 201 248 310 354
#
# _framework density 20.933226000000001
#
# number of rings (size 3 to 8) (size 9 to 14) (size 15 to 20)
#    0.857    1.143    1.429    1.714    0.000    5.714 
#    5.143    1.429    0.000    0.000    0.000    0.000 
#    0.000    0.000    0.000    0.000    0.000    0.000 
#
# Total GULP energy -78117.079054 kJ/mol
# GULP energy per Si atom -5579.791361 kJ/mol
# Density = 2.088558 g / cm^3
# Si number density = 20.933226 Si / 1000 Ang^3
#
#
#
# Elastic Constant Matrix: (Units=GPa)
#
#
# Indices 1 2 3 4 5 6 
#
# 1 46.2153 20.1889 -0.8301 0.0000 9.0584 0.0000
# 2 20.1889 81.9070 7.8631 0.0000 -4.1108 0.0000
# 3 -0.8301 7.8631 42.0348 0.0000 5.2418 0.0000
# 4 0.0000 0.0000 0.0000 15.5123 0.0000 -4.7767
# 5 9.0584 -4.1108 5.2418 0.0000 29.4808 0.0000
# 6 0.0000 0.0000 0.0000 -4.7767 0.0000 24.7282
#
#
#
# Elastic Compliance Matrix: (Units=1/GPa)
#
#
# Indices 1 2 3 4 5 6 
#
# 1 0.026865 -0.007418 0.003146 0.000000 -0.009849 0.000000
# 2 -0.007418 0.014621 -0.003498 0.000000 0.004940 0.000000
# 3 0.003146 -0.003498 0.025247 0.000000 -0.005944 0.000000
# 4 0.000000 0.000000 0.000000 0.068542 0.000000 0.013240
# 5 -0.009849 0.004940 -0.005944 0.000000 0.038692 0.000000
# 6 0.000000 0.000000 0.000000 0.013240 0.000000 0.042997
#
#
# Mechanical properties :
#
#
# Convention : Reuss Voigt Hill
#
# Bulk Modulus (GPa) = 19.53318 24.95564 22.24441
# Shear Modulus (GPa) = 20.03453 23.47328 21.75390
#
# Velocity S-wave (km/s) = 3.09701 3.35228 3.22717
# Velocity P-wave (km/s) = 4.70532 5.18952 4.95334
#
# Compressibility (1/GPa) = 0.05119495
#
# Stress axis : x y z
#
# Youngs Moduli (GPa) = 37.22265 68.39405 39.60804
#
# Poissons Ratio (x) = 0.50736 -0.12462
# Poissons Ratio (y) = 0.27613 0.13853
# Poissons Ratio (z) = -0.11712 0.23921
#
# Static dielectric constant tensor:
#      x y z
#    x 1.752760 0.000000 0.012730 
#    y 0.000000 1.724370 0.000000 
#    z 0.012730 0.000000 1.756850 
# 
# From -- ./inp_files/24129.got.cif
#   From: 2010.05.17/outbox.cif.g08.bks.cpg/sg9_13_cif.got.tgz:24129.got - 2010.06.03 20:04:27.
