data_PCOD9135561
_publ_section_title
;
Structure prediction by ZEFSAII (Michael W. Deem and Ramdas Pophale) SiO2 
 PCOD9135561
Probable space group: C C
;
_chemical_formula_sum "Si O2"
_cell_formula_units_Z 32
_cell_length_a 20.656001
_cell_length_b 11.383811
_cell_length_c 8.309954
_cell_angle_alpha 90.000000
_cell_angle_beta 47.999985
_cell_angle_gamma 90.000000
_cell_volume 1452.131339
_symmetry_space_group_name_H-M "C C"
_symmetry_group_IT_number 9
_symmetry_cell_setting 'monoclinic'
loop_
_space_group_symop_operation_xyz
x,y,z
x,-y,1/2+z
1/2+x,1/2+y,z
1/2+x,1/2-y,1/2+z
loop_
_atom_site_type_symbol
_atom_site_label
_atom_site_fract_x
_atom_site_fract_y
_atom_site_fract_z
Si Si1 0.788480 0.244523 0.157380
Si Si2 0.968797 0.358066 0.854705
Si Si3 0.429558 0.897326 0.543829
Si Si4 0.870489 0.823731 0.986088
Si Si5 0.391365 0.554597 0.792455
Si Si6 0.206575 0.211023 0.114128
Si Si7 0.239374 0.058350 0.479198
Si Si8 0.574693 0.663793 0.582054
O O1 0.722015 0.231425 0.414571
O O2 0.751313 0.342276 0.096129
O O3 0.879573 0.301287 0.070501
O O4 0.818775 0.126489 0.015793
O O5 0.953965 0.362873 0.685431
O O6 0.048817 0.270391 0.742661
O O7 0.979816 0.488233 0.901815
O O8 0.431411 0.788936 0.416915
O O9 0.327581 0.933026 0.728788
O O10 0.879363 0.900885 0.131892
O O11 0.773607 0.774893 0.122066
O O12 0.887414 0.914937 0.815572
O O13 0.486237 0.593699 0.697454
O O14 0.112514 0.213260 0.351304
O O15 0.231875 0.074205 0.053173
O O16 0.151688 0.087118 0.528600
#
# Coordination Sequence:
#
# PCOD9135561 Si02
#       8
#     4   4   4   4   4   4   4   4
#     4  10  20  41  65  98 130 180 239 273 346 422
#     4  10  22  41  68  99 141 174 229 291 344 407
#     4  11  20  42  69  99 133 186 242 276 335 422
#     4  12  23  45  69  98 138 189 243 281 342 430
#     4  11  25  44  67 100 142 188 230 293 350 420
#     4  12  23  40  71 101 134 185 233 284 348 410
#     4  11  21  40  72 103 137 179 235 296 337 414
#     4  11  24  43  63 104 149 171 225 302 358 399
#
# _framework density 22.036573000000001
#
# number of rings (size 3 to 8) (size 9 to 14) (size 15 to 20)
#    0.000    1.000    6.250    3.000    1.750    0.000 
#    0.000    5.000    0.000    0.000    0.000    0.000 
#    0.000    0.000    0.000    0.000    0.000    0.000 
#
# Total GULP energy -89457.556340 kJ/mol
# GULP energy per Si atom -5591.097271 kJ/mol
# Density = 2.198642 g / cm^3
# Si number density = 22.036573 Si / 1000 Ang^3
#
#
#
# Elastic Constant Matrix: (Units=GPa)
#
#
# Indices 1 2 3 4 5 6 
#
# 1 69.3795 20.6146 16.2144 0.0000 -5.8042 0.0000
# 2 20.6146 111.2258 22.6455 0.0000 -11.0157 0.0000
# 3 16.2144 22.6455 72.5046 0.0000 -11.7222 0.0000
# 4 0.0000 0.0000 0.0000 36.3074 0.0000 7.2688
# 5 -5.8042 -11.0157 -11.7222 0.0000 20.6809 0.0000
# 6 0.0000 0.0000 0.0000 7.2688 0.0000 33.7734
#
#
#
# Elastic Compliance Matrix: (Units=1/GPa)
#
#
# Indices 1 2 3 4 5 6 
#
# 1 0.015824 -0.002235 -0.002549 0.000000 0.001806 0.000000
# 2 -0.002235 0.010190 -0.002099 0.000000 0.003611 0.000000
# 3 -0.002549 -0.002099 0.016207 0.000000 0.007353 0.000000
# 4 0.000000 0.000000 0.000000 0.028783 0.000000 -0.006195
# 5 0.001806 0.003611 0.007353 0.000000 0.054951 0.000000
# 6 0.000000 0.000000 0.000000 -0.006195 0.000000 0.030942
#
#
# Mechanical properties :
#
#
# Convention : Reuss Voigt Hill
#
# Bulk Modulus (GPa) = 35.14321 41.33988 38.24154
# Shear Modulus (GPa) = 27.75491 31.06138 29.40814
#
# Velocity S-wave (km/s) = 3.55278 3.75845 3.65707
# Velocity P-wave (km/s) = 5.72818 6.13474 5.93494
#
# Compressibility (1/GPa) = 0.02845500
#
# Stress axis : x y z
#
# Youngs Moduli (GPa) = 63.19382 98.13620 61.70337
#
# Poissons Ratio (x) = 0.21934 0.15727
# Poissons Ratio (y) = 0.14124 0.12952
# Poissons Ratio (z) = 0.16107 0.20599
#
# Static dielectric constant tensor:
#      x y z
#    x 1.802980 0.000000 0.056790 
#    y 0.000000 1.823670 0.000000 
#    z 0.056790 0.000000 1.823850 
# 
# From -- ./inp_files/11563.got.cif
#   From: 2010.05.17/outbox.cif.g08.bks.cpg/sg9_6_cif.got.tgz:11563.got - 2010.06.03 20:04:27.
