data_PCOD9135470
_publ_section_title
;
Structure prediction by ZEFSAII (Michael W. Deem and Ramdas Pophale) SiO2 
 PCOD9135470
Probable space group: C C
;
_chemical_formula_sum "Si O2"
_cell_formula_units_Z 32
_cell_length_a 17.644290
_cell_length_b 11.620881
_cell_length_c 14.377009
_cell_angle_alpha 90.000000
_cell_angle_beta 148.555164
_cell_angle_gamma 90.000000
_cell_volume 1537.849422
_symmetry_space_group_name_H-M "C C"
_symmetry_group_IT_number 9
_symmetry_cell_setting 'monoclinic'
loop_
_space_group_symop_operation_xyz
x,y,z
x,-y,1/2+z
1/2+x,1/2+y,z
1/2+x,1/2-y,1/2+z
loop_
_atom_site_type_symbol
_atom_site_label
_atom_site_fract_x
_atom_site_fract_y
_atom_site_fract_z
Si Si1 0.051560 0.042381 0.694800
Si Si2 0.004385 0.492119 0.760730
Si Si3 0.315623 0.306022 0.881962
Si Si4 0.208791 0.326257 0.575823
Si Si5 0.666350 0.760078 0.922048
Si Si6 0.762332 0.433173 0.638590
Si Si7 0.364202 0.038620 0.927215
Si Si8 0.529871 0.397303 0.847600
O O1 0.075644 0.154004 0.785688
O O2 0.202984 0.022239 0.801846
O O3 0.929933 0.090089 0.498305
O O4 0.009221 0.940060 0.719701
O O5 0.069647 0.366597 0.849391
O O6 0.845160 0.492895 0.639035
O O7 0.980915 0.501326 0.625614
O O8 0.108043 0.582746 0.917737
O O9 0.200586 0.328324 0.679605
O O10 0.256882 0.300210 0.926152
O O11 0.377236 0.177079 0.927061
O O12 0.376392 0.352097 0.725458
O O13 0.147993 0.203455 0.480454
O O14 0.748608 0.699853 0.094095
O O15 0.859086 0.465774 0.828155
O O16 0.605545 0.495557 0.481024
#
# Coordination Sequence:
#
# PCOD9135470 Si02
#       8
#     4   4   4   4   4   4   4   4
#     4  10  20  40  66  94 129 176 221 272 330 387
#     4  12  24  42  64 103 133 178 222 277 336 395
#     4  11  21  39  67 102 125 171 229 273 323 395
#     4  12  27  38  68  99 136 170 225 282 333 398
#     4  10  21  39  66  97 134 170 216 274 326 398
#     4  11  22  43  70  96 136 173 224 280 337 397
#     4  11  22  38  70  96 129 176 221 274 332 395
#     4  11  23  43  61  97 136 172 218 282 339 387
#
# _framework density 20.808278000000001
#
# number of rings (size 3 to 8) (size 9 to 14) (size 15 to 20)
#    0.000    1.000    6.250    2.250    3.500    1.000 
#    0.000    2.500    0.000    0.000    0.000    0.000 
#    0.000    0.000    0.000    0.000    0.000    0.000 
#
# Total GULP energy -89324.903287 kJ/mol
# GULP energy per Si atom -5582.806455 kJ/mol
# Density = 2.076092 g / cm^3
# Si number density = 20.808278 Si / 1000 Ang^3
#
#
#
# Elastic Constant Matrix: (Units=GPa)
#
#
# Indices 1 2 3 4 5 6 
#
# 1 64.2355 25.7875 34.6078 0.0000 -3.7640 0.0000
# 2 25.7875 43.2628 27.2334 0.0000 -5.3883 0.0000
# 3 34.6078 27.2334 100.9699 0.0000 -18.6668 0.0000
# 4 0.0000 0.0000 0.0000 48.1488 0.0000 -3.9574
# 5 -3.7640 -5.3883 -18.6668 0.0000 45.6457 0.0000
# 6 0.0000 0.0000 0.0000 -3.9574 0.0000 24.5507
#
#
#
# Elastic Compliance Matrix: (Units=1/GPa)
#
#
# Indices 1 2 3 4 5 6 
#
# 1 0.022396 -0.010274 -0.005180 0.000000 -0.001484 0.000000
# 2 -0.010274 0.032557 -0.005091 0.000000 0.000914 0.000000
# 3 -0.005180 -0.005091 0.013914 0.000000 0.004662 0.000000
# 4 0.000000 0.000000 0.000000 0.021048 0.000000 0.003393
# 5 -0.001484 0.000914 0.004662 0.000000 0.023800 0.000000
# 6 0.000000 0.000000 0.000000 0.003393 0.000000 0.041279
#
#
# Mechanical properties :
#
#
# Convention : Reuss Voigt Hill
#
# Bulk Modulus (GPa) = 35.99896 42.63618 39.31757
# Shear Modulus (GPa) = 24.34972 31.72500 28.03736
#
# Velocity S-wave (km/s) = 3.42452 3.90889 3.67470
# Velocity P-wave (km/s) = 5.74233 6.39586 6.07789
#
# Compressibility (1/GPa) = 0.02777858
#
# Stress axis : x y z
#
# Youngs Moduli (GPa) = 44.65136 30.71560 71.86862
#
# Poissons Ratio (x) = 0.31556 0.37225
# Poissons Ratio (y) = 0.45873 0.36587
# Poissons Ratio (z) = 0.23128 0.15637
#
# Static dielectric constant tensor:
#      x y z
#    x 1.804210 0.000000 0.003940 
#    y 0.000000 1.733430 0.000000 
#    z 0.003940 0.000000 1.821120 
# 
# From -- ./inp_files/12736.got.cif
#   From: 2010.05.17/outbox.cif.g08.bks.cpg/sg9_7_cif.got.tgz:12736.got - 2010.06.03 20:04:27.
