data_PCOD9135255
_publ_section_title
;
Structure prediction by ZEFSAII (Michael W. Deem and Ramdas Pophale) SiO2 
 PCOD9135255
Probable space group: C C
;
_chemical_formula_sum "Si O2"
_cell_formula_units_Z 32
_cell_length_a 11.455042
_cell_length_b 18.014976
_cell_length_c 11.454866
_cell_angle_alpha 90.000000
_cell_angle_beta 37.867420
_cell_angle_gamma 90.000000
_cell_volume 1451.018765
_symmetry_space_group_name_H-M "C C"
_symmetry_group_IT_number 9
_symmetry_cell_setting 'monoclinic'
loop_
_space_group_symop_operation_xyz
x,y,z
x,-y,1/2+z
1/2+x,1/2+y,z
1/2+x,1/2-y,1/2+z
loop_
_atom_site_type_symbol
_atom_site_label
_atom_site_fract_x
_atom_site_fract_y
_atom_site_fract_z
Si Si1 0.452570 0.243658 0.605320
Si Si2 0.815830 0.852913 0.881643
Si Si3 0.753261 0.401750 0.184561
Si Si4 0.702695 0.650626 0.461127
Si Si5 0.141101 0.467434 0.870691
Si Si6 0.344966 0.374097 0.527094
Si Si7 0.599151 0.817194 0.527919
Si Si8 0.304907 0.622399 0.662832
O O1 0.642940 0.195907 0.465406
O O2 0.476496 0.305209 0.689803
O O3 0.304200 0.174500 0.713607
O O4 0.401840 0.293416 0.532724
O O5 0.778006 0.936063 0.864606
O O6 0.817735 0.855442 0.018001
O O7 0.536538 0.422077 0.384625
O O8 0.751167 0.386235 0.046964
O O9 0.920859 0.459561 0.080034
O O10 0.629271 0.733764 0.547365
O O11 0.519735 0.616460 0.541538
O O12 0.890226 0.656157 0.231243
O O13 0.183299 0.408137 0.735468
O O14 0.198702 0.545619 0.773763
O O15 0.256353 0.366789 0.470187
O O16 0.668992 0.819715 0.339521
#
# Coordination Sequence:
#
# PCOD9135255 Si02
#       8
#     4   4   4   4   4   4   4   4
#     4  10  20  38  66 106 132 167 226 284 338 391
#     4  10  24  41  67  95 139 177 224 277 338 409
#     4  11  20  39  71 104 129 170 226 289 335 390
#     4  12  24  40  69 106 132 173 224 287 349 395
#     4  10  26  44  65  97 132 183 227 277 333 410
#     4  11  20  39  72  99 136 161 227 291 336 395
#     4  12  24  40  69 104 133 169 226 289 345 402
#     4  12  28  45  65  93 149 184 220 274 346 428
#
# _framework density 22.053470000000001
#
# number of rings (size 3 to 8) (size 9 to 14) (size 15 to 20)
#    0.000    1.000    6.250    0.000    3.500    1.000 
#    0.000    1.250    0.000    0.000    0.000    0.000 
#    0.000    0.000    0.000    0.000    0.000    0.000 
#
# Total GULP energy -89258.673096 kJ/mol
# GULP energy per Si atom -5578.667069 kJ/mol
# Density = 2.200327 g / cm^3
# Si number density = 22.053470 Si / 1000 Ang^3
#
#
#
# Elastic Constant Matrix: (Units=GPa)
#
#
# Indices 1 2 3 4 5 6 
#
# 1 51.8034 17.2731 31.0480 0.0112 14.1020 -0.0047
# 2 17.2731 46.9501 4.5958 -0.0007 -10.6781 0.0004
# 3 31.0480 4.5958 95.6959 -0.0061 -3.9180 -0.0010
# 4 0.0112 -0.0007 -0.0061 24.0792 0.0042 -2.7374
# 5 14.1020 -10.6781 -3.9180 0.0042 50.3543 0.0003
# 6 -0.0047 0.0004 -0.0010 -2.7374 0.0003 12.4247
#
#
#
# Elastic Compliance Matrix: (Units=1/GPa)
#
#
# Indices 1 2 3 4 5 6 
#
# 1 0.034578 -0.014747 -0.011070 -0.000016 -0.013672 0.000009
# 2 -0.014747 0.028743 0.003835 0.000006 0.010524 -0.000005
# 3 -0.011070 0.003835 0.014062 0.000008 0.005008 -0.000002
# 4 -0.000016 0.000006 0.000008 0.042596 0.000003 0.009385
# 5 -0.013672 0.010524 0.005008 0.000003 0.026310 -0.000005
# 6 0.000009 -0.000005 -0.000002 0.009385 -0.000005 0.082552
#
#
# Mechanical properties :
#
#
# Convention : Reuss Voigt Hill
#
# Bulk Modulus (GPa) = 29.92361 33.36479 31.64420
# Shear Modulus (GPa) = 17.60904 26.80714 22.20809
#
# Velocity S-wave (km/s) = 2.82879 3.49026 3.17679
# Velocity P-wave (km/s) = 4.92621 5.60397 5.27598
#
# Compressibility (1/GPa) = 0.03341843
#
# Stress axis : x y z
#
# Youngs Moduli (GPa) = 28.92032 34.79132 71.11234
#
# Poissons Ratio (x) = 0.51308 0.78722
# Poissons Ratio (y) = 0.42649 -0.27273
# Poissons Ratio (z) = 0.32015 -0.13343
#
# Static dielectric constant tensor:
#      x y z
#    x 1.797950 0.000000 -0.024650 
#    y 0.000000 1.884990 0.000000 
#    z -0.024650 0.000000 1.935220 
# 
# From -- ./inp_files/10961.got.cif
#   From: 2010.05.17/outbox.cif.g08.bks.cpg/sg9_6_cif.got.tgz:10961.got - 2010.06.03 20:04:27.
