data_PCOD9135658
_publ_section_title
;
Structure prediction by ZEFSAII (Michael W. Deem and Ramdas Pophale) SiO2 
 PCOD9135658
Probable space group: C C
;
_chemical_formula_sum "Si O2"
_cell_formula_units_Z 32
_cell_length_a 24.796197
_cell_length_b 11.778756
_cell_length_c 13.204130
_cell_angle_alpha 90.000000
_cell_angle_beta 19.674057
_cell_angle_gamma 90.000000
_cell_volume 1298.366614
_symmetry_space_group_name_H-M "C C"
_symmetry_group_IT_number 9
_symmetry_cell_setting 'monoclinic'
loop_
_space_group_symop_operation_xyz
x,y,z
x,-y,1/2+z
1/2+x,1/2+y,z
1/2+x,1/2-y,1/2+z
loop_
_atom_site_type_symbol
_atom_site_label
_atom_site_fract_x
_atom_site_fract_y
_atom_site_fract_z
Si Si1 0.822090 0.783479 0.269170
Si Si2 0.943947 0.309226 0.903192
Si Si3 0.854509 0.716296 0.002165
Si Si4 0.899726 0.052780 0.961237
Si Si5 0.166733 0.898651 0.155152
Si Si6 0.538644 0.987795 0.109772
Si Si7 0.560176 0.579402 0.487411
Si Si8 0.452563 0.195765 0.611298
O O1 0.633638 0.811740 0.595629
O O2 0.893693 0.791131 0.029741
O O3 0.811422 0.655293 0.334641
O O4 0.923516 0.861687 0.163502
O O5 0.943312 0.401286 0.815138
O O6 0.870023 0.324267 0.147574
O O7 0.876206 0.189273 0.984940
O O8 0.674669 0.671241 0.337914
O O9 0.977618 0.611832 0.791398
O O10 0.856369 0.745057 0.879145
O O11 0.728597 0.999778 0.285262
O O12 0.513134 0.073803 0.546029
O O13 0.029211 0.057833 0.820869
O O14 0.087430 0.792554 0.355796
O O15 0.176959 0.005639 0.210769
O O16 0.978984 0.006349 0.718993
#
# Coordination Sequence:
#
# PCOD9135658 Si02
#       8
#     4   4   4   4   4   4   4   4
#     4  10  22  43  65  99 140 175 232 288 337 420
#     4  10  20  42  67  92 139 175 223 288 338 411
#     4  10  23  44  58 101 135 166 240 275 333 427
#     4  10  21  42  65 100 135 178 227 280 343 408
#     4  10  22  41  69  96 137 177 233 283 341 421
#     4  10  22  39  66  96 128 179 223 278 342 402
#     4  12  23  42  73  96 135 193 218 287 361 389
#     4   8  21  41  57  92 137 165 220 285 329 408
#
# _framework density 24.646352
#
# number of rings (size 3 to 8) (size 9 to 14) (size 15 to 20)
#    0.750    1.500    2.500    2.250    0.000    7.000 
#    2.250    1.250    0.000    0.000    0.000    0.000 
#    0.000    0.000    0.000    0.000    0.000    0.000 
#
# Total GULP energy -89219.790010 kJ/mol
# GULP energy per Si atom -5576.236876 kJ/mol
# Density = 2.459026 g / cm^3
# Si number density = 24.646352 Si / 1000 Ang^3
#
#
#
# Elastic Constant Matrix: (Units=GPa)
#
#
# Indices 1 2 3 4 5 6 
#
# 1 117.0024 29.2752 27.6278 -0.0001 21.4114 0.0001
# 2 29.2752 67.0576 -2.9176 -0.0001 5.1577 0.0001
# 3 27.6278 -2.9176 67.9301 -0.0002 13.6107 0.0001
# 4 -0.0001 -0.0001 -0.0002 26.9213 0.0001 6.5574
# 5 21.4114 5.1577 13.6107 0.0001 38.6372 0.0000
# 6 0.0001 0.0001 0.0001 6.5574 0.0000 35.3838
#
#
#
# Elastic Compliance Matrix: (Units=1/GPa)
#
#
# Indices 1 2 3 4 5 6 
#
# 1 0.011503 -0.004865 -0.004024 0.000000 -0.004307 0.000000
# 2 -0.004865 0.017206 0.002838 0.000000 -0.000600 0.000000
# 3 -0.004024 0.002838 0.017332 0.000000 -0.004254 0.000000
# 4 0.000000 0.000000 0.000000 0.038901 0.000000 -0.007209
# 5 -0.004307 -0.000600 -0.004254 0.000000 0.029848 0.000000
# 6 0.000000 0.000000 0.000000 -0.007209 0.000000 0.029598
#
#
# Mechanical properties :
#
#
# Convention : Reuss Voigt Hill
#
# Bulk Modulus (GPa) = 29.46557 39.99567 34.73062
# Shear Modulus (GPa) = 29.79682 33.38879 31.59280
#
# Velocity S-wave (km/s) = 3.48080 3.68464 3.58417
# Velocity P-wave (km/s) = 5.30433 5.86218 5.59022
#
# Compressibility (1/GPa) = 0.03393791
#
# Stress axis : x y z
#
# Youngs Moduli (GPa) = 86.93615 58.11810 57.69675
#
# Poissons Ratio (x) = 0.28277 0.23218
# Poissons Ratio (y) = 0.42299 -0.16375
# Poissons Ratio (z) = 0.34985 -0.16495
#
# Static dielectric constant tensor:
#      x y z
#    x 2.032320 0.000000 0.022420 
#    y 0.000000 2.014950 0.000000 
#    z 0.022420 0.000000 1.980110 
# 
# From -- ./inp_files/28119.got.cif
#   From: 2010.05.17/outbox.cif.g08.bks.cpg/sg9_15_cif.got.tgz:28119.got - 2010.06.03 20:04:27.
