data_PCOD9135637
_publ_section_title
;
Structure prediction by ZEFSAII (Michael W. Deem and Ramdas Pophale) SiO2 
 PCOD9135637
Probable space group: C C
;
_chemical_formula_sum "Si O2"
_cell_formula_units_Z 24
_cell_length_a 14.575560
_cell_length_b 12.129605
_cell_length_c 5.451479
_cell_angle_alpha 90.000000
_cell_angle_beta 107.445809
_cell_angle_gamma 90.000000
_cell_volume 919.464681
_symmetry_space_group_name_H-M "C C"
_symmetry_group_IT_number 9
_symmetry_cell_setting 'monoclinic'
loop_
_space_group_symop_operation_xyz
x,y,z
x,-y,1/2+z
1/2+x,1/2+y,z
1/2+x,1/2-y,1/2+z
loop_
_atom_site_type_symbol
_atom_site_label
_atom_site_fract_x
_atom_site_fract_y
_atom_site_fract_z
Si Si1 0.330710 0.399080 0.242010
Si Si2 0.630944 0.967046 0.632548
Si Si3 0.162342 0.930256 0.558681
Si Si4 0.405987 0.365959 0.801878
Si Si5 0.048912 0.255917 0.724470
Si Si6 0.884843 0.428996 0.711070
O O1 0.229811 0.463652 0.184758
O O2 0.355738 0.333495 0.507431
O O3 0.407599 0.500609 0.289938
O O4 0.340885 0.342462 0.989471
O O5 0.630520 0.839145 0.696301
O O6 0.583017 0.977072 0.329921
O O7 0.273308 0.890612 0.634952
O O8 0.148631 0.990111 0.809262
O O9 0.091097 0.828716 0.453370
O O10 0.504011 0.308708 0.957209
O O11 0.964480 0.332692 0.766707
O O12 0.893956 0.506269 0.958685
#
# Coordination Sequence:
#
# PCOD9135637 Si02
#       6
#     4   4   4   4   4   4
#     4  10  20  42  65  92 131 174 212 276 334 384
#     4  12  24  44  69 102 139 174 226 287 336 401
#     4  10  26  48  69  97 142 182 224 279 344 407
#     4  10  22  38  64  96 131 168 216 273 338 387
#     4  12  28  42  74 106 134 178 237 279 340 405
#     4  10  24  50  69  95 141 186 221 278 344 410
#
# _framework density 26.102142000000001
#
# number of rings (size 3 to 8) (size 9 to 14) (size 15 to 20)
#    0.000    1.333    3.333    1.000    7.000    5.333 
#    0.000    3.333    0.000    0.000    0.000    0.000 
#    0.000    0.000    0.000    0.000    0.000    0.000 
#
# Total GULP energy -67128.607145 kJ/mol
# GULP energy per Si atom -5594.050595 kJ/mol
# Density = 2.604273 g / cm^3
# Si number density = 26.102142 Si / 1000 Ang^3
#
#
#
# Elastic Constant Matrix: (Units=GPa)
#
#
# Indices 1 2 3 4 5 6 
#
# 1 127.0794 70.8463 66.4966 0.0000 17.3727 0.0000
# 2 70.8463 89.4639 35.6703 0.0000 12.4214 0.0000
# 3 66.4966 35.6703 204.0565 0.0000 -18.0214 0.0000
# 4 0.0000 0.0000 0.0000 29.6295 0.0000 21.1388
# 5 17.3727 12.4214 -18.0214 0.0000 48.0362 0.0000
# 6 0.0000 0.0000 0.0000 21.1388 0.0000 57.0069
#
#
#
# Elastic Compliance Matrix: (Units=1/GPa)
#
#
# Indices 1 2 3 4 5 6 
#
# 1 0.016703 -0.011012 -0.003930 0.000000 -0.004668 0.000000
# 2 -0.011012 0.020079 -0.000029 0.000000 -0.001221 0.000000
# 3 -0.003930 -0.000029 0.006529 0.000000 0.003878 0.000000
# 4 0.000000 0.000000 0.000000 0.045890 0.000000 -0.017017
# 5 -0.004668 -0.001221 0.003878 0.000000 0.024276 0.000000
# 6 0.000000 0.000000 0.000000 -0.017017 0.000000 0.023852
#
#
# Mechanical properties :
#
#
# Convention : Reuss Voigt Hill
#
# Bulk Modulus (GPa) = 74.80478 85.18070 79.99274
# Shear Modulus (GPa) = 29.11572 43.44029 36.27801
#
# Velocity S-wave (km/s) = 3.34346 4.08394 3.73211
# Velocity P-wave (km/s) = 6.60498 7.41232 7.02026
#
# Compressibility (1/GPa) = 0.01336813
#
# Stress axis : x y z
#
# Youngs Moduli (GPa) = 59.86987 49.80306 153.16182
#
# Poissons Ratio (x) = 0.54842 0.60198
# Poissons Ratio (y) = 0.65928 0.00448
# Poissons Ratio (z) = 0.23531 0.00146
#
# Static dielectric constant tensor:
#      x y z
#    x 2.152770 0.000000 0.041850 
#    y 0.000000 2.066180 0.000000 
#    z 0.041850 0.000000 2.101870 
# 
# From -- ./inp_files/2335.got.cif
#   From: 2010.05.17/outbox.cif.g08.bks.cpg/sg9_2_cif.got.tgz:2335.got - 2010.06.03 20:04:27.
