data_PCOD9135198
_publ_section_title
;
Structure prediction by ZEFSAII (Michael W. Deem and Ramdas Pophale) SiO2 
 PCOD9135198
Probable space group: C C
;
_chemical_formula_sum "Si O2"
_cell_formula_units_Z 32
_cell_length_a 21.004383
_cell_length_b 7.890427
_cell_length_c 14.174580
_cell_angle_alpha 90.000000
_cell_angle_beta 142.457682
_cell_angle_gamma 90.000000
_cell_volume 1431.480616
_symmetry_space_group_name_H-M "C C"
_symmetry_group_IT_number 9
_symmetry_cell_setting 'monoclinic'
loop_
_space_group_symop_operation_xyz
x,y,z
x,-y,1/2+z
1/2+x,1/2+y,z
1/2+x,1/2-y,1/2+z
loop_
_atom_site_type_symbol
_atom_site_label
_atom_site_fract_x
_atom_site_fract_y
_atom_site_fract_z
Si Si1 0.838650 0.987881 0.636430
Si Si2 0.167980 0.954643 0.677737
Si Si3 0.432704 0.831947 0.789979
Si Si4 0.461380 0.329313 0.936597
Si Si5 0.658921 0.913430 0.071722
Si Si6 0.899058 0.483616 0.929456
Si Si7 0.288755 0.420394 0.882934
Si Si8 0.294599 0.045502 0.979418
O O1 0.921423 0.144889 0.734483
O O2 0.740819 0.054223 0.583890
O O3 0.805219 0.953346 0.490304
O O4 0.894184 0.842665 0.761871
O O5 0.160241 0.775713 0.617273
O O6 0.277140 0.031505 0.766934
O O7 0.196190 0.942670 0.823342
O O8 0.068839 0.072383 0.549445
O O9 0.334769 0.934488 0.631672
O O10 0.423798 0.825023 0.893122
O O11 0.540944 0.924790 0.895828
O O12 0.470598 0.136286 0.980218
O O13 0.391584 0.412244 0.938087
O O14 0.697195 0.029844 0.203635
O O15 0.892513 0.471291 0.033717
O O16 0.274561 0.238596 0.918005
#
# Coordination Sequence:
#
# PCOD9135198 Si02
#       8
#     4   4   4   4   4   4   4   4
#     4  10  20  40  57  90 122 153 203 242 297 362
#     4  10  20  40  58  89 118 159 194 250 299 348
#     4  11  20  37  59  88 112 159 195 248 296 348
#     4  10  20  38  61  85 123 157 199 247 306 352
#     4  11  22  36  66  85 122 157 202 245 300 353
#     4   9  21  37  57  84 120 154 192 256 289 355
#     4   9  21  39  59  87 118 160 190 252 292 359
#     4   8  20  39  55  84 117 149 199 236 297 347
#
# _framework density 22.354475999999998
#
# number of rings (size 3 to 8) (size 9 to 14) (size 15 to 20)
#    0.750    1.500    2.500    0.000    1.750    2.000 
#   13.500    0.000    2.750    0.000    0.000    0.000 
#    0.000    0.000    0.000    0.000    0.000    0.000 
#
# Total GULP energy -89107.039520 kJ/mol
# GULP energy per Si atom -5569.189970 kJ/mol
# Density = 2.230360 g / cm^3
# Si number density = 22.354476 Si / 1000 Ang^3
#
#
#
# Elastic Constant Matrix: (Units=GPa)
#
#
# Indices 1 2 3 4 5 6 
#
# 1 60.2759 4.8933 29.5224 0.0000 0.3178 0.0000
# 2 4.8933 38.3192 4.1589 0.0000 3.3189 0.0000
# 3 29.5224 4.1589 82.1253 0.0000 -0.9372 0.0000
# 4 0.0000 0.0000 0.0000 23.4631 0.0000 -1.4247
# 5 0.3178 3.3189 -0.9372 0.0000 48.1741 0.0000
# 6 0.0000 0.0000 0.0000 -1.4247 0.0000 24.8938
#
#
#
# Elastic Compliance Matrix: (Units=1/GPa)
#
#
# Indices 1 2 3 4 5 6 
#
# 1 0.020260 -0.001793 -0.007194 0.000000 -0.000150 0.000000
# 2 -0.001793 0.026563 -0.000721 0.000000 -0.001832 0.000000
# 3 -0.007194 -0.000721 0.014804 0.000000 0.000385 0.000000
# 4 0.000000 0.000000 0.000000 0.042769 0.000000 0.002448
# 5 -0.000150 -0.001832 0.000385 0.000000 0.020893 0.000000
# 6 0.000000 0.000000 0.000000 0.002448 0.000000 0.040311
#
#
# Mechanical properties :
#
#
# Convention : Reuss Voigt Hill
#
# Bulk Modulus (GPa) = 23.69175 28.65216 26.17196
# Shear Modulus (GPa) = 25.11477 28.78258 26.94868
#
# Velocity S-wave (km/s) = 3.35547 3.59214 3.47582
# Velocity P-wave (km/s) = 5.06295 5.48176 5.27651
#
# Compressibility (1/GPa) = 0.04220878
#
# Stress axis : x y z
#
# Youngs Moduli (GPa) = 49.35751 37.64697 67.55124
#
# Poissons Ratio (x) = 0.06752 0.48597
# Poissons Ratio (y) = 0.08852 0.04873
# Poissons Ratio (z) = 0.35508 0.02716
#
# Static dielectric constant tensor:
#      x y z
#    x 1.832890 0.000000 -0.018950 
#    y 0.000000 1.909870 0.000000 
#    z -0.018950 0.000000 1.867180 
# 
# From -- ./inp_files/26639.got.cif
#   From: 2010.05.17/outbox.cif.g08.bks.cpg/sg9_14_cif.got.tgz:26639.got - 2010.06.03 20:04:27.
