data_PCOD9135508
_publ_section_title
;
Structure prediction by ZEFSAII (Michael W. Deem and Ramdas Pophale) SiO2 
 PCOD9135508
Probable space group: C C
;
_chemical_formula_sum "Si O2"
_cell_formula_units_Z 24
_cell_length_a 6.719323
_cell_length_b 18.319521
_cell_length_c 8.285212
_cell_angle_alpha 90.000000
_cell_angle_beta 72.380152
_cell_angle_gamma 90.000000
_cell_volume 972.020192
_symmetry_space_group_name_H-M "C C"
_symmetry_group_IT_number 9
_symmetry_cell_setting 'monoclinic'
loop_
_space_group_symop_operation_xyz
x,y,z
x,-y,1/2+z
1/2+x,1/2+y,z
1/2+x,1/2-y,1/2+z
loop_
_atom_site_type_symbol
_atom_site_label
_atom_site_fract_x
_atom_site_fract_y
_atom_site_fract_z
Si Si1 0.050040 0.150232 0.133360
Si Si2 0.356535 0.946569 0.426025
Si Si3 0.897362 0.402091 0.069286
Si Si4 0.394687 0.469982 0.469022
Si Si5 0.728472 0.786260 0.952472
Si Si6 0.398272 0.387068 0.150700
O O1 0.930060 0.198133 0.293094
O O2 0.265842 0.103958 0.094078
O O3 0.126346 0.206626 0.977184
O O4 0.886738 0.087270 0.119140
O O5 0.447106 0.904512 0.249965
O O6 0.145154 0.975409 0.389036
O O7 0.449235 0.018680 0.481208
O O8 0.651402 0.384670 0.101960
O O9 0.039873 0.340321 0.956823
O O10 0.317713 0.424413 0.335461
O O11 0.342130 0.551888 0.528944
O O12 0.810573 0.810312 0.110621
#
# Coordination Sequence:
#
# PCOD9135508 Si02
#       6
#     4   4   4   4   4   4
#     4  10  23  42  63  95 134 171 208 276 320 379
#     4   8  19  39  65  90 129 162 206 263 318 368
#     4  10  21  41  67  94 126 168 213 264 316 382
#     4   8  18  38  67  90 129 165 205 268 316 367
#     4  12  25  42  67  92 133 173 216 263 330 381
#     4  10  20  40  69  95 125 169 216 264 318 383
#
# _framework density 24.690843999999998
#
# number of rings (size 3 to 8) (size 9 to 14) (size 15 to 20)
#    1.000    1.333    0.000    2.000    4.667    2.667 
#    3.000    0.000    0.000    0.000    0.000    0.000 
#    0.000    0.000    0.000    0.000    0.000    0.000 
#
# Total GULP energy -66840.854653 kJ/mol
# GULP energy per Si atom -5570.071221 kJ/mol
# Density = 2.463465 g / cm^3
# Si number density = 24.690844 Si / 1000 Ang^3
#
#
#
# Elastic Constant Matrix: (Units=GPa)
#
#
# Indices 1 2 3 4 5 6 
#
# 1 81.0889 8.4875 2.8047 0.0000 2.8859 0.0000
# 2 8.4875 87.5724 5.0234 0.0000 -26.5583 0.0000
# 3 2.8047 5.0234 65.0106 0.0000 -8.5913 0.0000
# 4 0.0000 0.0000 0.0000 38.1494 0.0000 -6.0834
# 5 2.8859 -26.5583 -8.5913 0.0000 28.1473 0.0000
# 6 0.0000 0.0000 0.0000 -6.0834 0.0000 34.6062
#
#
#
# Elastic Compliance Matrix: (Units=1/GPa)
#
#
# Indices 1 2 3 4 5 6 
#
# 1 0.012740 -0.002327 -0.000868 0.000000 -0.003767 0.000000
# 2 -0.002327 0.016461 0.000951 0.000000 0.016060 0.000000
# 3 -0.000868 0.000951 0.016127 0.000000 0.005909 0.000000
# 4 0.000000 0.000000 0.000000 0.026969 0.000000 0.004741
# 5 -0.003767 0.016060 0.005909 0.000000 0.052871 0.000000
# 6 0.000000 0.000000 0.000000 0.004741 0.000000 0.029730
#
#
# Mechanical properties :
#
#
# Convention : Reuss Voigt Hill
#
# Bulk Modulus (GPa) = 24.48620 29.58922 27.03771
# Shear Modulus (GPa) = 28.90199 34.67099 31.78649
#
# Velocity S-wave (km/s) = 3.42505 3.75134 3.59190
# Velocity P-wave (km/s) = 5.05766 5.54737 5.30816
#
# Compressibility (1/GPa) = 0.04083933
#
# Stress axis : x y z
#
# Youngs Moduli (GPa) = 78.49397 60.75023 62.00821
#
# Poissons Ratio (x) = 0.14139 0.05380
# Poissons Ratio (y) = 0.18269 -0.05896
# Poissons Ratio (z) = 0.06810 -0.05777
#
# Static dielectric constant tensor:
#      x y z
#    x 2.052300 0.000000 -0.022130 
#    y 0.000000 1.907970 0.000000 
#    z -0.022130 0.000000 2.049270 
# 
# From -- ./inp_files/5182.got.cif
#   From: 2010.05.17/outbox.cif.g08.bks.cpg/sg9_3_cif.got.tgz:5182.got - 2010.06.03 20:04:27.
