data_PCOD9135463
_publ_section_title
;
Structure prediction by ZEFSAII (Michael W. Deem and Ramdas Pophale) SiO2 
 PCOD9135463
Probable space group: C C
;
_chemical_formula_sum "Si O2"
_cell_formula_units_Z 32
_cell_length_a 10.322903
_cell_length_b 21.420898
_cell_length_c 7.695949
_cell_angle_alpha 90.000000
_cell_angle_beta 39.058227
_cell_angle_gamma 90.000000
_cell_volume 1072.304095
_symmetry_space_group_name_H-M "C C"
_symmetry_group_IT_number 9
_symmetry_cell_setting 'monoclinic'
loop_
_space_group_symop_operation_xyz
x,y,z
x,-y,1/2+z
1/2+x,1/2+y,z
1/2+x,1/2-y,1/2+z
loop_
_atom_site_type_symbol
_atom_site_label
_atom_site_fract_x
_atom_site_fract_y
_atom_site_fract_z
Si Si1 0.368140 0.686660 0.529450
Si Si2 0.682009 0.322967 0.466966
Si Si3 0.123967 0.052917 0.866998
Si Si4 0.092186 0.917334 0.015858
Si Si5 0.573928 0.101438 0.971588
Si Si6 0.602269 0.024626 0.287939
Si Si7 0.146512 0.742469 0.145382
Si Si8 0.645994 0.143471 0.426830
O O1 0.593742 0.714180 0.227578
O O2 0.463190 0.630473 0.542616
O O3 0.301088 0.674895 0.399052
O O4 0.149773 0.672897 0.859734
O O5 0.615174 0.395660 0.523492
O O6 0.648324 0.289157 0.314531
O O7 0.924770 0.336341 0.231273
O O8 0.053673 0.082352 0.760160
O O9 0.361914 0.036050 0.579633
O O10 0.042824 0.986152 0.001874
O O11 0.327939 0.897688 0.742019
O O12 0.639225 0.058613 0.067322
O O13 0.628555 0.050098 0.764655
O O14 0.695388 0.071462 0.335340
O O15 0.142822 0.675752 0.241484
O O16 0.901737 0.752287 0.319474
#
# Coordination Sequence:
#
# PCOD9135463 Si02
#       8
#     4   4   4   4   4   4   4   4
#     4  12  22  34  54  88 116 166 196 258 314 380
#     4  10  21  38  63  90 120 159 215 267 328 382
#     4   9  19  37  57  84 120 167 208 258 315 385
#     4  10  21  36  55  82 125 164 209 254 311 389
#     4  10  21  36  55  82 125 164 209 254 311 389
#     4   9  19  37  57  84 120 167 208 258 315 385
#     4  10  20  40  66 102 126 164 218 286 330 390
#     4  10  21  38  63  90 120 159 215 267 328 382
#
# _framework density 29.842279999999999
#
# number of rings (size 3 to 8) (size 9 to 14) (size 15 to 20)
#    0.000    2.000    1.250    2.250    0.000    9.000 
#    0.000    0.000    0.000    1.500    6.500    0.000 
#    0.000    0.000    0.000    0.000    0.000    0.000 
#
# Total GULP energy -89190.851119 kJ/mol
# GULP energy per Si atom -5574.428195 kJ/mol
# Density = 2.977436 g / cm^3
# Si number density = 29.842280 Si / 1000 Ang^3
#
#
#
# Elastic Constant Matrix: (Units=GPa)
#
#
# Indices 1 2 3 4 5 6 
#
# 1 41.1115 2.5182 -13.0351 0.0000 -20.1822 0.0000
# 2 2.5182 131.5054 30.0335 0.0000 1.5926 0.0000
# 3 -13.0351 30.0335 189.5234 0.0000 -8.9044 0.0000
# 4 0.0000 0.0000 0.0000 29.5092 0.0000 21.1801
# 5 -20.1822 1.5926 -8.9044 0.0000 54.9745 0.0000
# 6 0.0000 0.0000 0.0000 21.1801 0.0000 1.1934
#
#
#
# Elastic Compliance Matrix: (Units=1/GPa)
#
#
# Indices 1 2 3 4 5 6 
#
# 1 0.031221 -0.001413 0.002934 0.000000 0.011978 0.000000
# 2 -0.001413 0.007964 -0.001405 0.000000 -0.000977 0.000000
# 3 0.002934 -0.001405 0.005798 0.000000 0.002057 0.000000
# 4 0.000000 0.000000 0.000000 -0.002887 0.000000 0.051236
# 5 0.011978 -0.000977 0.002057 0.000000 0.022949 0.000000
# 6 0.000000 0.000000 0.000000 0.051236 0.000000 -0.071385
#
#
# Mechanical properties :
#
#
# Convention : Reuss Voigt Hill
#
# Bulk Modulus (GPa) = 22.11684 44.57482 33.34583
# Shear Modulus (GPa) = 588.29249 39.97699 314.13474
#
# Velocity S-wave (km/s) = 14.05567 3.66404 10.27100
# Velocity P-wave (km/s) = 16.45731 5.73319 12.32300
#
# Compressibility (1/GPa) = 0.04521442
#
# Stress axis : x y z
#
# Youngs Moduli (GPa) = 32.02964 125.56422 172.48810
#
# Poissons Ratio (x) = 0.17742 -0.50608
# Poissons Ratio (y) = 0.04526 0.24237
# Poissons Ratio (z) = -0.09398 0.17644
#
# Static dielectric constant tensor:
#      x y z
#    x 2.433910 0.000000 -0.176200 
#    y 0.000000 2.761950 0.000000 
#    z -0.176200 0.000000 2.685130 
# 
# From -- ./inp_files/8569.got.cif
#   From: 2010.05.17/outbox.cif.g08.bks.cpg/sg9_5_cif.got.tgz:8569.got - 2010.06.03 20:04:27.
