data_PCOD9135333
_publ_section_title
;
Structure prediction by ZEFSAII (Michael W. Deem and Ramdas Pophale) SiO2 
 PCOD9135333
Probable space group: C C
;
_chemical_formula_sum "Si O2"
_cell_formula_units_Z 32
_cell_length_a 11.145918
_cell_length_b 11.134619
_cell_length_c 13.593105
_cell_angle_alpha 90.000000
_cell_angle_beta 87.468977
_cell_angle_gamma 90.000000
_cell_volume 1685.334056
_symmetry_space_group_name_H-M "C C"
_symmetry_group_IT_number 9
_symmetry_cell_setting 'monoclinic'
loop_
_space_group_symop_operation_xyz
x,y,z
x,-y,1/2+z
1/2+x,1/2+y,z
1/2+x,1/2-y,1/2+z
loop_
_atom_site_type_symbol
_atom_site_label
_atom_site_fract_x
_atom_site_fract_y
_atom_site_fract_z
Si Si1 0.349130 0.479310 0.429350
Si Si2 0.387154 0.859727 0.096093
Si Si3 0.152603 0.586777 0.304408
Si Si4 0.045221 0.786586 0.441518
Si Si5 0.949566 0.603982 0.817287
Si Si6 0.187201 0.661141 0.085204
Si Si7 0.466598 0.719880 0.481337
Si Si8 0.776276 0.586551 0.990949
O O1 0.279931 0.539293 0.340271
O O2 0.435626 0.366545 0.403723
O O3 0.245367 0.432483 0.506663
O O4 0.429577 0.582203 0.477562
O O5 0.435306 0.887650 0.202216
O O6 0.292580 0.752531 0.108853
O O7 0.318220 0.973387 0.052367
O O8 0.489697 0.810050 0.019325
O O9 0.118970 0.712688 0.357174
O O10 0.148139 0.599447 0.187501
O O11 0.051360 0.491761 0.339039
O O12 0.138579 0.875913 0.491524
O O13 0.983703 0.728951 0.869513
O O14 0.827391 0.566013 0.878168
O O15 0.080707 0.737339 0.039059
O O16 0.353024 0.797808 0.523240
#
# Coordination Sequence:
#
# PCOD9135333 Si02
#       8
#     4   4   4   4   4   4   4   4
#     4  11  23  41  65  93 126 166 208 254 312 368
#     4  11  22  41  60  94 127 161 214 251 310 373
#     4  12  22  43  65  89 127 164 208 262 307 371
#     4  11  23  40  65  92 126 168 204 257 309 365
#     4  10  22  39  67  89 121 170 204 257 313 364
#     4  11  24  39  64  92 127 165 208 260 309 369
#     4  10  20  40  64  91 124 165 205 254 310 363
#     4  10  20  39  64  90 124 167 201 257 306 359
#
# _framework density 18.987333
#
# number of rings (size 3 to 8) (size 9 to 14) (size 15 to 20)
#    0.750    0.500    3.750    3.000    1.750    1.000 
#    0.000    7.500    0.000    0.000    0.000    0.000 
#    0.000    0.000    0.000    0.000    0.000    0.000 
#
# Total GULP energy -89248.724528 kJ/mol
# GULP energy per Si atom -5578.045283 kJ/mol
# Density = 1.894412 g / cm^3
# Si number density = 18.987333 Si / 1000 Ang^3
#
#
#
# Elastic Constant Matrix: (Units=GPa)
#
#
# Indices 1 2 3 4 5 6 
#
# 1 85.5191 20.3555 30.9211 0.0000 20.4188 0.0000
# 2 20.3555 74.7368 24.6252 0.0000 14.5462 0.0000
# 3 30.9211 24.6252 75.5402 0.0000 21.1094 0.0000
# 4 0.0000 0.0000 0.0000 1.8730 0.0000 10.4321
# 5 20.4188 14.5462 21.1094 0.0000 16.8336 0.0000
# 6 0.0000 0.0000 0.0000 10.4321 0.0000 35.9305
#
#
#
# Elastic Compliance Matrix: (Units=1/GPa)
#
#
# Indices 1 2 3 4 5 6 
#
# 1 0.016636 -0.000548 -0.001731 0.000000 -0.017536 0.000000
# 2 -0.000548 0.016322 -0.002064 0.000000 -0.010851 0.000000
# 3 -0.001731 -0.002064 0.020836 0.000000 -0.022245 0.000000
# 4 0.000000 0.000000 0.000000 -0.865184 0.000000 0.251199
# 5 -0.017536 -0.010851 -0.022245 0.000000 0.117947 0.000000
# 6 0.000000 0.000000 0.000000 0.251199 0.000000 -0.045102
#
#
# Mechanical properties :
#
#
# Convention : Reuss Voigt Hill
#
# Bulk Modulus (GPa) = 22.16918 43.06662 32.61790
# Shear Modulus (GPa) = -6.99473 21.58704 7.29615
#
# Velocity S-wave (km/s) = -1.92143 3.37548 1.96239
# Velocity P-wave (km/s) = 2.60357 6.15815 4.72765
#
# Compressibility (1/GPa) = 0.04510766
#
# Stress axis : x y z
#
# Youngs Moduli (GPa) = 60.10911 61.26877 47.99473
#
# Poissons Ratio (x) = 0.03356 0.08308
# Poissons Ratio (y) = 0.03293 0.09907
# Poissons Ratio (z) = 0.10405 0.12647
#
# Static dielectric constant tensor:
#      x y z
#    x 1.667720 0.000000 -0.005330 
#    y 0.000000 1.670110 0.000000 
#    z -0.005330 0.000000 1.644650 
# 
# From -- ./inp_files/16451.got.cif
#   From: 2010.05.17/outbox.cif.g08.bks.cpg/sg9_9_cif.got.tgz:16451.got - 2010.06.03 20:04:27.
