data_PCOD9135832
_publ_section_title
;
Structure prediction by ZEFSAII (Michael W. Deem and Ramdas Pophale) SiO2 
 PCOD9135832
Probable space group: C C
;
_chemical_formula_sum "Si O2"
_cell_formula_units_Z 28
_cell_length_a 23.116011
_cell_length_b 4.954435
_cell_length_c 10.532660
_cell_angle_alpha 90.000000
_cell_angle_beta 71.810873
_cell_angle_gamma 90.000000
_cell_volume 1145.995756
_symmetry_space_group_name_H-M "C C"
_symmetry_group_IT_number 9
_symmetry_cell_setting 'monoclinic'
loop_
_space_group_symop_operation_xyz
x,y,z
x,-y,1/2+z
1/2+x,1/2+y,z
1/2+x,1/2-y,1/2+z
loop_
_atom_site_type_symbol
_atom_site_label
_atom_site_fract_x
_atom_site_fract_y
_atom_site_fract_z
Si Si1 0.391950 0.253635 0.015300
Si Si2 0.326429 0.549524 0.259486
Si Si3 0.294019 0.027125 0.421018
Si Si4 0.084600 0.063077 0.041849
Si Si5 0.151174 0.451566 0.425270
Si Si6 0.449121 0.721701 0.086092
Si Si7 0.686619 0.253001 0.636682
O O1 0.332351 0.394581 0.122863
O O2 0.289652 0.825231 0.301481
O O3 0.435786 0.514775 0.977316
O O4 0.430295 0.028397 0.067742
O O5 0.357312 0.929121 0.438368
O O6 0.304104 0.331399 0.374054
O O7 0.398594 0.616398 0.220389
O O8 0.238304 0.953605 0.550056
O O9 0.121837 0.257115 0.919054
O O10 0.120390 0.117032 0.149252
O O11 0.016195 0.165443 0.088588
O O12 0.097445 0.759307 0.991927
O O13 0.185488 0.507238 0.534806
O O14 0.188934 0.343019 0.279973
#
# Coordination Sequence:
#
# PCOD9135832 Si02
#       7
#     4   4   4   4   4   4   4
#     4  10  22  40  62  94 136 170 225 275 348 399
#     4  10  23  41  62  99 131 178 223 279 346 405
#     4  12  24  40  68 100 133 184 228 285 346 423
#     4  10  24  44  70  99 141 181 237 288 358 413
#     4  10  25  46  68 109 136 185 238 280 370 408
#     4  10  20  47  63  95 139 174 231 287 342 423
#     4  10  28  44  75 102 146 182 240 290 360 417
#
# _framework density 24.4329
#
# number of rings (size 3 to 8) (size 9 to 14) (size 15 to 20)
#    1.714    0.000    1.429    1.714    6.000    0.000 
#    7.714    0.000    0.000    0.000    0.000    0.000 
#    0.000    0.000    0.000    0.000    0.000    0.000 
#
# Total GULP energy -78002.910191 kJ/mol
# GULP energy per Si atom -5571.636442 kJ/mol
# Density = 2.437729 g / cm^3
# Si number density = 24.432900 Si / 1000 Ang^3
#
#
#
# Elastic Constant Matrix: (Units=GPa)
#
#
# Indices 1 2 3 4 5 6 
#
# 1 77.4432 11.9756 18.7727 0.0000 -5.2618 0.0000
# 2 11.9756 103.8865 24.8687 0.0000 -4.1872 0.0000
# 3 18.7727 24.8687 61.0240 0.0000 4.4194 0.0000
# 4 0.0000 0.0000 0.0000 28.6517 0.0000 -6.3092
# 5 -5.2618 -4.1872 4.4194 0.0000 27.7340 0.0000
# 6 0.0000 0.0000 0.0000 -6.3092 0.0000 33.0604
#
#
#
# Elastic Compliance Matrix: (Units=1/GPa)
#
#
# Indices 1 2 3 4 5 6 
#
# 1 0.014290 -0.000445 -0.004458 0.000000 0.003354 0.000000
# 2 -0.000445 0.010831 -0.004441 0.000000 0.002258 0.000000
# 3 -0.004458 -0.004441 0.019907 0.000000 -0.004688 0.000000
# 4 0.000000 0.000000 0.000000 0.036433 0.000000 0.006953
# 5 0.003354 0.002258 -0.004688 0.000000 0.037781 0.000000
# 6 0.000000 0.000000 0.000000 0.006953 0.000000 0.031575
#
#
# Mechanical properties :
#
#
# Convention : Reuss Voigt Hill
#
# Bulk Modulus (GPa) = 37.96188 39.28752 38.62470
# Shear Modulus (GPa) = 28.04507 30.33836 29.19172
#
# Velocity S-wave (km/s) = 3.39166 3.52760 3.46030
# Velocity P-wave (km/s) = 5.55956 5.71897 5.63983
#
# Compressibility (1/GPa) = 0.02634222
#
# Stress axis : x y z
#
# Youngs Moduli (GPa) = 69.97932 92.32569 50.23247
#
# Poissons Ratio (x) = 0.04109 0.22391
# Poissons Ratio (y) = 0.03114 0.22306
# Poissons Ratio (z) = 0.31194 0.40998
#
# Static dielectric constant tensor:
#      x y z
#    x 2.015710 0.000000 0.101640 
#    y 0.000000 1.979260 0.000000 
#    z 0.101640 0.000000 2.073990 
# 
# From -- ./inp_files/21023.got.cif
#   From: 2010.05.17/outbox.cif.g08.bks.cpg/sg9_11_cif.got.tgz:21023.got - 2010.06.03 20:04:27.
