data_PCOD9135615
_publ_section_title
;
Structure prediction by ZEFSAII (Michael W. Deem and Ramdas Pophale) SiO2 
 PCOD9135615
Probable space group: C C
;
_chemical_formula_sum "Si O2"
_cell_formula_units_Z 32
_cell_length_a 11.512201
_cell_length_b 9.000006
_cell_length_c 21.094649
_cell_angle_alpha 90.000000
_cell_angle_beta 143.671016
_cell_angle_gamma 90.000000
_cell_volume 1294.803190
_symmetry_space_group_name_H-M "C C"
_symmetry_group_IT_number 9
_symmetry_cell_setting 'monoclinic'
loop_
_space_group_symop_operation_xyz
x,y,z
x,-y,1/2+z
1/2+x,1/2+y,z
1/2+x,1/2-y,1/2+z
loop_
_atom_site_type_symbol
_atom_site_label
_atom_site_fract_x
_atom_site_fract_y
_atom_site_fract_z
Si Si1 0.939170 0.275283 0.072450
Si Si2 0.919455 0.297653 0.586392
Si Si3 0.792997 0.798283 0.823211
Si Si4 0.305375 0.124153 0.217171
Si Si5 0.111165 0.450227 0.566332
Si Si6 0.475589 0.400891 0.215356
Si Si7 0.587839 0.909037 0.406062
Si Si8 0.653091 0.526827 0.527261
O O1 0.803094 0.349509 0.065970
O O2 0.128367 0.187537 0.181969
O O3 0.008834 0.404977 0.054395
O O4 0.795083 0.156692 0.975749
O O5 0.098704 0.371651 0.707127
O O6 0.002380 0.314980 0.553133
O O7 0.921451 0.135276 0.617830
O O8 0.718520 0.382931 0.513298
O O9 0.700716 0.650040 0.817290
O O10 0.929614 0.724139 0.830060
O O11 0.933847 0.914727 0.919385
O O12 0.378928 0.266994 0.211945
O O13 0.492333 0.048632 0.330250
O O14 0.207963 0.016443 0.122426
O O15 0.347315 0.461165 0.681113
O O16 0.092269 0.441648 0.483078
#
# Coordination Sequence:
#
# PCOD9135615 Si02
#       8
#     4   4   4   4   4   4   4   4
#     4   9  22  40  59  85 121 154 206 247 289 368
#     4   8  18  38  60  84 119 158 192 255 295 348
#     4   9  20  38  56  92 118 147 214 242 290 370
#     4  10  21  37  61  85 121 158 194 248 302 352
#     4  10  20  42  61  84 125 159 194 249 305 349
#     4   8  19  40  57  87 116 148 209 244 288 364
#     4  11  24  37  57  93 118 161 198 245 309 353
#     4   9  18  38  61  84 118 157 195 246 302 348
#
# _framework density 24.714182000000001
#
# number of rings (size 3 to 8) (size 9 to 14) (size 15 to 20)
#    0.750    2.000    0.000    0.000    3.500    3.000 
#    9.000    8.750    0.000    0.000    0.000    0.000 
#    0.000    0.000    0.000    0.000    0.000    0.000 
#
# Total GULP energy -89165.186177 kJ/mol
# GULP energy per Si atom -5572.824136 kJ/mol
# Density = 2.465793 g / cm^3
# Si number density = 24.714182 Si / 1000 Ang^3
#
#
#
# Elastic Constant Matrix: (Units=GPa)
#
#
# Indices 1 2 3 4 5 6 
#
# 1 83.8105 15.5341 24.1205 0.0000 14.8586 0.0000
# 2 15.5341 51.7404 9.6999 0.0000 1.2584 0.0000
# 3 24.1205 9.6999 54.8845 0.0000 15.2087 0.0000
# 4 0.0000 0.0000 0.0000 31.8798 0.0000 10.2856
# 5 14.8586 1.2584 15.2087 0.0000 47.0829 0.0000
# 6 0.0000 0.0000 0.0000 10.2856 0.0000 29.4705
#
#
#
# Elastic Compliance Matrix: (Units=1/GPa)
#
#
# Indices 1 2 3 4 5 6 
#
# 1 0.014496 -0.003348 -0.004982 0.000000 -0.002876 0.000000
# 2 -0.003348 0.020782 -0.002570 0.000000 0.001331 0.000000
# 3 -0.004982 -0.002570 0.022416 0.000000 -0.005600 0.000000
# 4 0.000000 0.000000 0.000000 0.035348 0.000000 -0.012337
# 5 -0.002876 0.001331 -0.005600 0.000000 0.023920 0.000000
# 6 0.000000 0.000000 0.000000 -0.012337 0.000000 0.038238
#
#
# Mechanical properties :
#
#
# Convention : Reuss Voigt Hill
#
# Bulk Modulus (GPa) = 27.86108 32.12715 29.99412
# Shear Modulus (GPa) = 26.45997 31.09204 28.77601
#
# Velocity S-wave (km/s) = 3.27561 3.55077 3.41596
# Velocity P-wave (km/s) = 5.06004 5.46245 5.26509
#
# Compressibility (1/GPa) = 0.03589236
#
# Stress axis : x y z
#
# Youngs Moduli (GPa) = 68.98489 48.11864 44.61196
#
# Poissons Ratio (x) = 0.16111 0.22225
# Poissons Ratio (y) = 0.23097 0.11467
# Poissons Ratio (z) = 0.34368 0.12368
#
# Static dielectric constant tensor:
#      x y z
#    x 2.035670 0.000000 0.019540 
#    y 0.000000 2.028420 0.000000 
#    z 0.019540 0.000000 1.996940 
# 
# From -- ./inp_files/33285.got.cif
#   From: 2010.05.17/outbox.cif.g08.bks.cpg/sg9_17_cif.got.tgz:33285.got - 2010.06.03 20:04:27.
