data_PCOD9135307
_publ_section_title
;
Structure prediction by ZEFSAII (Michael W. Deem and Ramdas Pophale) SiO2 
 PCOD9135307
Probable space group: C C
;
_chemical_formula_sum "Si O2"
_cell_formula_units_Z 32
_cell_length_a 19.860713
_cell_length_b 11.681797
_cell_length_c 11.090788
_cell_angle_alpha 90.000000
_cell_angle_beta 33.885724
_cell_angle_gamma 90.000000
_cell_volume 1434.635548
_symmetry_space_group_name_H-M "C C"
_symmetry_group_IT_number 9
_symmetry_cell_setting 'monoclinic'
loop_
_space_group_symop_operation_xyz
x,y,z
x,-y,1/2+z
1/2+x,1/2+y,z
1/2+x,1/2-y,1/2+z
loop_
_atom_site_type_symbol
_atom_site_label
_atom_site_fract_x
_atom_site_fract_y
_atom_site_fract_z
Si Si1 0.208820 0.596042 0.331740
Si Si2 0.065282 0.565263 0.188317
Si Si3 0.036544 0.558248 0.955478
Si Si4 0.678952 0.428736 0.914355
Si Si5 0.483258 0.553159 0.911255
Si Si6 0.772063 0.750829 0.432612
Si Si7 0.662961 0.660718 0.830595
Si Si8 0.513443 0.320238 0.972937
O O1 0.165826 0.533227 0.515910
O O2 0.142748 0.717631 0.422425
O O3 0.161977 0.509743 0.297299
O O4 0.350804 0.604814 0.105935
O O5 0.149126 0.677002 0.086311
O O6 0.997875 0.568127 0.157095
O O7 0.989186 0.523665 0.417228
O O8 0.041302 0.688487 0.903466
O O9 0.569213 0.420441 0.172113
O O10 0.781147 0.350754 0.820896
O O11 0.630815 0.370469 0.864874
O O12 0.708252 0.560572 0.849402
O O13 0.548203 0.606462 0.932670
O O14 0.479863 0.414824 0.923891
O O15 0.754982 0.694546 0.587459
O O16 0.894190 0.821189 0.235449
#
# Coordination Sequence:
#
# PCOD9135307 Si02
#       8
#     4   4   4   4   4   4   4   4
#     4  10  20  39  61  93 121 168 206 263 311 382
#     4  10  20  39  65  89 121 164 208 256 317 374
#     4  10  22  36  65  92 123 160 212 267 307 380
#     4  10  22  38  59  91 119 163 204 266 318 375
#     4  10  22  37  66  88 120 168 214 256 323 383
#     4  11  19  42  61  83 124 165 207 255 322 388
#     4  10  22  38  59  88 125 159 211 262 314 380
#     4  11  21  39  62  88 121 163 216 257 320 384
#
# _framework density 22.305318
#
# number of rings (size 3 to 8) (size 9 to 14) (size 15 to 20)
#    0.750    1.000    3.750    0.750    1.750    0.000 
#    4.500    0.000    0.000    0.000    0.000    0.000 
#    0.000    0.000    0.000    0.000    0.000    0.000 
#
# Total GULP energy -89127.034245 kJ/mol
# GULP energy per Si atom -5570.439640 kJ/mol
# Density = 2.225455 g / cm^3
# Si number density = 22.305318 Si / 1000 Ang^3
#
#
#
# Elastic Constant Matrix: (Units=GPa)
#
#
# Indices 1 2 3 4 5 6 
#
# 1 65.2695 36.3218 13.8979 0.0000 8.1935 0.0000
# 2 36.3218 166.3396 20.4873 0.0000 0.2105 0.0000
# 3 13.8979 20.4873 48.0438 0.0000 -4.1112 0.0000
# 4 0.0000 0.0000 0.0000 29.7016 0.0000 11.4515
# 5 8.1935 0.2105 -4.1112 0.0000 24.2567 0.0000
# 6 0.0000 0.0000 0.0000 11.4515 0.0000 36.8407
#
#
#
# Elastic Compliance Matrix: (Units=1/GPa)
#
#
# Indices 1 2 3 4 5 6 
#
# 1 0.019234 -0.003619 -0.004641 0.000000 -0.007252 0.000000
# 2 -0.003619 0.007033 -0.001880 0.000000 0.000843 0.000000
# 3 -0.004641 -0.001880 0.023434 0.000000 0.005556 0.000000
# 4 0.000000 0.000000 0.000000 0.038253 0.000000 -0.011890
# 5 -0.007252 0.000843 0.005556 0.000000 0.044610 0.000000
# 6 0.000000 0.000000 0.000000 -0.011890 0.000000 0.030840
#
#
# Mechanical properties :
#
#
# Convention : Reuss Voigt Hill
#
# Bulk Modulus (GPa) = 33.99037 46.78520 40.38779
# Shear Modulus (GPa) = 25.84127 32.08953 28.96540
#
# Velocity S-wave (km/s) = 3.40740 3.79707 3.60750
# Velocity P-wave (km/s) = 5.54548 6.34382 5.95804
#
# Compressibility (1/GPa) = 0.02942010
#
# Stress axis : x y z
#
# Youngs Moduli (GPa) = 51.99212 142.19658 42.67313
#
# Poissons Ratio (x) = 0.51462 0.19805
# Poissons Ratio (y) = 0.18816 0.08022
# Poissons Ratio (z) = 0.24130 0.26731
#
# Static dielectric constant tensor:
#      x y z
#    x 1.878920 0.000000 0.033480 
#    y 0.000000 1.846480 0.000000 
#    z 0.033480 0.000000 1.825980 
# 
# From -- ./inp_files/18071.got.cif
#   From: 2010.05.17/outbox.cif.g08.bks.cpg/sg9_10_cif.got.tgz:18071.got - 2010.06.03 20:04:27.
