data_PCOD9135618
_publ_section_title
;
Structure prediction by ZEFSAII (Michael W. Deem and Ramdas Pophale) SiO2 
 PCOD9135618
Probable space group: C C
;
_chemical_formula_sum "Si O2"
_cell_formula_units_Z 28
_cell_length_a 7.368714
_cell_length_b 12.051328
_cell_length_c 17.736586
_cell_angle_alpha 90.000000
_cell_angle_beta 130.931550
_cell_angle_gamma 90.000000
_cell_volume 1189.945246
_symmetry_space_group_name_H-M "C C"
_symmetry_group_IT_number 9
_symmetry_cell_setting 'monoclinic'
loop_
_space_group_symop_operation_xyz
x,y,z
x,-y,1/2+z
1/2+x,1/2+y,z
1/2+x,1/2-y,1/2+z
loop_
_atom_site_type_symbol
_atom_site_label
_atom_site_fract_x
_atom_site_fract_y
_atom_site_fract_z
Si Si1 0.958320 0.439249 0.755810
Si Si2 0.896504 0.031315 0.825781
Si Si3 0.228254 0.294705 0.545201
Si Si4 0.104248 0.892098 0.538668
Si Si5 0.883385 0.552361 0.888712
Si Si6 0.645288 0.740951 0.259184
Si Si7 0.930189 0.668631 0.479506
O O1 0.803845 0.456129 0.638738
O O2 0.951290 0.532981 0.819769
O O3 0.827563 0.334450 0.758938
O O4 0.229817 0.427564 0.800895
O O5 0.713897 0.132459 0.760732
O O6 0.097548 0.030173 0.816776
O O7 0.039307 0.059376 0.941030
O O8 0.374734 0.383184 0.532044
O O9 0.372494 0.290742 0.662733
O O10 0.961853 0.336084 0.454285
O O11 0.300168 0.179867 0.524217
O O12 0.145618 0.758714 0.538669
O O13 0.995260 0.451376 0.968250
O O14 0.731471 0.716076 0.366949
#
# Coordination Sequence:
#
# PCOD9135618 Si02
#       7
#     4   4   4   4   4   4   4
#     4  10  20  42  62  87 132 175 205 271 333 383
#     4  11  22  39  64  98 125 165 224 271 317 401
#     4   9  18  39  64  83 132 172 205 275 331 375
#     4   8  18  41  60  79 135 166 201 270 330 364
#     4  11  21  37  68  94 125 170 223 265 331 395
#     4   9  19  39  61  84 130 170 203 272 324 377
#     4   8  18  37  59  87 125 162 209 266 312 391
#
# _framework density 23.530495999999999
#
# number of rings (size 3 to 8) (size 9 to 14) (size 15 to 20)
#    0.857    1.714    1.429    0.000    0.000    2.286 
#   15.429    0.000    6.286    0.000    0.000    0.000 
#    0.000    0.000    0.000    0.000    0.000    0.000 
#
# Total GULP energy -77961.726115 kJ/mol
# GULP energy per Si atom -5568.694722 kJ/mol
# Density = 2.347694 g / cm^3
# Si number density = 23.530496 Si / 1000 Ang^3
#
#
#
# Elastic Constant Matrix: (Units=GPa)
#
#
# Indices 1 2 3 4 5 6 
#
# 1 75.4792 4.0115 23.7024 0.0000 10.2267 0.0000
# 2 4.0115 66.1184 23.3959 0.0000 2.4894 0.0000
# 3 23.7024 23.3959 115.7705 0.0000 -14.7320 0.0000
# 4 0.0000 0.0000 0.0000 36.1810 0.0000 6.4286
# 5 10.2267 2.4894 -14.7320 0.0000 23.5135 0.0000
# 6 0.0000 0.0000 0.0000 6.4286 0.0000 19.3873
#
#
#
# Elastic Compliance Matrix: (Units=1/GPa)
#
#
# Indices 1 2 3 4 5 6 
#
# 1 0.016067 0.001104 -0.004799 0.000000 -0.010112 0.000000
# 2 0.001104 0.016740 -0.004233 0.000000 -0.004905 0.000000
# 3 -0.004799 -0.004233 0.011734 0.000000 0.009887 0.000000
# 4 0.000000 0.000000 0.000000 0.029369 0.000000 -0.009738
# 5 -0.010112 -0.004905 0.009887 0.000000 0.053641 0.000000
# 6 0.000000 0.000000 0.000000 -0.009738 0.000000 0.054809
#
#
# Mechanical properties :
#
#
# Convention : Reuss Voigt Hill
#
# Bulk Modulus (GPa) = 34.86220 39.95422 37.40821
# Shear Modulus (GPa) = 24.06405 29.56691 26.81548
#
# Velocity S-wave (km/s) = 3.20140 3.54861 3.37947
# Velocity P-wave (km/s) = 5.33977 5.81436 5.58211
#
# Compressibility (1/GPa) = 0.02868437
#
# Stress axis : x y z
#
# Youngs Moduli (GPa) = 62.23852 59.73732 85.22208
#
# Poissons Ratio (x) = -0.06596 0.40902
# Poissons Ratio (y) = -0.06872 0.36076
# Poissons Ratio (z) = 0.29871 0.25288
#
# Static dielectric constant tensor:
#      x y z
#    x 1.961750 0.000000 0.066340 
#    y 0.000000 1.964430 0.000000 
#    z 0.066340 0.000000 1.948900 
# 
# From -- ./inp_files/32700.got.cif
#   From: 2010.05.17/outbox.cif.g08.bks.cpg/sg9_17_cif.got.tgz:32700.got - 2010.06.03 20:04:27.
