data_PCOD9135193
_publ_section_title
;
Structure prediction by ZEFSAII (Michael W. Deem and Ramdas Pophale) SiO2 
 PCOD9135193
Probable space group: C C
;
_chemical_formula_sum "Si O2"
_cell_formula_units_Z 32
_cell_length_a 21.349861
_cell_length_b 12.056486
_cell_length_c 15.854741
_cell_angle_alpha 90.000000
_cell_angle_beta 161.009086
_cell_angle_gamma 90.000000
_cell_volume 1328.057262
_symmetry_space_group_name_H-M "C C"
_symmetry_group_IT_number 9
_symmetry_cell_setting 'monoclinic'
loop_
_space_group_symop_operation_xyz
x,y,z
x,-y,1/2+z
1/2+x,1/2+y,z
1/2+x,1/2-y,1/2+z
loop_
_atom_site_type_symbol
_atom_site_label
_atom_site_fract_x
_atom_site_fract_y
_atom_site_fract_z
Si Si1 0.427160 0.176272 0.232300
Si Si2 0.822380 0.623864 0.921163
Si Si3 0.010668 0.130699 0.395676
Si Si4 0.193199 0.468386 0.799429
Si Si5 0.566667 0.400487 0.382284
Si Si6 0.376710 0.306214 0.549664
Si Si7 0.129425 0.104350 0.225290
Si Si8 0.749199 0.000774 0.678382
O O1 0.511937 0.294009 0.368971
O O2 0.578277 0.076338 0.427505
O O3 0.375888 0.196775 0.069242
O O4 0.247104 0.138057 0.057452
O O5 0.009477 0.587358 0.107682
O O6 0.664074 0.676019 0.657650
O O7 0.728788 0.514923 0.845193
O O8 0.951936 0.203299 0.241064
O O9 0.103267 0.014455 0.479309
O O10 0.820865 0.091282 0.204240
O O11 0.202906 0.451778 0.711475
O O12 0.385531 0.430537 0.092566
O O13 0.206754 0.601691 0.829786
O O14 0.285346 0.194828 0.396904
O O15 0.552101 0.354375 0.717624
O O16 0.930019 0.083134 0.923142
#
# Coordination Sequence:
#
# PCOD9135193 Si02
#       8
#     4   4   4   4   4   4   4   4
#     4  12  23  39  61  89 121 158 198 247 300 357
#     4  11  22  40  62  87 120 159 197 246 301 356
#     4  10  21  40  61  87 120 157 199 246 297 356
#     4  10  21  39  61  86 118 156 199 249 300 354
#     4  11  23  40  61  87 119 156 200 248 299 356
#     4  10  20  38  60  89 121 155 198 250 297 351
#     4  10  22  38  61  90 121 157 200 248 298 353
#     4  10  22  38  61  89 120 158 201 246 298 353
#
# _framework density 24.095344999999998
#
# number of rings (size 3 to 8) (size 9 to 14) (size 15 to 20)
#    0.000    1.500    0.000    7.500    0.000    7.000 
#    0.000    5.000    0.000    0.000    0.000    0.000 
#    0.000    0.000    0.000    0.000    0.000    0.000 
#
# Total GULP energy -89589.625474 kJ/mol
# GULP energy per Si atom -5599.351592 kJ/mol
# Density = 2.404050 g / cm^3
# Si number density = 24.095345 Si / 1000 Ang^3
#
#
#
# Elastic Constant Matrix: (Units=GPa)
#
#
# Indices 1 2 3 4 5 6 
#
# 1 120.6819 1.2609 31.1108 0.0000 0.6376 -0.0001
# 2 1.2609 43.0672 17.3127 -0.0001 6.4647 -0.0001
# 3 31.1108 17.3127 87.5684 0.0000 6.3852 0.0000
# 4 0.0000 -0.0001 0.0000 14.0236 -0.0001 2.0261
# 5 0.6376 6.4647 6.3852 -0.0001 36.5972 -0.0001
# 6 -0.0001 -0.0001 0.0000 2.0261 -0.0001 21.6720
#
#
#
# Elastic Compliance Matrix: (Units=1/GPa)
#
#
# Indices 1 2 3 4 5 6 
#
# 1 0.009174 0.001098 -0.003495 0.000000 0.000256 0.000000
# 2 0.001098 0.025841 -0.005231 0.000000 -0.003671 0.000000
# 3 -0.003495 -0.005231 0.013799 0.000000 -0.001423 0.000000
# 4 0.000000 0.000000 0.000000 0.072285 0.000000 -0.006758
# 5 0.000256 -0.003671 -0.001423 0.000000 0.028217 0.000000
# 6 0.000000 0.000000 0.000000 -0.006758 0.000000 0.046774
#
#
# Mechanical properties :
#
#
# Convention : Reuss Voigt Hill
#
# Bulk Modulus (GPa) = 29.79902 38.96514 34.38208
# Shear Modulus (GPa) = 22.46848 27.90078 25.18463
#
# Velocity S-wave (km/s) = 3.05697 3.40653 3.23647
# Velocity P-wave (km/s) = 4.98539 5.62841 5.31663
#
# Compressibility (1/GPa) = 0.03355815
#
# Stress axis : x y z
#
# Youngs Moduli (GPa) = 108.99834 38.69757 72.46692
#
# Poissons Ratio (x) = -0.04249 0.25329
# Poissons Ratio (y) = -0.11968 0.37910
# Poissons Ratio (z) = 0.38097 0.20244
#
# Static dielectric constant tensor:
#      x y z
#    x 1.934310 0.000000 -0.021170 
#    y 0.000000 1.955320 0.000000 
#    z -0.021170 0.000000 1.910850 
# 
# From -- ./inp_files/27470.got.cif
#   From: 2010.05.17/outbox.cif.g08.bks.cpg/sg9_14_cif.got.tgz:27470.got - 2010.06.03 20:04:27.
