data_PCOD9135767
_publ_section_title
;
Structure prediction by ZEFSAII (Michael W. Deem and Ramdas Pophale) SiO2 
 PCOD9135767
Probable space group: C C
;
_chemical_formula_sum "Si O2"
_cell_formula_units_Z 32
_cell_length_a 18.864291
_cell_length_b 8.507447
_cell_length_c 9.832063
_cell_angle_alpha 90.000000
_cell_angle_beta 128.670595
_cell_angle_gamma 90.000000
_cell_volume 1231.961244
_symmetry_space_group_name_H-M "C C"
_symmetry_group_IT_number 9
_symmetry_cell_setting 'monoclinic'
loop_
_space_group_symop_operation_xyz
x,y,z
x,-y,1/2+z
1/2+x,1/2+y,z
1/2+x,1/2-y,1/2+z
loop_
_atom_site_type_symbol
_atom_site_label
_atom_site_fract_x
_atom_site_fract_y
_atom_site_fract_z
Si Si1 0.042440 0.520721 0.710660
Si Si2 0.954371 0.085620 0.857779
Si Si3 0.764238 0.572254 0.155935
Si Si4 0.496799 0.312905 0.049959
Si Si5 0.605944 0.180092 0.518202
Si Si6 0.818000 0.949137 0.990300
Si Si7 0.392275 0.234261 0.513662
Si Si8 0.206886 0.159797 0.804199
O O1 0.002932 0.372325 0.578823
O O2 0.093154 0.620557 0.655791
O O3 0.957106 0.616665 0.671587
O O4 0.104660 0.461164 0.908712
O O5 0.851325 0.086676 0.683255
O O6 0.959746 0.144345 0.018546
O O7 0.019648 0.212084 0.868394
O O8 0.985381 0.905297 0.891510
O O9 0.689553 0.703995 0.103307
O O10 0.852451 0.629355 0.342677
O O11 0.732787 0.411933 0.190053
O O12 0.764097 0.571747 0.992252
O O13 0.403399 0.368984 0.011617
O O14 0.600815 0.365404 0.207717
O O15 0.819674 0.138573 0.981171
O O16 0.733573 0.843491 0.846034
#
# Coordination Sequence:
#
# PCOD9135767 Si02
#       8
#     4   4   4   4   4   4   4   4
#     4  11  24  44  71 107 145 193 251 307 383 450
#     4  10  20  44  67  96 145 191 245 313 374 447
#     4  12  25  48  68 106 151 195 253 320 377 454
#     4  11  23  43  75 107 141 203 251 310 384 454
#     4  11  24  44  68 102 145 189 248 312 370 452
#     4  11  23  46  72 105 153 197 252 319 386 456
#     4  10  25  41  69 102 146 197 247 310 381 455
#     4  12  26  48  78 109 152 203 253 321 385 456
#
# _framework density 25.974844000000001
#
# number of rings (size 3 to 8) (size 9 to 14) (size 15 to 20)
#    0.000    1.000    5.000    0.750    3.500    0.000 
#    6.750    0.000    0.000    0.000    0.000    0.000 
#    0.000    0.000    0.000    0.000    0.000    0.000 
#
# Total GULP energy -89277.105242 kJ/mol
# GULP energy per Si atom -5579.819078 kJ/mol
# Density = 2.591572 g / cm^3
# Si number density = 25.974844 Si / 1000 Ang^3
#
#
#
# Elastic Constant Matrix: (Units=GPa)
#
#
# Indices 1 2 3 4 5 6 
#
# 1 46.4634 12.2260 5.3616 0.0000 1.5005 0.0000
# 2 12.2260 80.9883 28.3485 0.0000 3.0951 0.0000
# 3 5.3616 28.3485 76.5601 0.0000 10.5523 0.0000
# 4 0.0000 0.0000 0.0000 48.1681 0.0000 4.7742
# 5 1.5005 3.0951 10.5523 0.0000 35.1293 0.0000
# 6 0.0000 0.0000 0.0000 4.7742 0.0000 51.9562
#
#
#
# Elastic Compliance Matrix: (Units=1/GPa)
#
#
# Indices 1 2 3 4 5 6 
#
# 1 0.022433 -0.003266 -0.000281 0.000000 -0.000586 0.000000
# 2 -0.003266 0.014665 -0.005261 0.000000 0.000428 0.000000
# 3 -0.000281 -0.005261 0.015610 0.000000 -0.004214 0.000000
# 4 0.000000 0.000000 0.000000 0.020951 0.000000 -0.001925
# 5 -0.000586 0.000428 -0.004214 0.000000 0.029719 0.000000
# 6 0.000000 0.000000 0.000000 -0.001925 0.000000 0.019424
#
#
# Mechanical properties :
#
#
# Convention : Reuss Voigt Hill
#
# Bulk Modulus (GPa) = 28.49502 32.87599 30.68551
# Shear Modulus (GPa) = 32.86976 37.58910 35.22943
#
# Velocity S-wave (km/s) = 3.56117 3.80825 3.68678
# Velocity P-wave (km/s) = 5.28236 5.65874 5.47379
#
# Compressibility (1/GPa) = 0.03509385
#
# Stress axis : x y z
#
# Youngs Moduli (GPa) = 44.57723 68.18741 64.06182
#
# Poissons Ratio (x) = 0.22268 0.01800
# Poissons Ratio (y) = 0.14558 0.33700
# Poissons Ratio (z) = 0.01253 0.35870
#
# Static dielectric constant tensor:
#      x y z
#    x 2.132230 0.000000 -0.048860 
#    y 0.000000 2.107900 0.000000 
#    z -0.048860 0.000000 2.113760 
# 
# From -- ./inp_files/20048.got.cif
#   From: 2010.05.17/outbox.cif.g08.bks.cpg/sg9_11_cif.got.tgz:20048.got - 2010.06.03 20:04:27.
