data_PCOD9135300
_publ_section_title
;
Structure prediction by ZEFSAII (Michael W. Deem and Ramdas Pophale) SiO2 
 PCOD9135300
Probable space group: C C
;
_chemical_formula_sum "Si O2"
_cell_formula_units_Z 28
_cell_length_a 14.053825
_cell_length_b 17.403589
_cell_length_c 10.595662
_cell_angle_alpha 90.000000
_cell_angle_beta 147.284371
_cell_angle_gamma 90.000000
_cell_volume 1400.660638
_symmetry_space_group_name_H-M "C C"
_symmetry_group_IT_number 9
_symmetry_cell_setting 'monoclinic'
loop_
_space_group_symop_operation_xyz
x,y,z
x,-y,1/2+z
1/2+x,1/2+y,z
1/2+x,1/2-y,1/2+z
loop_
_atom_site_type_symbol
_atom_site_label
_atom_site_fract_x
_atom_site_fract_y
_atom_site_fract_z
Si Si1 0.285890 0.467444 0.835560
Si Si2 0.848710 0.334876 0.276408
Si Si3 0.103664 0.613850 0.555075
Si Si4 0.494089 0.073156 0.174741
Si Si5 0.458203 0.620220 0.059347
Si Si6 0.932621 0.160372 0.316463
Si Si7 0.864233 0.601317 0.522226
O O1 0.140872 0.521906 0.607082
O O2 0.340545 0.400557 0.804346
O O3 0.198595 0.444231 0.870027
O O4 0.440704 0.527474 0.035517
O O5 0.935317 0.375119 0.492229
O O6 0.881375 0.244480 0.305477
O O7 0.914492 0.368309 0.216454
O O8 0.641751 0.350364 0.056931
O O9 0.995229 0.620502 0.305960
O O10 0.991168 0.632302 0.553729
O O11 0.302835 0.647397 0.790148
O O12 0.389139 0.991883 0.057001
O O13 0.394904 0.648465 0.126089
O O14 0.665765 0.632235 0.273338
#
# Coordination Sequence:
#
# PCOD9135300 Si02
#       7
#     4   4   4   4   4   4   4
#     4   9  19  34  61  88 120 159 197 254 302 358
#     4  11  25  36  67  89 122 168 202 260 311 364
#     4   9  21  35  63  85 123 158 198 256 303 355
#     4  11  20  37  57  93 123 161 203 253 311 364
#     4   9  21  36  62  90 115 164 210 251 304 359
#     4  11  22  41  61  92 123 160 215 252 305 377
#     4  10  20  39  59  91 120 160 213 252 298 367
#
# _framework density 19.990568
#
# number of rings (size 3 to 8) (size 9 to 14) (size 15 to 20)
#    0.857    1.143    0.000    4.286    4.000    1.143 
#    2.571    0.000    6.286    0.000    0.000    0.000 
#    0.000    0.000    0.000    0.000    0.000    0.000 
#
# Total GULP energy -78007.681906 kJ/mol
# GULP energy per Si atom -5571.977279 kJ/mol
# Density = 1.994507 g / cm^3
# Si number density = 19.990568 Si / 1000 Ang^3
#
#
#
# Elastic Constant Matrix: (Units=GPa)
#
#
# Indices 1 2 3 4 5 6 
#
# 1 92.0049 -1.2001 24.0048 0.0000 -4.6848 0.0000
# 2 -1.2001 35.5043 -19.1657 0.0000 -10.5007 0.0000
# 3 24.0048 -19.1657 72.2504 0.0000 -13.5228 0.0000
# 4 0.0000 0.0000 0.0000 13.6584 0.0000 0.8031
# 5 -4.6848 -10.5007 -13.5228 0.0000 29.5262 0.0000
# 6 0.0000 0.0000 0.0000 0.8031 0.0000 20.2230
#
#
#
# Elastic Compliance Matrix: (Units=1/GPa)
#
#
# Indices 1 2 3 4 5 6 
#
# 1 0.012061 -0.002649 -0.004953 0.000000 -0.001297 0.000000
# 2 -0.002649 0.043932 0.016821 0.000000 0.022908 0.000000
# 3 -0.004953 0.016821 0.022883 0.000000 0.015677 0.000000
# 4 0.000000 0.000000 0.000000 0.073386 0.000000 -0.002914
# 5 -0.001297 0.022908 0.015677 0.000000 0.048989 0.000000
# 6 0.000000 0.000000 0.000000 -0.002914 0.000000 0.049564
#
#
# Mechanical properties :
#
#
# Convention : Reuss Voigt Hill
#
# Bulk Modulus (GPa) = 10.27607 23.00417 16.64012
# Shear Modulus (GPa) = 18.88125 25.75625 22.31875
#
# Velocity S-wave (km/s) = 3.07662 3.59335 3.34498
# Velocity P-wave (km/s) = 4.21573 5.36178 4.82292
#
# Compressibility (1/GPa) = 0.09731345
#
# Stress axis : x y z
#
# Youngs Moduli (GPa) = 82.91497 22.76271 43.70150
#
# Poissons Ratio (x) = 0.06031 0.21643
# Poissons Ratio (y) = 0.21967 -0.73512
# Poissons Ratio (z) = 0.41064 -0.38290
#
# Static dielectric constant tensor:
#      x y z
#    x 1.713460 0.000000 0.007270 
#    y 0.000000 1.694450 0.000000 
#    z 0.007270 0.000000 1.757180 
# 
# From -- ./inp_files/8394.got.cif
#   From: 2010.05.17/outbox.cif.g08.bks.cpg/sg9_5_cif.got.tgz:8394.got - 2010.06.03 20:04:27.
