data_PCOD9135621
_publ_section_title
;
Structure prediction by ZEFSAII (Michael W. Deem and Ramdas Pophale) SiO2 
 PCOD9135621
Probable space group: C C
;
_chemical_formula_sum "Si O2"
_cell_formula_units_Z 32
_cell_length_a 7.156820
_cell_length_b 13.272447
_cell_length_c 14.565717
_cell_angle_alpha 90.000000
_cell_angle_beta 62.895747
_cell_angle_gamma 90.000000
_cell_volume 1231.630118
_symmetry_space_group_name_H-M "C C"
_symmetry_group_IT_number 9
_symmetry_cell_setting 'monoclinic'
loop_
_space_group_symop_operation_xyz
x,y,z
x,-y,1/2+z
1/2+x,1/2+y,z
1/2+x,1/2-y,1/2+z
loop_
_atom_site_type_symbol
_atom_site_label
_atom_site_fract_x
_atom_site_fract_y
_atom_site_fract_z
Si Si1 0.773560 0.310672 0.770710
Si Si2 0.028801 0.630489 0.600436
Si Si3 0.193714 0.993152 0.910743
Si Si4 0.677664 0.793701 0.884053
Si Si5 0.340824 0.069177 0.076799
Si Si6 0.325258 0.370699 0.462330
Si Si7 0.760969 0.166344 0.176734
Si Si8 0.049970 0.371352 0.291529
O O1 0.680901 0.380619 0.872298
O O2 0.729505 0.354966 0.675496
O O3 0.720542 0.194312 0.804477
O O4 0.020313 0.311651 0.713625
O O5 0.887555 0.532681 0.621200
O O6 0.888724 0.729821 0.641672
O O7 0.149199 0.622612 0.668152
O O8 0.166278 0.645381 0.480078
O O9 0.432322 0.024881 0.830274
O O10 0.216270 0.029997 0.013477
O O11 0.009914 0.050766 0.895272
O O12 0.755486 0.864131 0.784045
O O13 0.850336 0.705297 0.848128
O O14 0.450254 0.737087 0.924727
O O15 0.575772 0.111588 0.995563
O O16 0.321630 0.394092 0.573659
#
# Coordination Sequence:
#
# PCOD9135621 Si02
#       8
#     4   4   4   4   4   4   4   4
#     4  11  24  43  66 104 136 180 241 285 352 434
#     4  10  20  42  62  96 130 177 225 283 352 416
#     4  11  24  46  67 101 142 182 235 294 353 425
#     4   9  19  36  67  89 126 181 225 273 358 412
#     4  11  24  42  68  99 140 178 229 300 351 413
#     4   9  22  41  63  98 139 175 235 289 345 419
#     4   9  20  40  63  93 135 174 223 287 340 419
#     4  10  23  40  66  94 138 175 229 293 345 422
#
# _framework density 25.981826000000002
#
# number of rings (size 3 to 8) (size 9 to 14) (size 15 to 20)
#    0.000    2.000    1.250    0.750   10.500    0.000 
#    4.500    0.000    0.000    0.000    0.000    0.000 
#    0.000    0.000    0.000    0.000    0.000    0.000 
#
# Total GULP energy -89075.913886 kJ/mol
# GULP energy per Si atom -5567.244618 kJ/mol
# Density = 2.592269 g / cm^3
# Si number density = 25.981826 Si / 1000 Ang^3
#
#
#
# Elastic Constant Matrix: (Units=GPa)
#
#
# Indices 1 2 3 4 5 6 
#
# 1 77.2303 -5.0112 -9.9210 0.0000 -33.1042 0.0000
# 2 -5.0112 19.4805 -19.0033 0.0000 -0.9420 0.0000
# 3 -9.9210 -19.0033 100.3769 0.0000 8.2751 0.0000
# 4 0.0000 0.0000 0.0000 18.7618 0.0000 7.9889
# 5 -33.1042 -0.9420 8.2751 0.0000 27.4420 0.0000
# 6 0.0000 0.0000 0.0000 7.9889 0.0000 35.2093
#
#
#
# Elastic Compliance Matrix: (Units=1/GPa)
#
#
# Indices 1 2 3 4 5 6 
#
# 1 0.028635 0.011072 0.002099 0.000000 0.034290 0.000000
# 2 0.011072 0.067300 0.012864 0.000000 0.011788 0.000000
# 3 0.002099 0.012864 0.012675 0.000000 -0.000848 0.000000
# 4 0.000000 0.000000 0.000000 0.059000 0.000000 -0.013387
# 5 0.034290 0.011788 -0.000848 0.000000 0.078466 0.000000
# 6 0.000000 0.000000 0.000000 -0.013387 0.000000 0.031439
#
#
# Mechanical properties :
#
#
# Convention : Reuss Voigt Hill
#
# Bulk Modulus (GPa) = 6.22350 14.35742 10.29046
# Shear Modulus (GPa) = 17.92085 31.68416 24.80251
#
# Velocity S-wave (km/s) = 2.62915 3.49589 3.09303
# Velocity P-wave (km/s) = 3.40839 4.67257 4.08962
#
# Compressibility (1/GPa) = 0.16068129
#
# Stress axis : x y z
#
# Youngs Moduli (GPa) = 34.92281 14.85877 78.89411
#
# Poissons Ratio (x) = -0.16452 -0.16564
# Poissons Ratio (y) = -0.38668 -1.01488
# Poissons Ratio (z) = -0.07332 -0.19114
#
# Static dielectric constant tensor:
#      x y z
#    x 2.103070 0.000000 0.134410 
#    y 0.000000 2.149000 0.000000 
#    z 0.134410 0.000000 2.183350 
# 
# From -- ./inp_files/23196.got.cif
#   From: 2010.05.17/outbox.cif.g08.bks.cpg/sg9_12_cif.got.tgz:23196.got - 2010.06.03 20:04:27.
