data_PCOD9135341
_publ_section_title
;
Structure prediction by ZEFSAII (Michael W. Deem and Ramdas Pophale) SiO2 
 PCOD9135341
Probable space group: C C
;
_chemical_formula_sum "Si O2"
_cell_formula_units_Z 32
_cell_length_a 26.601193
_cell_length_b 9.624600
_cell_length_c 8.022690
_cell_angle_alpha 90.000000
_cell_angle_beta 137.117896
_cell_angle_gamma 90.000000
_cell_volume 1397.741493
_symmetry_space_group_name_H-M "C C"
_symmetry_group_IT_number 9
_symmetry_cell_setting 'monoclinic'
loop_
_space_group_symop_operation_xyz
x,y,z
x,-y,1/2+z
1/2+x,1/2+y,z
1/2+x,1/2-y,1/2+z
loop_
_atom_site_type_symbol
_atom_site_label
_atom_site_fract_x
_atom_site_fract_y
_atom_site_fract_z
Si Si1 0.381130 0.316334 0.634220
Si Si2 0.148937 0.310561 0.300335
Si Si3 0.998089 0.610454 0.552218
Si Si4 0.173509 0.618551 0.244166
Si Si5 0.330997 0.417076 0.182470
Si Si6 0.024727 0.685040 0.996371
Si Si7 0.839879 0.650520 0.010190
Si Si8 0.775137 0.604470 0.495679
O O1 0.386281 0.381969 0.463791
O O2 0.337730 0.426536 0.640877
O O3 0.461935 0.288589 0.905644
O O4 0.328429 0.182161 0.492843
O O5 0.060615 0.293450 0.116536
O O6 0.153803 0.454148 0.207707
O O7 0.179222 0.340145 0.562998
O O8 0.198180 0.186839 0.339940
O O9 0.994744 0.648368 0.737815
O O10 0.025415 0.452151 0.609054
O O11 0.919993 0.607330 0.271389
O O12 0.248006 0.621563 0.531233
O O13 0.110406 0.714843 0.171951
O O14 0.341140 0.313416 0.053140
O O15 0.777507 0.557896 0.953854
O O16 0.823223 0.622651 0.779372
#
# Coordination Sequence:
#
# PCOD9135341 Si02
#       8
#     4   4   4   4   4   4   4   4
#     4  12  24  41  64  97 128 164 220 268 318 382
#     4  10  21  38  64  95 128 163 211 267 313 384
#     4  10  20  39  64  93 127 164 211 257 324 374
#     4  10  20  39  64  93 127 164 211 257 324 374
#     4  12  23  40  64  94 127 171 209 261 321 380
#     4  10  21  38  64  95 128 163 211 267 313 384
#     4  12  23  40  64  94 127 171 209 261 321 380
#     4  12  24  41  64  97 128 164 220 268 318 382
#
# _framework density 22.894075999999998
#
# number of rings (size 3 to 8) (size 9 to 14) (size 15 to 20)
#    0.000    1.000    5.000    3.000    0.000    0.000 
#    0.000    1.250    0.000    0.000    0.000    0.000 
#    0.000    0.000    0.000    0.000    0.000    0.000 
#
# Total GULP energy -89320.249119 kJ/mol
# GULP energy per Si atom -5582.515570 kJ/mol
# Density = 2.284197 g / cm^3
# Si number density = 22.894076 Si / 1000 Ang^3
#
#
#
# Elastic Constant Matrix: (Units=GPa)
#
#
# Indices 1 2 3 4 5 6 
#
# 1 58.9795 15.7421 12.9767 0.0000 20.6108 0.0000
# 2 15.7421 55.5320 12.2969 0.0000 14.4516 0.0000
# 3 12.9767 12.2969 67.4888 0.0000 19.1891 0.0000
# 4 0.0000 0.0000 0.0000 26.9761 0.0000 6.7031
# 5 20.6108 14.4516 19.1891 0.0000 32.9487 0.0000
# 6 0.0000 0.0000 0.0000 6.7031 0.0000 31.9532
#
#
#
# Elastic Compliance Matrix: (Units=1/GPa)
#
#
# Indices 1 2 3 4 5 6 
#
# 1 0.022139 -0.003002 -0.000176 0.000000 -0.012429 0.000000
# 2 -0.003002 0.020846 -0.001385 0.000000 -0.006459 0.000000
# 3 -0.000176 -0.001385 0.017856 0.000000 -0.009682 0.000000
# 4 0.000000 0.000000 0.000000 0.039108 0.000000 -0.008204
# 5 -0.012429 -0.006459 -0.009682 0.000000 0.046597 0.000000
# 6 0.000000 0.000000 0.000000 -0.008204 0.000000 0.033017
#
#
# Mechanical properties :
#
#
# Convention : Reuss Voigt Hill
#
# Bulk Modulus (GPa) = 19.33641 29.33686 24.33663
# Shear Modulus (GPa) = 24.28046 27.77460 26.02753
#
# Velocity S-wave (km/s) = 3.26015 3.48685 3.37540
# Velocity P-wave (km/s) = 4.75771 5.39007 5.08373
#
# Compressibility (1/GPa) = 0.05171591
#
# Stress axis : x y z
#
# Youngs Moduli (GPa) = 45.17007 47.97048 56.00275
#
# Poissons Ratio (x) = 0.14402 0.00984
# Poissons Ratio (y) = 0.13561 0.07754
# Poissons Ratio (z) = 0.00794 0.06642
#
# Static dielectric constant tensor:
#      x y z
#    x 1.964070 0.000000 0.055610 
#    y 0.000000 1.846600 0.000000 
#    z 0.055610 0.000000 1.839490 
# 
# From -- ./inp_files/12702.got.cif
#   From: 2010.05.17/outbox.cif.g08.bks.cpg/sg9_7_cif.got.tgz:12702.got - 2010.06.03 20:04:27.
