data_PCOD9135810
_publ_section_title
;
Structure prediction by ZEFSAII (Michael W. Deem and Ramdas Pophale) SiO2 
 PCOD9135810
Probable space group: C C
;
_chemical_formula_sum "Si O2"
_cell_formula_units_Z 32
_cell_length_a 16.971498
_cell_length_b 9.972835
_cell_length_c 15.331115
_cell_angle_alpha 90.000000
_cell_angle_beta 147.330760
_cell_angle_gamma 90.000000
_cell_volume 1400.671052
_symmetry_space_group_name_H-M "C C"
_symmetry_group_IT_number 9
_symmetry_cell_setting 'monoclinic'
loop_
_space_group_symop_operation_xyz
x,y,z
x,-y,1/2+z
1/2+x,1/2+y,z
1/2+x,1/2-y,1/2+z
loop_
_atom_site_type_symbol
_atom_site_label
_atom_site_fract_x
_atom_site_fract_y
_atom_site_fract_z
Si Si1 0.766270 0.382681 0.982200
Si Si2 0.323615 0.176706 0.031864
Si Si3 0.095812 0.626316 0.410033
Si Si4 0.714669 0.993511 0.175376
Si Si5 0.193352 0.108499 0.614905
Si Si6 0.405037 0.744133 0.417016
Si Si7 0.565393 0.809346 0.180998
Si Si8 0.508111 0.347495 0.463698
O O1 0.731358 0.539745 0.928248
O O2 0.725955 0.361053 0.045114
O O3 0.683371 0.272324 0.846843
O O4 0.937132 0.363663 0.121830
O O5 0.224309 0.297763 0.976617
O O6 0.397187 0.228108 0.011785
O O7 0.450644 0.128890 0.216299
O O8 0.142093 0.496593 0.510943
O O9 0.057779 0.723766 0.453896
O O10 0.625468 0.927361 0.173153
O O11 0.851853 0.895528 0.286350
O O12 0.794777 0.125711 0.285610
O O13 0.339381 0.127522 0.806713
O O14 0.062828 0.199710 0.531542
O O15 0.129560 0.960297 0.564711
O O16 0.498557 0.698133 0.053942
#
# Coordination Sequence:
#
# PCOD9135810 Si02
#       8
#     4   4   4   4   4   4   4   4
#     4  12  26  45  71 110 140 188 238 302 357 432
#     4  12  26  45  74 109 141 188 247 300 360 430
#     4  11  23  44  73 103 141 181 243 293 350 436
#     4  10  23  44  70 102 141 190 229 290 366 425
#     4  11  24  46  68 100 145 187 231 290 369 430
#     4  11  26  46  69 103 147 192 235 296 369 430
#     4  11  24  43  70 103 142 176 242 295 358 428
#     4  10  20  45  69  98 133 188 225 288 357 423
#
# _framework density 22.846193
#
# number of rings (size 3 to 8) (size 9 to 14) (size 15 to 20)
#    0.000    1.000    3.750    2.250    3.500    3.000 
#    2.250    0.000    0.000    0.000    0.000    0.000 
#    0.000    0.000    0.000    0.000    0.000    0.000 
#
# Total GULP energy -89469.289184 kJ/mol
# GULP energy per Si atom -5591.830574 kJ/mol
# Density = 2.279419 g / cm^3
# Si number density = 22.846193 Si / 1000 Ang^3
#
#
#
# Elastic Constant Matrix: (Units=GPa)
#
#
# Indices 1 2 3 4 5 6 
#
# 1 112.4369 52.9355 -13.8023 0.0000 -26.0089 0.0000
# 2 52.9355 13.8268 32.9842 0.0000 21.9166 0.0000
# 3 -13.8023 32.9842 24.1568 0.0000 -14.0008 0.0000
# 4 0.0000 0.0000 0.0000 28.3609 0.0000 16.2238
# 5 -26.0089 21.9166 -14.0008 0.0000 15.5290 0.0000
# 6 0.0000 0.0000 0.0000 16.2238 0.0000 -9.5355
#
#
#
# Elastic Compliance Matrix: (Units=1/GPa)
#
#
# Indices 1 2 3 4 5 6 
#
# 1 0.004756 0.004787 -0.006531 0.000000 -0.004679 0.000000
# 2 0.004787 0.000947 0.011130 0.000000 0.016716 0.000000
# 3 -0.006531 0.011130 0.014709 0.000000 -0.013385 0.000000
# 4 0.000000 0.000000 0.000000 0.017869 0.000000 0.030402
# 5 -0.004679 0.016716 -0.013385 0.000000 0.020899 0.000000
# 6 0.000000 0.000000 0.000000 0.030402 0.000000 -0.053146
#
#
# Mechanical properties :
#
#
# Convention : Reuss Voigt Hill
#
# Bulk Modulus (GPa) = 25.51929 32.73946 29.12937
# Shear Modulus (GPa) = 15473.07831 12.09109 7742.58470
#
# Velocity S-wave (km/s) = 82.38579 2.30302 58.27831
# Velocity P-wave (km/s) = 95.18974 4.62961 67.38887
#
# Compressibility (1/GPa) = 0.03918605
#
# Stress axis : x y z
#
# Youngs Moduli (GPa) = 210.25810 1055.81520 67.98438
#
# Poissons Ratio (x) = -5.05442 0.44399
# Poissons Ratio (y) = -1.00655 -0.75669
# Poissons Ratio (z) = 1.37316 -11.75165
#
# Static dielectric constant tensor:
#      x y z
#    x 1.796790 0.000000 0.013180 
#    y 0.000000 1.894230 0.000000 
#    z 0.013180 0.000000 1.884930 
# 
# From -- ./inp_files/9320.got.cif
#   From: 2010.05.17/outbox.cif.g08.bks.cpg/sg9_5_cif.got.tgz:9320.got - 2010.06.03 20:04:27.
