data_PCOD9135807
_publ_section_title
;
Structure prediction by ZEFSAII (Michael W. Deem and Ramdas Pophale) SiO2 
 PCOD9135807
Probable space group: C C
;
_chemical_formula_sum "Si O2"
_cell_formula_units_Z 32
_cell_length_a 5.130626
_cell_length_b 22.124736
_cell_length_c 12.786261
_cell_angle_alpha 90.000000
_cell_angle_beta 69.227652
_cell_angle_gamma 90.000000
_cell_volume 1357.069887
_symmetry_space_group_name_H-M "C C"
_symmetry_group_IT_number 9
_symmetry_cell_setting 'monoclinic'
loop_
_space_group_symop_operation_xyz
x,y,z
x,-y,1/2+z
1/2+x,1/2+y,z
1/2+x,1/2-y,1/2+z
loop_
_atom_site_type_symbol
_atom_site_label
_atom_site_fract_x
_atom_site_fract_y
_atom_site_fract_z
Si Si1 0.076900 0.904514 0.303970
Si Si2 0.371987 0.380688 0.665674
Si Si3 0.342559 0.632103 0.521240
Si Si4 0.642994 0.939611 0.508372
Si Si5 0.236942 0.704260 0.746366
Si Si6 0.817057 0.557816 0.560687
Si Si7 0.309888 0.839167 0.461342
Si Si8 0.762894 0.340470 0.783326
O O1 0.264344 0.933372 0.190726
O O2 0.241776 0.889685 0.384689
O O3 0.837122 0.947988 0.379824
O O4 0.946876 0.841851 0.276650
O O5 0.304289 0.435755 0.595884
O O6 0.526209 0.330711 0.567105
O O7 0.592022 0.384220 0.728619
O O8 0.074107 0.364116 0.755974
O O9 0.226259 0.674741 0.631986
O O10 0.536315 0.579632 0.544444
O O11 0.562820 0.663863 0.412747
O O12 0.079272 0.602068 0.501201
O O13 0.522192 0.871705 0.510032
O O14 0.410637 0.989743 0.533573
O O15 0.314088 0.773976 0.727777
O O16 0.965653 0.706415 0.861854
#
# Coordination Sequence:
#
# PCOD9135807 Si02
#       8
#     4   4   4   4   4   4   4   4
#     4   9  21  42  68 103 133 175 243 280 328 434
#     4  11  25  45  66 104 139 171 239 281 338 421
#     4  11  26  46  66 105 144 174 239 284 341 429
#     4  10  23  43  73  97 137 185 229 284 354 408
#     4  10  24  44  72  96 136 191 226 283 347 415
#     4  11  24  46  69 100 141 180 227 289 355 401
#     4  10  20  45  69 101 131 177 240 281 319 441
#     4  12  27  45  69 104 143 183 221 296 358 399
#
# _framework density 23.580213000000001
#
# number of rings (size 3 to 8) (size 9 to 14) (size 15 to 20)
#    0.000    1.500    2.500    0.750    7.000    1.000 
#    4.500    0.000    0.000    0.000    0.000    0.000 
#    0.000    0.000    0.000    0.000    0.000    0.000 
#
# Total GULP energy -89234.816374 kJ/mol
# GULP energy per Si atom -5577.176023 kJ/mol
# Density = 2.352654 g / cm^3
# Si number density = 23.580213 Si / 1000 Ang^3
#
#
#
# Elastic Constant Matrix: (Units=GPa)
#
#
# Indices 1 2 3 4 5 6 
#
# 1 91.3095 0.6008 29.2071 0.0000 -12.5492 0.0000
# 2 0.6008 61.8406 21.5382 0.0000 -3.7217 0.0000
# 3 29.2071 21.5382 115.9642 0.0000 -20.1835 0.0000
# 4 0.0000 0.0000 0.0000 20.3060 0.0000 -9.7208
# 5 -12.5492 -3.7217 -20.1835 0.0000 45.4117 0.0000
# 6 0.0000 0.0000 0.0000 -9.7208 0.0000 13.7127
#
#
#
# Elastic Compliance Matrix: (Units=1/GPa)
#
#
# Indices 1 2 3 4 5 6 
#
# 1 0.012162 0.001013 -0.002874 0.000000 0.002166 0.000000
# 2 0.001013 0.017373 -0.003453 0.000000 0.000169 0.000000
# 3 -0.002874 -0.003453 0.010623 0.000000 0.003644 0.000000
# 4 0.000000 0.000000 0.000000 0.074543 0.000000 0.052843
# 5 0.002166 0.000169 0.003644 0.000000 0.024253 0.000000
# 6 0.000000 0.000000 0.000000 0.052843 0.000000 0.110385
#
#
# Mechanical properties :
#
#
# Convention : Reuss Voigt Hill
#
# Bulk Modulus (GPa) = 33.86232 41.31183 37.58707
# Shear Modulus (GPa) = 18.53150 30.40395 24.46772
#
# Velocity S-wave (km/s) = 2.80642 3.59469 3.22473
# Velocity P-wave (km/s) = 4.98928 5.89804 5.46259
#
# Compressibility (1/GPa) = 0.02953135
#
# Stress axis : x y z
#
# Youngs Moduli (GPa) = 82.22158 57.55922 94.13722
#
# Poissons Ratio (x) = -0.05833 0.27058
# Poissons Ratio (y) = -0.08332 0.32501
# Poissons Ratio (z) = 0.23633 0.19872
#
# Static dielectric constant tensor:
#      x y z
#    x 1.950580 0.000000 -0.046430 
#    y 0.000000 1.868790 0.000000 
#    z -0.046430 0.000000 1.921360 
# 
# From -- ./inp_files/13647.got.cif
#   From: 2010.05.17/outbox.cif.g08.bks.cpg/sg9_7_cif.got.tgz:13647.got - 2010.06.03 20:04:27.
