data_PCOD9135628
_publ_section_title
;
Structure prediction by ZEFSAII (Michael W. Deem and Ramdas Pophale) SiO2 
 PCOD9135628
Probable space group: C C
;
_chemical_formula_sum "Si O2"
_cell_formula_units_Z 20
_cell_length_a 11.399713
_cell_length_b 11.122224
_cell_length_c 8.947358
_cell_angle_alpha 90.000000
_cell_angle_beta 123.857949
_cell_angle_gamma 90.000000
_cell_volume 942.060741
_symmetry_space_group_name_H-M "C C"
_symmetry_group_IT_number 9
_symmetry_cell_setting 'monoclinic'
loop_
_space_group_symop_operation_xyz
x,y,z
x,-y,1/2+z
1/2+x,1/2+y,z
1/2+x,1/2-y,1/2+z
loop_
_atom_site_type_symbol
_atom_site_label
_atom_site_fract_x
_atom_site_fract_y
_atom_site_fract_z
Si Si1 0.136030 0.659938 0.375000
Si Si2 0.101031 0.485357 0.594450
Si Si3 0.793519 0.620968 0.130435
Si Si4 0.985721 0.674728 0.764121
Si Si5 0.720528 0.634426 0.428860
O O1 0.182898 0.562366 0.531239
O O2 0.184299 0.611604 0.249700
O O3 0.202845 0.782902 0.473557
O O4 0.962655 0.652541 0.245354
O O5 0.044616 0.585040 0.673441
O O6 0.988905 0.407778 0.416006
O O7 0.750315 0.624971 0.273614
O O8 0.748987 0.493529 0.027490
O O9 0.077649 0.793149 0.850526
O O10 0.837108 0.714778 0.594521
#
# Coordination Sequence:
#
# PCOD9135628 Si02
#       5
#     4   4   4   4   4
#     4  11  22  41  67  86 125 160 202 246 305 353
#     4  10  20  42  64  88 120 170 190 248 308 358
#     4  12  23  42  62  91 123 161 200 250 300 358
#     4  11  22  41  67  86 125 160 202 246 305 353
#     4  12  23  42  62  91 123 161 200 250 300 358
#
# _framework density 21.230053000000002
#
# number of rings (size 3 to 8) (size 9 to 14) (size 15 to 20)
#    0.000    0.800    8.000    0.000    2.800    0.000 
#    7.200    0.000    0.000    0.000    0.000    0.000 
#    0.000    0.000    0.000    0.000    0.000    0.000 
#
# Total GULP energy -55779.440071 kJ/mol
# GULP energy per Si atom -5577.944007 kJ/mol
# Density = 2.118173 g / cm^3
# Si number density = 21.230053 Si / 1000 Ang^3
#
#
#
# Elastic Constant Matrix: (Units=GPa)
#
#
# Indices 1 2 3 4 5 6 
#
# 1 34.8241 41.3279 34.6584 0.0000 2.9921 0.0000
# 2 41.3279 117.3800 78.5501 0.0000 22.4934 0.0000
# 3 34.6584 78.5501 142.7484 0.0000 -2.8421 0.0000
# 4 0.0000 0.0000 0.0000 59.5032 0.0000 0.4535
# 5 2.9921 22.4934 -2.8421 0.0000 38.2797 0.0000
# 6 0.0000 0.0000 0.0000 0.4535 0.0000 26.2980
#
#
#
# Elastic Compliance Matrix: (Units=1/GPa)
#
#
# Indices 1 2 3 4 5 6 
#
# 1 0.051765 -0.017490 -0.002824 0.000000 0.006021 0.000000
# 2 -0.017490 0.022854 -0.008582 0.000000 -0.012699 0.000000
# 3 -0.002824 -0.008582 0.012537 0.000000 0.006195 0.000000
# 4 0.000000 0.000000 0.000000 0.016808 0.000000 -0.000290
# 5 0.006021 -0.012699 0.006195 0.000000 0.033575 0.000000
# 6 0.000000 0.000000 0.000000 -0.000290 0.000000 0.038031
#
#
# Mechanical properties :
#
#
# Convention : Reuss Voigt Hill
#
# Bulk Modulus (GPa) = 34.05572 67.11393 50.58483
# Shear Modulus (GPa) = 20.56338 34.17727 27.37033
#
# Velocity S-wave (km/s) = 3.11561 4.01665 3.59447
# Velocity P-wave (km/s) = 5.38691 7.29333 6.41137
#
# Compressibility (1/GPa) = 0.02936364
#
# Stress axis : x y z
#
# Youngs Moduli (GPa) = 19.31792 43.75600 79.76386
#
# Poissons Ratio (x) = 0.76528 0.22529
# Poissons Ratio (y) = 0.33786 0.68456
# Poissons Ratio (z) = 0.05456 0.37553
#
# Static dielectric constant tensor:
#      x y z
#    x 1.811390 0.000000 -0.008100 
#    y 0.000000 1.773990 0.000000 
#    z -0.008100 0.000000 1.776730 
# 
# From -- ./inp_files/4747.got.cif
#   From: 2010.05.17/outbox.cif.g08.bks.cpg/sg9_3_cif.got.tgz:4747.got - 2010.06.03 20:04:27.
