data_PCOD9135020
_publ_section_title
;
Structure prediction by ZEFSAII (Michael W. Deem and Ramdas Pophale) SiO2 
 PCOD9135020
Probable space group: C C
;
_chemical_formula_sum "Si O2"
_cell_formula_units_Z 32
_cell_length_a 21.429473
_cell_length_b 8.272075
_cell_length_c 26.214521
_cell_angle_alpha 90.000000
_cell_angle_beta 18.308073
_cell_angle_gamma 90.000000
_cell_volume 1459.728473
_symmetry_space_group_name_H-M "C C"
_symmetry_group_IT_number 9
_symmetry_cell_setting 'monoclinic'
loop_
_space_group_symop_operation_xyz
x,y,z
x,-y,1/2+z
1/2+x,1/2+y,z
1/2+x,1/2-y,1/2+z
loop_
_atom_site_type_symbol
_atom_site_label
_atom_site_fract_x
_atom_site_fract_y
_atom_site_fract_z
Si Si1 0.035740 0.904626 0.771300
Si Si2 0.361469 0.894014 0.365388
Si Si3 0.835642 0.392369 0.980207
Si Si4 0.620948 0.149977 0.981192
Si Si5 0.386561 0.789769 0.566714
Si Si6 0.190511 0.506216 0.765607
Si Si7 0.461574 0.486740 0.144900
Si Si8 0.154710 0.423315 0.570727
O O1 0.181666 0.845241 0.701416
O O2 0.983515 0.771283 0.769238
O O3 0.149362 0.056642 0.659182
O O4 0.822829 0.951444 0.957138
O O5 0.381056 0.959251 0.407486
O O6 0.463073 0.027161 0.250728
O O7 0.128107 0.889368 0.534351
O O8 0.037246 0.383988 0.857285
O O9 0.754526 0.245998 0.009290
O O10 0.825678 0.095895 0.794585
O O11 0.452156 0.124739 0.068859
O O12 0.579038 0.337586 0.027356
O O13 0.615263 0.067748 0.040936
O O14 0.347999 0.599480 0.607107
O O15 0.554958 0.850028 0.396242
O O16 0.314982 0.437858 0.716538
#
# Coordination Sequence:
#
# PCOD9135020 Si02
#       8
#     4   4   4   4   4   4   4   4
#     4  11  24  42  63  93 127 164 214 262 318 382
#     4  12  23  38  63  92 127 167 209 261 320 373
#     4  11  22  40  62  90 128 163 207 263 314 377
#     4  10  20  37  61  94 125 166 217 260 306 378
#     4   9  19  36  62  90 122 165 210 260 305 372
#     4   9  19  36  61  90 124 166 209 259 313 367
#     4  10  20  36  61  94 127 167 213 260 314 371
#     4  12  25  39  63  97 126 168 211 261 324 378
#
# _framework density 21.921885
#
# number of rings (size 3 to 8) (size 9 to 14) (size 15 to 20)
#    0.000    1.500    2.500    3.000    1.750    1.000 
#    0.000    1.250    0.000    4.500    0.000    0.000 
#    0.000    0.000    0.000    0.000    0.000    0.000 
#
# Total GULP energy -89240.251891 kJ/mol
# GULP energy per Si atom -5577.515743 kJ/mol
# Density = 2.187199 g / cm^3
# Si number density = 21.921885 Si / 1000 Ang^3
#
#
#
# Elastic Constant Matrix: (Units=GPa)
#
#
# Indices 1 2 3 4 5 6 
#
# 1 115.2378 12.4861 53.9724 -0.0229 -29.8774 0.0040
# 2 12.4861 27.8728 9.7263 -0.0483 -11.6724 -0.0058
# 3 53.9724 9.7263 104.2089 -0.1362 -28.1716 -0.0097
# 4 -0.0229 -0.0483 -0.1362 21.3059 -0.0353 2.2906
# 5 -29.8774 -11.6724 -28.1716 -0.0353 38.8093 0.0054
# 6 0.0040 -0.0058 -0.0097 2.2906 0.0054 12.0011
#
#
#
# Elastic Compliance Matrix: (Units=1/GPa)
#
#
# Indices 1 2 3 4 5 6 
#
# 1 0.012591 -0.001561 -0.004830 -0.000010 0.005718 -0.000009
# 2 -0.001561 0.041273 -0.000016 0.000111 0.011200 -0.000006
# 3 -0.004830 -0.000016 0.013801 0.000094 0.006295 -0.000008
# 4 -0.000010 0.000111 0.000094 0.047920 0.000139 -0.009146
# 5 0.005718 0.011200 0.006295 0.000139 0.038108 -0.000035
# 6 -0.000009 -0.000006 -0.000008 -0.009146 -0.000035 0.085071
#
#
# Mechanical properties :
#
#
# Convention : Reuss Voigt Hill
#
# Bulk Modulus (GPa) = 18.23075 44.40988 31.32032
# Shear Modulus (GPa) = 18.52809 25.83224 22.18016
#
# Velocity S-wave (km/s) = 2.91036 3.43647 3.18430
# Velocity P-wave (km/s) = 4.43034 6.00400 5.27617
#
# Compressibility (1/GPa) = 0.05485238
#
# Stress axis : x y z
#
# Youngs Moduli (GPa) = 79.41879 24.22919 72.45803
#
# Poissons Ratio (x) = 0.03781 0.34997
# Poissons Ratio (y) = 0.12393 0.00115
# Poissons Ratio (z) = 0.38359 0.00038
#
# Static dielectric constant tensor:
#      x y z
#    x 1.813300 0.000000 -0.000760 
#    y 0.000000 1.843930 0.000030 
#    z -0.000760 0.000030 1.791390 
# 
# From -- ./inp_files/12068.got.cif
#   From: 2010.05.17/outbox.cif.g08.bks.cpg/sg9_7_cif.got.tgz:12068.got - 2010.06.03 20:04:27.
