data_PCOD9135435
_publ_section_title
;
Structure prediction by ZEFSAII (Michael W. Deem and Ramdas Pophale) SiO2 
 PCOD9135435
Probable space group: C C
;
_chemical_formula_sum "Si O2"
_cell_formula_units_Z 32
_cell_length_a 11.593913
_cell_length_b 12.775104
_cell_length_c 13.337442
_cell_angle_alpha 90.000000
_cell_angle_beta 48.707768
_cell_angle_gamma 90.000000
_cell_volume 1484.264846
_symmetry_space_group_name_H-M "C C"
_symmetry_group_IT_number 9
_symmetry_cell_setting 'monoclinic'
loop_
_space_group_symop_operation_xyz
x,y,z
x,-y,1/2+z
1/2+x,1/2+y,z
1/2+x,1/2-y,1/2+z
loop_
_atom_site_type_symbol
_atom_site_label
_atom_site_fract_x
_atom_site_fract_y
_atom_site_fract_z
Si Si1 0.959090 0.868425 0.195420
Si Si2 0.508177 0.261285 0.359293
Si Si3 0.082941 0.574805 0.624801
Si Si4 0.507064 0.050682 0.879583
Si Si5 0.770209 0.584197 0.411683
Si Si6 0.375844 0.255840 0.653196
Si Si7 0.761244 0.061910 0.333534
Si Si8 0.425265 0.131295 0.141755
O O1 0.983575 0.859048 0.300317
O O2 0.943385 0.752147 0.159064
O O3 0.817896 0.946432 0.273302
O O4 0.105285 0.912120 0.054349
O O5 0.380497 0.178452 0.389898
O O6 0.464511 0.277180 0.499422
O O7 0.691912 0.247227 0.240942
O O8 0.104756 0.595666 0.729996
O O9 0.948913 0.651621 0.659925
O O10 0.042184 0.451388 0.628975
O O11 0.225872 0.589699 0.468527
O O12 0.355528 0.016960 0.905765
O O13 0.593855 0.947701 0.874978
O O14 0.454911 0.114433 0.007290
O O15 0.772501 0.594856 0.289542
O O16 0.381858 0.355580 0.722410
#
# Coordination Sequence:
#
# PCOD9135435 Si02
#       8
#     4   4   4   4   4   4   4   4
#     4  11  25  40  66 104 132 172 231 284 330 399
#     4  11  22  37  73  95 129 171 231 285 331 385
#     4  10  23  43  69  93 136 179 224 276 337 402
#     4  10  21  43  67  90 134 185 211 268 354 395
#     4  10  20  40  64 101 125 172 229 280 328 390
#     4  12  22  43  67 103 130 176 226 284 339 396
#     4  11  25  43  65 101 135 177 227 282 333 405
#     4   9  22  39  67  93 131 170 221 273 334 398
#
# _framework density 21.559494999999998
#
# number of rings (size 3 to 8) (size 9 to 14) (size 15 to 20)
#    0.000    1.500    3.750    0.750    8.750    2.000 
#    2.250    0.000    0.000    0.000    0.000    0.000 
#    0.000    0.000    0.000    0.000    0.000    0.000 
#
# Total GULP energy -89072.897063 kJ/mol
# GULP energy per Si atom -5567.056066 kJ/mol
# Density = 2.151042 g / cm^3
# Si number density = 21.559495 Si / 1000 Ang^3
#
#
#
# Elastic Constant Matrix: (Units=GPa)
#
#
# Indices 1 2 3 4 5 6 
#
# 1 40.9441 9.0665 42.5458 0.0000 18.7410 0.0000
# 2 9.0665 75.3142 29.9245 0.0000 12.4034 0.0000
# 3 42.5458 29.9245 181.2538 0.0000 36.6044 0.0000
# 4 0.0000 0.0000 0.0000 51.8427 0.0000 -3.1362
# 5 18.7410 12.4034 36.6044 0.0000 36.9846 0.0000
# 6 0.0000 0.0000 0.0000 -3.1362 0.0000 3.0382
#
#
#
# Elastic Compliance Matrix: (Units=1/GPa)
#
#
# Indices 1 2 3 4 5 6 
#
# 1 0.036395 0.000073 -0.006031 0.000000 -0.012498 0.000000
# 2 0.000073 0.014491 -0.001776 0.000000 -0.003140 0.000000
# 3 -0.006031 -0.001776 0.008109 0.000000 -0.004374 0.000000
# 4 0.000000 0.000000 0.000000 0.020574 0.000000 0.021237
# 5 -0.012498 -0.003140 -0.004374 0.000000 0.038753 0.000000
# 6 0.000000 0.000000 0.000000 0.021237 0.000000 0.351058
#
#
# Mechanical properties :
#
#
# Convention : Reuss Voigt Hill
#
# Bulk Modulus (GPa) = 22.97338 51.17620 37.07479
# Shear Modulus (GPa) = 10.01286 32.77148 21.39217
#
# Velocity S-wave (km/s) = 2.15740 3.90301 3.15340
# Velocity P-wave (km/s) = 4.10911 6.64079 5.52199
#
# Compressibility (1/GPa) = 0.04352863
#
# Stress axis : x y z
#
# Youngs Moduli (GPa) = 27.47642 69.00611 123.31374
#
# Poissons Ratio (x) = -0.00506 0.74373
# Poissons Ratio (y) = -0.00201 0.21896
# Poissons Ratio (z) = 0.16572 0.12253
#
# Static dielectric constant tensor:
#      x y z
#    x 1.826870 0.000000 0.015680 
#    y 0.000000 1.826920 0.000000 
#    z 0.015680 0.000000 1.818000 
# 
# From -- ./inp_files/25835.got.cif
#   From: 2010.05.17/outbox.cif.g08.bks.cpg/sg9_13_cif.got.tgz:25835.got - 2010.06.03 20:04:27.
