data_PCOD9135680
_publ_section_title
;
Structure prediction by ZEFSAII (Michael W. Deem and Ramdas Pophale) SiO2 
 PCOD9135680
Probable space group: C C
;
_chemical_formula_sum "Si O2"
_cell_formula_units_Z 32
_cell_length_a 11.772394
_cell_length_b 10.623333
_cell_length_c 12.414804
_cell_angle_alpha 90.000000
_cell_angle_beta 111.075000
_cell_angle_gamma 90.000000
_cell_volume 1448.766980
_symmetry_space_group_name_H-M "C C"
_symmetry_group_IT_number 9
_symmetry_cell_setting 'monoclinic'
loop_
_space_group_symop_operation_xyz
x,y,z
x,-y,1/2+z
1/2+x,1/2+y,z
1/2+x,1/2-y,1/2+z
loop_
_atom_site_type_symbol
_atom_site_label
_atom_site_fract_x
_atom_site_fract_y
_atom_site_fract_z
Si Si1 0.148080 0.732076 0.738970
Si Si2 0.306167 0.752138 0.261360
Si Si3 0.428416 0.311908 0.279555
Si Si4 0.340288 0.592560 0.464071
Si Si5 0.946511 0.921241 0.660137
Si Si6 0.530851 0.095480 0.904672
Si Si7 0.098456 0.674352 0.485300
Si Si8 0.049145 0.745684 0.112208
O O1 0.293798 0.723159 0.774740
O O2 0.085447 0.871012 0.711223
O O3 0.106831 0.661364 0.834405
O O4 0.091125 0.670388 0.611297
O O5 0.290025 0.626786 0.330195
O O6 0.373978 0.697420 0.181818
O O7 0.393728 0.853554 0.345625
O O8 0.174880 0.804632 0.192499
O O9 0.434694 0.453088 0.230531
O O10 0.528915 0.290910 0.407039
O O11 0.470731 0.224697 0.192692
O O12 0.375506 0.459354 0.526201
O O13 0.241305 0.662354 0.505211
O O14 0.470838 0.659379 0.514011
O O15 0.576906 0.133947 0.039635
O O16 0.540792 0.946844 0.908035
#
# Coordination Sequence:
#
# PCOD9135680 Si02
#       8
#     4   4   4   4   4   4   4   4
#     4  11  26  48  65 110 139 184 252 286 364 438
#     4  10  21  41  67  94 132 176 236 276 356 426
#     4  11  25  42  71 103 141 184 238 299 362 426
#     4  10  21  38  65  98 126 181 223 275 357 411
#     4  10  23  43  68  95 141 181 229 298 349 422
#     4  10  26  42  70  99 137 182 239 296 354 431
#     4  12  24  40  71 101 136 182 232 299 349 428
#     4  10  20  42  69  96 132 184 229 287 359 422
#
# _framework density 22.087748999999999
#
# number of rings (size 3 to 8) (size 9 to 14) (size 15 to 20)
#    0.000    1.500    3.750    0.750    5.250    4.000 
#    0.000    0.000    0.000    0.000    0.000    0.000 
#    0.000    0.000    0.000    0.000    0.000    0.000 
#
# Total GULP energy -89206.854745 kJ/mol
# GULP energy per Si atom -5575.428422 kJ/mol
# Density = 2.203748 g / cm^3
# Si number density = 22.087749 Si / 1000 Ang^3
#
#
#
# Elastic Constant Matrix: (Units=GPa)
#
#
# Indices 1 2 3 4 5 6 
#
# 1 128.5299 47.4820 35.3203 0.0000 9.9175 0.0000
# 2 47.4820 47.5221 26.1581 0.0000 11.7954 0.0000
# 3 35.3203 26.1581 75.5599 0.0000 2.9971 0.0000
# 4 0.0000 0.0000 0.0000 27.9124 0.0000 -3.3008
# 5 9.9175 11.7954 2.9971 0.0000 42.9333 0.0000
# 6 0.0000 0.0000 0.0000 -3.3008 0.0000 25.7993
#
#
#
# Elastic Compliance Matrix: (Units=1/GPa)
#
#
# Indices 1 2 3 4 5 6 
#
# 1 0.012553 -0.011623 -0.001861 0.000000 0.000424 0.000000
# 2 -0.011623 0.038724 -0.007678 0.000000 -0.007418 0.000000
# 3 -0.001861 -0.007678 0.016708 0.000000 0.001373 0.000000
# 4 0.000000 0.000000 0.000000 0.036377 0.000000 0.004654
# 5 0.000424 -0.007418 0.001373 0.000000 0.025136 0.000000
# 6 0.000000 0.000000 0.000000 0.004654 0.000000 0.039356
#
#
# Mechanical properties :
#
#
# Convention : Reuss Voigt Hill
#
# Bulk Modulus (GPa) = 38.97085 52.17031 45.57058
# Shear Modulus (GPa) = 22.75499 28.83909 25.79704
#
# Velocity S-wave (km/s) = 3.21317 3.61731 3.42121
# Velocity P-wave (km/s) = 5.60784 6.41229 6.02351
#
# Compressibility (1/GPa) = 0.02566020
#
# Stress axis : x y z
#
# Youngs Moduli (GPa) = 79.66351 25.82386 59.85124
#
# Poissons Ratio (x) = 0.30015 0.11137
# Poissons Ratio (y) = 0.92594 0.45956
# Poissons Ratio (z) = 0.14824 0.19829
#
# Static dielectric constant tensor:
#      x y z
#    x 1.847970 0.000000 -0.013950 
#    y 0.000000 1.859230 0.000000 
#    z -0.013950 0.000000 1.909330 
# 
# From -- ./inp_files/16486.got.cif
#   From: 2010.05.17/outbox.cif.g08.bks.cpg/sg9_9_cif.got.tgz:16486.got - 2010.06.03 20:04:27.
