data_PCOD9135678
_publ_section_title
;
Structure prediction by ZEFSAII (Michael W. Deem and Ramdas Pophale) SiO2 
 PCOD9135678
Probable space group: C C
;
_chemical_formula_sum "Si O2"
_cell_formula_units_Z 32
_cell_length_a 18.286994
_cell_length_b 12.201797
_cell_length_c 15.297553
_cell_angle_alpha 90.000000
_cell_angle_beta 23.990041
_cell_angle_gamma 90.000000
_cell_volume 1387.815699
_symmetry_space_group_name_H-M "C C"
_symmetry_group_IT_number 9
_symmetry_cell_setting 'monoclinic'
loop_
_space_group_symop_operation_xyz
x,y,z
x,-y,1/2+z
1/2+x,1/2+y,z
1/2+x,1/2-y,1/2+z
loop_
_atom_site_type_symbol
_atom_site_label
_atom_site_fract_x
_atom_site_fract_y
_atom_site_fract_z
Si Si1 0.713360 0.167724 0.657060
Si Si2 0.053503 0.707268 0.503229
Si Si3 0.314223 0.636481 0.360089
Si Si4 0.534234 0.376565 0.366224
Si Si5 0.550470 0.785059 0.698239
Si Si6 0.858910 0.888939 0.283828
Si Si7 0.556642 0.385527 0.881871
Si Si8 0.098047 0.566718 0.311628
O O1 0.697407 0.169137 0.570649
O O2 0.684043 0.281659 0.737478
O O3 0.916789 0.136415 0.456708
O O4 0.597988 0.063828 0.813651
O O5 0.211554 0.644173 0.380168
O O6 0.075386 0.801231 0.405655
O O7 0.979054 0.612969 0.521362
O O8 0.958797 0.769300 0.685671
O O9 0.381929 0.511737 0.296318
O O10 0.615351 0.312564 0.194633
O O11 0.622753 0.493117 0.289264
O O12 0.314214 0.395108 0.589005
O O13 0.650482 0.855967 0.513687
O O14 0.423404 0.707479 0.778292
O O15 0.528375 0.878665 0.797897
O O16 0.952552 0.886080 0.087899
#
# Coordination Sequence:
#
# PCOD9135678 Si02
#       8
#     4   4   4   4   4   4   4   4
#     4  11  23  44  64  92 134 175 210 268 334 390
#     4  11  22  40  70  97 126 172 220 272 320 394
#     4  12  23  43  67  99 134 171 222 271 328 390
#     4  10  20  42  69  95 130 173 216 266 334 382
#     4  11  22  40  70  97 126 172 220 272 320 394
#     4  12  23  43  67  99 134 171 222 271 328 390
#     4  11  23  44  64  92 134 175 210 268 334 390
#     4  10  20  42  69  95 130 173 216 266 334 382
#
# _framework density 23.057818999999999
#
# number of rings (size 3 to 8) (size 9 to 14) (size 15 to 20)
#    0.000    1.000    5.000    3.000    0.000    0.000 
#    4.500    2.500    0.000    0.000    0.000    0.000 
#    0.000    0.000    0.000    0.000    0.000    0.000 
#
# Total GULP energy -89068.784181 kJ/mol
# GULP energy per Si atom -5566.799011 kJ/mol
# Density = 2.300534 g / cm^3
# Si number density = 23.057819 Si / 1000 Ang^3
#
#
#
# Elastic Constant Matrix: (Units=GPa)
#
#
# Indices 1 2 3 4 5 6 
#
# 1 61.2767 -0.6478 9.2480 0.0030 12.6194 0.0006
# 2 -0.6478 128.6384 41.8040 0.0041 25.5685 0.0001
# 3 9.2480 41.8040 39.9619 0.0043 27.5364 0.0007
# 4 0.0030 0.0041 0.0043 -273.5476 -0.0058 -76.2457
# 5 12.6194 25.5685 27.5364 -0.0058 30.1832 -0.0016
# 6 0.0006 0.0001 0.0007 -76.2457 -0.0016 2.6525
#
#
#
# Elastic Compliance Matrix: (Units=1/GPa)
#
#
# Indices 1 2 3 4 5 6 
#
# 1 0.018251 0.001851 0.000480 0.000000 -0.009637 0.000000
# 2 0.001851 0.012096 -0.014779 0.000000 0.002462 0.000000
# 3 0.000480 -0.014779 0.085859 0.000002 -0.066011 0.000001
# 4 0.000000 0.000000 0.000002 -0.000406 -0.000003 -0.011660
# 5 -0.009637 0.002462 -0.066011 -0.000003 0.095297 -0.000001
# 6 0.000000 0.000000 0.000001 -0.011660 -0.000001 0.041833
#
#
# Mechanical properties :
#
#
# Convention : Reuss Voigt Hill
#
# Bulk Modulus (GPa) = 10.95146 36.74283 23.84715
# Shear Modulus (GPa) = 16.21989 -36.17752 -9.97882
#
# Velocity S-wave (km/s) = 2.65513 -3.96535 -2.08258
# Velocity P-wave (km/s) = 3.76291 2.23509 2.14055
#
# Compressibility (1/GPa) = 0.09131200
#
# Stress axis : x y z
#
# Youngs Moduli (GPa) = 54.79090 82.66874 11.64702
#
# Poissons Ratio (x) = -0.15305 -0.00559
# Poissons Ratio (y) = -0.10144 0.17213
# Poissons Ratio (z) = -0.02631 1.22175
#
# Static dielectric constant tensor:
#      x y z
#    x 1.877450 0.000000 -0.129700 
#    y 0.000000 2.055520 0.000010 
#    z -0.129700 0.000010 2.040980 
# 
# From -- ./inp_files/10757.got.cif
#   From: 2010.05.17/outbox.cif.g08.bks.cpg/sg9_6_cif.got.tgz:10757.got - 2010.06.03 20:04:27.
