data_PCOD9135442
_publ_section_title
;
Structure prediction by ZEFSAII (Michael W. Deem and Ramdas Pophale) SiO2 
 PCOD9135442
Probable space group: C C
;
_chemical_formula_sum "Si O2"
_cell_formula_units_Z 32
_cell_length_a 9.410547
_cell_length_b 16.467296
_cell_length_c 10.287872
_cell_angle_alpha 90.000000
_cell_angle_beta 80.731131
_cell_angle_gamma 90.000000
_cell_volume 1573.457254
_symmetry_space_group_name_H-M "C C"
_symmetry_group_IT_number 9
_symmetry_cell_setting 'monoclinic'
loop_
_space_group_symop_operation_xyz
x,y,z
x,-y,1/2+z
1/2+x,1/2+y,z
1/2+x,1/2-y,1/2+z
loop_
_atom_site_type_symbol
_atom_site_label
_atom_site_fract_x
_atom_site_fract_y
_atom_site_fract_z
Si Si1 0.010330 0.841919 0.927190
Si Si2 0.221523 0.975806 0.786574
Si Si3 0.180002 0.843825 0.265422
Si Si4 0.916943 0.522347 0.008428
Si Si5 0.898789 0.185703 0.702449
Si Si6 0.742595 0.243717 0.485153
Si Si7 0.978193 0.649039 0.607363
Si Si8 0.613271 0.160200 0.873685
O O1 0.111430 0.905175 0.841649
O O2 0.085529 0.752953 0.923147
O O3 0.851772 0.818674 0.895619
O O4 0.967145 0.871044 0.078649
O O5 0.308609 0.956193 0.642306
O O6 0.142245 0.061402 0.772439
O O7 0.331063 0.996405 0.889598
O O8 0.239587 0.823023 0.399531
O O9 0.309332 0.831004 0.144212
O O10 0.042261 0.788739 0.255123
O O11 0.992851 0.439492 0.044353
O O12 0.033562 0.593317 0.971599
O O13 0.811296 0.247598 0.620204
O O14 0.782470 0.150157 0.818348
O O15 0.582389 0.210851 0.520549
O O16 0.038418 0.649130 0.744510
#
# Coordination Sequence:
#
# PCOD9135442 Si02
#       8
#     4   4   4   4   4   4   4   4
#     4  10  21  39  64  97 130 175 222 278 342 397
#     4  11  24  38  71 100 132 179 228 281 336 417
#     4  11  20  43  63  98 129 177 224 274 345 401
#     4  11  22  41  68  97 131 185 226 273 345 413
#     4   9  23  38  64  93 137 170 216 298 324 394
#     4   9  21  39  64  89 132 177 209 282 343 390
#     4  10  20  40  64  90 131 170 228 278 330 402
#     4  11  21  42  66  94 132 177 219 282 339 404
#
# _framework density 20.337381000000001
#
# number of rings (size 3 to 8) (size 9 to 14) (size 15 to 20)
#    0.750    1.000    3.750    1.500    1.750    4.000 
#    0.000    0.000    0.000    0.000    0.000    0.000 
#    0.000    0.000    0.000    0.000    0.000    0.000 
#
# Total GULP energy -89078.470862 kJ/mol
# GULP energy per Si atom -5567.404429 kJ/mol
# Density = 2.029109 g / cm^3
# Si number density = 20.337381 Si / 1000 Ang^3
#
#
#
# Elastic Constant Matrix: (Units=GPa)
#
#
# Indices 1 2 3 4 5 6 
#
# 1 100.5659 37.7591 37.5462 0.0000 -13.9012 0.0000
# 2 37.7591 87.3315 45.8001 0.0000 -7.8139 0.0000
# 3 37.5462 45.8001 109.5357 0.0000 -23.8093 0.0000
# 4 0.0000 0.0000 0.0000 35.1326 0.0000 -6.8433
# 5 -13.9012 -7.8139 -23.8093 0.0000 26.8575 0.0000
# 6 0.0000 0.0000 0.0000 -6.8433 0.0000 21.7278
#
#
#
# Elastic Compliance Matrix: (Units=1/GPa)
#
#
# Indices 1 2 3 4 5 6 
#
# 1 0.012716 -0.004233 -0.001766 0.000000 0.003784 0.000000
# 2 -0.004233 0.016122 -0.005880 0.000000 -0.002713 0.000000
# 3 -0.001766 -0.005880 0.014397 0.000000 0.010138 0.000000
# 4 0.000000 0.000000 0.000000 0.030324 0.000000 0.009551
# 5 0.003784 -0.002713 0.010138 0.000000 0.047391 0.000000
# 6 0.000000 0.000000 0.000000 0.009551 0.000000 0.049032
#
#
# Mechanical properties :
#
#
# Convention : Reuss Voigt Hill
#
# Bulk Modulus (GPa) = 51.34332 59.96043 55.65188
# Shear Modulus (GPa) = 24.97127 28.49876 26.73502
#
# Velocity S-wave (km/s) = 3.50787 3.74745 3.62964
# Velocity P-wave (km/s) = 6.45813 6.94776 6.70742
#
# Compressibility (1/GPa) = 0.01947673
#
# Stress axis : x y z
#
# Youngs Moduli (GPa) = 78.64407 62.02866 69.45895
#
# Poissons Ratio (x) = 0.26256 0.12267
# Poissons Ratio (y) = 0.33290 0.40839
# Poissons Ratio (z) = 0.13889 0.36471
#
# Static dielectric constant tensor:
#      x y z
#    x 1.797600 0.000000 0.015160 
#    y 0.000000 1.721470 0.000000 
#    z 0.015160 0.000000 1.779990 
# 
# From -- ./inp_files/15049.got.cif
#   From: 2010.05.17/outbox.cif.g08.bks.cpg/sg9_8_cif.got.tgz:15049.got - 2010.06.03 20:04:27.
