data_PCOD9135996
_publ_section_title
;
Structure prediction by ZEFSAII (Michael W. Deem and Ramdas Pophale) SiO2 
 PCOD9135996
Probable space group: C C
;
_chemical_formula_sum "Si O2"
_cell_formula_units_Z 28
_cell_length_a 20.304470
_cell_length_b 4.652434
_cell_length_c 26.413043
_cell_angle_alpha 90.000000
_cell_angle_beta 151.131536
_cell_angle_gamma 90.000000
_cell_volume 1204.641947
_symmetry_space_group_name_H-M "C C"
_symmetry_group_IT_number 9
_symmetry_cell_setting 'monoclinic'
loop_
_space_group_symop_operation_xyz
x,y,z
x,-y,1/2+z
1/2+x,1/2+y,z
1/2+x,1/2-y,1/2+z
loop_
_atom_site_type_symbol
_atom_site_label
_atom_site_fract_x
_atom_site_fract_y
_atom_site_fract_z
Si Si1 0.202810 0.418236 0.873160
Si Si2 0.220294 0.078565 0.314134
Si Si3 0.552577 0.814780 0.362455
Si Si4 0.501481 0.438757 0.583079
Si Si5 0.772238 0.857017 0.630064
Si Si6 0.685410 0.312027 0.508424
Si Si7 0.019183 0.561641 0.024431
O O1 0.193902 0.095458 0.848212
O O2 0.090864 0.529891 0.835894
O O3 0.205642 0.595209 0.822469
O O4 0.349245 0.480618 0.997445
O O5 0.112766 0.999934 0.199598
O O6 0.374762 0.009820 0.401587
O O7 0.400965 0.696691 0.252501
O O8 0.653841 0.544964 0.442342
O O9 0.571238 0.065448 0.417623
O O10 0.513501 0.111495 0.573386
O O11 0.524161 0.611277 0.546179
O O12 0.711288 0.555929 0.568651
O O13 0.802218 0.077793 0.603448
O O14 0.650019 0.002473 0.579332
#
# Coordination Sequence:
#
# PCOD9135996 Si02
#       7
#     4   4   4   4   4   4   4
#     4  10  22  38  58  87 119 150 198 244 292 363
#     4  10  21  38  60  86 116 155 193 242 300 353
#     4  11  23  41  62  90 125 162 204 257 307 362
#     4  10  21  38  60  86 116 155 193 242 300 353
#     4  11  23  41  62  90 125 162 204 257 307 362
#     4  10  24  40  60  90 120 162 210 244 304 372
#     4  10  22  38  58  87 119 150 198 244 292 363
#
# _framework density 23.24342
#
# number of rings (size 3 to 8) (size 9 to 14) (size 15 to 20)
#    0.000    1.714    0.000    3.429    0.000    6.857 
#    0.000    0.000    0.000    0.000    0.000    0.000 
#    0.000    0.000    0.000    0.000    0.000    0.000 
#
# Total GULP energy -77997.130017 kJ/mol
# GULP energy per Si atom -5571.223573 kJ/mol
# Density = 2.319052 g / cm^3
# Si number density = 23.243420 Si / 1000 Ang^3
#
#
#
# Elastic Constant Matrix: (Units=GPa)
#
#
# Indices 1 2 3 4 5 6 
#
# 1 23.4413 -4.2420 2.6712 -0.0202 7.8622 -0.0343
# 2 -4.2420 111.0063 10.2571 0.0091 -7.2171 -0.1347
# 3 2.6712 10.2571 113.0241 -0.0325 -5.4395 0.0086
# 4 -0.0202 0.0091 -0.0325 33.6774 0.0082 -4.3341
# 5 7.8622 -7.2171 -5.4395 0.0082 15.6612 -0.0035
# 6 -0.0343 -0.1347 0.0086 -4.3341 -0.0035 20.0451
#
#
#
# Elastic Compliance Matrix: (Units=1/GPa)
#
#
# Indices 1 2 3 4 5 6 
#
# 1 0.052023 0.000484 -0.002562 0.000048 -0.026783 0.000099
# 2 0.000484 0.009338 -0.000675 0.000005 0.003826 0.000066
# 3 -0.002562 -0.000675 0.009170 0.000005 0.004160 -0.000011
# 4 0.000048 0.000005 0.000005 0.030543 -0.000035 0.006604
# 5 -0.026783 0.003826 0.004160 -0.000035 0.080506 -0.000015
# 6 0.000099 0.000066 -0.000011 0.006604 -0.000015 0.051316
#
#
# Mechanical properties :
#
#
# Convention : Reuss Voigt Hill
#
# Bulk Modulus (GPa) = 15.37911 29.42714 22.40312
# Shear Modulus (GPa) = 19.22504 29.79577 24.51041
#
# Velocity S-wave (km/s) = 2.87909 3.58425 3.25084
# Velocity P-wave (km/s) = 4.20513 5.46050 4.87340
#
# Compressibility (1/GPa) = 0.06502328
#
# Stress axis : x y z
#
# Youngs Moduli (GPa) = 19.22244 107.08744 109.05500
#
# Poissons Ratio (x) = -0.05178 0.27944
# Poissons Ratio (y) = -0.00930 0.07358
# Poissons Ratio (z) = 0.04926 0.07226
#
# Static dielectric constant tensor:
#      x y z
#    x 1.900940 0.000000 0.001220 
#    y 0.000000 1.858540 0.000010 
#    z 0.001220 0.000010 1.857890 
# 
# From -- ./inp_files/35927.got.cif
#   From: 2010.05.17/outbox.cif.g08.bks.cpg/sg9_18_cif.got.tgz:35927.got - 2010.06.03 20:04:27.
