data_PCOD9135505
_publ_section_title
;
Structure prediction by ZEFSAII (Michael W. Deem and Ramdas Pophale) SiO2 
 PCOD9135505
Probable space group: C C
;
_chemical_formula_sum "Si O2"
_cell_formula_units_Z 28
_cell_length_a 20.451777
_cell_length_b 10.257606
_cell_length_c 11.000627
_cell_angle_alpha 90.000000
_cell_angle_beta 149.710126
_cell_angle_gamma 90.000000
_cell_volume 1163.986856
_symmetry_space_group_name_H-M "C C"
_symmetry_group_IT_number 9
_symmetry_cell_setting 'monoclinic'
loop_
_space_group_symop_operation_xyz
x,y,z
x,-y,1/2+z
1/2+x,1/2+y,z
1/2+x,1/2-y,1/2+z
loop_
_atom_site_type_symbol
_atom_site_label
_atom_site_fract_x
_atom_site_fract_y
_atom_site_fract_z
Si Si1 0.861270 0.837167 0.337730
Si Si2 0.733310 0.138580 0.875438
Si Si3 0.361741 0.226125 0.804089
Si Si4 0.955289 0.557501 0.389077
Si Si5 0.790658 0.388518 0.420968
Si Si6 0.092061 0.104601 0.049252
Si Si7 0.619203 0.275181 0.344083
O O1 0.842819 0.881281 0.447207
O O2 0.911155 0.685497 0.398800
O O3 0.964969 0.918628 0.426421
O O4 0.716066 0.837099 0.048706
O O5 0.609097 0.042897 0.666491
O O6 0.666237 0.274572 0.728828
O O7 0.796714 0.175499 0.105862
O O8 0.295623 0.225334 0.830647
O O9 0.373300 0.073760 0.782544
O O10 0.510558 0.251861 0.071275
O O11 0.932611 0.582035 0.206446
O O12 0.701623 0.496752 0.217974
O O13 0.718796 0.363064 0.430625
O O14 0.058076 0.150819 0.860115
#
# Coordination Sequence:
#
# PCOD9135505 Si02
#       7
#     4   4   4   4   4   4   4
#     4   9  19  41  62  91 132 171 218 286 336 394
#     4  10  21  39  64 100 127 174 222 283 332 405
#     4  12  23  40  65  95 138 177 223 284 341 410
#     4  10  22  40  68  94 126 175 232 273 342 406
#     4  11  21  41  68  95 123 177 226 273 346 414
#     4  10  20  40  69  91 127 173 226 280 340 405
#     4  10  22  39  60  96 129 173 219 279 343 404
#
# _framework density 24.055254000000001
#
# number of rings (size 3 to 8) (size 9 to 14) (size 15 to 20)
#    0.000    1.714    1.429    6.000    0.000    2.286 
#    2.571    1.429    0.000    0.000    0.000    0.000 
#    0.000    0.000    0.000    0.000    0.000    0.000 
#
# Total GULP energy -78055.081351 kJ/mol
# GULP energy per Si atom -5575.362954 kJ/mol
# Density = 2.400050 g / cm^3
# Si number density = 24.055254 Si / 1000 Ang^3
#
#
#
# Elastic Constant Matrix: (Units=GPa)
#
#
# Indices 1 2 3 4 5 6 
#
# 1 128.9286 9.7007 70.7995 0.0000 5.6400 0.0000
# 2 9.7007 36.5371 27.4570 0.0000 0.1721 0.0000
# 3 70.7995 27.4570 129.0494 0.0000 -17.6991 0.0000
# 4 0.0000 0.0000 0.0000 34.1365 0.0000 3.2511
# 5 5.6400 0.1721 -17.6991 0.0000 40.8802 0.0000
# 6 0.0000 0.0000 0.0000 3.2511 0.0000 9.3273
#
#
#
# Elastic Compliance Matrix: (Units=1/GPa)
#
#
# Indices 1 2 3 4 5 6 
#
# 1 0.012140 0.002779 -0.007955 0.000000 -0.005131 0.000000
# 2 0.002779 0.033648 -0.009309 0.000000 -0.004555 0.000000
# 3 -0.007955 -0.009309 0.015150 0.000000 0.007696 0.000000
# 4 0.000000 0.000000 0.000000 0.030300 0.000000 -0.010561
# 5 -0.005131 -0.004555 0.007696 0.000000 0.028521 0.000000
# 6 0.000000 0.000000 0.000000 -0.010561 0.000000 0.110893
#
#
# Mechanical properties :
#
#
# Convention : Reuss Voigt Hill
#
# Bulk Modulus (GPa) = 31.28093 56.71441 43.99767
# Shear Modulus (GPa) = 18.49952 29.30599 23.90275
#
# Velocity S-wave (km/s) = 2.77617 3.49417 3.15566
# Velocity P-wave (km/s) = 4.82785 6.31719 5.62206
#
# Compressibility (1/GPa) = 0.03196836
#
# Stress axis : x y z
#
# Youngs Moduli (GPa) = 82.37111 29.71920 66.00873
#
# Poissons Ratio (x) = -0.08260 0.52513
# Poissons Ratio (y) = -0.22893 0.61445
# Poissons Ratio (z) = 0.65530 0.27665
#
# Static dielectric constant tensor:
#      x y z
#    x 1.986960 0.000000 0.019640 
#    y 0.000000 2.003990 0.000000 
#    z 0.019640 0.000000 2.100000 
# 
# From -- ./inp_files/16362.got.cif
#   From: 2010.05.17/outbox.cif.g08.bks.cpg/sg9_9_cif.got.tgz:16362.got - 2010.06.03 20:04:27.
