data_PCOD9135140
_publ_section_title
;
Structure prediction by ZEFSAII (Michael W. Deem and Ramdas Pophale) SiO2 
 PCOD9135140
Probable space group: C C
;
_chemical_formula_sum "Si O2"
_cell_formula_units_Z 28
_cell_length_a 25.802738
_cell_length_b 9.228385
_cell_length_c 13.964655
_cell_angle_alpha 90.000000
_cell_angle_beta 156.359701
_cell_angle_gamma 90.000000
_cell_volume 1333.395530
_symmetry_space_group_name_H-M "C C"
_symmetry_group_IT_number 9
_symmetry_cell_setting 'monoclinic'
loop_
_space_group_symop_operation_xyz
x,y,z
x,-y,1/2+z
1/2+x,1/2+y,z
1/2+x,1/2-y,1/2+z
loop_
_atom_site_type_symbol
_atom_site_label
_atom_site_fract_x
_atom_site_fract_y
_atom_site_fract_z
Si Si1 0.671410 0.094825 0.989710
Si Si2 0.926432 0.216729 0.140568
Si Si3 0.532399 0.966584 0.581744
Si Si4 0.015058 0.611318 0.346169
Si Si5 0.520263 0.547238 0.874705
Si Si6 0.313886 0.027040 0.360553
Si Si7 0.939925 0.175457 0.380341
O O1 0.562948 0.211279 0.839174
O O2 0.640928 0.043914 0.829535
O O3 0.636025 0.953348 0.991545
O O4 0.815239 0.155592 0.235338
O O5 0.903480 0.245989 0.214919
O O6 0.824202 0.303130 0.905704
O O7 0.932880 0.043405 0.151697
O O8 0.541464 0.791357 0.593385
O O9 0.525905 0.038289 0.467730
O O10 0.397771 0.997110 0.408800
O O11 0.008855 0.783102 0.345300
O O12 0.889913 0.556218 0.074283
O O13 0.665223 0.493292 0.100686
O O14 0.488078 0.481628 0.925572
#
# Coordination Sequence:
#
# PCOD9135140 Si02
#       7
#     4   4   4   4   4   4   4
#     4  10  21  39  65  89 124 164 204 252 308 359
#     4   8  19  40  58  89 120 159 204 244 300 361
#     4  10  20  37  65  87 117 168 200 246 314 351
#     4  10  21  39  59  92 123 154 207 254 294 372
#     4  10  22  37  62  89 121 159 201 252 308 355
#     4  10  21  41  62  84 121 163 200 250 306 356
#     4  10  20  39  61  90 120 163 204 248 304 364
#
# _framework density 20.999022
#
# number of rings (size 3 to 8) (size 9 to 14) (size 15 to 20)
#    0.857    1.714    2.857    0.857    2.000    2.286 
#    0.000   14.286    0.000    0.000    0.000    0.000 
#    0.000    0.000    0.000    0.000    0.000    0.000 
#
# Total GULP energy -77988.725770 kJ/mol
# GULP energy per Si atom -5570.623269 kJ/mol
# Density = 2.095123 g / cm^3
# Si number density = 20.999022 Si / 1000 Ang^3
#
#
#
# Elastic Constant Matrix: (Units=GPa)
#
#
# Indices 1 2 3 4 5 6 
#
# 1 59.2490 14.7551 0.4561 0.0000 -20.1764 0.0000
# 2 14.7551 156.6581 15.6942 0.0000 -14.3612 0.0000
# 3 0.4561 15.6942 25.7735 0.0000 -4.9251 0.0000
# 4 0.0000 0.0000 0.0000 25.7872 0.0000 -10.9056
# 5 -20.1764 -14.3612 -4.9251 0.0000 18.5416 0.0000
# 6 0.0000 0.0000 0.0000 -10.9056 0.0000 49.7650
#
#
#
# Elastic Compliance Matrix: (Units=1/GPa)
#
#
# Indices 1 2 3 4 5 6 
#
# 1 0.027552 -0.000297 0.005666 0.000000 0.031256 0.000000
# 2 -0.000297 0.007158 -0.003535 0.000000 0.004282 0.000000
# 3 0.005666 -0.003535 0.043726 0.000000 0.015043 0.000000
# 4 0.000000 0.000000 0.000000 0.042740 0.000000 0.009366
# 5 0.031256 0.004282 0.015043 0.000000 0.095257 0.000000
# 6 0.000000 0.000000 0.000000 0.009366 0.000000 0.022147
#
#
# Mechanical properties :
#
#
# Convention : Reuss Voigt Hill
#
# Bulk Modulus (GPa) = 12.17963 33.72125 22.95044
# Shear Modulus (GPa) = 19.06348 32.87043 25.96696
#
# Velocity S-wave (km/s) = 3.01629 3.96072 3.52032
# Velocity P-wave (km/s) = 4.23596 6.08356 5.24181
#
# Compressibility (1/GPa) = 0.08210427
#
# Stress axis : x y z
#
# Youngs Moduli (GPa) = 36.29457 139.70381 22.86943
#
# Poissons Ratio (x) = 0.04154 -0.12959
# Poissons Ratio (y) = 0.01079 0.08085
# Poissons Ratio (z) = -0.20566 0.49389
#
# Static dielectric constant tensor:
#      x y z
#    x 1.749260 0.000000 -0.007610 
#    y 0.000000 1.776830 0.000000 
#    z -0.007610 0.000000 1.746200 
# 
# From -- ./inp_files/27954.got.cif
#   From: 2010.05.17/outbox.cif.g08.bks.cpg/sg9_14_cif.got.tgz:27954.got - 2010.06.03 20:04:27.
