data_PCOD9135054
_publ_section_title
;
Structure prediction by ZEFSAII (Michael W. Deem and Ramdas Pophale) SiO2 
 PCOD9135054
Probable space group: C C
;
_chemical_formula_sum "Si O2"
_cell_formula_units_Z 32
_cell_length_a 12.373472
_cell_length_b 14.656371
_cell_length_c 10.465040
_cell_angle_alpha 90.000000
_cell_angle_beta 138.317603
_cell_angle_gamma 90.000000
_cell_volume 1262.063414
_symmetry_space_group_name_H-M "C C"
_symmetry_group_IT_number 9
_symmetry_cell_setting 'monoclinic'
loop_
_space_group_symop_operation_xyz
x,y,z
x,-y,1/2+z
1/2+x,1/2+y,z
1/2+x,1/2-y,1/2+z
loop_
_atom_site_type_symbol
_atom_site_label
_atom_site_fract_x
_atom_site_fract_y
_atom_site_fract_z
Si Si1 0.490680 0.527585 0.582150
Si Si2 0.719384 0.429638 0.500523
Si Si3 0.541659 0.666744 0.434357
Si Si4 0.968283 0.668586 0.059880
Si Si5 0.934213 0.844533 0.408370
Si Si6 0.262867 0.696341 0.995690
Si Si7 0.725923 0.132790 0.492387
Si Si8 0.029815 0.543250 0.876198
O O1 0.584193 0.576043 0.549029
O O2 0.398609 0.440540 0.447642
O O3 0.359613 0.599977 0.511268
O O4 0.602600 0.511673 0.803821
O O5 0.797229 0.355072 0.472405
O O6 0.611354 0.371896 0.507473
O O7 0.867054 0.492753 0.680912
O O8 0.490499 0.745288 0.489317
O O9 0.385769 0.653786 0.207635
O O10 0.688252 0.710128 0.484206
O O11 0.086962 0.677685 0.285815
O O12 0.007949 0.585351 0.998038
O O13 0.875178 0.780751 0.471916
O O14 0.819593 0.819081 0.189444
O O15 0.110583 0.624282 0.860241
O O16 0.655144 0.040133 0.490008
#
# Coordination Sequence:
#
# PCOD9135054 Si02
#       8
#     4   4   4   4   4   4   4   4
#     4  11  21  39  66 102 138 178 245 294 353 429
#     4  10  23  37  63 100 140 187 232 303 356 422
#     4  11  24  44  74 101 139 193 237 302 359 443
#     4  10  21  41  65 103 134 182 245 295 354 439
#     4  11  23  42  64 106 142 187 229 300 361 432
#     4  11  24  45  69 103 148 190 239 295 373 438
#     4  10  20  36  67  99 133 185 232 298 353 420
#     4  10  20  40  66 100 138 182 239 303 355 417
#
# _framework density 25.355302999999999
#
# number of rings (size 3 to 8) (size 9 to 14) (size 15 to 20)
#    0.000    1.500    1.250    4.500    3.500    1.000 
#    0.000    5.000    0.000    0.000    0.000    0.000 
#    0.000    0.000    0.000    0.000    0.000    0.000 
#
# Total GULP energy -89494.466710 kJ/mol
# GULP energy per Si atom -5593.404169 kJ/mol
# Density = 2.529759 g / cm^3
# Si number density = 25.355303 Si / 1000 Ang^3
#
#
#
# Elastic Constant Matrix: (Units=GPa)
#
#
# Indices 1 2 3 4 5 6 
#
# 1 157.9932 35.5913 15.6345 0.0000 6.7484 0.0000
# 2 35.5913 66.9256 23.6492 0.0000 -2.9716 0.0000
# 3 15.6345 23.6492 110.8043 0.0000 2.6657 0.0000
# 4 0.0000 0.0000 0.0000 25.2671 0.0000 4.1137
# 5 6.7484 -2.9716 2.6657 0.0000 24.9215 0.0000
# 6 0.0000 0.0000 0.0000 4.1137 0.0000 33.2331
#
#
#
# Elastic Compliance Matrix: (Units=1/GPa)
#
#
# Indices 1 2 3 4 5 6 
#
# 1 0.007340 -0.003966 -0.000130 0.000000 -0.002447 0.000000
# 2 -0.003966 0.018437 -0.003463 0.000000 0.003643 0.000000
# 3 -0.000130 -0.003463 0.009817 0.000000 -0.001428 0.000000
# 4 0.000000 0.000000 0.000000 0.040391 0.000000 -0.005000
# 5 -0.002447 0.003643 -0.001428 0.000000 0.041376 0.000000
# 6 0.000000 0.000000 0.000000 -0.005000 0.000000 0.030709
#
#
# Mechanical properties :
#
#
# Convention : Reuss Voigt Hill
#
# Bulk Modulus (GPa) = 48.84079 53.94147 51.39113
# Shear Modulus (GPa) = 29.40942 34.07422 31.74182
#
# Velocity S-wave (km/s) = 3.40941 3.66986 3.54203
# Velocity P-wave (km/s) = 5.89942 6.26718 6.08608
#
# Compressibility (1/GPa) = 0.02047469
#
# Stress axis : x y z
#
# Youngs Moduli (GPa) = 136.23522 54.23983 101.86651
#
# Poissons Ratio (x) = 0.21512 0.01328
# Poissons Ratio (y) = 0.54033 0.35276
# Poissons Ratio (z) = 0.01776 0.18783
#
# Static dielectric constant tensor:
#      x y z
#    x 2.090260 0.000000 0.002680 
#    y 0.000000 2.006150 0.000000 
#    z 0.002680 0.000000 2.010560 
# 
# From -- ./inp_files/17038.got.cif
#   From: 2010.05.17/outbox.cif.g08.bks.cpg/sg9_9_cif.got.tgz:17038.got - 2010.06.03 20:04:27.
