data_PCOD9135822
_publ_section_title
;
Structure prediction by ZEFSAII (Michael W. Deem and Ramdas Pophale) SiO2 
 PCOD9135822
Probable space group: C C
;
_chemical_formula_sum "Si O2"
_cell_formula_units_Z 28
_cell_length_a 22.907774
_cell_length_b 5.065608
_cell_length_c 11.485252
_cell_angle_alpha 90.000000
_cell_angle_beta 133.014319
_cell_angle_gamma 90.000000
_cell_volume 974.498611
_symmetry_space_group_name_H-M "C C"
_symmetry_group_IT_number 9
_symmetry_cell_setting 'monoclinic'
loop_
_space_group_symop_operation_xyz
x,y,z
x,-y,1/2+z
1/2+x,1/2+y,z
1/2+x,1/2-y,1/2+z
loop_
_atom_site_type_symbol
_atom_site_label
_atom_site_fract_x
_atom_site_fract_y
_atom_site_fract_z
Si Si1 0.421950 0.507348 0.518000
Si Si2 0.282583 0.146111 0.904018
Si Si3 0.859212 0.747634 0.672741
Si Si4 0.136273 0.153692 0.174703
Si Si5 0.060812 0.171267 0.848036
Si Si6 0.696143 0.042270 0.940593
Si Si7 0.480603 0.069227 0.429136
O O1 0.354004 0.732192 0.428885
O O2 0.394687 0.368787 0.603269
O O3 0.515420 0.578945 0.670636
O O4 0.428156 0.273539 0.431903
O O5 0.221397 0.376560 0.859363
O O6 0.227901 0.925933 0.766598
O O7 0.320006 0.023578 0.072645
O O8 0.781891 0.902731 0.613503
O O9 0.934961 0.705440 0.859003
O O10 0.157616 0.181428 0.343867
O O11 0.090094 0.006839 0.002837
O O12 0.072390 0.400142 0.092133
O O13 0.133829 0.369237 0.925023
O O14 0.988915 0.342157 0.807063
#
# Coordination Sequence:
#
# PCOD9135822 Si02
#       7
#     4   4   4   4   4   4   4
#     4  11  23  45  75 107 153 195 253 326 370 461
#     4  10  20  46  68 102 150 190 252 313 377 446
#     4  10  23  47  70 109 148 196 255 313 379 454
#     4   9  22  41  70 106 144 194 257 302 386 456
#     4  10  23  46  73 107 148 197 254 307 390 442
#     4  10  22  44  74 100 150 195 249 323 371 454
#     4  10  23  43  72 111 145 193 260 300 393 449
#
# _framework density 28.732723
#
# number of rings (size 3 to 8) (size 9 to 14) (size 15 to 20)
#    0.857    1.143    1.429    0.857    2.000    1.143 
#   12.857    0.000    0.000    0.000    0.000    0.000 
#    0.000    0.000    0.000    0.000    0.000    0.000 
#
# Total GULP energy -77947.290762 kJ/mol
# GULP energy per Si atom -5567.663626 kJ/mol
# Density = 2.866733 g / cm^3
# Si number density = 28.732723 Si / 1000 Ang^3
#
#
#
# Elastic Constant Matrix: (Units=GPa)
#
#
# Indices 1 2 3 4 5 6 
#
# 1 168.9411 62.8068 45.3766 0.0000 44.6765 0.0000
# 2 62.8068 91.1695 33.7725 0.0000 30.2304 0.0000
# 3 45.3766 33.7725 170.8091 0.0000 53.8686 0.0000
# 4 0.0000 0.0000 0.0000 48.7047 0.0000 22.0673
# 5 44.6765 30.2304 53.8686 0.0000 61.1278 0.0000
# 6 0.0000 0.0000 0.0000 22.0673 0.0000 44.3726
#
#
#
# Elastic Compliance Matrix: (Units=1/GPa)
#
#
# Indices 1 2 3 4 5 6 
#
# 1 0.008733 -0.004650 -0.000156 0.000000 -0.003945 0.000000
# 2 -0.004650 0.015668 -0.000680 0.000000 -0.003751 0.000000
# 3 -0.000156 -0.000680 0.008155 0.000000 -0.006736 0.000000
# 4 0.000000 0.000000 0.000000 0.026504 0.000000 -0.013181
# 5 -0.003945 -0.003751 -0.006736 0.000000 0.027034 0.000000
# 6 0.000000 0.000000 0.000000 -0.013181 0.000000 0.029092
#
#
# Mechanical properties :
#
#
# Convention : Reuss Voigt Hill
#
# Bulk Modulus (GPa) = 46.33202 79.42571 62.87886
# Shear Modulus (GPa) = 37.49483 50.10528 43.80005
#
# Velocity S-wave (km/s) = 3.61633 4.18046 3.90859
# Velocity P-wave (km/s) = 5.79632 7.14175 6.50392
#
# Compressibility (1/GPa) = 0.02158335
#
# Stress axis : x y z
#
# Youngs Moduli (GPa) = 114.50267 63.82605 122.62812
#
# Poissons Ratio (x) = 0.29681 0.01917
# Poissons Ratio (y) = 0.53247 0.08333
# Poissons Ratio (z) = 0.01790 0.04337
#
# Static dielectric constant tensor:
#      x y z
#    x 2.252140 0.000000 -0.174660 
#    y 0.000000 2.616330 0.000000 
#    z -0.174660 0.000000 2.406170 
# 
# From -- ./inp_files/20641.got.cif
#   From: 2010.05.17/outbox.cif.g08.bks.cpg/sg9_11_cif.got.tgz:20641.got - 2010.06.03 20:04:27.
