data_PCOD9135790
_publ_section_title
;
Structure prediction by ZEFSAII (Michael W. Deem and Ramdas Pophale) SiO2 
 PCOD9135790
Probable space group: C C
;
_chemical_formula_sum "Si O2"
_cell_formula_units_Z 28
_cell_length_a 19.985320
_cell_length_b 7.188141
_cell_length_c 11.614207
_cell_angle_alpha 90.000000
_cell_angle_beta 138.390198
_cell_angle_gamma 90.000000
_cell_volume 1107.951477
_symmetry_space_group_name_H-M "C C"
_symmetry_group_IT_number 9
_symmetry_cell_setting 'monoclinic'
loop_
_space_group_symop_operation_xyz
x,y,z
x,-y,1/2+z
1/2+x,1/2+y,z
1/2+x,1/2-y,1/2+z
loop_
_atom_site_type_symbol
_atom_site_label
_atom_site_fract_x
_atom_site_fract_y
_atom_site_fract_z
Si Si1 0.661970 0.699705 0.958840
Si Si2 0.479906 0.437623 0.070668
Si Si3 0.608338 0.070449 0.025381
Si Si4 0.361628 0.688641 0.604841
Si Si5 0.773495 0.610613 0.731896
Si Si6 0.928441 0.789024 0.764952
Si Si7 0.952881 0.648213 0.457794
O O1 0.568329 0.621510 0.768379
O O2 0.699213 0.786058 0.665280
O O3 0.691802 0.545480 0.089537
O O4 0.648774 0.894319 0.006633
O O5 0.389438 0.309415 0.005904
O O6 0.466970 0.658488 0.042683
O O7 0.488858 0.370259 0.952842
O O8 0.550721 0.981698 0.063171
O O9 0.517452 0.160652 0.831515
O O10 0.252106 0.766477 0.485643
O O11 0.380783 0.468677 0.645991
O O12 0.424505 0.785783 0.789095
O O13 0.835344 0.674981 0.696672
O O14 0.860122 0.466224 0.893818
#
# Coordination Sequence:
#
# PCOD9135790 Si02
#       7
#     4   4   4   4   4   4   4
#     4  11  23  43  76 104 135 186 247 296 363 422
#     4  11  23  44  69 108 144 184 243 297 352 432
#     4  11  21  43  74 100 138 187 239 292 359 428
#     4  10  20  44  71  99 144 186 229 298 362 430
#     4  10  22  44  70 100 139 191 232 287 365 431
#     4  10  23  43  68  98 144 188 226 290 368 418
#     4   9  22  43  70 107 146 190 232 300 371 419
#
# _framework density 25.271864999999998
#
# number of rings (size 3 to 8) (size 9 to 14) (size 15 to 20)
#    0.000    1.714    2.857    0.857    2.000    1.143 
#   10.286    2.857    0.000    0.000    0.000    0.000 
#    0.000    0.000    0.000    0.000    0.000    0.000 
#
# Total GULP energy -78137.715363 kJ/mol
# GULP energy per Si atom -5581.265383 kJ/mol
# Density = 2.521435 g / cm^3
# Si number density = 25.271865 Si / 1000 Ang^3
#
#
#
# Elastic Constant Matrix: (Units=GPa)
#
#
# Indices 1 2 3 4 5 6 
#
# 1 88.1237 40.4687 32.2655 0.0000 33.9277 0.0000
# 2 40.4687 212.6162 45.8827 0.0000 15.1775 0.0000
# 3 32.2655 45.8827 57.1089 0.0000 22.8104 0.0000
# 4 0.0000 0.0000 0.0000 33.1452 0.0000 7.4732
# 5 33.9277 15.1775 22.8104 0.0000 40.7827 0.0000
# 6 0.0000 0.0000 0.0000 7.4732 0.0000 47.4007
#
#
#
# Elastic Compliance Matrix: (Units=1/GPa)
#
#
# Indices 1 2 3 4 5 6 
#
# 1 0.018403 -0.001745 -0.004043 0.000000 -0.012399 0.000000
# 2 -0.001745 0.005865 -0.004422 0.000000 0.001743 0.000000
# 3 -0.004043 -0.004422 0.027488 0.000000 -0.010365 0.000000
# 4 0.000000 0.000000 0.000000 0.031282 0.000000 -0.004932
# 5 -0.012399 0.001743 -0.010365 0.000000 0.039984 0.000000
# 6 0.000000 0.000000 0.000000 -0.004932 0.000000 0.021874
#
#
# Mechanical properties :
#
#
# Convention : Reuss Voigt Hill
#
# Bulk Modulus (GPa) = 31.91296 66.12028 49.01662
# Shear Modulus (GPa) = 28.44741 40.21451 34.33096
#
# Velocity S-wave (km/s) = 3.35872 3.99341 3.68974
# Velocity P-wave (km/s) = 5.26276 6.89082 6.13107
#
# Compressibility (1/GPa) = 0.03133523
#
# Stress axis : x y z
#
# Youngs Moduli (GPa) = 54.33893 170.48944 36.37989
#
# Poissons Ratio (x) = 0.29754 0.14708
# Poissons Ratio (y) = 0.09483 0.16089
# Poissons Ratio (z) = 0.21968 0.75398
#
# Static dielectric constant tensor:
#      x y z
#    x 2.095180 0.000000 -0.019340 
#    y 0.000000 2.165010 0.000000 
#    z -0.019340 0.000000 2.055530 
# 
# From -- ./inp_files/20080.got.cif
#   From: 2010.05.17/outbox.cif.g08.bks.cpg/sg9_11_cif.got.tgz:20080.got - 2010.06.03 20:04:27.
