data_PCOD9135765
_publ_section_title
;
Structure prediction by ZEFSAII (Michael W. Deem and Ramdas Pophale) SiO2 
 PCOD9135765
Probable space group: C C
;
_chemical_formula_sum "Si O2"
_cell_formula_units_Z 28
_cell_length_a 12.079324
_cell_length_b 6.444774
_cell_length_c 13.205560
_cell_angle_alpha 90.000000
_cell_angle_beta 114.320347
_cell_angle_gamma 90.000000
_cell_volume 936.802545
_symmetry_space_group_name_H-M "C C"
_symmetry_group_IT_number 9
_symmetry_cell_setting 'monoclinic'
loop_
_space_group_symop_operation_xyz
x,y,z
x,-y,1/2+z
1/2+x,1/2+y,z
1/2+x,1/2-y,1/2+z
loop_
_atom_site_type_symbol
_atom_site_label
_atom_site_fract_x
_atom_site_fract_y
_atom_site_fract_z
Si Si1 0.473210 0.169111 0.503600
Si Si2 0.520198 0.717601 0.468987
Si Si3 0.523283 0.691221 0.818937
Si Si4 0.870369 0.109063 0.590009
Si Si5 0.748619 0.803279 0.777227
Si Si6 0.876914 0.548862 0.668237
Si Si7 0.717787 0.815834 0.387962
O O1 0.529370 0.327308 0.442075
O O2 0.332732 0.168237 0.413101
O O3 0.541582 0.954417 0.515108
O O4 0.451995 0.186270 0.616024
O O5 0.492533 0.610850 0.567474
O O6 0.382753 0.711005 0.374545
O O7 0.610007 0.699986 0.405999
O O8 0.419150 0.561499 0.721282
O O9 0.648167 0.685308 0.806288
O O10 0.469236 0.927460 0.778070
O O11 0.827437 0.348775 0.587366
O O12 0.771848 0.977908 0.492792
O O13 0.770545 0.681276 0.679956
O O14 0.706598 0.043308 0.782422
#
# Coordination Sequence:
#
# PCOD9135765 Si02
#       7
#     4   4   4   4   4   4   4
#     4  11  22  41  64  98 130 173 223 271 340 389
#     4  10  20  44  65  94 131 180 215 272 342 391
#     4  10  21  43  66  95 136 170 229 279 320 401
#     4   8  21  42  63  93 133 170 222 274 330 393
#     4  11  20  41  70  93 133 179 217 281 335 390
#     4   9  21  39  67  92 131 179 223 265 343 392
#     4  11  23  40  69  99 134 167 225 284 328 404
#
# _framework density 29.888904
#
# number of rings (size 3 to 8) (size 9 to 14) (size 15 to 20)
#    0.857    1.143    2.857    0.000    2.000    1.143 
#    7.714    0.000    3.143    0.000    0.000    0.000 
#    0.000    0.000    0.000    0.000    0.000    0.000 
#
# Total GULP energy -78230.546715 kJ/mol
# GULP energy per Si atom -5587.896194 kJ/mol
# Density = 2.982088 g / cm^3
# Si number density = 29.888904 Si / 1000 Ang^3
#
#
#
# Elastic Constant Matrix: (Units=GPa)
#
#
# Indices 1 2 3 4 5 6 
#
# 1 229.7270 40.9973 54.3192 0.0000 -63.2888 0.0000
# 2 40.9973 90.5874 47.4079 0.0000 -27.3761 0.0000
# 3 54.3192 47.4079 158.9360 0.0000 -52.3643 0.0000
# 4 0.0000 0.0000 0.0000 77.0913 0.0000 -21.9623
# 5 -63.2888 -27.3761 -52.3643 0.0000 68.4285 0.0000
# 6 0.0000 0.0000 0.0000 -21.9623 0.0000 57.3512
#
#
#
# Elastic Compliance Matrix: (Units=1/GPa)
#
#
# Indices 1 2 3 4 5 6 
#
# 1 0.005949 -0.001159 -0.000037 0.000000 0.005010 0.000000
# 2 -0.001159 0.013786 -0.003011 0.000000 0.002139 0.000000
# 3 -0.000037 -0.003011 0.009085 0.000000 0.005714 0.000000
# 4 0.000000 0.000000 0.000000 0.014560 0.000000 0.005576
# 5 0.005010 0.002139 0.005714 0.000000 0.024476 0.000000
# 6 0.000000 0.000000 0.000000 0.005576 0.000000 0.019572
#
#
# Mechanical properties :
#
#
# Convention : Reuss Voigt Hill
#
# Bulk Modulus (GPa) = 49.00523 84.96656 66.98590
# Shear Modulus (GPa) = 48.71257 63.00928 55.86092
#
# Velocity S-wave (km/s) = 4.04144 4.59640 4.32783
# Velocity P-wave (km/s) = 6.18135 7.52718 6.88722
#
# Compressibility (1/GPa) = 0.02040599
#
# Stress axis : x y z
#
# Youngs Moduli (GPa) = 168.10135 72.53779 110.07122
#
# Poissons Ratio (x) = 0.08407 0.00404
# Poissons Ratio (y) = 0.19482 0.33145
# Poissons Ratio (z) = 0.00617 0.21843
#
# Static dielectric constant tensor:
#      x y z
#    x 2.233650 0.000000 -0.006950 
#    y 0.000000 2.543330 0.000000 
#    z -0.006950 0.000000 2.430620 
# 
# From -- ./inp_files/24090.got.cif
#   From: 2010.05.17/outbox.cif.g08.bks.cpg/sg9_13_cif.got.tgz:24090.got - 2010.06.03 20:04:27.
