data_PCOD9135429
_publ_section_title
;
Structure prediction by ZEFSAII (Michael W. Deem and Ramdas Pophale) SiO2 
 PCOD9135429
Probable space group: C C
;
_chemical_formula_sum "Si O2"
_cell_formula_units_Z 32
_cell_length_a 5.326893
_cell_length_b 19.263873
_cell_length_c 13.162020
_cell_angle_alpha 90.000000
_cell_angle_beta 94.280075
_cell_angle_gamma 90.000000
_cell_volume 1346.874873
_symmetry_space_group_name_H-M "C C"
_symmetry_group_IT_number 9
_symmetry_cell_setting 'monoclinic'
loop_
_space_group_symop_operation_xyz
x,y,z
x,-y,1/2+z
1/2+x,1/2+y,z
1/2+x,1/2-y,1/2+z
loop_
_atom_site_type_symbol
_atom_site_label
_atom_site_fract_x
_atom_site_fract_y
_atom_site_fract_z
Si Si1 0.935170 0.120133 0.413840
Si Si2 0.799235 0.979864 0.325778
Si Si3 0.761572 0.334236 0.097624
Si Si4 0.290391 0.979864 0.197843
Si Si5 0.154457 0.879867 0.609781
Si Si6 0.930767 0.687812 0.385075
Si Si7 0.158860 0.687812 0.138546
Si Si8 0.828056 0.834235 0.425997
O O1 0.702694 0.162514 0.360179
O O2 0.005751 0.146214 0.528847
O O3 0.196431 0.135914 0.363169
O O4 0.863789 0.039685 0.408811
O O5 0.544812 0.002303 0.261811
O O6 0.746698 0.904311 0.370032
O O7 0.044812 0.974868 0.261810
O O8 0.842929 0.404312 0.153589
O O9 0.726840 0.266854 0.165758
O O10 0.945061 0.313269 0.010343
O O11 0.225839 0.039685 0.114810
O O12 0.386933 0.837486 0.663442
O O13 0.893196 0.864085 0.660452
O O14 0.083877 0.853786 0.494774
O O15 0.862787 0.766854 0.357863
O O16 0.144567 0.686731 0.013278
#
# Coordination Sequence:
#
# PCOD9135429 Si02
#       8
#     4   4   4   4   4   4   4   4
#     4  10  20  40  63  87 115 156 201 245 287 357
#     4  12  27  40  56  88 130 162 193 240 306 359
#     4   9  22  39  67  90 115 152 209 249 290 349
#     4  12  27  40  56  88 130 162 193 240 306 359
#     4  10  20  40  63  87 115 156 201 245 287 357
#     4   9  20  36  72  89 109 143 214 254 289 332
#     4   9  20  36  72  89 109 143 214 254 289 332
#     4   9  22  39  67  90 115 152 209 249 290 349
#
# _framework density 23.758704000000002
#
# number of rings (size 3 to 8) (size 9 to 14) (size 15 to 20)
#    1.500    0.500    0.000    3.000    3.500    1.000 
#    0.000    7.500    0.000    0.000    0.000    0.000 
#    0.000    0.000    0.000    0.000    0.000    0.000 
#
# Total GULP energy -89338.930376 kJ/mol
# GULP energy per Si atom -5583.683148 kJ/mol
# Density = 2.370463 g / cm^3
# Si number density = 23.758704 Si / 1000 Ang^3
#
#
#
# Elastic Constant Matrix: (Units=GPa)
#
#
# Indices 1 2 3 4 5 6 
#
# 1 121.0052 4.9325 13.3290 0.0000 6.3993 0.0000
# 2 4.9325 157.2882 -0.6279 0.0000 6.5154 0.0000
# 3 13.3290 -0.6279 19.5702 0.0000 9.0430 0.0000
# 4 0.0000 0.0000 0.0000 19.7006 0.0000 -0.6302
# 5 6.3993 6.5154 9.0430 0.0000 37.3688 0.0000
# 6 0.0000 0.0000 0.0000 -0.6302 0.0000 2.1845
#
#
#
# Elastic Compliance Matrix: (Units=1/GPa)
#
#
# Indices 1 2 3 4 5 6 
#
# 1 0.008949 -0.000305 -0.006104 0.000000 -0.000002 0.000000
# 2 -0.000305 0.006426 0.001022 0.000000 -0.001315 0.000000
# 3 -0.006104 0.001022 0.061798 0.000000 -0.014087 0.000000
# 4 0.000000 0.000000 0.000000 0.051233 0.000000 0.014779
# 5 -0.000002 -0.001315 -0.014087 0.000000 0.030399 0.000000
# 6 0.000000 0.000000 0.000000 0.014779 0.000000 0.462032
#
#
# Mechanical properties :
#
#
# Convention : Reuss Voigt Hill
#
# Bulk Modulus (GPa) = 15.06060 37.01454 26.03757
# Shear Modulus (GPa) = 7.64826 30.53278 19.09052
#
# Velocity S-wave (km/s) = 1.79614 3.58875 2.83771
# Velocity P-wave (km/s) = 3.26408 5.72585 4.66045
#
# Compressibility (1/GPa) = 0.06639842
#
# Stress axis : x y z
#
# Youngs Moduli (GPa) = 111.74430 155.62058 16.18185
#
# Poissons Ratio (x) = 0.04745 0.09877
# Poissons Ratio (y) = 0.03407 -0.01653
# Poissons Ratio (z) = 0.68206 -0.15899
#
# Static dielectric constant tensor:
#      x y z
#    x 1.891720 0.000000 -0.041800 
#    y 0.000000 1.877340 0.000000 
#    z -0.041800 0.000000 2.023880 
# 
# From -- ./inp_files/28795.got.cif
#   From: 2010.05.17/outbox.cif.g08.bks.cpg/sg9_15_cif.got.tgz:28795.got - 2010.06.03 20:04:27.
