data_PCOD9135818
_publ_section_title
;
Structure prediction by ZEFSAII (Michael W. Deem and Ramdas Pophale) SiO2 
 PCOD9135818
Probable space group: C C
;
_chemical_formula_sum "Si O2"
_cell_formula_units_Z 28
_cell_length_a 16.545953
_cell_length_b 8.808842
_cell_length_c 12.155140
_cell_angle_alpha 90.000000
_cell_angle_beta 47.461850
_cell_angle_gamma 90.000000
_cell_volume 1305.378038
_symmetry_space_group_name_H-M "C C"
_symmetry_group_IT_number 9
_symmetry_cell_setting 'monoclinic'
loop_
_space_group_symop_operation_xyz
x,y,z
x,-y,1/2+z
1/2+x,1/2+y,z
1/2+x,1/2-y,1/2+z
loop_
_atom_site_type_symbol
_atom_site_label
_atom_site_fract_x
_atom_site_fract_y
_atom_site_fract_z
Si Si1 0.095230 0.166445 0.751930
Si Si2 0.813584 0.685750 0.692712
Si Si3 0.188211 0.708527 0.735785
Si Si4 0.092998 0.893680 0.006406
Si Si5 0.152725 0.774166 0.520000
Si Si6 0.406496 0.516289 0.537046
Si Si7 0.537061 0.058733 0.459559
O O1 0.212580 0.145139 0.704449
O O2 0.108197 0.183043 0.610058
O O3 0.053693 0.320756 0.845835
O O4 0.003061 0.037809 0.863781
O O5 0.908015 0.560770 0.598788
O O6 0.859052 0.853053 0.619158
O O7 0.772042 0.708607 0.855418
O O8 0.151974 0.768652 0.650623
O O9 0.300769 0.618017 0.607609
O O10 0.098891 0.590626 0.865886
O O11 0.183044 0.835385 0.836193
O O12 0.972905 0.882596 0.064156
O O13 0.097397 0.073237 0.026365
O O14 0.095299 0.631987 0.513296
#
# Coordination Sequence:
#
# PCOD9135818 Si02
#       7
#     4   4   4   4   4   4   4
#     4  10  22  42  73 100 142 192 236 293 369 427
#     4  10  20  45  74 100 145 194 235 301 367 428
#     4  12  28  43  78 113 142 192 256 296 369 441
#     4  12  26  46  69 108 146 190 243 302 368 436
#     4  11  24  45  71 103 150 190 240 302 365 431
#     4  11  23  46  72 106 144 192 243 298 369 432
#     4  10  23  45  71 106 143 188 245 300 363 433
#
# _framework density 21.449724
#
# number of rings (size 3 to 8) (size 9 to 14) (size 15 to 20)
#    0.000    1.143    7.143    0.857    4.000    4.571 
#    2.571    0.000    0.000    0.000    0.000    0.000 
#    0.000    0.000    0.000    0.000    0.000    0.000 
#
# Total GULP energy -78116.100613 kJ/mol
# GULP energy per Si atom -5579.721472 kJ/mol
# Density = 2.140090 g / cm^3
# Si number density = 21.449724 Si / 1000 Ang^3
#
#
#
# Elastic Constant Matrix: (Units=GPa)
#
#
# Indices 1 2 3 4 5 6 
#
# 1 67.6158 39.9579 68.5033 0.0000 0.1959 0.0000
# 2 39.9579 66.0728 35.0930 0.0000 -3.1012 0.0000
# 3 68.5033 35.0930 130.6644 0.0000 16.0297 0.0000
# 4 0.0000 0.0000 0.0000 18.6978 0.0000 -9.0777
# 5 0.1959 -3.1012 16.0297 0.0000 51.8492 0.0000
# 6 0.0000 0.0000 0.0000 -9.0777 0.0000 27.3926
#
#
#
# Elastic Compliance Matrix: (Units=1/GPa)
#
#
# Indices 1 2 3 4 5 6 
#
# 1 0.043664 -0.015989 -0.019187 0.000000 0.004811 0.000000
# 2 -0.015989 0.023857 0.001863 0.000000 0.000911 0.000000
# 3 -0.019187 0.001863 0.017867 0.000000 -0.005340 0.000000
# 4 0.000000 0.000000 0.000000 0.063737 0.000000 0.021122
# 5 0.004811 0.000911 -0.005340 0.000000 0.020974 0.000000
# 6 0.000000 0.000000 0.000000 0.021122 0.000000 0.043506
#
#
# Mechanical properties :
#
#
# Convention : Reuss Voigt Hill
#
# Bulk Modulus (GPa) = 53.29954 61.27349 57.28652
# Shear Modulus (GPa) = 17.45292 27.64116 22.54704
#
# Velocity S-wave (km/s) = 2.85558 3.59367 3.24567
# Velocity P-wave (km/s) = 5.98122 6.77107 6.38836
#
# Compressibility (1/GPa) = 0.01876189
#
# Stress axis : x y z
#
# Youngs Moduli (GPa) = 22.90241 41.91563 55.96856
#
# Poissons Ratio (x) = 0.67019 1.07389
# Poissons Ratio (y) = 0.36619 -0.10429
# Poissons Ratio (z) = 0.43944 -0.07810
#
# Static dielectric constant tensor:
#      x y z
#    x 1.791080 0.000000 -0.030190 
#    y 0.000000 1.821130 0.000000 
#    z -0.030190 0.000000 1.793750 
# 
# From -- ./inp_files/19001.got.cif
#   From: 2010.05.17/outbox.cif.g08.bks.cpg/sg9_10_cif.got.tgz:19001.got - 2010.06.03 20:04:27.
