data_PCOD9135977
_publ_section_title
;
Structure prediction by ZEFSAII (Michael W. Deem and Ramdas Pophale) SiO2 
 PCOD9135977
Probable space group: C C
;
_chemical_formula_sum "Si O2"
_cell_formula_units_Z 32
_cell_length_a 18.380860
_cell_length_b 8.301379
_cell_length_c 22.987271
_cell_angle_alpha 90.000000
_cell_angle_beta 23.603321
_cell_angle_gamma 90.000000
_cell_volume 1404.429302
_symmetry_space_group_name_H-M "C C"
_symmetry_group_IT_number 9
_symmetry_cell_setting 'monoclinic'
loop_
_space_group_symop_operation_xyz
x,y,z
x,-y,1/2+z
1/2+x,1/2+y,z
1/2+x,1/2-y,1/2+z
loop_
_atom_site_type_symbol
_atom_site_label
_atom_site_fract_x
_atom_site_fract_y
_atom_site_fract_z
Si Si1 0.521680 0.418510 0.502370
Si Si2 0.591830 0.567896 0.158927
Si Si3 0.499479 0.078998 0.489920
Si Si4 0.453284 0.261711 0.872033
Si Si5 0.382198 0.570336 0.708787
Si Si6 0.167356 0.558894 0.185727
Si Si7 0.735276 0.379595 0.760243
Si Si8 0.358770 0.775863 0.971866
O O1 0.523138 0.230433 0.515398
O O2 0.535611 0.523428 0.549734
O O3 0.328666 0.458974 0.613924
O O4 0.667203 0.469619 0.347852
O O5 0.503336 0.606403 0.286381
O O6 0.433944 0.524121 0.229310
O O7 0.707650 0.404449 0.066424
O O8 0.742819 0.708792 0.035615
O O9 0.420950 0.159346 0.489487
O O10 0.690785 0.008202 0.332914
O O11 0.372466 0.943620 0.610618
O O12 0.561519 0.304736 0.852730
O O13 0.547977 0.099497 0.777589
O O14 0.336227 0.757594 0.730606
O O15 0.265810 0.605013 0.053234
O O16 0.031981 0.705080 0.303503
#
# Coordination Sequence:
#
# PCOD9135977 Si02
#       8
#     4   4   4   4   4   4   4   4
#     4  11  23  41  70 102 132 174 234 291 357 410
#     4  11  26  44  66 102 146 182 231 295 364 427
#     4  11  23  42  69 102 131 176 239 295 345 418
#     4  11  23  46  73 104 138 192 243 288 357 434
#     4  12  25  44  64 101 144 182 228 298 356 424
#     4  10  21  37  68  96 131 174 231 291 330 411
#     4  12  24  44  78 102 134 191 248 298 348 435
#     4  10  21  42  62  99 134 175 230 286 347 413
#
# _framework density 22.785053999999999
#
# number of rings (size 3 to 8) (size 9 to 14) (size 15 to 20)
#    0.000    1.000    3.750    3.000    7.000    1.000 
#    9.000    0.000    0.000    0.000    0.000    0.000 
#    0.000    0.000    0.000    0.000    0.000    0.000 
#
# Total GULP energy -89313.044076 kJ/mol
# GULP energy per Si atom -5582.065255 kJ/mol
# Density = 2.273319 g / cm^3
# Si number density = 22.785054 Si / 1000 Ang^3
#
#
#
# Elastic Constant Matrix: (Units=GPa)
#
#
# Indices 1 2 3 4 5 6 
#
# 1 32.3305 -3.5683 9.9776 -0.0001 9.8652 0.0014
# 2 -3.5683 53.6510 1.9332 -0.0014 -1.9113 0.0009
# 3 9.9776 1.9332 74.0911 -0.0046 18.3589 0.0014
# 4 -0.0001 -0.0014 -0.0046 32.0437 0.0009 20.7227
# 5 9.8652 -1.9113 18.3589 0.0009 18.5929 -0.0009
# 6 0.0014 0.0009 0.0014 20.7227 -0.0009 5.1111
#
#
#
# Elastic Compliance Matrix: (Units=1/GPa)
#
#
# Indices 1 2 3 4 5 6 
#
# 1 0.037077 0.001792 -0.000279 -0.000006 -0.019213 0.000010
# 2 0.001792 0.018886 -0.001297 -0.000002 0.002271 0.000003
# 3 -0.000279 -0.001297 0.017959 -0.000005 -0.017718 0.000012
# 4 -0.000006 -0.000002 -0.000005 -0.019240 0.000013 0.078007
# 5 -0.019213 0.002271 -0.017718 0.000013 0.081706 -0.000027
# 6 0.000010 0.000003 0.000012 0.078007 -0.000027 -0.120623
#
#
# Mechanical properties :
#
#
# Convention : Reuss Voigt Hill
#
# Bulk Modulus (GPa) = 13.44944 19.63973 16.54459
# Shear Modulus (GPa) = 124.63627 21.26490 72.95058
#
# Velocity S-wave (km/s) = 7.40403 3.05828 5.66448
# Velocity P-wave (km/s) = 8.88867 4.59446 7.07522
#
# Compressibility (1/GPa) = 0.07435253
#
# Stress axis : x y z
#
# Youngs Moduli (GPa) = 26.97101 52.94989 55.68373
#
# Poissons Ratio (x) = -0.09486 0.01554
# Poissons Ratio (y) = -0.04832 0.07221
# Poissons Ratio (z) = 0.00753 0.06867
#
# Static dielectric constant tensor:
#      x y z
#    x 2.039440 0.000000 -0.014250 
#    y 0.000000 1.937710 0.000000 
#    z -0.014250 0.000000 1.814240 
# 
# From -- ./inp_files/31219.got.cif
#   From: 2010.05.17/outbox.cif.g08.bks.cpg/sg9_16_cif.got.tgz:31219.got - 2010.06.03 20:04:27.
