data_PCOD9135766
_publ_section_title
;
Structure prediction by ZEFSAII (Michael W. Deem and Ramdas Pophale) SiO2 
 PCOD9135766
Probable space group: C C
;
_chemical_formula_sum "Si O2"
_cell_formula_units_Z 28
_cell_length_a 10.220421
_cell_length_b 11.121604
_cell_length_c 10.933865
_cell_angle_alpha 90.000000
_cell_angle_beta 72.143589
_cell_angle_gamma 90.000000
_cell_volume 1182.955416
_symmetry_space_group_name_H-M "C C"
_symmetry_group_IT_number 9
_symmetry_cell_setting 'monoclinic'
loop_
_space_group_symop_operation_xyz
x,y,z
x,-y,1/2+z
1/2+x,1/2+y,z
1/2+x,1/2-y,1/2+z
loop_
_atom_site_type_symbol
_atom_site_label
_atom_site_fract_x
_atom_site_fract_y
_atom_site_fract_z
Si Si1 0.765800 0.072783 0.766810
Si Si2 0.888857 0.609938 0.649063
Si Si3 0.548911 0.887940 0.524331
Si Si4 0.794932 0.733277 0.437788
Si Si5 0.263849 0.240936 0.055040
Si Si6 0.157397 0.065433 0.271407
Si Si7 0.878694 0.840095 0.800964
O O1 0.624333 0.061155 0.882283
O O2 0.853880 0.157773 0.836804
O O3 0.748060 0.149941 0.652261
O O4 0.827652 0.943239 0.725094
O O5 0.879530 0.662801 0.514518
O O6 0.738814 0.558906 0.733269
O O7 0.930798 0.720182 0.721615
O O8 0.990672 0.496183 0.621641
O O9 0.665069 0.798152 0.542173
O O10 0.418431 0.810456 0.521706
O O11 0.736865 0.640822 0.352931
O O12 0.176581 0.130413 0.132870
O O13 0.255487 0.295311 0.923368
O O14 0.997422 0.089632 0.342336
#
# Coordination Sequence:
#
# PCOD9135766 Si02
#       7
#     4   4   4   4   4   4   4
#     4   9  23  41  66 100 131 180 225 282 344 405
#     4  11  26  43  71 106 132 180 233 280 338 421
#     4   9  21  46  68  93 133 184 218 283 339 403
#     4   9  21  47  63  99 130 177 226 269 346 399
#     4  10  20  44  67  90 135 177 223 279 342 405
#     4  10  24  42  70  93 137 179 221 281 348 397
#     4  12  25  41  67 105 132 179 228 284 343 406
#
# _framework density 23.669529000000001
#
# number of rings (size 3 to 8) (size 9 to 14) (size 15 to 20)
#    0.857    1.143    1.429    0.000   10.000    0.000 
#    7.714    0.000    0.000    0.000    0.000    0.000 
#    0.000    0.000    0.000    0.000    0.000    0.000 
#
# Total GULP energy -78098.819388 kJ/mol
# GULP energy per Si atom -5578.487099 kJ/mol
# Density = 2.361566 g / cm^3
# Si number density = 23.669529 Si / 1000 Ang^3
#
#
#
# Elastic Constant Matrix: (Units=GPa)
#
#
# Indices 1 2 3 4 5 6 
#
# 1 37.0868 25.9730 -0.7369 0.0000 -5.9452 0.0000
# 2 25.9730 119.3637 14.5402 0.0000 2.1128 0.0000
# 3 -0.7369 14.5402 51.2844 0.0000 3.2065 0.0000
# 4 0.0000 0.0000 0.0000 29.7055 0.0000 0.3728
# 5 -5.9452 2.1128 3.2065 0.0000 18.8993 0.0000
# 6 0.0000 0.0000 0.0000 0.3728 0.0000 22.9965
#
#
#
# Elastic Compliance Matrix: (Units=1/GPa)
#
#
# Indices 1 2 3 4 5 6 
#
# 1 0.034377 -0.007929 0.002032 0.000000 0.011356 0.000000
# 2 -0.007929 0.010512 -0.002896 0.000000 -0.003178 0.000000
# 3 0.002032 -0.002896 0.020507 0.000000 -0.002516 0.000000
# 4 0.000000 0.000000 0.000000 0.033671 0.000000 -0.000546
# 5 0.011356 -0.003178 -0.002516 0.000000 0.057266 0.000000
# 6 0.000000 0.000000 0.000000 -0.000546 0.000000 0.043494
#
#
# Mechanical properties :
#
#
# Convention : Reuss Voigt Hill
#
# Bulk Modulus (GPa) = 20.91572 31.92085 26.41829
# Shear Modulus (GPa) = 21.42714 25.51750 23.47232
#
# Velocity S-wave (km/s) = 3.01202 3.28697 3.15249
# Velocity P-wave (km/s) = 4.57735 5.28402 4.94333
#
# Compressibility (1/GPa) = 0.04781092
#
# Stress axis : x y z
#
# Youngs Moduli (GPa) = 29.08885 95.12905 48.76480
#
# Poissons Ratio (x) = 0.75427 -0.09909
# Poissons Ratio (y) = 0.23064 0.14120
# Poissons Ratio (z) = -0.05911 0.27546
#
# Static dielectric constant tensor:
#      x y z
#    x 1.961620 0.000000 -0.021910 
#    y 0.000000 1.866380 0.000000 
#    z -0.021910 0.000000 1.910160 
# 
# From -- ./inp_files/16128.got.cif
#   From: 2010.05.17/outbox.cif.g08.bks.cpg/sg9_9_cif.got.tgz:16128.got - 2010.06.03 20:04:27.
