data_PCOD9135999
_publ_section_title
;
Structure prediction by ZEFSAII (Michael W. Deem and Ramdas Pophale) SiO2 
 PCOD9135999
Probable space group: C C
;
_chemical_formula_sum "Si O2"
_cell_formula_units_Z 24
_cell_length_a 28.527478
_cell_length_b 8.955526
_cell_length_c 8.892335
_cell_angle_alpha 90.000000
_cell_angle_beta 151.531958
_cell_angle_gamma 90.000000
_cell_volume 1082.896007
_symmetry_space_group_name_H-M "C C"
_symmetry_group_IT_number 9
_symmetry_cell_setting 'monoclinic'
loop_
_space_group_symop_operation_xyz
x,y,z
x,-y,1/2+z
1/2+x,1/2+y,z
1/2+x,1/2-y,1/2+z
loop_
_atom_site_type_symbol
_atom_site_label
_atom_site_fract_x
_atom_site_fract_y
_atom_site_fract_z
Si Si1 0.797660 0.202718 0.918730
Si Si2 0.637642 0.383649 0.652056
Si Si3 0.231622 0.560483 0.420912
Si Si4 0.907059 0.518990 0.824863
Si Si5 0.206297 0.857504 0.181993
Si Si6 0.529997 0.109281 0.435856
O O1 0.702070 0.294916 0.709215
O O2 0.777877 0.141706 0.696423
O O3 0.802404 0.062156 0.044772
O O4 0.885574 0.320963 0.185519
O O5 0.625733 0.547154 0.548490
O O6 0.545630 0.281006 0.434606
O O7 0.695088 0.386462 0.973205
O O8 0.205668 0.685285 0.223977
O O9 0.131417 0.475872 0.186205
O O10 0.809484 0.422763 0.531122
O O11 0.997691 0.428487 0.011573
O O12 0.937842 0.551284 0.080649
#
# Coordination Sequence:
#
# PCOD9135999 Si02
#       6
#     4   4   4   4   4   4
#     4  10  21  38  60  88 119 161 204 240 298 375
#     4  10  21  38  60  88 119 161 204 240 298 375
#     4  11  21  39  63  87 119 164 203 243 300 372
#     4  11  22  39  61  89 120 153 198 257 304 347
#     4  11  21  39  63  87 119 164 203 243 300 372
#     4  11  22  39  61  89 120 153 198 257 304 347
#
# _framework density 22.162794000000002
#
# number of rings (size 3 to 8) (size 9 to 14) (size 15 to 20)
#    0.000    1.333    0.000   10.000    0.000    0.000 
#    0.000    8.333    0.000    0.000    0.000    0.000 
#    0.000    0.000    0.000    0.000    0.000    0.000 
#
# Total GULP energy -67052.588735 kJ/mol
# GULP energy per Si atom -5587.715728 kJ/mol
# Density = 2.211235 g / cm^3
# Si number density = 22.162794 Si / 1000 Ang^3
#
#
#
# Elastic Constant Matrix: (Units=GPa)
#
#
# Indices 1 2 3 4 5 6 
#
# 1 57.9158 23.0606 11.2280 0.0000 -3.6936 0.0000
# 2 23.0606 104.1440 3.8208 0.0000 13.1503 0.0000
# 3 11.2280 3.8208 63.8942 0.0000 -18.5192 0.0000
# 4 0.0000 0.0000 0.0000 41.3888 0.0000 -0.1571
# 5 -3.6936 13.1503 -18.5192 0.0000 26.8980 0.0000
# 6 0.0000 0.0000 0.0000 -0.1571 0.0000 44.9264
#
#
#
# Elastic Compliance Matrix: (Units=1/GPa)
#
#
# Indices 1 2 3 4 5 6 
#
# 1 0.019806 -0.004755 -0.002166 0.000000 0.003553 0.000000
# 2 -0.004755 0.011726 -0.002145 0.000000 -0.007862 0.000000
# 3 -0.002166 -0.002145 0.020460 0.000000 0.014838 0.000000
# 4 0.000000 0.000000 0.000000 0.024161 0.000000 0.000084
# 5 0.003553 -0.007862 0.014838 0.000000 0.051725 0.000000
# 6 0.000000 0.000000 0.000000 0.000084 0.000000 0.022259
#
#
# Mechanical properties :
#
#
# Convention : Reuss Voigt Hill
#
# Bulk Modulus (GPa) = 29.53199 33.57476 31.55338
# Shear Modulus (GPa) = 27.84625 35.16561 31.50593
#
# Velocity S-wave (km/s) = 3.54848 3.98766 3.77446
# Velocity P-wave (km/s) = 5.49025 6.03191 5.76744
#
# Compressibility (1/GPa) = 0.03386158
#
# Stress axis : x y z
#
# Youngs Moduli (GPa) = 50.48901 85.27762 48.87469
#
# Poissons Ratio (x) = 0.40548 0.10589
# Poissons Ratio (y) = 0.24007 0.10481
# Poissons Ratio (z) = 0.10938 0.18288
#
# Static dielectric constant tensor:
#      x y z
#    x 1.787490 0.000000 0.009140 
#    y 0.000000 1.853920 0.000000 
#    z 0.009140 0.000000 1.819110 
# 
# From -- ./inp_files/10279.got.cif
#   From: 2010.05.17/outbox.cif.g08.bks.cpg/sg9_6_cif.got.tgz:10279.got - 2010.06.03 20:04:27.
