data_PCOD9135497
_publ_section_title
;
Structure prediction by ZEFSAII (Michael W. Deem and Ramdas Pophale) SiO2 
 PCOD9135497
Probable space group: C C
;
_chemical_formula_sum "Si O2"
_cell_formula_units_Z 28
_cell_length_a 26.750508
_cell_length_b 7.149527
_cell_length_c 11.407080
_cell_angle_alpha 90.000000
_cell_angle_beta 29.973304
_cell_angle_gamma 90.000000
_cell_volume 1089.941436
_symmetry_space_group_name_H-M "C C"
_symmetry_group_IT_number 9
_symmetry_cell_setting 'monoclinic'
loop_
_space_group_symop_operation_xyz
x,y,z
x,-y,1/2+z
1/2+x,1/2+y,z
1/2+x,1/2-y,1/2+z
loop_
_atom_site_type_symbol
_atom_site_label
_atom_site_fract_x
_atom_site_fract_y
_atom_site_fract_z
Si Si1 0.265550 0.454716 0.479290
Si Si2 0.536158 0.254707 0.795344
Si Si3 0.421479 0.617667 0.311368
Si Si4 0.092150 0.440280 0.511708
Si Si5 0.735007 0.641149 0.968888
Si Si6 0.740276 0.312952 0.814720
Si Si7 0.920574 0.507947 0.706975
O O1 0.367065 0.449591 0.352046
O O2 0.167118 0.489364 0.757709
O O3 0.275720 0.649332 0.387612
O O4 0.246652 0.292285 0.426431
O O5 0.491587 0.388788 0.784213
O O6 0.614530 0.353802 0.723687
O O7 0.597930 0.098513 0.598452
O O8 0.459017 0.122884 0.022794
O O9 0.326478 0.722399 0.562784
O O10 0.460747 0.774569 0.138349
O O11 0.136878 0.247625 0.466625
O O12 0.978042 0.425212 0.702129
O O13 0.752768 0.530277 0.812939
O O14 0.802248 0.534969 0.928903
#
# Coordination Sequence:
#
# PCOD9135497 Si02
#       7
#     4   4   4   4   4   4   4
#     4  10  21  43  67  98 141 181 229 302 351 426
#     4  11  20  43  67  96 143 183 232 296 348 428
#     4   9  22  40  68 101 138 188 241 282 373 431
#     4  10  20  40  68  96 139 186 227 286 371 410
#     4  11  22  40  67  97 133 186 233 285 357 426
#     4  11  21  42  68 102 139 181 238 297 350 432
#     4  10  20  40  69  96 137 187 224 294 354 417
#
# _framework density 25.689454000000001
#
# number of rings (size 3 to 8) (size 9 to 14) (size 15 to 20)
#    0.000    1.714    4.286    0.000    0.000    0.000 
#   10.286    7.143    0.000    0.000    0.000    0.000 
#    0.000    0.000    0.000    0.000    0.000    0.000 
#
# Total GULP energy -78115.991029 kJ/mol
# GULP energy per Si atom -5579.713645 kJ/mol
# Density = 2.563098 g / cm^3
# Si number density = 25.689454 Si / 1000 Ang^3
#
#
#
# Elastic Constant Matrix: (Units=GPa)
#
#
# Indices 1 2 3 4 5 6 
#
# 1 180.3173 32.6589 48.4440 0.0000 -45.9400 0.0000
# 2 32.6589 54.2651 38.8106 0.0000 -1.9221 0.0000
# 3 48.4440 38.8106 65.6768 0.0000 -17.3780 0.0000
# 4 0.0000 0.0000 0.0000 31.5401 0.0000 -9.8496
# 5 -45.9400 -1.9221 -17.3780 0.0000 61.1629 0.0000
# 6 0.0000 0.0000 0.0000 -9.8496 0.0000 42.4481
#
#
#
# Elastic Compliance Matrix: (Units=1/GPa)
#
#
# Indices 1 2 3 4 5 6 
#
# 1 0.008160 -0.002418 -0.003231 0.000000 0.005135 0.000000
# 2 -0.002418 0.033940 -0.019973 0.000000 -0.006424 0.000000
# 3 -0.003231 -0.019973 0.030929 0.000000 0.005733 0.000000
# 4 0.000000 0.000000 0.000000 0.034183 0.000000 0.007932
# 5 0.005135 -0.006424 0.005733 0.000000 0.021634 0.000000
# 6 0.000000 0.000000 0.000000 0.007932 0.000000 0.025399
#
#
# Mechanical properties :
#
#
# Convention : Reuss Voigt Hill
#
# Bulk Modulus (GPa) = 45.90286 60.00957 52.95622
# Shear Modulus (GPa) = 23.50166 39.05328 31.27747
#
# Velocity S-wave (km/s) = 3.02791 3.90321 3.49309
# Velocity P-wave (km/s) = 5.48921 6.61239 6.07681
#
# Compressibility (1/GPa) = 0.02178513
#
# Stress axis : x y z
#
# Youngs Moduli (GPa) = 122.54664 29.46337 32.33202
#
# Poissons Ratio (x) = 0.07125 0.10448
# Poissons Ratio (y) = 0.29634 0.64576
# Poissons Ratio (z) = 0.39599 0.58847
#
# Static dielectric constant tensor:
#      x y z
#    x 2.112110 0.000000 -0.037880 
#    y 0.000000 2.040070 0.000000 
#    z -0.037880 0.000000 2.029640 
# 
# From -- ./inp_files/21202.got.cif
#   From: 2010.05.17/outbox.cif.g08.bks.cpg/sg9_11_cif.got.tgz:21202.got - 2010.06.03 20:04:27.
