data_PCOD9135032
_publ_section_title
;
Structure prediction by ZEFSAII (Michael W. Deem and Ramdas Pophale) SiO2 
 PCOD9135032
Probable space group: C C
;
_chemical_formula_sum "Si O2"
_cell_formula_units_Z 32
_cell_length_a 8.579790
_cell_length_b 30.725388
_cell_length_c 10.534658
_cell_angle_alpha 90.000000
_cell_angle_beta 150.458349
_cell_angle_gamma 90.000000
_cell_volume 1369.275507
_symmetry_space_group_name_H-M "C C"
_symmetry_group_IT_number 9
_symmetry_cell_setting 'monoclinic'
loop_
_space_group_symop_operation_xyz
x,y,z
x,-y,1/2+z
1/2+x,1/2+y,z
1/2+x,1/2-y,1/2+z
loop_
_atom_site_type_symbol
_atom_site_label
_atom_site_fract_x
_atom_site_fract_y
_atom_site_fract_z
Si Si1 0.087300 0.130467 0.919300
Si Si2 0.693783 0.903130 0.791683
Si Si3 0.743354 0.366788 0.058901
Si Si4 0.907377 0.896293 0.570751
Si Si5 0.571866 0.963830 0.475673
Si Si6 0.924905 0.042676 0.649630
Si Si7 0.759772 0.223574 0.665454
Si Si8 0.282323 0.227525 0.568859
O O1 0.994183 0.087613 0.772269
O O2 0.889891 0.173978 0.749436
O O3 0.458037 0.135661 0.151841
O O4 0.064633 0.114924 0.048691
O O5 0.642245 0.924241 0.619453
O O6 0.649099 0.942535 0.857940
O O7 0.057683 0.889832 0.041276
O O8 0.614289 0.318539 0.958400
O O9 0.108116 0.363729 0.354225
O O10 0.659957 0.389094 0.863681
O O11 0.709613 0.942027 0.443257
O O12 0.213811 0.974194 0.265036
O O13 0.792107 0.005750 0.647085
O O14 0.549217 0.243817 0.403594
O O15 0.517297 0.224512 0.613536
O O16 0.009334 0.261850 0.346157
#
# Coordination Sequence:
#
# PCOD9135032 Si02
#       8
#     4   4   4   4   4   4   4   4
#     4  11  26  43  67 106 132 190 233 284 354 412
#     4  10  25  44  65  94 142 181 229 285 344 416
#     4  11  22  44  67  95 136 180 222 284 341 408
#     4  11  24  41  71  98 135 180 231 275 340 408
#     4  10  25  44  64 102 132 187 227 289 342 403
#     4  11  25  44  68  94 143 179 235 284 345 419
#     4  10  23  40  66  98 140 175 228 293 344 410
#     4  10  20  36  62  99 130 170 227 286 344 404
#
# _framework density 23.370023
#
# number of rings (size 3 to 8) (size 9 to 14) (size 15 to 20)
#    0.000    1.500    2.500    0.750   10.500    2.000 
#    0.000    1.250    0.000    0.000    0.000    0.000 
#    0.000    0.000    0.000    0.000    0.000    0.000 
#
# Total GULP energy -89174.359479 kJ/mol
# GULP energy per Si atom -5573.397467 kJ/mol
# Density = 2.331683 g / cm^3
# Si number density = 23.370023 Si / 1000 Ang^3
#
#
#
# Elastic Constant Matrix: (Units=GPa)
#
#
# Indices 1 2 3 4 5 6 
#
# 1 65.3426 40.8018 27.0802 0.0000 4.0074 0.0000
# 2 40.8018 76.1753 16.0980 0.0000 9.0916 0.0000
# 3 27.0802 16.0980 77.2087 0.0000 -0.0438 0.0000
# 4 0.0000 0.0000 0.0000 24.4671 0.0000 6.9810
# 5 4.0074 9.0916 -0.0438 0.0000 21.9423 0.0000
# 6 0.0000 0.0000 0.0000 6.9810 0.0000 26.2602
#
#
#
# Elastic Compliance Matrix: (Units=1/GPa)
#
#
# Indices 1 2 3 4 5 6 
#
# 1 0.025730 -0.012479 -0.006422 0.000000 0.000459 0.000000
# 2 -0.012479 0.020536 0.000092 0.000000 -0.006230 0.000000
# 3 -0.006422 0.000092 0.015186 0.000000 0.001165 0.000000
# 4 0.000000 0.000000 0.000000 0.044226 0.000000 -0.011757
# 5 0.000459 -0.006230 0.001165 0.000000 0.048074 0.000000
# 6 0.000000 0.000000 0.000000 -0.011757 0.000000 0.041206
#
#
# Mechanical properties :
#
#
# Convention : Reuss Voigt Hill
#
# Bulk Modulus (GPa) = 41.96015 42.96519 42.46267
# Shear Modulus (GPa) = 20.78821 23.51704 22.15263
#
# Velocity S-wave (km/s) = 2.98573 3.17565 3.08215
# Velocity P-wave (km/s) = 5.46624 5.64544 5.55656
#
# Compressibility (1/GPa) = 0.02383214
#
# Stress axis : x y z
#
# Youngs Moduli (GPa) = 38.86539 48.69495 65.85007
#
# Poissons Ratio (x) = 0.60768 0.42291
# Poissons Ratio (y) = 0.48501 -0.00604
# Poissons Ratio (z) = 0.24961 -0.00446
#
# Static dielectric constant tensor:
#      x y z
#    x 1.972380 0.000000 -0.017500 
#    y 0.000000 1.918130 0.000000 
#    z -0.017500 0.000000 1.951650 
# 
# From -- ./inp_files/1377.got.cif
#   From: 2010.05.17/outbox.cif.g08.bks.cpg/sg9_1_cif.got.tgz:1377.got - 2010.06.03 20:04:27.
