data_PCOD9135182
_publ_section_title
;
Structure prediction by ZEFSAII (Michael W. Deem and Ramdas Pophale) SiO2 
 PCOD9135182
Probable space group: C C
;
_chemical_formula_sum "Si O2"
_cell_formula_units_Z 24
_cell_length_a 8.758586
_cell_length_b 20.278043
_cell_length_c 5.260586
_cell_angle_alpha 90.000000
_cell_angle_beta 86.349033
_cell_angle_gamma 90.000000
_cell_volume 932.420595
_symmetry_space_group_name_H-M "C C"
_symmetry_group_IT_number 9
_symmetry_cell_setting 'monoclinic'
loop_
_space_group_symop_operation_xyz
x,y,z
x,-y,1/2+z
1/2+x,1/2+y,z
1/2+x,1/2-y,1/2+z
loop_
_atom_site_type_symbol
_atom_site_label
_atom_site_fract_x
_atom_site_fract_y
_atom_site_fract_z
Si Si1 0.609430 0.917135 0.611590
Si Si2 0.208170 0.208928 0.594062
Si Si3 0.731159 0.932763 0.095951
Si Si4 0.291245 0.957434 0.511633
Si Si5 0.029866 0.893198 0.825508
Si Si6 0.534261 0.743629 0.128712
O O1 0.718300 0.898184 0.368177
O O2 0.434879 0.909638 0.546852
O O3 0.652913 0.995654 0.639226
O O4 0.641858 0.892152 0.889078
O O5 0.147180 0.136440 0.521042
O O6 0.389483 0.209993 0.606025
O O7 0.147218 0.252076 0.359079
O O8 0.128176 0.232241 0.861203
O O9 0.902427 0.937464 0.971043
O O10 0.128918 0.926224 0.595547
O O11 0.306717 0.988025 0.233182
O O12 0.957807 0.827076 0.715932
#
# Coordination Sequence:
#
# PCOD9135182 Si02
#       6
#     4   4   4   4   4   4
#     4  10  20  40  59  84 134 177 216 258 317 376
#     4  10  23  47  70  98 136 172 227 287 350 401
#     4  10  20  38  58  91 124 173 217 260 312 390
#     4  12  24  42  61  96 139 182 217 272 322 398
#     4  10  28  38  72 100 135 171 233 269 346 397
#     4  10  23  47  70  99 134 175 224 290 347 404
#
# _framework density 25.739456000000001
#
# number of rings (size 3 to 8) (size 9 to 14) (size 15 to 20)
#    1.000    0.667    3.333    1.000    9.333    0.000 
#    3.000    0.000    0.000    0.000    0.000    0.000 
#    0.000    0.000    0.000    0.000    0.000    0.000 
#
# Total GULP energy -67091.238741 kJ/mol
# GULP energy per Si atom -5590.936562 kJ/mol
# Density = 2.568087 g / cm^3
# Si number density = 25.739456 Si / 1000 Ang^3
#
#
#
# Elastic Constant Matrix: (Units=GPa)
#
#
# Indices 1 2 3 4 5 6 
#
# 1 95.5434 30.0368 27.7103 0.0000 -14.5303 0.0000
# 2 30.0368 41.1933 14.3238 0.0000 1.3423 0.0000
# 3 27.7103 14.3238 164.3254 0.0000 15.0288 0.0000
# 4 0.0000 0.0000 0.0000 -30.3825 0.0000 5.1040
# 5 -14.5303 1.3423 15.0288 0.0000 54.6184 0.0000
# 6 0.0000 0.0000 0.0000 5.1040 0.0000 32.0962
#
#
#
# Elastic Compliance Matrix: (Units=1/GPa)
#
#
# Indices 1 2 3 4 5 6 
#
# 1 0.015086 -0.010436 -0.002077 0.000000 0.004841 0.000000
# 2 -0.010436 0.032253 -0.000744 0.000000 -0.003364 0.000000
# 3 -0.002077 -0.000744 0.006719 0.000000 -0.002383 0.000000
# 4 0.000000 0.000000 0.000000 -0.032057 0.000000 0.005098
# 5 0.004841 -0.003364 -0.002383 0.000000 0.020335 0.000000
# 6 0.000000 0.000000 0.000000 0.005098 0.000000 0.030346
#
#
# Mechanical properties :
#
#
# Convention : Reuss Voigt Hill
#
# Bulk Modulus (GPa) = 36.30496 49.46710 42.88603
# Shear Modulus (GPa) = 46.13554 26.53250 36.33402
#
# Velocity S-wave (km/s) = 4.23827 3.21411 3.76121
# Velocity P-wave (km/s) = 6.17139 5.74753 5.96323
#
# Compressibility (1/GPa) = 0.02754445
#
# Stress axis : x y z
#
# Youngs Moduli (GPa) = 66.28720 31.00443 148.84192
#
# Poissons Ratio (x) = 0.32355 0.30916
# Poissons Ratio (y) = 0.69175 0.11074
# Poissons Ratio (z) = 0.13768 0.02307
#
# Static dielectric constant tensor:
#      x y z
#    x 2.004280 0.000000 0.069830 
#    y 0.000000 2.155860 0.000000 
#    z 0.069830 0.000000 2.030670 
# 
# From -- ./inp_files/1102.got.cif
#   From: 2010.05.17/outbox.cif.g08.bks.cpg/sg9_1_cif.got.tgz:1102.got - 2010.06.03 20:04:27.
