data_PCOD9135450
_publ_section_title
;
Structure prediction by ZEFSAII (Michael W. Deem and Ramdas Pophale) SiO2 
 PCOD9135450
Probable space group: C C
;
_chemical_formula_sum "Si O2"
_cell_formula_units_Z 32
_cell_length_a 24.349003
_cell_length_b 11.287374
_cell_length_c 13.128244
_cell_angle_alpha 90.000000
_cell_angle_beta 158.749123
_cell_angle_gamma 90.000000
_cell_volume 1307.770701
_symmetry_space_group_name_H-M "C C"
_symmetry_group_IT_number 9
_symmetry_cell_setting 'monoclinic'
loop_
_space_group_symop_operation_xyz
x,y,z
x,-y,1/2+z
1/2+x,1/2+y,z
1/2+x,1/2-y,1/2+z
loop_
_atom_site_type_symbol
_atom_site_label
_atom_site_fract_x
_atom_site_fract_y
_atom_site_fract_z
Si Si1 0.341540 0.148406 0.623020
Si Si2 0.567423 0.550803 0.426100
Si Si3 0.888948 0.010980 0.308856
Si Si4 0.775738 0.663708 0.271324
Si Si5 0.606442 0.895453 0.911360
Si Si6 0.542111 0.708705 0.183011
Si Si7 0.062790 0.248010 0.647558
Si Si8 0.309094 0.901456 0.523312
O O1 0.317316 0.149091 0.461266
O O2 0.215533 0.232266 0.455187
O O3 0.297553 0.014454 0.577115
O O4 0.502929 0.189732 0.941868
O O5 0.418746 0.525091 0.238644
O O6 0.647855 0.431821 0.523244
O O7 0.538124 0.645170 0.287018
O O8 0.692555 0.591626 0.726020
O O9 0.979959 0.891590 0.498006
O O10 0.722238 0.993119 0.067935
O O11 0.972453 0.124696 0.502018
O O12 0.938415 0.674620 0.498249
O O13 0.707405 0.792827 0.135631
O O14 0.526794 0.836725 0.675911
O O15 0.475875 0.916904 0.767077
O O16 0.241686 0.216135 0.958635
#
# Coordination Sequence:
#
# PCOD9135450 Si02
#       8
#     4   4   4   4   4   4   4   4
#     4  11  23  44  65  97 131 178 222 271 335 397
#     4  10  20  40  65  86 130 179 202 280 332 376
#     4  10  22  43  62  95 140 161 231 276 319 407
#     4  10  22  37  65  95 127 173 219 261 332 395
#     4  11  25  40  66 103 128 176 226 271 340 395
#     4  11  20  40  65  95 130 172 217 269 333 387
#     4  11  23  43  68  95 132 179 215 278 336 390
#     4  10  23  43  60  94 138 162 228 276 321 407
#
# _framework density 24.469121999999999
#
# number of rings (size 3 to 8) (size 9 to 14) (size 15 to 20)
#    0.000    1.500    3.750    3.000    1.750    3.000 
#    6.750    0.000    0.000    0.000    0.000    0.000 
#    0.000    0.000    0.000    0.000    0.000    0.000 
#
# Total GULP energy -89401.990490 kJ/mol
# GULP energy per Si atom -5587.624406 kJ/mol
# Density = 2.441343 g / cm^3
# Si number density = 24.469122 Si / 1000 Ang^3
#
#
#
# Elastic Constant Matrix: (Units=GPa)
#
#
# Indices 1 2 3 4 5 6 
#
# 1 51.8422 12.8966 15.2243 0.0000 12.9355 0.0000
# 2 12.8966 42.3166 26.0386 0.0000 -6.3693 0.0000
# 3 15.2243 26.0386 88.5991 0.0000 18.7856 0.0000
# 4 0.0000 0.0000 0.0000 40.1687 0.0000 2.4104
# 5 12.9355 -6.3693 18.7856 0.0000 55.5009 0.0000
# 6 0.0000 0.0000 0.0000 2.4104 0.0000 36.6877
#
#
#
# Elastic Compliance Matrix: (Units=1/GPa)
#
#
# Indices 1 2 3 4 5 6 
#
# 1 0.022813 -0.007621 -0.000396 0.000000 -0.006057 0.000000
# 2 -0.007621 0.033874 -0.010608 0.000000 0.009254 0.000000
# 3 -0.000396 -0.010608 0.015848 0.000000 -0.006489 0.000000
# 4 0.000000 0.000000 0.000000 0.024994 0.000000 -0.001642
# 5 -0.006057 0.009254 -0.006489 0.000000 0.022688 0.000000
# 6 0.000000 0.000000 0.000000 -0.001642 0.000000 0.027365
#
#
# Mechanical properties :
#
#
# Convention : Reuss Voigt Hill
#
# Bulk Modulus (GPa) = 28.33978 32.34188 30.34083
# Shear Modulus (GPa) = 25.43328 35.04470 30.23899
#
# Velocity S-wave (km/s) = 3.22747 3.78855 3.51921
# Velocity P-wave (km/s) = 5.04934 5.69066 5.37956
#
# Compressibility (1/GPa) = 0.03528609
#
# Stress axis : x y z
#
# Youngs Moduli (GPa) = 43.83510 29.52112 63.09792
#
# Poissons Ratio (x) = 0.22497 0.02499
# Poissons Ratio (y) = 0.33405 0.66934
# Poissons Ratio (z) = 0.01736 0.31316
#
# Static dielectric constant tensor:
#      x y z
#    x 2.004080 0.000000 0.050790 
#    y 0.000000 2.010070 0.000000 
#    z 0.050790 0.000000 1.988090 
# 
# From -- ./inp_files/28099.got.cif
#   From: 2010.05.17/outbox.cif.g08.bks.cpg/sg9_15_cif.got.tgz:28099.got - 2010.06.03 20:04:27.
