data_PCOD9135120
_publ_section_title
;
Structure prediction by ZEFSAII (Michael W. Deem and Ramdas Pophale) SiO2 
 PCOD9135120
Probable space group: C C
;
_chemical_formula_sum "Si O2"
_cell_formula_units_Z 28
_cell_length_a 9.604521
_cell_length_b 17.004336
_cell_length_c 9.349882
_cell_angle_alpha 90.000000
_cell_angle_beta 125.533491
_cell_angle_gamma 90.000000
_cell_volume 1242.642963
_symmetry_space_group_name_H-M "C C"
_symmetry_group_IT_number 9
_symmetry_cell_setting 'monoclinic'
loop_
_space_group_symop_operation_xyz
x,y,z
x,-y,1/2+z
1/2+x,1/2+y,z
1/2+x,1/2-y,1/2+z
loop_
_atom_site_type_symbol
_atom_site_label
_atom_site_fract_x
_atom_site_fract_y
_atom_site_fract_z
Si Si1 0.904860 0.624763 0.312940
Si Si2 0.913799 0.934724 0.722838
Si Si3 0.061005 0.504511 0.579878
Si Si4 0.208211 0.934724 0.436918
Si Si5 0.007315 0.207864 0.877049
Si Si6 0.614695 0.707864 0.282707
Si Si7 0.717150 0.875237 0.346816
O O1 0.978613 0.706116 0.295169
O O2 0.791835 0.659014 0.376512
O O3 0.053311 0.565657 0.444158
O O4 0.771930 0.576361 0.138113
O O5 0.736203 0.956790 0.692196
O O6 0.850080 0.923639 0.521643
O O7 0.988653 0.847981 0.794969
O O8 0.061005 1.000000 0.829878
O O9 0.068699 0.565657 0.715598
O O10 0.885806 0.456790 0.467560
O O11 0.133357 0.847981 0.364788
O O12 0.830175 0.159015 0.783245
O O13 0.061005 0.216348 0.079878
O O14 0.643398 0.793884 0.364587
#
# Coordination Sequence:
#
# PCOD9135120 Si02
#       7
#     4   4   4   4   4   4   4
#     4  10  20  37  63  89 116 162 209 245 297 356
#     4  11  23  37  59  92 129 156 197 257 305 352
#     4  12  22  38  60  94 124 160 200 248 310 362
#     4  11  23  37  59  92 129 156 197 257 305 352
#     4   9  18  37  64  88 116 157 207 255 292 345
#     4   9  18  37  64  88 116 157 207 255 292 345
#     4  10  20  37  63  89 116 162 209 245 297 356
#
# _framework density 22.532617999999999
#
# number of rings (size 3 to 8) (size 9 to 14) (size 15 to 20)
#    0.000    1.714    4.286    0.857    0.000    0.000 
#    0.000    1.429    0.000    0.000    0.000    0.000 
#    0.000    0.000    0.000    0.000    0.000    0.000 
#
# Total GULP energy -77966.063014 kJ/mol
# GULP energy per Si atom -5569.004501 kJ/mol
# Density = 2.248133 g / cm^3
# Si number density = 22.532618 Si / 1000 Ang^3
#
#
#
# Elastic Constant Matrix: (Units=GPa)
#
#
# Indices 1 2 3 4 5 6 
#
# 1 81.4765 73.7593 15.2597 0.0000 35.2240 0.0000
# 2 73.7593 164.2577 61.8383 0.0000 25.2099 0.0000
# 3 15.2597 61.8383 80.0706 0.0000 26.3506 0.0000
# 4 0.0000 0.0000 0.0000 36.6777 0.0000 16.5420
# 5 35.2240 25.2099 26.3506 0.0000 29.9736 0.0000
# 6 0.0000 0.0000 0.0000 16.5420 0.0000 34.3665
#
#
#
# Elastic Compliance Matrix: (Units=1/GPa)
#
#
# Indices 1 2 3 4 5 6 
#
# 1 0.105803 -0.050507 0.064418 0.000000 -0.138488 0.000000
# 2 -0.050507 0.032777 -0.036794 0.000000 0.064133 0.000000
# 3 0.064418 -0.036794 0.061007 0.000000 -0.098389 0.000000
# 4 0.000000 0.000000 0.000000 0.034825 0.000000 -0.016762
# 5 -0.138488 0.064133 -0.098389 0.000000 0.228666 0.000000
# 6 0.000000 0.000000 0.000000 -0.016762 0.000000 0.037167
#
#
# Mechanical properties :
#
#
# Convention : Reuss Voigt Hill
#
# Bulk Modulus (GPa) = 6.50103 69.72440 38.11272
# Shear Modulus (GPa) = 8.37124 31.86672 20.11898
#
# Velocity S-wave (km/s) = 1.92957 3.76473 2.99136
# Velocity P-wave (km/s) = 2.80281 7.06460 5.37421
#
# Compressibility (1/GPa) = 0.15382171
#
# Stress axis : x y z
#
# Youngs Moduli (GPa) = 9.45151 30.50935 16.39157
#
# Poissons Ratio (x) = 1.54095 -1.05592
# Poissons Ratio (y) = 0.47737 0.60310
# Poissons Ratio (z) = -0.60885 1.12255
#
# Static dielectric constant tensor:
#      x y z
#    x 1.907170 0.000000 0.012070 
#    y 0.000000 1.874100 0.000000 
#    z 0.012070 0.000000 1.946580 
# 
# From -- ./inp_files/16636.got.cif
#   From: 2010.05.17/outbox.cif.g08.bks.cpg/sg9_9_cif.got.tgz:16636.got - 2010.06.03 20:04:27.
