data_PCOD9135543
_publ_section_title
;
Structure prediction by ZEFSAII (Michael W. Deem and Ramdas Pophale) SiO2 
 PCOD9135543
Probable space group: C C
;
_chemical_formula_sum "Si O2"
_cell_formula_units_Z 24
_cell_length_a 5.060732
_cell_length_b 31.046163
_cell_length_c 5.728788
_cell_angle_alpha 90.000000
_cell_angle_beta 89.120046
_cell_angle_gamma 90.000000
_cell_volume 899.979885
_symmetry_space_group_name_H-M "C C"
_symmetry_group_IT_number 9
_symmetry_cell_setting 'monoclinic'
loop_
_space_group_symop_operation_xyz
x,y,z
x,-y,1/2+z
1/2+x,1/2+y,z
1/2+x,1/2-y,1/2+z
loop_
_atom_site_type_symbol
_atom_site_label
_atom_site_fract_x
_atom_site_fract_y
_atom_site_fract_z
Si Si1 0.955550 0.618196 0.866130
Si Si2 0.093115 0.693922 0.615281
Si Si3 0.092820 0.227513 0.380021
Si Si4 0.976650 0.150671 0.091448
Si Si5 0.762968 0.976024 0.914523
Si Si6 0.779655 0.574000 0.270124
O O1 0.077387 0.642731 0.642307
O O2 0.670365 0.641337 0.873549
O O3 0.865888 0.573090 0.989960
O O4 0.184429 0.633210 0.047225
O O5 0.030826 0.722439 0.845139
O O6 0.389147 0.709217 0.569265
O O7 0.887672 0.712371 0.431496
O O8 0.995406 0.199867 0.159312
O O9 0.132609 0.120392 0.277011
O O10 0.540489 0.939014 0.903861
O O11 0.055794 0.957538 0.869578
O O12 0.730609 0.003656 0.673594
#
# Coordination Sequence:
#
# PCOD9135543 Si02
#       6
#     4   4   4   4   4   4
#     4  10  20  41  64  89 134 167 221 278 350 399
#     4  12  24  39  60  90 128 177 235 286 348 408
#     4  12  24  39  60  90 128 177 235 286 348 408
#     4  10  20  41  64  89 134 167 221 278 350 399
#     4  12  26  50  76 110 143 188 233 292 362 442
#     4  10  22  46  68 102 143 178 223 290 360 432
#
# _framework density 26.667259999999999
#
# number of rings (size 3 to 8) (size 9 to 14) (size 15 to 20)
#    1.000    0.000    1.667    6.000    0.000    0.000 
#    9.000    0.000    0.000    0.000    0.000    0.000 
#    0.000    0.000    0.000    0.000    0.000    0.000 
#
# Total GULP energy -66819.250890 kJ/mol
# GULP energy per Si atom -5568.270907 kJ/mol
# Density = 2.660656 g / cm^3
# Si number density = 26.667260 Si / 1000 Ang^3
#
#
#
# Elastic Constant Matrix: (Units=GPa)
#
#
# Indices 1 2 3 4 5 6 
#
# 1 133.3826 30.3913 26.7776 0.0000 7.0937 0.0000
# 2 30.3913 74.1717 29.5917 0.0000 -0.8488 0.0000
# 3 26.7776 29.5917 73.6487 0.0000 9.2178 0.0000
# 4 0.0000 0.0000 0.0000 39.5199 0.0000 1.1435
# 5 7.0937 -0.8488 9.2178 0.0000 35.8486 0.0000
# 6 0.0000 0.0000 0.0000 1.1435 0.0000 33.2144
#
#
#
# Elastic Compliance Matrix: (Units=1/GPa)
#
#
# Indices 1 2 3 4 5 6 
#
# 1 0.008571 -0.002796 -0.001831 0.000000 -0.001291 0.000000
# 2 -0.002796 0.017124 -0.006183 0.000000 0.002548 0.000000
# 3 -0.001831 -0.006183 0.017256 0.000000 -0.004221 0.000000
# 4 0.000000 0.000000 0.000000 0.025329 0.000000 -0.000872
# 5 -0.001291 0.002548 -0.004221 0.000000 0.029296 0.000000
# 6 0.000000 0.000000 0.000000 -0.000872 0.000000 0.030137
#
#
# Mechanical properties :
#
#
# Convention : Reuss Voigt Hill
#
# Bulk Modulus (GPa) = 46.87998 50.52493 48.70245
# Shear Modulus (GPa) = 31.96056 34.67941 33.31999
#
# Velocity S-wave (km/s) = 3.46568 3.61009 3.53862
# Velocity P-wave (km/s) = 5.79934 6.03030 5.91595
#
# Compressibility (1/GPa) = 0.02133107
#
# Stress axis : x y z
#
# Youngs Moduli (GPa) = 116.67828 58.39881 57.95023
#
# Poissons Ratio (x) = 0.16328 0.10611
# Poissons Ratio (y) = 0.32623 0.35828
# Poissons Ratio (z) = 0.21365 0.36106
#
# Static dielectric constant tensor:
#      x y z
#    x 2.033000 0.000000 -0.073040 
#    y 0.000000 2.250040 0.000000 
#    z -0.073040 0.000000 2.341900 
# 
# From -- ./inp_files/369.got.cif
#   From: 2010.05.17/outbox.cif.g08.bks.cpg/sg9_1_cif.got.tgz:369.got - 2010.06.03 20:04:27.
