data_PCOD9135345
_publ_section_title
;
Structure prediction by ZEFSAII (Michael W. Deem and Ramdas Pophale) SiO2 
 PCOD9135345
Probable space group: C C
;
_chemical_formula_sum "Si O2"
_cell_formula_units_Z 32
_cell_length_a 23.186139
_cell_length_b 5.314768
_cell_length_c 10.982221
_cell_angle_alpha 90.000000
_cell_angle_beta 61.605640
_cell_angle_gamma 90.000000
_cell_volume 1190.516011
_symmetry_space_group_name_H-M "C C"
_symmetry_group_IT_number 9
_symmetry_cell_setting 'monoclinic'
loop_
_space_group_symop_operation_xyz
x,y,z
x,-y,1/2+z
1/2+x,1/2+y,z
1/2+x,1/2-y,1/2+z
loop_
_atom_site_type_symbol
_atom_site_label
_atom_site_fract_x
_atom_site_fract_y
_atom_site_fract_z
Si Si1 0.957690 0.605482 0.283900
Si Si2 0.365882 0.120888 0.027758
Si Si3 0.195593 0.194743 0.440918
Si Si4 0.536340 0.543735 0.868698
Si Si5 0.217063 0.863830 0.646443
Si Si6 0.426616 0.745047 0.136162
Si Si7 0.338710 0.618165 0.803716
Si Si8 0.615883 0.956490 0.341498
O O1 0.940793 0.391307 0.400254
O O2 0.973129 0.462518 0.145371
O O3 0.882324 0.692193 0.338401
O O4 0.002707 0.830971 0.282366
O O5 0.293873 0.136306 0.041221
O O6 0.355989 0.326021 0.145439
O O7 0.374173 0.864155 0.097804
O O8 0.209299 0.045952 0.297256
O O9 0.262383 0.351186 0.396541
O O10 0.184620 0.018626 0.568249
O O11 0.136828 0.377542 0.457887
O O12 0.571668 0.275804 0.835328
O O13 0.586177 0.770200 0.856052
O O14 0.477819 0.556884 0.025553
O O15 0.183129 0.590248 0.696817
O O16 0.378937 0.634218 0.286905
#
# Coordination Sequence:
#
# PCOD9135345 Si02
#       8
#     4   4   4   4   4   4   4   4
#     4  10  22  38  67  97 134 178 234 304 371 435
#     4   9  19  39  61  96 139 170 236 293 383 432
#     4   9  20  42  72 104 143 190 247 309 375 439
#     4  11  26  47  67 102 140 196 244 297 359 451
#     4   9  19  42  70  98 146 185 243 306 365 441
#     4  10  24  37  67 100 143 183 242 307 377 440
#     4  10  20  39  65 103 134 182 237 308 380 439
#     4  10  26  44  71  98 145 196 251 294 362 439
#
# _framework density 26.879103000000001
#
# number of rings (size 3 to 8) (size 9 to 14) (size 15 to 20)
#    0.750    1.500    1.250    0.000    7.000    4.000 
#    0.000    0.000    0.000    0.000    0.000    0.000 
#    0.000    0.000    0.000    0.000    0.000    0.000 
#
# Total GULP energy -89211.524846 kJ/mol
# GULP energy per Si atom -5575.720303 kJ/mol
# Density = 2.681793 g / cm^3
# Si number density = 26.879103 Si / 1000 Ang^3
#
#
#
# Elastic Constant Matrix: (Units=GPa)
#
#
# Indices 1 2 3 4 5 6 
#
# 1 138.9730 26.6124 12.2496 0.0000 -8.8423 0.0000
# 2 26.6124 72.9011 18.5197 0.0000 -9.2682 0.0000
# 3 12.2496 18.5197 60.4950 0.0000 -1.3455 0.0000
# 4 0.0000 0.0000 0.0000 26.8192 0.0000 -13.1592
# 5 -8.8423 -9.2682 -1.3455 0.0000 42.0020 0.0000
# 6 0.0000 0.0000 0.0000 -13.1592 0.0000 36.9469
#
#
#
# Elastic Compliance Matrix: (Units=1/GPa)
#
#
# Indices 1 2 3 4 5 6 
#
# 1 0.007815 -0.002517 -0.000788 0.000000 0.001064 0.000000
# 2 -0.002517 0.016110 -0.004358 0.000000 0.002885 0.000000
# 3 -0.000788 -0.004358 0.018012 0.000000 -0.000551 0.000000
# 4 0.000000 0.000000 0.000000 0.045183 0.000000 0.016092
# 5 0.001064 0.002885 -0.000551 0.000000 0.024652 0.000000
# 6 0.000000 0.000000 0.000000 0.016092 0.000000 0.032797
#
#
# Mechanical properties :
#
#
# Convention : Reuss Voigt Hill
#
# Bulk Modulus (GPa) = 37.57991 43.01473 40.29732
# Shear Modulus (GPa) = 29.62700 35.48614 32.55657
#
# Velocity S-wave (km/s) = 3.32359 3.63742 3.48404
# Velocity P-wave (km/s) = 5.36095 5.80335 5.58653
#
# Compressibility (1/GPa) = 0.02660997
#
# Stress axis : x y z
#
# Youngs Moduli (GPa) = 127.96110 62.07308 55.51930
#
# Poissons Ratio (x) = 0.15625 0.04376
# Poissons Ratio (y) = 0.32211 0.24195
# Poissons Ratio (z) = 0.10085 0.27051
#
# Static dielectric constant tensor:
#      x y z
#    x 2.124180 0.000000 0.079940 
#    y 0.000000 2.209200 0.000000 
#    z 0.079940 0.000000 2.235670 
# 
# From -- ./inp_files/21061.got.cif
#   From: 2010.05.17/outbox.cif.g08.bks.cpg/sg9_11_cif.got.tgz:21061.got - 2010.06.03 20:04:27.
