data_PCOD9135459
_publ_section_title
;
Structure prediction by ZEFSAII (Michael W. Deem and Ramdas Pophale) SiO2 
 PCOD9135459
Probable space group: C C
;
_chemical_formula_sum "Si O2"
_cell_formula_units_Z 28
_cell_length_a 13.936718
_cell_length_b 19.187180
_cell_length_c 8.846589
_cell_angle_alpha 90.000000
_cell_angle_beta 144.081244
_cell_angle_gamma 90.000000
_cell_volume 1387.769477
_symmetry_space_group_name_H-M "C C"
_symmetry_group_IT_number 9
_symmetry_cell_setting 'monoclinic'
loop_
_space_group_symop_operation_xyz
x,y,z
x,-y,1/2+z
1/2+x,1/2+y,z
1/2+x,1/2-y,1/2+z
loop_
_atom_site_type_symbol
_atom_site_label
_atom_site_fract_x
_atom_site_fract_y
_atom_site_fract_z
Si Si1 0.794830 0.621948 0.789380
Si Si2 0.909848 0.533402 0.686216
Si Si3 0.926701 0.084133 0.840138
Si Si4 0.476173 0.833334 0.076315
Si Si5 0.066141 0.966084 0.197944
Si Si6 0.147007 0.807801 0.803583
Si Si7 0.059096 0.381083 0.849722
O O1 0.891338 0.557223 0.835389
O O2 0.641191 0.595638 0.691595
O O3 0.726388 0.662804 0.558618
O O4 0.936358 0.654893 0.073303
O O5 0.987506 0.595588 0.687857
O O6 0.721226 0.518793 0.400510
O O7 0.001192 0.461194 0.788899
O O8 0.751496 0.114168 0.566645
O O9 0.022699 0.062073 0.808983
O O10 0.009720 0.142639 0.053348
O O11 0.925654 0.012369 0.938729
O O12 0.585735 0.768788 0.265478
O O13 0.290548 0.808347 0.862703
O O14 0.522750 0.848089 0.964837
#
# Coordination Sequence:
#
# PCOD9135459 Si02
#       7
#     4   4   4   4   4   4   4
#     4  10  21  41  63  93 130 176 219 267 337 394
#     4  10  20  40  65  95 131 177 211 274 334 398
#     4  12  23  38  65 102 136 173 223 280 331 400
#     4  11  23  44  69  94 132 181 225 269 340 400
#     4  11  20  39  65  98 131 174 219 275 328 395
#     4  11  23  46  67  93 132 184 224 268 336 411
#     4  11  24  38  68  99 132 169 225 283 330 394
#
# _framework density 20.176259999999999
#
# number of rings (size 3 to 8) (size 9 to 14) (size 15 to 20)
#    0.000    1.143    4.286    4.286    4.000    0.000 
#    2.571    8.571    0.000    0.000    0.000    0.000 
#    0.000    0.000    0.000    0.000    0.000    0.000 
#
# Total GULP energy -78087.885511 kJ/mol
# GULP energy per Si atom -5577.706108 kJ/mol
# Density = 2.013034 g / cm^3
# Si number density = 20.176260 Si / 1000 Ang^3
#
#
#
# Elastic Constant Matrix: (Units=GPa)
#
#
# Indices 1 2 3 4 5 6 
#
# 1 85.3979 28.9036 42.0750 0.0000 -19.2926 0.0000
# 2 28.9036 73.3988 47.1045 0.0000 -0.3459 0.0000
# 3 42.0750 47.1045 95.5959 0.0000 -11.0158 0.0000
# 4 0.0000 0.0000 0.0000 22.4246 0.0000 6.4076
# 5 -19.2926 -0.3459 -11.0158 0.0000 31.6149 0.0000
# 6 0.0000 0.0000 0.0000 6.4076 0.0000 23.0172
#
#
#
# Elastic Compliance Matrix: (Units=1/GPa)
#
#
# Indices 1 2 3 4 5 6 
#
# 1 0.017322 -0.003718 -0.004770 0.000000 0.008868 0.000000
# 2 -0.003718 0.021067 -0.009355 0.000000 -0.005298 0.000000
# 3 -0.004770 -0.009355 0.017526 0.000000 0.003094 0.000000
# 4 0.000000 0.000000 0.000000 0.048448 0.000000 -0.013487
# 5 0.008868 -0.005298 0.003094 0.000000 0.038062 0.000000
# 6 0.000000 0.000000 0.000000 -0.013487 0.000000 0.047200
#
#
# Mechanical properties :
#
#
# Convention : Reuss Voigt Hill
#
# Bulk Modulus (GPa) = 49.43343 54.50653 51.96998
# Shear Modulus (GPa) = 21.54679 24.49865 23.02272
#
# Velocity S-wave (km/s) = 3.27146 3.48836 3.38165
# Velocity P-wave (km/s) = 6.23089 6.58018 6.40791
#
# Compressibility (1/GPa) = 0.02022922
#
# Stress axis : x y z
#
# Youngs Moduli (GPa) = 57.73078 47.46801 57.05796
#
# Poissons Ratio (x) = 0.17649 0.27216
# Poissons Ratio (y) = 0.21465 0.53375
# Poissons Ratio (z) = 0.27537 0.44404
#
# Static dielectric constant tensor:
#      x y z
#    x 1.702330 0.000000 0.003160 
#    y 0.000000 1.741310 0.000000 
#    z 0.003160 0.000000 1.788530 
# 
# From -- ./inp_files/5835.got.cif
#   From: 2010.05.17/outbox.cif.g08.bks.cpg/sg9_3_cif.got.tgz:5835.got - 2010.06.03 20:04:27.
