data_PCOD9135564
_publ_section_title
;
Structure prediction by ZEFSAII (Michael W. Deem and Ramdas Pophale) SiO2 
 PCOD9135564
Probable space group: C C
;
_chemical_formula_sum "Si O2"
_cell_formula_units_Z 28
_cell_length_a 8.733934
_cell_length_b 23.283797
_cell_length_c 13.707552
_cell_angle_alpha 90.000000
_cell_angle_beta 31.721738
_cell_angle_gamma 90.000000
_cell_volume 1465.681402
_symmetry_space_group_name_H-M "C C"
_symmetry_group_IT_number 9
_symmetry_cell_setting 'monoclinic'
loop_
_space_group_symop_operation_xyz
x,y,z
x,-y,1/2+z
1/2+x,1/2+y,z
1/2+x,1/2-y,1/2+z
loop_
_atom_site_type_symbol
_atom_site_label
_atom_site_fract_x
_atom_site_fract_y
_atom_site_fract_z
Si Si1 0.593260 0.483813 0.952350
Si Si2 0.185534 0.800609 0.395546
Si Si3 0.312964 0.559051 0.789279
Si Si4 0.769675 0.821096 0.785390
Si Si5 0.742340 0.596692 0.987732
Si Si6 0.233432 0.868601 0.175522
Si Si7 0.603224 0.024431 0.560284
O O1 0.606109 0.549878 0.986832
O O2 0.877804 0.479208 0.731392
O O3 0.551447 0.449589 0.075105
O O4 0.327831 0.466253 0.026555
O O5 0.306852 0.736288 0.329683
O O6 0.361491 0.848834 0.360932
O O7 0.174140 0.823108 0.292319
O O8 0.874840 0.804395 0.619533
O O9 0.436014 0.608266 0.791778
O O10 0.001776 0.570037 0.908653
O O11 0.274510 0.503215 0.877371
O O12 0.989554 0.873593 0.689174
O O13 0.444581 0.841839 0.979536
O O14 0.412963 0.922074 0.125651
#
# Coordination Sequence:
#
# PCOD9135564 Si02
#       7
#     4   4   4   4   4   4   4
#     4  12  23  40  60  88 128 161 206 244 296 367
#     4  10  20  41  66  89 110 155 213 252 305 361
#     4  12  25  39  57  93 132 160 200 247 304 369
#     4  10  22  38  69  85 113 157 209 256 299 363
#     4  10  22  41  58  88 125 155 200 253 296 361
#     4  12  22  39  63  89 123 163 198 251 310 356
#     4  12  24  38  61  92 121 169 202 243 300 369
#
# _framework density 19.103743000000001
#
# number of rings (size 3 to 8) (size 9 to 14) (size 15 to 20)
#    0.857    0.000    5.714    1.714    4.000    0.000 
#    0.000    1.429    0.000    0.000    0.000    0.000 
#    0.000    0.000    0.000    0.000    0.000    0.000 
#
# Total GULP energy -77974.735295 kJ/mol
# GULP energy per Si atom -5569.623950 kJ/mol
# Density = 1.906026 g / cm^3
# Si number density = 19.103743 Si / 1000 Ang^3
#
#
#
# Elastic Constant Matrix: (Units=GPa)
#
#
# Indices 1 2 3 4 5 6 
#
# 1 62.8246 15.2974 9.9293 0.0000 8.5161 0.0000
# 2 15.2974 62.2216 -7.1686 0.0000 5.4979 0.0000
# 3 9.9293 -7.1686 74.4342 -0.0001 24.2460 0.0001
# 4 0.0000 0.0000 -0.0001 34.8874 0.0000 7.3567
# 5 8.5161 5.4979 24.2460 0.0000 23.0896 0.0000
# 6 0.0000 0.0000 0.0001 7.3567 0.0000 9.9701
#
#
#
# Elastic Compliance Matrix: (Units=1/GPa)
#
#
# Indices 1 2 3 4 5 6 
#
# 1 0.017706 -0.004167 -0.001458 0.000000 -0.004007 0.000000
# 2 -0.004167 0.018374 0.004940 0.000000 -0.008025 0.000000
# 3 -0.001458 0.004940 0.021754 0.000000 -0.023482 0.000000
# 4 0.000000 0.000000 0.000000 0.033945 0.000000 -0.025048
# 5 -0.004007 -0.008025 -0.023482 0.000000 0.071356 0.000000
# 6 0.000000 0.000000 0.000000 -0.025048 0.000000 0.118783
#
#
# Mechanical properties :
#
#
# Convention : Reuss Voigt Hill
#
# Bulk Modulus (GPa) = 17.71069 26.17743 21.94406
# Shear Modulus (GPa) = 16.55031 25.68424 21.11727
#
# Velocity S-wave (km/s) = 2.94656 3.67067 3.32836
# Velocity P-wave (km/s) = 4.56806 5.63006 5.12663
#
# Compressibility (1/GPa) = 0.05646309
#
# Stress axis : x y z
#
# Youngs Moduli (GPa) = 56.47950 54.42412 45.96909
#
# Poissons Ratio (x) = 0.22678 0.06702
# Poissons Ratio (y) = 0.23534 -0.22706
# Poissons Ratio (z) = 0.08234 -0.26883
#
# Static dielectric constant tensor:
#      x y z
#    x 1.632960 0.000000 0.029610 
#    y 0.000000 1.685880 0.000000 
#    z 0.029610 0.000000 1.708980 
# 
# From -- ./inp_files/5659.got.cif
#   From: 2010.05.17/outbox.cif.g08.bks.cpg/sg9_3_cif.got.tgz:5659.got - 2010.06.03 20:04:27.
