data_PCOD9135899
_publ_section_title
;
Structure prediction by ZEFSAII (Michael W. Deem and Ramdas Pophale) SiO2 
 PCOD9135899
Probable space group: C C
;
_chemical_formula_sum "Si O2"
_cell_formula_units_Z 32
_cell_length_a 17.810681
_cell_length_b 5.765606
_cell_length_c 13.496282
_cell_angle_alpha 90.000000
_cell_angle_beta 110.136013
_cell_angle_gamma 90.000000
_cell_volume 1301.214281
_symmetry_space_group_name_H-M "C C"
_symmetry_group_IT_number 9
_symmetry_cell_setting 'monoclinic'
loop_
_space_group_symop_operation_xyz
x,y,z
x,-y,1/2+z
1/2+x,1/2+y,z
1/2+x,1/2-y,1/2+z
loop_
_atom_site_type_symbol
_atom_site_label
_atom_site_fract_x
_atom_site_fract_y
_atom_site_fract_z
Si Si1 0.856990 0.867600 0.414600
Si Si2 0.817637 0.632956 0.920628
Si Si3 0.358700 0.898848 0.663922
Si Si4 0.640217 0.695330 0.916481
Si Si5 0.024357 0.031779 0.205665
Si Si6 0.026578 0.565087 0.823327
Si Si7 0.335765 0.595303 0.136848
Si Si8 0.026890 0.055019 0.489751
O O1 0.829032 0.612036 0.369968
O O2 0.834249 0.128037 0.368466
O O3 0.824499 0.888933 0.512951
O O4 0.953435 0.871076 0.451734
O O5 0.728256 0.651895 0.921351
O O6 0.869672 0.616040 0.047243
O O7 0.446281 0.924513 0.755318
O O8 0.315165 0.145785 0.662660
O O9 0.310258 0.659367 0.664213
O O10 0.578464 0.598686 0.807485
O O11 0.611131 0.559055 0.999342
O O12 0.607730 0.954524 0.904117
O O13 0.051215 0.298189 0.233745
O O14 0.931502 0.061923 0.190768
O O15 0.030836 0.897317 0.106890
O O16 0.005690 0.741421 0.903979
#
# Coordination Sequence:
#
# PCOD9135899 Si02
#       8
#     4   4   4   4   4   4   4   4
#     4   9  20  38  62  89 126 178 220 267 335 412
#     4  10  22  38  65  94 135 178 221 276 355 410
#     4   9  16  33  55  86 122 163 212 262 322 395
#     4  11  23  38  65  99 133 176 229 289 351 417
#     4   9  19  38  59  88 133 174 219 278 346 404
#     4  10  21  36  66  99 134 177 236 288 342 425
#     4   8  14  29  55  82 107 160 210 252 302 387
#     4  10  23  40  67  99 132 176 239 290 337 422
#
# _framework density 24.592417000000001
#
# number of rings (size 3 to 8) (size 9 to 14) (size 15 to 20)
#    0.000    2.500    1.250    0.750    5.250    1.000 
#    0.000    1.250    0.000    0.000    0.000    0.000 
#    0.000    0.000    0.000    0.000    0.000    0.000 
#
# Total GULP energy -89139.249180 kJ/mol
# GULP energy per Si atom -5571.203074 kJ/mol
# Density = 2.453644 g / cm^3
# Si number density = 24.592417 Si / 1000 Ang^3
#
#
#
# Elastic Constant Matrix: (Units=GPa)
#
#
# Indices 1 2 3 4 5 6 
#
# 1 78.2007 11.3968 -15.7568 0.0000 4.7203 0.0000
# 2 11.3968 188.3209 13.1592 0.0000 -12.7490 0.0000
# 3 -15.7568 13.1592 67.4397 0.0000 -15.1866 0.0000
# 4 0.0000 0.0000 0.0000 22.7015 0.0000 -7.9596
# 5 4.7203 -12.7490 -15.1866 0.0000 14.7914 0.0000
# 6 0.0000 0.0000 0.0000 -7.9596 0.0000 23.4089
#
#
#
# Elastic Compliance Matrix: (Units=1/GPa)
#
#
# Indices 1 2 3 4 5 6 
#
# 1 0.013690 -0.001195 0.002882 0.000000 -0.002439 0.000000
# 2 -0.001195 0.005743 -0.000259 0.000000 0.005066 0.000000
# 3 0.002882 -0.000259 0.019894 0.000000 0.019283 0.000000
# 4 0.000000 0.000000 0.000000 0.050012 0.000000 0.017005
# 5 -0.002439 0.005066 0.019283 0.000000 0.092549 0.000000
# 6 0.000000 0.000000 0.000000 0.017005 0.000000 0.048501
#
#
# Mechanical properties :
#
#
# Convention : Reuss Voigt Hill
#
# Bulk Modulus (GPa) = 23.70576 39.06218 31.38397
# Shear Modulus (GPa) = 20.69578 33.85783 27.27681
#
# Velocity S-wave (km/s) = 2.90410 3.71450 3.33401
# Velocity P-wave (km/s) = 4.57225 5.85790 5.25454
#
# Compressibility (1/GPa) = 0.04218383
#
# Stress axis : x y z
#
# Youngs Moduli (GPa) = 73.04709 174.11126 50.26575
#
# Poissons Ratio (x) = 0.20807 -0.14488
# Poissons Ratio (y) = 0.08729 0.01303
# Poissons Ratio (z) = -0.21055 0.04513
#
# Static dielectric constant tensor:
#      x y z
#    x 1.901380 0.000000 -0.028300 
#    y 0.000000 2.272680 0.000000 
#    z -0.028300 0.000000 2.046440 
# 
# From -- ./inp_files/27166.got.cif
#   From: 2010.05.17/outbox.cif.g08.bks.cpg/sg9_14_cif.got.tgz:27166.got - 2010.06.03 20:04:27.
