data_PCOD9135951
_publ_section_title
;
Structure prediction by ZEFSAII (Michael W. Deem and Ramdas Pophale) SiO2 
 PCOD9135951
Probable space group: C C
;
_chemical_formula_sum "Si O2"
_cell_formula_units_Z 32
_cell_length_a 5.964346
_cell_length_b 14.766922
_cell_length_c 15.017277
_cell_angle_alpha 90.000000
_cell_angle_beta 69.102180
_cell_angle_gamma 90.000000
_cell_volume 1235.640842
_symmetry_space_group_name_H-M "C C"
_symmetry_group_IT_number 9
_symmetry_cell_setting 'monoclinic'
loop_
_space_group_symop_operation_xyz
x,y,z
x,-y,1/2+z
1/2+x,1/2+y,z
1/2+x,1/2-y,1/2+z
loop_
_atom_site_type_symbol
_atom_site_label
_atom_site_fract_x
_atom_site_fract_y
_atom_site_fract_z
Si Si1 0.576120 0.621772 0.182380
Si Si2 0.159491 0.802388 0.854049
Si Si3 0.009946 0.426827 0.194225
Si Si4 0.410766 0.281085 0.078813
Si Si5 0.980728 0.384883 0.377686
Si Si6 0.619110 0.495152 0.511681
Si Si7 0.116716 0.494687 0.507717
Si Si8 0.162657 0.768729 0.227731
O O1 0.629150 0.620116 0.282128
O O2 0.781760 0.684188 0.106873
O O3 0.541733 0.535507 0.122059
O O4 0.344677 0.685428 0.205855
O O5 0.015698 0.715081 0.837147
O O6 0.430792 0.766247 0.813866
O O7 0.048221 0.804384 0.968482
O O8 0.201623 0.354285 0.128689
O O9 0.066749 0.451426 0.287188
O O10 0.013645 0.507219 0.122891
O O11 0.767045 0.368040 0.236208
O O12 0.589698 0.283414 0.135561
O O13 0.133634 0.406140 0.444243
O O14 0.713209 0.407477 0.444875
O O15 0.389744 0.524890 0.486539
O O16 0.885448 0.542616 0.489143
#
# Coordination Sequence:
#
# PCOD9135951 Si02
#       8
#     4   4   4   4   4   4   4   4
#     4  10  21  38  59  94 131 167 217 277 344 400
#     4  11  21  38  61 102 129 171 223 274 348 411
#     4  11  23  45  63  98 132 182 225 276 337 400
#     4  10  21  37  62  94 133 166 214 283 332 411
#     4  10  22  40  69  93 128 179 225 269 339 397
#     4  10  24  43  67  96 130 176 220 285 327 397
#     4  10  26  43  67  95 132 179 234 276 322 398
#     4  10  22  34  68  92 129 174 216 282 335 412
#
# _framework density 25.897493000000001
#
# number of rings (size 3 to 8) (size 9 to 14) (size 15 to 20)
#    0.750    1.000    5.000    0.000    8.750    2.000 
#    2.250    1.250    0.000    0.000    0.000    0.000 
#    0.000    0.000    0.000    0.000    0.000    0.000 
#
# Total GULP energy -89100.941886 kJ/mol
# GULP energy per Si atom -5568.808868 kJ/mol
# Density = 2.583855 g / cm^3
# Si number density = 25.897493 Si / 1000 Ang^3
#
#
#
# Elastic Constant Matrix: (Units=GPa)
#
#
# Indices 1 2 3 4 5 6 
#
# 1 153.2265 19.4146 40.9996 0.0000 -7.2391 0.0000
# 2 19.4146 50.9644 24.9061 0.0000 4.3178 0.0000
# 3 40.9996 24.9061 203.2447 0.0000 -3.3303 0.0000
# 4 0.0000 0.0000 0.0000 31.0644 0.0000 -11.1863
# 5 -7.2391 4.3178 -3.3303 0.0000 29.4513 0.0000
# 6 0.0000 0.0000 0.0000 -11.1863 0.0000 6.2296
#
#
#
# Elastic Compliance Matrix: (Units=1/GPa)
#
#
# Indices 1 2 3 4 5 6 
#
# 1 0.007224 -0.002366 -0.001135 0.000000 0.001994 0.000000
# 2 -0.002366 0.021983 -0.002283 0.000000 -0.004063 0.000000
# 3 -0.001135 -0.002283 0.005440 0.000000 0.000671 0.000000
# 4 0.000000 0.000000 0.000000 0.091095 0.000000 0.163576
# 5 0.001994 -0.004063 0.000671 0.000000 0.035116 0.000000
# 6 0.000000 0.000000 0.000000 0.163576 0.000000 0.454254
#
#
# Mechanical properties :
#
#
# Convention : Reuss Voigt Hill
#
# Bulk Modulus (GPa) = 43.33022 64.23070 53.78046
# Shear Modulus (GPa) = 7.88181 34.82342 21.35261
#
# Velocity S-wave (km/s) = 1.74645 3.67094 2.87453
# Velocity P-wave (km/s) = 4.56448 6.54397 5.64172
#
# Compressibility (1/GPa) = 0.02307858
#
# Stress axis : x y z
#
# Youngs Moduli (GPa) = 138.42892 45.48989 183.82974
#
# Poissons Ratio (x) = 0.10765 0.20857
# Poissons Ratio (y) = 0.32758 0.41969
# Poissons Ratio (z) = 0.15706 0.10386
#
# Static dielectric constant tensor:
#      x y z
#    x 2.122990 0.000000 0.020870 
#    y 0.000000 2.209050 0.000000 
#    z 0.020870 0.000000 2.094910 
# 
# From -- ./inp_files/22182.got.cif
#   From: 2010.05.17/outbox.cif.g08.bks.cpg/sg9_12_cif.got.tgz:22182.got - 2010.06.03 20:04:27.
