data_PCOD9135785
_publ_section_title
;
Structure prediction by ZEFSAII (Michael W. Deem and Ramdas Pophale) SiO2 
 PCOD9135785
Probable space group: C C
;
_chemical_formula_sum "Si O2"
_cell_formula_units_Z 32
_cell_length_a 7.500127
_cell_length_b 12.407943
_cell_length_c 14.518171
_cell_angle_alpha 90.000000
_cell_angle_beta 95.759274
_cell_angle_gamma 90.000000
_cell_volume 1344.257814
_symmetry_space_group_name_H-M "C C"
_symmetry_group_IT_number 9
_symmetry_cell_setting 'monoclinic'
loop_
_space_group_symop_operation_xyz
x,y,z
x,-y,1/2+z
1/2+x,1/2+y,z
1/2+x,1/2-y,1/2+z
loop_
_atom_site_type_symbol
_atom_site_label
_atom_site_fract_x
_atom_site_fract_y
_atom_site_fract_z
Si Si1 0.956460 0.725963 0.628230
Si Si2 0.809867 0.035920 0.130394
Si Si3 0.388224 0.369203 0.974145
Si Si4 0.850935 0.731879 0.151690
Si Si5 0.033217 0.889462 0.278890
Si Si6 0.515496 0.780596 0.911944
Si Si7 0.885547 0.501641 0.101400
Si Si8 0.238040 0.950981 0.893747
O O1 0.865788 0.839845 0.641778
O O2 0.985519 0.719629 0.519699
O O3 0.847428 0.616222 0.641846
O O4 0.160695 0.718412 0.675458
O O5 0.867159 0.975168 0.038307
O O6 0.905459 0.970614 0.217546
O O7 0.597210 0.021719 0.120004
O O8 0.402445 0.274105 0.051595
O O9 0.555124 0.392226 0.916986
O O10 0.212020 0.332587 0.909020
O O11 0.013134 0.778470 0.220590
O O12 0.805185 0.606499 0.143693
O O13 0.982208 0.839768 0.375427
O O14 0.204694 0.957611 0.317044
O O15 0.370832 0.861167 0.863105
O O16 0.822852 0.498704 0.992030
#
# Coordination Sequence:
#
# PCOD9135785 Si02
#       8
#     4   4   4   4   4   4   4   4
#     4  10  21  44  67  95 130 184 231 274 333 412
#     4  11  22  41  73  96 141 182 225 290 340 403
#     4  10  20  44  71 100 133 184 233 274 334 421
#     4  10  22  41  68  96 140 175 226 288 332 408
#     4  11  24  42  63 103 147 174 222 300 349 391
#     4  10  22  43  66 102 139 177 228 286 338 412
#     4  11  22  42  68 103 127 181 242 266 332 429
#     4  11  23  41  72 101 137 185 229 280 352 402
#
# _framework density 23.804956000000001
#
# number of rings (size 3 to 8) (size 9 to 14) (size 15 to 20)
#    0.000    1.500    5.000    3.000    5.250    1.000 
#    0.000    0.000    8.250    0.000    0.000    0.000 
#    0.000    0.000    0.000    0.000    0.000    0.000 
#
# Total GULP energy -89381.627295 kJ/mol
# GULP energy per Si atom -5586.351706 kJ/mol
# Density = 2.375078 g / cm^3
# Si number density = 23.804956 Si / 1000 Ang^3
#
#
#
# Elastic Constant Matrix: (Units=GPa)
#
#
# Indices 1 2 3 4 5 6 
#
# 1 58.1259 26.0742 31.8601 0.0000 13.4261 0.0000
# 2 26.0742 179.2342 44.4546 0.0000 13.0159 0.0000
# 3 31.8601 44.4546 86.8017 0.0000 20.7539 0.0000
# 4 0.0000 0.0000 0.0000 2.7184 0.0000 -4.0711
# 5 13.4261 13.0159 20.7539 0.0000 22.7048 0.0000
# 6 0.0000 0.0000 0.0000 -4.0711 0.0000 40.2620
#
#
#
# Elastic Compliance Matrix: (Units=1/GPa)
#
#
# Indices 1 2 3 4 5 6 
#
# 1 0.022720 -0.001306 -0.005934 0.000000 -0.007262 0.000000
# 2 -0.001306 0.006479 -0.002733 0.000000 -0.000444 0.000000
# 3 -0.005934 -0.002733 0.017768 0.000000 -0.011165 0.000000
# 4 0.000000 0.000000 0.000000 0.433504 0.000000 0.043834
# 5 -0.007262 -0.000444 -0.011165 0.000000 0.058799 0.000000
# 6 0.000000 0.000000 0.000000 0.043834 0.000000 0.029270
#
#
# Mechanical properties :
#
#
# Convention : Reuss Voigt Hill
#
# Bulk Modulus (GPa) = 37.00770 58.77108 47.88939
# Shear Modulus (GPa) = 8.36832 27.92192 18.14512
#
# Velocity S-wave (km/s) = 1.87697 3.42854 2.76387
# Velocity P-wave (km/s) = 4.50303 6.35731 5.50875
#
# Compressibility (1/GPa) = 0.02702140
#
# Stress axis : x y z
#
# Youngs Moduli (GPa) = 44.01431 154.33681 56.28187
#
# Poissons Ratio (x) = 0.20157 0.33397
# Poissons Ratio (y) = 0.05748 0.15381
# Poissons Ratio (z) = 0.26118 0.42177
#
# Static dielectric constant tensor:
#      x y z
#    x 1.923210 0.000000 -0.003150 
#    y 0.000000 1.997050 0.000000 
#    z -0.003150 0.000000 1.948020 
# 
# From -- ./inp_files/29276.got.cif
#   From: 2010.05.17/outbox.cif.g08.bks.cpg/sg9_15_cif.got.tgz:29276.got - 2010.06.03 20:04:27.
