data_PCOD9135410
_publ_section_title
;
Structure prediction by ZEFSAII (Michael W. Deem and Ramdas Pophale) SiO2 
 PCOD9135410
Probable space group: C C
;
_chemical_formula_sum "Si O2"
_cell_formula_units_Z 20
_cell_length_a 6.839280
_cell_length_b 14.431730
_cell_length_c 11.309016
_cell_angle_alpha 90.000000
_cell_angle_beta 46.817184
_cell_angle_gamma 90.000000
_cell_volume 813.925611
_symmetry_space_group_name_H-M "C C"
_symmetry_group_IT_number 9
_symmetry_cell_setting 'monoclinic'
loop_
_space_group_symop_operation_xyz
x,y,z
x,-y,1/2+z
1/2+x,1/2+y,z
1/2+x,1/2-y,1/2+z
loop_
_atom_site_type_symbol
_atom_site_label
_atom_site_fract_x
_atom_site_fract_y
_atom_site_fract_z
Si Si1 0.191080 0.798492 0.535390
Si Si2 0.795862 0.459188 0.321933
Si Si3 0.785976 0.353093 0.116106
Si Si4 0.730108 0.217081 0.957057
Si Si5 0.290848 0.572090 0.143941
O O1 0.290347 0.854354 0.377543
O O2 0.447443 0.784761 0.509034
O O3 0.033200 0.707100 0.565374
O O4 0.959028 0.871586 0.672968
O O5 0.815100 0.450805 0.172014
O O6 0.509154 0.493075 0.487223
O O7 0.040777 0.511083 0.279244
O O8 0.485180 0.320286 0.278901
O O9 0.793112 0.320470 0.977635
O O10 0.710376 0.148745 0.078915
#
# Coordination Sequence:
#
# PCOD9135410 Si02
#       5
#     4   4   4   4   4
#     4   9  21  40  60  90 129 164 213 266 318 379
#     4   9  19  42  63  91 131 162 219 267 318 386
#     4  10  20  40  59  94 124 163 216 268 310 398
#     4  10  21  39  63  89 129 166 214 260 332 370
#     4   8  19  41  57  90 131 159 216 261 320 387
#
# _framework density 24.57227
#
# number of rings (size 3 to 8) (size 9 to 14) (size 15 to 20)
#    1.200    1.600    2.000    0.000    2.800    0.000 
#   18.000    2.000    0.000    0.000    0.000    0.000 
#    0.000    0.000    0.000    0.000    0.000    0.000 
#
# Total GULP energy -55715.494726 kJ/mol
# GULP energy per Si atom -5571.549473 kJ/mol
# Density = 2.451634 g / cm^3
# Si number density = 24.572270 Si / 1000 Ang^3
#
#
#
# Elastic Constant Matrix: (Units=GPa)
#
#
# Indices 1 2 3 4 5 6 
#
# 1 150.8928 14.4902 26.8982 -0.0002 -59.5652 0.0001
# 2 14.4902 41.3516 23.4420 0.0000 -20.8850 0.0000
# 3 26.8982 23.4420 67.8135 -0.0007 -24.9635 0.0002
# 4 -0.0002 0.0000 -0.0007 22.0343 0.0003 -11.7607
# 5 -59.5652 -20.8850 -24.9635 0.0003 42.7462 -0.0001
# 6 0.0001 0.0000 0.0002 -11.7607 -0.0001 29.3686
#
#
#
# Elastic Compliance Matrix: (Units=1/GPa)
#
#
# Indices 1 2 3 4 5 6 
#
# 1 0.016421 0.007389 0.000872 0.000000 0.027001 0.000000
# 2 0.007389 0.038080 -0.006949 -0.000001 0.024843 0.000000
# 3 0.000872 -0.006949 0.020382 0.000001 0.009723 0.000000
# 4 0.000000 -0.000001 0.000001 0.057721 -0.000001 0.023115
# 5 0.027001 0.024843 0.009723 -0.000001 0.078835 0.000000
# 6 0.000000 0.000000 0.000000 0.023115 0.000000 0.043306
#
#
# Mechanical properties :
#
#
# Convention : Reuss Voigt Hill
#
# Bulk Modulus (GPa) = 12.90215 43.30207 28.10211
# Shear Modulus (GPa) = 17.98831 31.84498 24.91664
#
# Velocity S-wave (km/s) = 2.70859 3.60387 3.18781
# Velocity P-wave (km/s) = 3.87867 5.91420 5.00109
#
# Compressibility (1/GPa) = 0.07750645
#
# Stress axis : x y z
#
# Youngs Moduli (GPa) = 60.89738 26.26021 49.06326
#
# Poissons Ratio (x) = -0.19403 -0.04279
# Poissons Ratio (y) = -0.44995 0.34096
# Poissons Ratio (z) = -0.05311 0.18249
#
# Static dielectric constant tensor:
#      x y z
#    x 1.984020 0.000000 0.076140 
#    y 0.000000 1.996110 0.000000 
#    z 0.076140 0.000000 2.069120 
# 
# From -- ./inp_files/3800.got.cif
#   From: 2010.05.17/outbox.cif.g08.bks.cpg/sg9_2_cif.got.tgz:3800.got - 2010.06.03 20:04:27.
