data_PCOD9135208
_publ_section_title
;
Structure prediction by ZEFSAII (Michael W. Deem and Ramdas Pophale) SiO2 
 PCOD9135208
Probable space group: C C
;
_chemical_formula_sum "Si O2"
_cell_formula_units_Z 24
_cell_length_a 8.969842
_cell_length_b 16.063718
_cell_length_c 15.326859
_cell_angle_alpha 90.000000
_cell_angle_beta 32.015068
_cell_angle_gamma 90.000000
_cell_volume 1170.783143
_symmetry_space_group_name_H-M "C C"
_symmetry_group_IT_number 9
_symmetry_cell_setting 'monoclinic'
loop_
_space_group_symop_operation_xyz
x,y,z
x,-y,1/2+z
1/2+x,1/2+y,z
1/2+x,1/2-y,1/2+z
loop_
_atom_site_type_symbol
_atom_site_label
_atom_site_fract_x
_atom_site_fract_y
_atom_site_fract_z
Si Si1 0.663600 0.316725 0.846590
Si Si2 0.057808 0.590461 0.258935
Si Si3 0.280661 0.499366 0.796740
Si Si4 0.680473 0.562717 0.882046
Si Si5 0.163999 0.345739 0.228812
Si Si6 0.788346 0.527211 0.160154
O O1 0.658858 0.230960 0.797375
O O2 0.711160 0.389619 0.751551
O O3 0.918918 0.326692 0.789416
O O4 0.382116 0.330646 0.042132
O O5 0.137432 0.579857 0.320382
O O6 0.824856 0.519924 0.352275
O O7 0.351362 0.570641 0.064607
O O8 0.259745 0.573960 0.737623
O O9 0.592114 0.479171 0.672935
O O10 0.104583 0.524850 0.969069
O O11 0.734630 0.548915 0.752881
O O12 0.860788 0.635652 0.836630
#
# Coordination Sequence:
#
# PCOD9135208 Si02
#       6
#     4   4   4   4   4   4
#     4  11  23  41  59  83 120 162 200 247 299 353
#     4  10  20  38  62  88 119 158 199 245 297 357
#     4  11  20  35  60  89 114 148 194 244 295 354
#     4  10  20  38  62  88 119 158 199 245 297 357
#     4  11  23  41  59  83 120 162 200 247 299 353
#     4  11  20  35  60  89 114 148 194 244 295 354
#
# _framework density 20.499099000000001
#
# number of rings (size 3 to 8) (size 9 to 14) (size 15 to 20)
#    0.000    1.333    0.000   11.000    0.000    0.000 
#    0.000    8.333    0.000    0.000    0.000    0.000 
#    0.000    0.000    0.000    0.000    0.000    0.000 
#
# Total GULP energy -67020.365965 kJ/mol
# GULP energy per Si atom -5585.030497 kJ/mol
# Density = 2.045244 g / cm^3
# Si number density = 20.499099 Si / 1000 Ang^3
#
#
#
# Elastic Constant Matrix: (Units=GPa)
#
#
# Indices 1 2 3 4 5 6 
#
# 1 91.1298 30.9792 -6.6277 0.0054 -3.2243 0.0105
# 2 30.9792 75.6111 13.3932 -0.0066 3.3947 -0.0003
# 3 -6.6277 13.3932 115.0591 -0.0014 4.1137 -0.0147
# 4 0.0054 -0.0066 -0.0014 12.2800 -0.0051 9.9313
# 5 -3.2243 3.3947 4.1137 -0.0051 39.6029 -0.0026
# 6 0.0105 -0.0003 -0.0147 9.9313 -0.0026 49.7043
#
#
#
# Elastic Compliance Matrix: (Units=1/GPa)
#
#
# Indices 1 2 3 4 5 6 
#
# 1 0.013042 -0.005647 0.001358 -0.000007 0.001405 -0.000001
# 2 -0.005647 0.015989 -0.002129 0.000012 -0.001609 -0.000002
# 3 0.001358 -0.002129 0.009040 -0.000003 -0.000646 0.000003
# 4 -0.000007 0.000012 -0.000003 0.097128 0.000010 -0.019407
# 5 0.001405 -0.001609 -0.000646 0.000010 0.025570 -0.000001
# 6 -0.000001 -0.000002 0.000003 -0.019407 -0.000001 0.023997
#
#
# Mechanical properties :
#
#
# Convention : Reuss Voigt Hill
#
# Bulk Modulus (GPa) = 39.62696 39.69882 39.66289
# Shear Modulus (GPa) = 24.27038 36.58779 30.42908
#
# Velocity S-wave (km/s) = 3.44462 4.22933 3.85699
# Velocity P-wave (km/s) = 5.93242 6.57707 6.26304
#
# Compressibility (1/GPa) = 0.02523534
#
# Stress axis : x y z
#
# Youngs Moduli (GPa) = 76.67813 62.54456 110.61540
#
# Poissons Ratio (x) = 0.35319 -0.15025
# Poissons Ratio (y) = 0.43300 0.23549
# Poissons Ratio (z) = -0.10415 0.13315
#
# Static dielectric constant tensor:
#      x y z
#    x 1.760020 0.000020 0.020410 
#    y 0.000020 1.746460 0.000010 
#    z 0.020410 0.000010 1.716750 
# 
# From -- ./inp_files/5074.got.cif
#   From: 2010.05.17/outbox.cif.g08.bks.cpg/sg9_3_cif.got.tgz:5074.got - 2010.06.03 20:04:27.
