data_PCOD9135885
_publ_section_title
;
Structure prediction by ZEFSAII (Michael W. Deem and Ramdas Pophale) SiO2 
 PCOD9135885
Probable space group: C C
;
_chemical_formula_sum "Si O2"
_cell_formula_units_Z 32
_cell_length_a 20.842832
_cell_length_b 9.329084
_cell_length_c 8.275073
_cell_angle_alpha 90.000000
_cell_angle_beta 62.305260
_cell_angle_gamma 90.000000
_cell_volume 1424.704796
_symmetry_space_group_name_H-M "C C"
_symmetry_group_IT_number 9
_symmetry_cell_setting 'monoclinic'
loop_
_space_group_symop_operation_xyz
x,y,z
x,-y,1/2+z
1/2+x,1/2+y,z
1/2+x,1/2-y,1/2+z
loop_
_atom_site_type_symbol
_atom_site_label
_atom_site_fract_x
_atom_site_fract_y
_atom_site_fract_z
Si Si1 0.385960 0.541797 0.286770
Si Si2 0.858379 0.200533 0.980755
Si Si3 0.726747 0.868429 0.056751
Si Si4 0.921323 0.667801 0.878680
Si Si5 0.290077 0.114025 0.814231
Si Si6 0.109747 0.379083 0.637331
Si Si7 0.508139 0.001993 0.013693
Si Si8 0.730245 0.701145 0.393468
O O1 0.374515 0.594919 0.117334
O O2 0.412109 0.381024 0.291900
O O3 0.303841 0.550546 0.455212
O O4 0.427613 0.663955 0.337190
O O5 0.846009 0.343152 0.105268
O O6 0.793583 0.234949 0.930585
O O7 0.723323 0.789824 0.234068
O O8 0.664705 0.985735 0.098843
O O9 0.733827 0.745845 0.909300
O O10 0.841321 0.623195 0.912763
O O11 0.944788 0.603478 0.020701
O O12 0.977034 0.591584 0.693631
O O13 0.249762 0.964602 0.842533
O O14 0.046077 0.395748 0.842090
O O15 0.071076 0.399363 0.511333
O O16 0.156968 0.235767 0.577883
#
# Coordination Sequence:
#
# PCOD9135885 Si02
#       8
#     4   4   4   4   4   4   4   4
#     4  10  21  37  61  97 126 165 206 274 331 378
#     4  10  21  36  60  99 131 164 199 260 349 387
#     4  10  21  37  57  95 130 159 215 272 327 385
#     4   9  22  40  62  90 130 161 225 265 316 398
#     4  10  25  39  64 101 131 167 207 277 348 380
#     4  11  22  38  65  93 123 172 226 258 314 396
#     4  10  22  41  60  89 124 187 217 258 309 388
#     4  12  22  36  63  98 135 167 205 276 336 384
#
# _framework density 22.460795000000001
#
# number of rings (size 3 to 8) (size 9 to 14) (size 15 to 20)
#    0.000    2.000    2.500    1.500   12.250    0.000 
#    0.000    0.000    0.000   12.000    0.000    0.000 
#    0.000    0.000    0.000    0.000    0.000    0.000 
#
# Total GULP energy -89086.535325 kJ/mol
# GULP energy per Si atom -5567.908458 kJ/mol
# Density = 2.240967 g / cm^3
# Si number density = 22.460795 Si / 1000 Ang^3
#
#
#
# Elastic Constant Matrix: (Units=GPa)
#
#
# Indices 1 2 3 4 5 6 
#
# 1 49.1195 26.5708 -9.3362 0.0000 10.6418 0.0000
# 2 26.5708 142.6603 25.7573 0.0000 6.2212 0.0000
# 3 -9.3362 25.7573 28.1093 0.0000 3.5402 0.0000
# 4 0.0000 0.0000 0.0000 38.4706 0.0000 -2.2310
# 5 10.6418 6.2212 3.5402 0.0000 31.1749 0.0000
# 6 0.0000 0.0000 0.0000 -2.2310 0.0000 6.7714
#
#
#
# Elastic Compliance Matrix: (Units=1/GPa)
#
#
# Indices 1 2 3 4 5 6 
#
# 1 0.031494 -0.009011 0.020133 0.000000 -0.011239 0.000000
# 2 -0.009011 0.010998 -0.013373 0.000000 0.002400 0.000000
# 3 0.020133 -0.013373 0.055844 0.000000 -0.010545 0.000000
# 4 0.000000 0.000000 0.000000 0.026500 0.000000 0.008731
# 5 -0.011239 0.002400 -0.010545 0.000000 0.036632 0.000000
# 6 0.000000 0.000000 0.000000 0.008731 0.000000 0.150558
#
#
# Mechanical properties :
#
#
# Convention : Reuss Voigt Hill
#
# Bulk Modulus (GPa) = 10.65701 33.98588 22.32144
# Shear Modulus (GPa) = 14.37586 27.07653 20.72619
#
# Velocity S-wave (km/s) = 2.53265 3.47580 3.04101
# Velocity P-wave (km/s) = 3.64794 5.59216 4.72121
#
# Compressibility (1/GPa) = 0.09383498
#
# Stress axis : x y z
#
# Youngs Moduli (GPa) = 31.75172 90.92821 17.90702
#
# Poissons Ratio (x) = 0.81933 -0.36052
# Poissons Ratio (y) = 0.28611 0.23946
# Poissons Ratio (z) = -0.63925 1.21594
#
# Static dielectric constant tensor:
#      x y z
#    x 1.856000 0.000000 0.020410 
#    y 0.000000 1.970460 0.000000 
#    z 0.020410 0.000000 1.901780 
# 
# From -- ./inp_files/12006.got.cif
#   From: 2010.05.17/outbox.cif.g08.bks.cpg/sg9_7_cif.got.tgz:12006.got - 2010.06.03 20:04:27.
