data_PCOD9136892
_publ_section_title
;
Structure prediction by ZEFSAII (Michael W. Deem and Ramdas Pophale) SiO2 
 PCOD9136892
Probable space group: C C
;
_chemical_formula_sum "Si O2"
_cell_formula_units_Z 32
_cell_length_a 17.736185
_cell_length_b 8.475666
_cell_length_c 28.234929
_cell_angle_alpha 90.000000
_cell_angle_beta 158.580674
_cell_angle_gamma 90.000000
_cell_volume 1550.031719
_symmetry_space_group_name_H-M "C C"
_symmetry_group_IT_number 9
_symmetry_cell_setting 'monoclinic'
loop_
_space_group_symop_operation_xyz
x,y,z
x,-y,1/2+z
1/2+x,1/2+y,z
1/2+x,1/2-y,1/2+z
loop_
_atom_site_type_symbol
_atom_site_label
_atom_site_fract_x
_atom_site_fract_y
_atom_site_fract_z
Si Si1 0.586410 0.419383 0.255320
Si Si2 0.021960 0.743166 0.992157
Si Si3 0.408913 0.393555 0.414670
Si Si4 0.208415 0.596313 0.011934
Si Si5 0.941197 0.408487 0.113784
Si Si6 0.830252 0.646883 0.132152
Si Si7 0.269512 0.797812 0.918989
Si Si8 0.897732 0.386905 0.252216
O O1 0.389150 0.469127 0.107647
O O2 0.478670 0.293823 0.226639
O O3 0.658917 0.582525 0.319338
O O4 0.799588 0.337261 0.366010
O O5 0.149641 0.629760 0.031762
O O6 0.187000 0.783752 0.130560
O O7 0.963747 0.920957 0.941382
O O8 0.590576 0.305192 0.493085
O O9 0.398622 0.326874 0.462684
O O10 0.181047 0.372307 0.261429
O O11 0.303113 0.765093 0.052409
O O12 0.997760 0.563770 0.860283
O O13 0.888240 0.557595 0.116837
O O14 0.892341 0.402739 0.029306
O O15 0.858293 0.529400 0.192815
O O16 0.084427 0.707906 0.836820
#
# Coordination Sequence:
#
# PCOD9136892 Si02
#       8
#     4   4   4   4   4   4   4   4
#     4  12  24  41  66  99 140 164 223 287 344 396
#     4  11  22  43  69  91 134 176 219 275 345 405
#     4  11  21  45  67  92 127 177 224 269 342 402
#     4  11  23  42  68  96 131 177 222 284 338 413
#     4  11  21  45  67  91 131 177 218 271 343 409
#     4  11  23  43  67  94 137 175 213 283 340 411
#     4  11  23  40  68  95 126 170 223 279 329 403
#     4  10  21  45  68  88 130 178 228 264 343 403
#
# _framework density 20.644738
#
# number of rings (size 3 to 8) (size 9 to 14) (size 15 to 20)
#    0.000    1.000    7.500    0.000    1.750    2.000 
#   18.000    0.000    0.000    0.000    0.000    0.000 
#    0.000    0.000    0.000    0.000    0.000    0.000 
#
# Total GULP energy -89091.706849 kJ/mol
# GULP energy per Si atom -5568.231678 kJ/mol
# Density = 2.059775 g / cm^3
# Si number density = 20.644738 Si / 1000 Ang^3
#
#
#
# Elastic Constant Matrix: (Units=GPa)
#
#
# Indices 1 2 3 4 5 6 
#
# 1 25.0266 0.5860 38.8677 -0.0005 5.1977 0.0003
# 2 0.5860 53.2727 2.4154 -0.0006 5.5771 0.0002
# 3 38.8677 2.4154 135.3298 -0.0026 4.3126 0.0004
# 4 -0.0005 -0.0006 -0.0026 34.5469 0.0016 13.1143
# 5 5.1977 5.5771 4.3126 0.0016 44.4299 -0.0002
# 6 0.0003 0.0002 0.0004 13.1143 -0.0002 7.8280
#
#
#
# Elastic Compliance Matrix: (Units=1/GPa)
#
#
# Indices 1 2 3 4 5 6 
#
# 1 0.074059 0.000845 -0.021071 0.000002 -0.006725 -0.000005
# 2 0.000845 0.019040 -0.000505 0.000002 -0.002440 -0.000003
# 3 -0.021071 -0.000505 0.013411 0.000002 0.001227 -0.000003
# 4 0.000002 0.000002 0.000002 0.079513 -0.000004 -0.133209
# 5 -0.006725 -0.002440 0.001227 -0.000004 0.023481 0.000008
# 6 -0.000005 -0.000003 -0.000003 -0.133209 0.000008 0.350913
#
#
# Mechanical properties :
#
#
# Convention : Reuss Voigt Hill
#
# Bulk Modulus (GPa) = 15.37326 33.04081 24.20704
# Shear Modulus (GPa) = 8.01846 28.81162 18.41504
#
# Velocity S-wave (km/s) = 1.97293 3.73981 2.98987
# Velocity P-wave (km/s) = 3.55706 5.88961 4.86519
#
# Compressibility (1/GPa) = 0.06504801
#
# Stress axis : x y z
#
# Youngs Moduli (GPa) = 13.50284 52.52003 74.56574
#
# Poissons Ratio (x) = -0.04436 1.57117
# Poissons Ratio (y) = -0.01141 0.03763
# Poissons Ratio (z) = 0.28452 0.02651
#
# Static dielectric constant tensor:
#      x y z
#    x 1.785800 0.000000 -0.014870 
#    y 0.000000 1.757780 0.000000 
#    z -0.014870 0.000000 1.807470 
# 
# From -- ./inp_files/27257.got.cif
#   From: 2010.05.17/outbox.cif.g08.bks.cpg/sg9_14_cif.got.tgz:27257.got - 2010.06.03 20:04:27.
