data_PCOD9136160
_publ_section_title
;
Structure prediction by ZEFSAII (Michael W. Deem and Ramdas Pophale) SiO2 
 PCOD9136160
Probable space group: C C
;
_chemical_formula_sum "Si O2"
_cell_formula_units_Z 28
_cell_length_a 7.410290
_cell_length_b 18.897720
_cell_length_c 14.499282
_cell_angle_alpha 90.000000
_cell_angle_beta 38.679407
_cell_angle_gamma 90.000000
_cell_volume 1268.950858
_symmetry_space_group_name_H-M "C C"
_symmetry_group_IT_number 9
_symmetry_cell_setting 'monoclinic'
loop_
_space_group_symop_operation_xyz
x,y,z
x,-y,1/2+z
1/2+x,1/2+y,z
1/2+x,1/2-y,1/2+z
loop_
_atom_site_type_symbol
_atom_site_label
_atom_site_fract_x
_atom_site_fract_y
_atom_site_fract_z
Si Si1 0.321440 0.035103 0.908100
Si Si2 0.359618 0.442712 0.742156
Si Si3 0.789446 0.682975 0.257459
Si Si4 0.709749 0.734098 0.484439
Si Si5 0.969594 0.045134 0.408929
Si Si6 0.649952 0.854519 0.170667
Si Si7 0.815230 0.782009 0.808430
O O1 0.474547 0.108781 0.822767
O O2 0.572990 0.976767 0.814023
O O3 0.092927 0.019368 0.917868
O O4 0.138300 0.033490 0.074306
O O5 0.375601 0.467174 0.842126
O O6 0.359725 0.357217 0.740516
O O7 0.842146 0.727133 0.329315
O O8 0.734115 0.601383 0.298288
O O9 0.484341 0.709375 0.337290
O O10 0.031277 0.696967 0.084743
O O11 0.459334 0.674269 0.583541
O O12 0.973348 0.726475 0.448846
O O13 0.723090 0.085905 0.565695
O O14 0.468094 0.787666 0.206195
#
# Coordination Sequence:
#
# PCOD9136160 Si02
#       7
#     4   4   4   4   4   4   4
#     4  12  25  46  70 102 141 189 233 292 352 425
#     4  11  26  42  74  99 136 188 242 278 358 423
#     4   9  21  39  64  95 138 172 227 287 345 414
#     4  10  21  39  64  99 136 182 224 286 348 415
#     4  10  23  45  64  98 142 178 232 294 339 418
#     4  10  23  44  70 102 147 179 232 302 351 424
#     4  10  23  43  70 101 138 184 232 289 361 415
#
# _framework density 22.065472
#
# number of rings (size 3 to 8) (size 9 to 14) (size 15 to 20)
#    0.000    1.714    1.429    1.714    2.000   17.143 
#    0.000    4.286    0.000    0.000    0.000    0.000 
#    0.000    0.000    0.000    0.000    0.000    0.000 
#
# Total GULP energy -78175.374519 kJ/mol
# GULP energy per Si atom -5583.955323 kJ/mol
# Density = 2.201525 g / cm^3
# Si number density = 22.065472 Si / 1000 Ang^3
#
#
#
# Elastic Constant Matrix: (Units=GPa)
#
#
# Indices 1 2 3 4 5 6 
#
# 1 77.8272 22.8801 35.9686 -0.0004 -17.7817 0.0000
# 2 22.8801 53.9254 11.4014 0.0003 -15.1808 0.0001
# 3 35.9686 11.4014 80.0381 0.0015 -14.1932 -0.0001
# 4 -0.0004 0.0003 0.0015 29.5246 -0.0002 4.1990
# 5 -17.7817 -15.1808 -14.1932 -0.0002 28.7181 0.0000
# 6 0.0000 0.0001 -0.0001 4.1990 0.0000 20.1956
#
#
#
# Elastic Compliance Matrix: (Units=1/GPa)
#
#
# Indices 1 2 3 4 5 6 
#
# 1 0.018680 -0.004918 -0.006690 0.000001 0.005660 0.000000
# 2 -0.004918 0.023180 0.000593 0.000000 0.009501 0.000000
# 3 -0.006690 0.000593 0.016153 -0.000001 0.004154 0.000000
# 4 0.000001 0.000000 -0.000001 0.034902 0.000000 -0.007257
# 5 0.005660 0.009501 0.004154 0.000000 0.045401 0.000000
# 6 0.000000 0.000000 0.000000 -0.007257 0.000000 0.051025
#
#
# Mechanical properties :
#
#
# Convention : Reuss Voigt Hill
#
# Bulk Modulus (GPa) = 27.79142 39.14344 33.46743
# Shear Modulus (GPa) = 22.38481 25.12372 23.75426
#
# Velocity S-wave (km/s) = 3.18853 3.37797 3.28462
# Velocity P-wave (km/s) = 5.11644 5.74391 5.43923
#
# Compressibility (1/GPa) = 0.03598232
#
# Stress axis : x y z
#
# Youngs Moduli (GPa) = 53.53321 43.14038 61.90859
#
# Poissons Ratio (x) = 0.21216 0.41419
# Poissons Ratio (y) = 0.26327 -0.03671
# Poissons Ratio (z) = 0.35816 -0.02558
#
# Static dielectric constant tensor:
#      x y z
#    x 1.807110 0.000000 0.006240 
#    y 0.000000 1.848340 0.000000 
#    z 0.006240 0.000000 1.810090 
# 
# From -- ./inp_files/29498.got.cif
#   From: 2010.05.17/outbox.cif.g08.bks.cpg/sg9_15_cif.got.tgz:29498.got - 2010.06.03 20:04:27.
