data_PCOD9136088
_publ_section_title
;
Structure prediction by ZEFSAII (Michael W. Deem and Ramdas Pophale) SiO2 
 PCOD9136088
Probable space group: C C
;
_chemical_formula_sum "Si O2"
_cell_formula_units_Z 28
_cell_length_a 24.714005
_cell_length_b 4.918890
_cell_length_c 13.979235
_cell_angle_alpha 90.000000
_cell_angle_beta 41.225723
_cell_angle_gamma 90.000000
_cell_volume 1119.945735
_symmetry_space_group_name_H-M "C C"
_symmetry_group_IT_number 9
_symmetry_cell_setting 'monoclinic'
loop_
_space_group_symop_operation_xyz
x,y,z
x,-y,1/2+z
1/2+x,1/2+y,z
1/2+x,1/2-y,1/2+z
loop_
_atom_site_type_symbol
_atom_site_label
_atom_site_fract_x
_atom_site_fract_y
_atom_site_fract_z
Si Si1 0.480500 0.073309 0.754290
Si Si2 0.884786 0.353335 0.713529
Si Si3 0.330872 0.086158 0.078690
Si Si4 0.180468 0.565848 0.860356
Si Si5 0.700597 0.797426 0.654682
Si Si6 0.781668 0.837293 0.890184
Si Si7 0.086365 0.903094 0.145046
O O1 0.460215 0.956274 0.676177
O O2 0.547340 0.308266 0.672607
O O3 0.513593 0.809898 0.766054
O O4 0.396459 0.181670 0.913025
O O5 0.884756 0.443724 0.603587
O O6 0.858799 0.039765 0.764118
O O7 0.809662 0.528974 0.856740
O O8 0.258385 0.278947 0.211741
O O9 0.279428 0.839979 0.100983
O O10 0.144826 0.412068 0.815799
O O11 0.219784 0.359283 0.883825
O O12 0.128557 0.770728 0.994691
O O13 0.735253 0.038011 0.541956
O O14 0.647729 0.608055 0.653759
#
# Coordination Sequence:
#
# PCOD9136088 Si02
#       7
#     4   4   4   4   4   4   4
#     4  12  27  50  70 110 155 197 240 316 372 455
#     4  11  22  42  70 105 142 186 243 309 368 425
#     4  11  25  44  82 106 138 194 268 301 361 443
#     4  10  24  44  73 108 144 190 250 306 363 450
#     4  11  23  44  76 109 141 195 255 308 363 458
#     4  10  21  38  70 107 139 177 242 316 358 416
#     4  11  30  48  73 107 161 197 234 306 405 431
#
# _framework density 25.001208999999999
#
# number of rings (size 3 to 8) (size 9 to 14) (size 15 to 20)
#    0.000    1.143    2.857    1.714    6.000    3.429 
#    0.000    0.000    0.000    0.000    0.000    0.000 
#    0.000    0.000    0.000    0.000    0.000    0.000 
#
# Total GULP energy -78360.640891 kJ/mol
# GULP energy per Si atom -5597.188635 kJ/mol
# Density = 2.494431 g / cm^3
# Si number density = 25.001209 Si / 1000 Ang^3
#
#
#
# Elastic Constant Matrix: (Units=GPa)
#
#
# Indices 1 2 3 4 5 6 
#
# 1 154.5749 29.4085 43.7416 -0.0001 32.1893 -0.0023
# 2 29.4085 85.3666 3.2991 -0.1287 -8.1295 0.0120
# 3 43.7416 3.2991 95.4915 -0.0478 16.9530 0.0207
# 4 -0.0001 -0.1287 -0.0478 29.4903 -0.0164 -12.8296
# 5 32.1893 -8.1295 16.9530 -0.0164 45.3303 0.0003
# 6 -0.0023 0.0120 0.0207 -12.8296 0.0003 42.9219
#
#
#
# Elastic Compliance Matrix: (Units=1/GPa)
#
#
# Indices 1 2 3 4 5 6 
#
# 1 0.009306 -0.003672 -0.003048 -0.000026 -0.006127 -0.000005
# 2 -0.003672 0.013431 0.000351 0.000069 0.004885 0.000016
# 3 -0.003048 0.000351 0.012276 0.000020 -0.002363 0.000000
# 4 -0.000026 0.000069 0.000020 0.038979 0.000038 0.011651
# 5 -0.006127 0.004885 -0.002363 0.000038 0.028171 0.000011
# 6 -0.000005 0.000016 0.000000 0.011651 0.000011 0.026781
#
#
# Mechanical properties :
#
#
# Convention : Reuss Voigt Hill
#
# Bulk Modulus (GPa) = 44.89463 54.25905 49.57684
# Shear Modulus (GPa) = 33.53287 40.81406 37.17346
#
# Velocity S-wave (km/s) = 3.66628 4.04478 3.86017
# Velocity P-wave (km/s) = 5.99317 6.60026 6.30403
#
# Compressibility (1/GPa) = 0.02227438
#
# Stress axis : x y z
#
# Youngs Moduli (GPa) = 107.45198 74.45550 81.45970
#
# Poissons Ratio (x) = 0.27338 0.24832
# Poissons Ratio (y) = 0.39454 -0.02857
# Poissons Ratio (z) = 0.32756 -0.02611
#
# Static dielectric constant tensor:
#      x y z
#    x 2.074660 -0.000080 0.028000 
#    y -0.000080 1.956170 0.000010 
#    z 0.028000 0.000010 2.005980 
# 
# From -- ./inp_files/26427.got.cif
#   From: 2010.05.17/outbox.cif.g08.bks.cpg/sg9_14_cif.got.tgz:26427.got - 2010.06.03 20:04:27.
