data_PCOD9136232
_publ_section_title
;
Structure prediction by ZEFSAII (Michael W. Deem and Ramdas Pophale) SiO2 
 PCOD9136232
Probable space group: C C
;
_chemical_formula_sum "Si O2"
_cell_formula_units_Z 24
_cell_length_a 11.839259
_cell_length_b 7.697762
_cell_length_c 22.497646
_cell_angle_alpha 90.000000
_cell_angle_beta 36.563358
_cell_angle_gamma 90.000000
_cell_volume 1221.411323
_symmetry_space_group_name_H-M "C C"
_symmetry_group_IT_number 9
_symmetry_cell_setting 'monoclinic'
loop_
_space_group_symop_operation_xyz
x,y,z
x,-y,1/2+z
1/2+x,1/2+y,z
1/2+x,1/2-y,1/2+z
loop_
_atom_site_type_symbol
_atom_site_label
_atom_site_fract_x
_atom_site_fract_y
_atom_site_fract_z
Si Si1 0.471380 0.109816 0.673210
Si Si2 0.692223 0.070910 0.182790
Si Si3 0.289669 0.644446 0.344401
Si Si4 0.079515 0.907988 0.290536
Si Si5 0.983768 0.562537 0.389440
Si Si6 0.118213 0.863848 0.516581
O O1 0.402018 0.276535 0.740964
O O2 0.274135 0.020104 0.736481
O O3 0.580256 0.190921 0.571454
O O4 0.601065 0.998201 0.661461
O O5 0.650736 0.276508 0.208477
O O6 0.587048 0.992996 0.285577
O O7 0.916074 0.044520 0.093493
O O8 0.431477 0.541422 0.326920
O O9 0.197930 0.801521 0.419830
O O10 0.118881 0.531869 0.388544
O O11 0.984028 0.771183 0.377092
O O12 0.777096 0.482016 0.480075
#
# Coordination Sequence:
#
# PCOD9136232 Si02
#       6
#     4   4   4   4   4   4
#     4  10  21  40  59  87 121 155 203 243 292 355
#     4   9  20  43  58  83 126 156 194 247 296 350
#     4  11  20  39  62  85 122 151 206 250 280 364
#     4   8  20  37  60  86 114 159 193 245 300 333
#     4   9  21  40  60  83 124 157 191 249 297 344
#     4  11  22  37  63  92 115 166 195 240 309 342
#
# _framework density 19.6494
#
# number of rings (size 3 to 8) (size 9 to 14) (size 15 to 20)
#    1.000    1.333    3.333    0.000    0.000    8.000 
#    0.000    0.000    0.000    0.000    0.000    0.000 
#    0.000    0.000    0.000    0.000    0.000    0.000 
#
# Total GULP energy -66848.961307 kJ/mol
# GULP energy per Si atom -5570.746776 kJ/mol
# Density = 1.960468 g / cm^3
# Si number density = 19.649400 Si / 1000 Ang^3
#
#
#
# Elastic Constant Matrix: (Units=GPa)
#
#
# Indices 1 2 3 4 5 6 
#
# 1 140.1943 26.2373 27.6665 0.0000 -47.1513 0.0000
# 2 26.2373 13.6039 12.6442 0.0000 -20.7355 0.0000
# 3 27.6665 12.6442 62.9643 0.0000 -34.1678 0.0000
# 4 0.0000 0.0000 0.0000 17.9508 0.0000 -3.7653
# 5 -47.1513 -20.7355 -34.1678 0.0000 43.8570 0.0000
# 6 0.0000 0.0000 0.0000 -3.7653 0.0000 38.6706
#
#
#
# Elastic Compliance Matrix: (Units=1/GPa)
#
#
# Indices 1 2 3 4 5 6 
#
# 1 0.011832 -0.010490 0.001939 0.000000 0.009272 0.000000
# 2 -0.010490 0.298220 0.026185 0.000000 0.150120 0.000000
# 3 0.001939 0.026185 0.030527 0.000000 0.038247 0.000000
# 4 0.000000 0.000000 0.000000 0.056869 0.000000 0.005537
# 5 0.009272 0.150120 0.038247 0.000000 0.133544 0.000000
# 6 0.000000 0.000000 0.000000 0.005537 0.000000 0.026399
#
#
# Mechanical properties :
#
#
# Convention : Reuss Voigt Hill
#
# Bulk Modulus (GPa) = 2.66065 38.87318 20.76691
# Shear Modulus (GPa) = 7.72316 30.10997 18.91657
#
# Velocity S-wave (km/s) = 1.98470 3.91878 3.10611
# Velocity P-wave (km/s) = 2.57080 6.34840 4.84310
#
# Compressibility (1/GPa) = 0.37584793
#
# Stress axis : x y z
#
# Youngs Moduli (GPa) = 84.51838 3.35323 32.75812
#
# Poissons Ratio (x) = 0.03517 -0.06351
# Poissons Ratio (y) = 0.88656 -0.85778
# Poissons Ratio (z) = -0.16387 -0.08781
#
# Static dielectric constant tensor:
#      x y z
#    x 1.689920 0.000000 -0.004960 
#    y 0.000000 1.696850 0.000000 
#    z -0.004960 0.000000 1.687520 
# 
# From -- ./inp_files/15906.got.cif
#   From: 2010.05.17/outbox.cif.g08.bks.cpg/sg9_8_cif.got.tgz:15906.got - 2010.06.03 20:04:27.
