data_PCOD9136299
_publ_section_title
;
Structure prediction by ZEFSAII (Michael W. Deem and Ramdas Pophale) SiO2 
 PCOD9136299
Probable space group: C C
;
_chemical_formula_sum "Si O2"
_cell_formula_units_Z 32
_cell_length_a 8.352222
_cell_length_b 16.241664
_cell_length_c 10.333016
_cell_angle_alpha 90.000000
_cell_angle_beta 89.495459
_cell_angle_gamma 90.000000
_cell_volume 1401.660434
_symmetry_space_group_name_H-M "C C"
_symmetry_group_IT_number 9
_symmetry_cell_setting 'monoclinic'
loop_
_space_group_symop_operation_xyz
x,y,z
x,-y,1/2+z
1/2+x,1/2+y,z
1/2+x,1/2-y,1/2+z
loop_
_atom_site_type_symbol
_atom_site_label
_atom_site_fract_x
_atom_site_fract_y
_atom_site_fract_z
Si Si1 0.923040 0.764193 0.464910
Si Si2 0.733102 0.964283 0.690710
Si Si3 0.862090 0.665162 0.702087
Si Si4 0.758931 0.509665 0.315358
Si Si5 0.052544 0.314697 0.441560
Si Si6 0.573179 0.992324 0.947809
Si Si7 0.066488 0.715728 0.200561
Si Si8 0.576541 0.431515 0.566271
O O1 0.936478 0.689818 0.565687
O O2 0.739712 0.794990 0.452579
O O3 0.966622 0.729452 0.326813
O O4 0.032738 0.840460 0.512685
O O5 0.630306 0.022557 0.594055
O O6 0.660488 0.871472 0.693784
O O7 0.908140 0.964502 0.626339
O O8 0.715445 0.989432 0.840414
O O9 0.819175 0.572413 0.739677
O O10 0.695447 0.712458 0.703988
O O11 0.973526 0.707841 0.808587
O O12 0.646542 0.482140 0.439974
O O13 0.687529 0.563150 0.195931
O O14 0.917037 0.546908 0.382609
O O15 0.026539 0.411737 0.454058
O O16 0.970601 0.275547 0.567517
#
# Coordination Sequence:
#
# PCOD9136299 Si02
#       8
#     4   4   4   4   4   4   4   4
#     4  11  22  43  67  97 135 172 226 279 332 411
#     4  11  22  41  68  94 134 178 226 272 351 410
#     4  10  21  44  64  94 136 171 220 273 337 403
#     4  11  25  42  68  98 134 177 224 285 344 399
#     4   9  21  41  64  91 126 177 216 270 335 402
#     4  10  21  42  64  93 135 173 218 277 338 411
#     4  10  21  40  65  93 129 174 220 274 331 409
#     4  12  23  43  66 100 133 176 226 288 338 403
#
# _framework density 22.830065000000001
#
# number of rings (size 3 to 8) (size 9 to 14) (size 15 to 20)
#    0.000    1.500    5.000    1.500    0.000    4.000 
#    9.000    0.000    0.000    0.000    0.000    0.000 
#    0.000    0.000    0.000    0.000    0.000    0.000 
#
# Total GULP energy -89254.337520 kJ/mol
# GULP energy per Si atom -5578.396095 kJ/mol
# Density = 2.277810 g / cm^3
# Si number density = 22.830065 Si / 1000 Ang^3
#
#
#
# Elastic Constant Matrix: (Units=GPa)
#
#
# Indices 1 2 3 4 5 6 
#
# 1 58.7503 22.6651 49.9908 0.0000 -22.1697 0.0000
# 2 22.6651 56.8185 33.7885 0.0000 7.2673 0.0000
# 3 49.9908 33.7885 186.7205 0.0000 -16.3039 0.0000
# 4 0.0000 0.0000 0.0000 34.9313 0.0000 0.7382
# 5 -22.1697 7.2673 -16.3039 0.0000 27.8203 0.0000
# 6 0.0000 0.0000 0.0000 0.7382 0.0000 14.5235
#
#
#
# Elastic Compliance Matrix: (Units=1/GPa)
#
#
# Indices 1 2 3 4 5 6 
#
# 1 0.041054 -0.018012 -0.004705 0.000000 0.034663 0.000000
# 2 -0.018012 0.029293 -0.002529 0.000000 -0.023488 0.000000
# 3 -0.004705 -0.002529 0.007170 0.000000 0.001113 0.000000
# 4 0.000000 0.000000 0.000000 0.028658 0.000000 -0.001457
# 5 0.034663 -0.023488 0.001113 0.000000 0.070356 0.000000
# 6 0.000000 0.000000 0.000000 -0.001457 0.000000 0.068928
#
#
# Mechanical properties :
#
#
# Convention : Reuss Voigt Hill
#
# Bulk Modulus (GPa) = 37.00390 57.24201 47.12296
# Shear Modulus (GPa) = 16.39548 28.51134 22.45341
#
# Velocity S-wave (km/s) = 2.68275 3.53774 3.13949
# Velocity P-wave (km/s) = 5.08328 6.46645 5.81613
#
# Compressibility (1/GPa) = 0.02702418
#
# Stress axis : x y z
#
# Youngs Moduli (GPa) = 24.35801 34.13737 139.46469
#
# Poissons Ratio (x) = 0.61489 0.65623
# Poissons Ratio (y) = 0.43874 0.35276
# Poissons Ratio (z) = 0.11461 0.08635
#
# Static dielectric constant tensor:
#      x y z
#    x 1.890110 0.000000 -0.013700 
#    y 0.000000 1.894960 0.000000 
#    z -0.013700 0.000000 1.982550 
# 
# From -- ./inp_files/5622.got.cif
#   From: 2010.05.17/outbox.cif.g08.bks.cpg/sg9_3_cif.got.tgz:5622.got - 2010.06.03 20:04:27.
