data_PCOD9136725
_publ_section_title
;
Structure prediction by ZEFSAII (Michael W. Deem and Ramdas Pophale) SiO2 
 PCOD9136725
Probable space group: C C
;
_chemical_formula_sum "Si O2"
_cell_formula_units_Z 32
_cell_length_a 8.999988
_cell_length_b 13.087806
_cell_length_c 10.522883
_cell_angle_alpha 90.000000
_cell_angle_beta 74.629912
_cell_angle_gamma 90.000000
_cell_volume 1195.159647
_symmetry_space_group_name_H-M "C C"
_symmetry_group_IT_number 9
_symmetry_cell_setting 'monoclinic'
loop_
_space_group_symop_operation_xyz
x,y,z
x,-y,1/2+z
1/2+x,1/2+y,z
1/2+x,1/2-y,1/2+z
loop_
_atom_site_type_symbol
_atom_site_label
_atom_site_fract_x
_atom_site_fract_y
_atom_site_fract_z
Si Si1 0.153760 0.713996 0.723620
Si Si2 0.381882 0.570387 0.137183
Si Si3 0.034965 0.159395 0.449625
Si Si4 0.731795 0.407319 0.528744
Si Si5 0.697735 0.060056 0.521703
Si Si6 0.826991 0.466970 0.775889
Si Si7 0.467913 0.358469 0.244673
Si Si8 0.106679 0.331497 0.798660
O O1 0.029287 0.748652 0.852627
O O2 0.215476 0.796513 0.604315
O O3 0.109966 0.612517 0.658503
O O4 0.299765 0.689517 0.776980
O O5 0.549922 0.578050 0.042472
O O6 0.255588 0.548533 0.055083
O O7 0.420000 0.478689 0.232719
O O8 0.288385 0.662429 0.220795
O O9 0.176123 0.095278 0.360740
O O10 0.867827 0.109801 0.482515
O O11 0.057676 0.173666 0.594173
O O12 0.789760 0.480460 0.633514
O O13 0.821703 0.440822 0.380722
O O14 0.608331 0.093924 0.420273
O O15 0.974406 0.391252 0.748641
O O16 0.557226 0.286664 0.324849
#
# Coordination Sequence:
#
# PCOD9136725 Si02
#       8
#     4   4   4   4   4   4   4   4
#     4   9  19  40  64  91 128 179 225 286 346 419
#     4  10  24  44  69  96 143 182 231 289 363 420
#     4   9  17  43  65  85 133 187 215 283 358 417
#     4  11  21  44  68  97 133 193 226 281 366 430
#     4  10  23  43  61  99 140 173 235 289 352 433
#     4  11  23  40  67  99 139 178 232 296 347 429
#     4  10  21  43  67  96 132 185 225 281 357 419
#     4  12  24  43  67 105 138 175 243 303 351 429
#
# _framework density 26.774666
#
# number of rings (size 3 to 8) (size 9 to 14) (size 15 to 20)
#    0.000    2.000    5.000    1.500    1.750    1.000 
#   18.000    0.000    0.000    0.000    0.000    0.000 
#    0.000    0.000    0.000    0.000    0.000    0.000 
#
# Total GULP energy -89098.853461 kJ/mol
# GULP energy per Si atom -5568.678341 kJ/mol
# Density = 2.671373 g / cm^3
# Si number density = 26.774666 Si / 1000 Ang^3
#
#
#
# Elastic Constant Matrix: (Units=GPa)
#
#
# Indices 1 2 3 4 5 6 
#
# 1 91.1010 28.8578 32.1272 0.0000 1.1901 0.0000
# 2 28.8578 80.6855 10.7300 0.0000 6.9604 0.0000
# 3 32.1272 10.7300 86.3568 0.0000 -2.0356 0.0000
# 4 0.0000 0.0000 0.0000 37.9583 0.0000 -6.6921
# 5 1.1901 6.9604 -2.0356 0.0000 49.5082 0.0000
# 6 0.0000 0.0000 0.0000 -6.6921 0.0000 28.6252
#
#
#
# Elastic Compliance Matrix: (Units=1/GPa)
#
#
# Indices 1 2 3 4 5 6 
#
# 1 0.014014 -0.004400 -0.004665 0.000000 0.000090 0.000000
# 2 -0.004400 0.014153 -0.000166 0.000000 -0.001891 0.000000
# 3 -0.004665 -0.000166 0.013352 0.000000 0.000685 0.000000
# 4 0.000000 0.000000 0.000000 0.027477 0.000000 0.006424
# 5 0.000090 -0.001891 0.000685 0.000000 0.020490 0.000000
# 6 0.000000 0.000000 0.000000 0.006424 0.000000 0.036436
#
#
# Mechanical properties :
#
#
# Convention : Reuss Voigt Hill
#
# Bulk Modulus (GPa) = 43.37017 44.61924 43.99471
# Shear Modulus (GPa) = 32.87944 35.64690 34.26317
#
# Velocity S-wave (km/s) = 3.50809 3.65275 3.58115
# Velocity P-wave (km/s) = 5.71335 5.87290 5.79367
#
# Compressibility (1/GPa) = 0.02305732
#
# Stress axis : x y z
#
# Youngs Moduli (GPa) = 71.35478 70.65828 74.89430
#
# Poissons Ratio (x) = 0.31088 0.34938
# Poissons Ratio (y) = 0.31394 0.01245
# Poissons Ratio (z) = 0.33287 0.01174
#
# Static dielectric constant tensor:
#      x y z
#    x 2.072840 0.000000 0.105940 
#    y 0.000000 2.354630 0.000000 
#    z 0.105940 0.000000 2.188980 
# 
# From -- ./inp_files/14751.got.cif
#   From: 2010.05.17/outbox.cif.g08.bks.cpg/sg9_8_cif.got.tgz:14751.got - 2010.06.03 20:04:27.
