data_PCOD9136855
_publ_section_title
;
Structure prediction by ZEFSAII (Michael W. Deem and Ramdas Pophale) SiO2 
 PCOD9136855
Probable space group: C C
;
_chemical_formula_sum "Si O2"
_cell_formula_units_Z 32
_cell_length_a 16.137386
_cell_length_b 8.963120
_cell_length_c 14.215807
_cell_angle_alpha 90.000000
_cell_angle_beta 37.595207
_cell_angle_gamma 90.000000
_cell_volume 1254.440047
_symmetry_space_group_name_H-M "C C"
_symmetry_group_IT_number 9
_symmetry_cell_setting 'monoclinic'
loop_
_space_group_symop_operation_xyz
x,y,z
x,-y,1/2+z
1/2+x,1/2+y,z
1/2+x,1/2-y,1/2+z
loop_
_atom_site_type_symbol
_atom_site_label
_atom_site_fract_x
_atom_site_fract_y
_atom_site_fract_z
Si Si1 0.921230 0.957231 0.970260
Si Si2 0.696700 0.731553 0.450082
Si Si3 0.473408 0.763945 0.987467
Si Si4 0.475644 0.137884 0.276003
Si Si5 0.089749 0.946164 0.644312
Si Si6 0.688342 0.972336 0.317711
Si Si7 0.354347 0.842668 0.453306
Si Si8 0.357401 0.691210 0.266244
O O1 0.925333 0.774610 0.958328
O O2 0.966223 0.994904 0.823850
O O3 0.767511 0.973322 0.147636
O O4 0.000259 0.083299 0.961154
O O5 0.621505 0.827381 0.600118
O O6 0.857688 0.700139 0.313514
O O7 0.635730 0.570161 0.529849
O O8 0.655473 0.810709 0.389677
O O9 0.440886 0.792556 0.908538
O O10 0.576825 0.897697 0.917326
O O11 0.353322 0.780293 0.172044
O O12 0.454982 0.964163 0.319491
O O13 0.212685 0.920022 0.608603
O O14 0.015605 0.818454 0.651413
O O15 0.796407 0.031777 0.297442
O O16 0.294061 0.761090 0.414905
#
# Coordination Sequence:
#
# PCOD9136855 Si02
#       8
#     4   4   4   4   4   4   4   4
#     4  10  24  46  66 107 148 193 254 316 383 458
#     4  11  24  46  71 109 145 203 246 318 372 476
#     4  11  24  43  68 103 136 194 242 310 370 457
#     4  11  25  44  75 103 150 198 259 300 395 459
#     4  10  21  44  71 102 146 196 249 307 389 460
#     4  11  25  41  71 105 146 193 249 310 387 446
#     4  10  23  44  70 104 139 197 243 315 375 472
#     4  10  22  42  66  99 138 186 242 310 369 454
#
# _framework density 25.509388999999999
#
# number of rings (size 3 to 8) (size 9 to 14) (size 15 to 20)
#    0.000    1.500    1.250    2.250    5.250    3.000 
#   18.000    0.000    0.000    0.000    0.000    0.000 
#    0.000    0.000    0.000    0.000    0.000    0.000 
#
# Total GULP energy -89078.341908 kJ/mol
# GULP energy per Si atom -5567.396369 kJ/mol
# Density = 2.545133 g / cm^3
# Si number density = 25.509389 Si / 1000 Ang^3
#
#
#
# Elastic Constant Matrix: (Units=GPa)
#
#
# Indices 1 2 3 4 5 6 
#
# 1 70.8187 31.1013 10.6502 0.0000 -0.6224 0.0000
# 2 31.1013 116.6890 -1.9131 0.0000 -13.3563 0.0000
# 3 10.6502 -1.9131 68.8464 0.0000 10.2661 0.0000
# 4 0.0000 0.0000 0.0000 30.1469 0.0000 13.0157
# 5 -0.6224 -13.3563 10.2661 0.0000 31.5034 0.0000
# 6 0.0000 0.0000 0.0000 13.0157 0.0000 47.8178
#
#
#
# Elastic Compliance Matrix: (Units=1/GPa)
#
#
# Indices 1 2 3 4 5 6 
#
# 1 0.016486 -0.004523 -0.002563 0.000000 -0.000756 0.000000
# 2 -0.004523 0.010255 0.000367 0.000000 0.004139 0.000000
# 3 -0.002563 0.000367 0.015678 0.000000 -0.005004 0.000000
# 4 0.000000 0.000000 0.000000 0.037588 0.000000 -0.010231
# 5 -0.000756 0.004139 -0.005004 0.000000 0.035113 0.000000
# 6 0.000000 0.000000 0.000000 -0.010231 0.000000 0.023698
#
#
# Mechanical properties :
#
#
# Convention : Reuss Voigt Hill
#
# Bulk Modulus (GPa) = 34.50413 37.33676 35.92045
# Shear Modulus (GPa) = 30.88057 36.32801 33.60429
#
# Velocity S-wave (km/s) = 3.48308 3.77782 3.63344
# Velocity P-wave (km/s) = 5.45263 5.80496 5.63155
#
# Compressibility (1/GPa) = 0.02898204
#
# Stress axis : x y z
#
# Youngs Moduli (GPa) = 60.65933 97.51419 63.78383
#
# Poissons Ratio (x) = 0.44101 0.16348
# Poissons Ratio (y) = 0.27433 -0.02344
# Poissons Ratio (z) = 0.15548 -0.03583
#
# Static dielectric constant tensor:
#      x y z
#    x 2.036980 0.000000 -0.023560 
#    y 0.000000 2.162750 0.000000 
#    z -0.023560 0.000000 2.029750 
# 
# From -- ./inp_files/26718.got.cif
#   From: 2010.05.17/outbox.cif.g08.bks.cpg/sg9_14_cif.got.tgz:26718.got - 2010.06.03 20:04:27.
