data_PCOD9136837
_publ_section_title
;
Structure prediction by ZEFSAII (Michael W. Deem and Ramdas Pophale) SiO2 
 PCOD9136837
Probable space group: C C
;
_chemical_formula_sum "Si O2"
_cell_formula_units_Z 32
_cell_length_a 22.757078
_cell_length_b 5.084847
_cell_length_c 12.733198
_cell_angle_alpha 90.000000
_cell_angle_beta 112.434370
_cell_angle_gamma 90.000000
_cell_volume 1361.924241
_symmetry_space_group_name_H-M "C C"
_symmetry_group_IT_number 9
_symmetry_cell_setting 'monoclinic'
loop_
_space_group_symop_operation_xyz
x,y,z
x,-y,1/2+z
1/2+x,1/2+y,z
1/2+x,1/2-y,1/2+z
loop_
_atom_site_type_symbol
_atom_site_label
_atom_site_fract_x
_atom_site_fract_y
_atom_site_fract_z
Si Si1 0.493320 0.780666 0.714470
Si Si2 0.759294 0.697885 0.192566
Si Si3 0.251242 0.488162 0.410497
Si Si4 0.895892 0.693771 0.326016
Si Si5 0.387575 0.692780 0.467654
Si Si6 0.577606 0.266249 0.777433
Si Si7 0.167296 0.591411 0.022569
Si Si8 0.670717 0.353083 0.229959
O O1 0.455266 0.864068 0.792611
O O2 0.442180 0.705111 0.591563
O O3 0.534830 0.523254 0.768568
O O4 0.536131 0.025328 0.705803
O O5 0.832180 0.706135 0.210954
O O6 0.735880 0.412562 0.210599
O O7 0.758258 0.841364 0.304853
O O8 0.704415 0.823259 0.083058
O O9 0.318977 0.624214 0.471270
O O10 0.226502 0.304949 0.488196
O O11 0.193682 0.692386 0.346372
O O12 0.884767 0.467045 0.403890
O O13 0.902834 0.966440 0.392904
O O14 0.631399 0.392303 0.737806
O O15 0.609966 0.145550 0.903302
O O16 0.138980 0.695111 0.113759
#
# Coordination Sequence:
#
# PCOD9136837 Si02
#       8
#     4   4   4   4   4   4   4   4
#     4  12  28  49  70 105 143 204 249 290 353 443
#     4  10  22  42  71 107 140 178 234 309 363 435
#     4  10  21  44  69 110 149 173 238 301 382 431
#     4  11  24  48  74 109 145 180 250 301 368 435
#     4  11  24  46  76 106 144 194 230 316 364 425
#     4  12  28  49  69 102 155 193 250 296 347 446
#     4  11  25  42  72 105 141 198 231 300 375 427
#     4  11  24  44  71 108 141 184 238 305 364 440
#
# _framework density 23.496165999999999
#
# number of rings (size 3 to 8) (size 9 to 14) (size 15 to 20)
#    0.000    1.000    2.500    3.000    5.250    3.000 
#    6.750    0.000    0.000    0.000    0.000    0.000 
#    0.000    0.000    0.000    0.000    0.000    0.000 
#
# Total GULP energy -89286.119865 kJ/mol
# GULP energy per Si atom -5580.382492 kJ/mol
# Density = 2.344269 g / cm^3
# Si number density = 23.496166 Si / 1000 Ang^3
#
#
#
# Elastic Constant Matrix: (Units=GPa)
#
#
# Indices 1 2 3 4 5 6 
#
# 1 125.0711 32.6939 48.9616 0.0000 12.1974 0.0000
# 2 32.6939 88.3424 17.6493 0.0000 4.9273 0.0000
# 3 48.9616 17.6493 100.6098 0.0000 -1.9030 0.0000
# 4 0.0000 0.0000 0.0000 10.6874 0.0000 -2.2947
# 5 12.1974 4.9273 -1.9030 0.0000 26.0623 0.0000
# 6 0.0000 0.0000 0.0000 -2.2947 0.0000 46.9430
#
#
#
# Elastic Compliance Matrix: (Units=1/GPa)
#
#
# Indices 1 2 3 4 5 6 
#
# 1 0.011216 -0.002858 -0.005053 0.000000 -0.005078 0.000000
# 2 -0.002858 0.012607 -0.000842 0.000000 -0.001107 0.000000
# 3 -0.005053 -0.000842 0.012611 0.000000 0.003445 0.000000
# 4 0.000000 0.000000 0.000000 0.094561 0.000000 0.004622
# 5 -0.005078 -0.001107 0.003445 0.000000 0.041207 0.000000
# 6 0.000000 0.000000 0.000000 0.004622 0.000000 0.021528
#
#
# Mechanical properties :
#
#
# Convention : Reuss Voigt Hill
#
# Bulk Modulus (GPa) = 52.82891 56.95921 54.89406
# Shear Modulus (GPa) = 22.98377 31.05311 27.01844
#
# Velocity S-wave (km/s) = 3.13100 3.63936 3.39471
# Velocity P-wave (km/s) = 5.96689 6.47723 6.22729
#
# Compressibility (1/GPa) = 0.01892903
#
# Stress axis : x y z
#
# Youngs Moduli (GPa) = 89.16011 79.31957 79.29507
#
# Poissons Ratio (x) = 0.22670 0.40066
# Poissons Ratio (y) = 0.25483 0.06674
# Poissons Ratio (z) = 0.45051 0.06676
#
# Static dielectric constant tensor:
#      x y z
#    x 1.922270 0.000000 -0.002330 
#    y 0.000000 1.976890 0.000000 
#    z -0.002330 0.000000 2.031440 
# 
# From -- ./inp_files/20656.got.cif
#   From: 2010.05.17/outbox.cif.g08.bks.cpg/sg9_11_cif.got.tgz:20656.got - 2010.06.03 20:04:27.
