data_PCOD9136690
_publ_section_title
;
Structure prediction by ZEFSAII (Michael W. Deem and Ramdas Pophale) SiO2 
 PCOD9136690
Probable space group: C C
;
_chemical_formula_sum "Si O2"
_cell_formula_units_Z 32
_cell_length_a 8.111093
_cell_length_b 12.052938
_cell_length_c 13.928202
_cell_angle_alpha 90.000000
_cell_angle_beta 90.196038
_cell_angle_gamma 90.000000
_cell_volume 1361.647892
_symmetry_space_group_name_H-M "C C"
_symmetry_group_IT_number 9
_symmetry_cell_setting 'monoclinic'
loop_
_space_group_symop_operation_xyz
x,y,z
x,-y,1/2+z
1/2+x,1/2+y,z
1/2+x,1/2-y,1/2+z
loop_
_atom_site_type_symbol
_atom_site_label
_atom_site_fract_x
_atom_site_fract_y
_atom_site_fract_z
Si Si1 0.855430 0.759241 0.620210
Si Si2 0.162078 0.556916 0.198802
Si Si3 0.531734 0.716783 0.928271
Si Si4 0.076987 0.913696 0.100198
Si Si5 0.218844 0.993173 0.428006
Si Si6 0.274022 0.097649 0.223472
Si Si7 0.301927 0.660822 0.747509
Si Si8 0.040772 0.429387 0.035050
O O1 0.683144 0.699014 0.596422
O O2 0.933504 0.814069 0.525629
O O3 0.970422 0.648394 0.622924
O O4 0.802632 0.847657 0.700824
O O5 0.972919 0.595472 0.211475
O O6 0.199380 0.451370 0.266807
O O7 0.161131 0.512468 0.088006
O O8 0.592992 0.840926 0.953955
O O9 0.681363 0.634689 0.911429
O O10 0.408755 0.700061 0.839327
O O11 0.921659 0.881469 0.163053
O O12 0.175840 0.012761 0.155135
O O13 0.071321 0.954965 0.991130
O O14 0.235040 0.057153 0.329707
O O15 0.385812 0.009458 0.487930
O O16 0.218143 0.224955 0.211943
#
# Coordination Sequence:
#
# PCOD9136690 Si02
#       8
#     4   4   4   4   4   4   4   4
#     4   9  20  42  65  89 135 163 215 274 314 384
#     4  12  24  39  67 100 126 176 214 266 332 385
#     4  10  21  43  64  92 132 169 215 275 318 386
#     4  11  22  44  67  94 134 177 214 268 331 383
#     4  11  21  40  72  90 128 180 211 266 331 381
#     4  12  23  43  66  97 136 171 221 265 326 392
#     4  12  25  40  66  98 133 170 220 271 325 390
#     4   9  22  41  61  92 130 168 212 269 317 385
#
# _framework density 23.500935999999999
#
# number of rings (size 3 to 8) (size 9 to 14) (size 15 to 20)
#    0.750    0.500    6.250    0.750    1.750    1.000 
#    0.000    0.000    2.750    0.000    0.000    0.000 
#    0.000    0.000    0.000    0.000    0.000    0.000 
#
# Total GULP energy -89239.606666 kJ/mol
# GULP energy per Si atom -5577.475417 kJ/mol
# Density = 2.344745 g / cm^3
# Si number density = 23.500936 Si / 1000 Ang^3
#
#
#
# Elastic Constant Matrix: (Units=GPa)
#
#
# Indices 1 2 3 4 5 6 
#
# 1 26.5844 13.6627 3.2275 0.0000 -3.7286 0.0000
# 2 13.6627 106.4927 -4.7380 0.0000 11.9283 0.0000
# 3 3.2275 -4.7380 70.5215 0.0000 1.1942 0.0000
# 4 0.0000 0.0000 0.0000 28.8316 0.0000 -3.9170
# 5 -3.7286 11.9283 1.1942 0.0000 23.6711 0.0000
# 6 0.0000 0.0000 0.0000 -3.9170 0.0000 42.4721
#
#
#
# Elastic Compliance Matrix: (Units=1/GPa)
#
#
# Indices 1 2 3 4 5 6 
#
# 1 0.042851 -0.006765 -0.002590 0.000000 0.010290 0.000000
# 2 -0.006765 0.011060 0.001166 0.000000 -0.006698 0.000000
# 3 -0.002590 0.001166 0.014406 0.000000 -0.001722 0.000000
# 4 0.000000 0.000000 0.000000 0.035124 0.000000 0.003239
# 5 0.010290 -0.006698 -0.001722 0.000000 0.047329 0.000000
# 6 0.000000 0.000000 0.000000 0.003239 0.000000 0.023844
#
#
# Mechanical properties :
#
#
# Convention : Reuss Voigt Hill
#
# Bulk Modulus (GPa) = 19.25342 25.32258 22.28800
# Shear Modulus (GPa) = 24.00327 31.75804 27.88066
#
# Velocity S-wave (km/s) = 3.19936 3.68006 3.44810
# Velocity P-wave (km/s) = 4.67529 5.37175 5.03557
#
# Compressibility (1/GPa) = 0.05193883
#
# Stress axis : x y z
#
# Youngs Moduli (GPa) = 23.33692 90.41235 69.41492
#
# Poissons Ratio (x) = 0.61167 0.17978
# Poissons Ratio (y) = 0.15788 -0.08095
# Poissons Ratio (z) = 0.06044 -0.10543
#
# Static dielectric constant tensor:
#      x y z
#    x 1.971640 0.000000 -0.001380 
#    y 0.000000 1.952420 0.000000 
#    z -0.001380 0.000000 1.885180 
# 
# From -- ./inp_files/22907.got.cif
#   From: 2010.05.17/outbox.cif.g08.bks.cpg/sg9_12_cif.got.tgz:22907.got - 2010.06.03 20:04:27.
