data_PCOD9136779
_publ_section_title
;
Structure prediction by ZEFSAII (Michael W. Deem and Ramdas Pophale) SiO2 
 PCOD9136779
Probable space group: C C
;
_chemical_formula_sum "Si O2"
_cell_formula_units_Z 28
_cell_length_a 22.267905
_cell_length_b 5.235454
_cell_length_c 10.118973
_cell_angle_alpha 90.000000
_cell_angle_beta 118.143529
_cell_angle_gamma 90.000000
_cell_volume 1040.219185
_symmetry_space_group_name_H-M "C C"
_symmetry_group_IT_number 9
_symmetry_cell_setting 'monoclinic'
loop_
_space_group_symop_operation_xyz
x,y,z
x,-y,1/2+z
1/2+x,1/2+y,z
1/2+x,1/2-y,1/2+z
loop_
_atom_site_type_symbol
_atom_site_label
_atom_site_fract_x
_atom_site_fract_y
_atom_site_fract_z
Si Si1 0.665380 0.351089 0.910090
Si Si2 0.613480 0.771234 0.097187
Si Si3 0.997992 0.547142 0.813212
Si Si4 0.796273 0.368178 0.514765
Si Si5 0.036451 0.052269 0.710841
Si Si6 0.248962 0.508045 0.643760
Si Si7 0.361587 0.134378 0.827952
O O1 0.727215 0.493208 0.904103
O O2 0.631665 0.150523 0.772643
O O3 0.605420 0.552607 0.872976
O O4 0.697380 0.227196 0.071100
O O5 0.567456 0.521517 0.098732
O O6 0.692394 0.785284 0.128200
O O7 0.562936 0.970185 0.972809
O O8 0.999406 0.799019 0.724273
O O9 0.936748 0.609621 0.850363
O O10 0.995112 0.300372 0.711960
O O11 0.820394 0.455384 0.684273
O O12 0.852688 0.443180 0.469364
O O13 0.775340 0.078387 0.523372
O O14 0.317726 0.400519 0.781880
#
# Coordination Sequence:
#
# PCOD9136779 Si02
#       7
#     4   4   4   4   4   4   4
#     4   9  21  39  70 110 143 198 262 338 407 470
#     4  10  21  43  79 109 157 202 271 344 416 482
#     4  12  26  51  69 114 154 217 264 334 407 504
#     4  11  24  47  73 110 159 209 281 339 419 502
#     4  10  26  44  74 108 152 197 266 328 409 480
#     4  11  21  45  74 115 154 206 274 344 416 490
#     4  11  29  45  77 108 165 221 276 339 420 510
#
# _framework density 26.917407999999998
#
# number of rings (size 3 to 8) (size 9 to 14) (size 15 to 20)
#    0.857    0.571    1.429    2.571    4.000    3.429 
#    5.143    0.000    0.000    0.000    0.000    0.000 
#    0.000    0.000    0.000    0.000    0.000    0.000 
#
# Total GULP energy -77991.174573 kJ/mol
# GULP energy per Si atom -5570.798184 kJ/mol
# Density = 2.685614 g / cm^3
# Si number density = 26.917408 Si / 1000 Ang^3
#
#
#
# Elastic Constant Matrix: (Units=GPa)
#
#
# Indices 1 2 3 4 5 6 
#
# 1 242.9869 55.2846 35.8175 0.0000 -14.3330 0.0000
# 2 55.2846 132.9555 25.5577 0.0000 -7.2022 0.0000
# 3 35.8175 25.5577 50.8537 0.0000 3.8677 0.0000
# 4 0.0000 0.0000 0.0000 11.3028 0.0000 -1.1807
# 5 -14.3330 -7.2022 3.8677 0.0000 38.6647 0.0000
# 6 0.0000 0.0000 0.0000 -1.1807 0.0000 31.5574
#
#
#
# Elastic Compliance Matrix: (Units=1/GPa)
#
#
# Indices 1 2 3 4 5 6 
#
# 1 0.004980 -0.001403 -0.002945 0.000000 0.001879 0.000000
# 2 -0.001403 0.008875 -0.003586 0.000000 0.001492 0.000000
# 3 -0.002945 -0.003586 0.023856 0.000000 -0.004146 0.000000
# 4 0.000000 0.000000 0.000000 0.088821 0.000000 0.003323
# 5 0.001879 0.001492 -0.004146 0.000000 0.027253 0.000000
# 6 0.000000 0.000000 0.000000 0.003323 0.000000 0.031813
#
#
# Mechanical properties :
#
#
# Convention : Reuss Voigt Hill
#
# Bulk Modulus (GPa) = 45.78099 73.34619 59.56359
# Shear Modulus (GPa) = 23.95275 36.98074 30.46675
#
# Velocity S-wave (km/s) = 2.98629 3.71058 3.36796
# Velocity P-wave (km/s) = 5.37917 6.75764 6.10742
#
# Compressibility (1/GPa) = 0.02184313
#
# Stress axis : x y z
#
# Youngs Moduli (GPa) = 200.82063 112.68091 41.91804
#
# Poissons Ratio (x) = 0.15805 0.12346
# Poissons Ratio (y) = 0.28167 0.15031
# Poissons Ratio (z) = 0.59147 0.40404
#
# Static dielectric constant tensor:
#      x y z
#    x 2.202950 0.000000 -0.122860 
#    y 0.000000 2.283670 0.000000 
#    z -0.122860 0.000000 2.450220 
# 
# From -- ./inp_files/19557.got.cif
#   From: 2010.05.17/outbox.cif.g08.bks.cpg/sg9_10_cif.got.tgz:19557.got - 2010.06.03 20:04:27.
