data_PCOD9136708
_publ_section_title
;
Structure prediction by ZEFSAII (Michael W. Deem and Ramdas Pophale) SiO2 
 PCOD9136708
Probable space group: C C
;
_chemical_formula_sum "Si O2"
_cell_formula_units_Z 28
_cell_length_a 11.356160
_cell_length_b 18.431255
_cell_length_c 8.310207
_cell_angle_alpha 90.000000
_cell_angle_beta 139.579008
_cell_angle_gamma 90.000000
_cell_volume 1127.821843
_symmetry_space_group_name_H-M "C C"
_symmetry_group_IT_number 9
_symmetry_cell_setting 'monoclinic'
loop_
_space_group_symop_operation_xyz
x,y,z
x,-y,1/2+z
1/2+x,1/2+y,z
1/2+x,1/2-y,1/2+z
loop_
_atom_site_type_symbol
_atom_site_label
_atom_site_fract_x
_atom_site_fract_y
_atom_site_fract_z
Si Si1 0.517740 0.121119 0.250000
Si Si2 0.463540 0.487710 0.947974
Si Si3 0.122344 0.800907 0.820688
Si Si4 0.818075 0.803361 0.274147
Si Si5 0.473931 0.840625 0.334178
Si Si6 0.602698 0.611501 0.883869
Si Si7 0.692645 0.037104 0.906532
O O1 0.639739 0.163465 0.506157
O O2 0.308384 0.134186 0.074534
O O3 0.581222 0.037315 0.320733
O O4 0.532834 0.144194 0.078151
O O5 0.595310 0.549317 0.015631
O O6 0.537577 0.432512 0.157177
O O7 0.283236 0.526429 0.829602
O O8 0.370108 0.449689 0.700802
O O9 0.239957 0.766820 0.792275
O O10 0.945609 0.833505 0.551533
O O11 0.047515 0.737011 0.855900
O O12 0.259198 0.845637 0.074188
O O13 0.962524 0.823186 0.278731
O O14 0.561412 0.897478 0.303062
#
# Coordination Sequence:
#
# PCOD9136708 Si02
#       7
#     4   4   4   4   4   4   4
#     4  12  27  45  77 115 152 195 246 319 391 447
#     4  10  21  43  66 109 154 190 233 298 377 461
#     4  10  27  49  79 103 146 211 256 317 362 440
#     4  11  24  52  72 110 146 195 261 308 374 442
#     4  11  25  50  73 110 150 199 262 304 377 449
#     4  11  25  43  70 110 150 195 241 300 381 448
#     4  11  21  44  75 107 152 195 243 314 388 443
#
# _framework density 24.826615
#
# number of rings (size 3 to 8) (size 9 to 14) (size 15 to 20)
#    0.000    1.143    4.286    0.857    6.000    2.286 
#   12.857    0.000    0.000    0.000    0.000    0.000 
#    0.000    0.000    0.000    0.000    0.000    0.000 
#
# Total GULP energy -78176.949742 kJ/mol
# GULP energy per Si atom -5584.067839 kJ/mol
# Density = 2.477011 g / cm^3
# Si number density = 24.826615 Si / 1000 Ang^3
#
#
#
# Elastic Constant Matrix: (Units=GPa)
#
#
# Indices 1 2 3 4 5 6 
#
# 1 109.8029 8.0793 33.4754 0.0000 4.8644 0.0000
# 2 8.0793 30.0921 35.5122 0.0000 1.0552 0.0000
# 3 33.4754 35.5122 163.6157 0.0000 -3.4787 0.0000
# 4 0.0000 0.0000 0.0000 30.3115 0.0000 -9.1868
# 5 4.8644 1.0552 -3.4787 0.0000 46.2776 0.0000
# 6 0.0000 0.0000 0.0000 -9.1868 0.0000 29.1390
#
#
#
# Elastic Compliance Matrix: (Units=1/GPa)
#
#
# Indices 1 2 3 4 5 6 
#
# 1 0.009779 -0.000261 -0.001969 0.000000 -0.001170 0.000000
# 2 -0.000261 0.044823 -0.009712 0.000000 -0.001725 0.000000
# 3 -0.001969 -0.009712 0.008646 0.000000 0.001078 0.000000
# 4 0.000000 0.000000 0.000000 0.036476 0.000000 0.011500
# 5 -0.001170 -0.001725 0.001078 0.000000 0.021852 0.000000
# 6 0.000000 0.000000 0.000000 0.011500 0.000000 0.037944
#
#
# Mechanical properties :
#
#
# Convention : Reuss Voigt Hill
#
# Bulk Modulus (GPa) = 25.40404 50.84939 38.12671
# Shear Modulus (GPa) = 25.44216 36.24188 30.84202
#
# Velocity S-wave (km/s) = 3.20471 3.82488 3.52845
# Velocity P-wave (km/s) = 4.89371 6.32713 5.65601
#
# Compressibility (1/GPa) = 0.03936382
#
# Stress axis : x y z
#
# Youngs Moduli (GPa) = 102.26510 22.30988 115.66562
#
# Poissons Ratio (x) = 0.00582 0.22774
# Poissons Ratio (y) = 0.02667 1.12335
# Poissons Ratio (z) = 0.20135 0.21667
#
# Static dielectric constant tensor:
#      x y z
#    x 2.014640 0.000000 -0.005830 
#    y 0.000000 2.073160 0.000000 
#    z -0.005830 0.000000 1.905300 
# 
# From -- ./inp_files/8340.got.cif
#   From: 2010.05.17/outbox.cif.g08.bks.cpg/sg9_5_cif.got.tgz:8340.got - 2010.06.03 20:04:27.
