data_PCOD9136722
_publ_section_title
;
Structure prediction by ZEFSAII (Michael W. Deem and Ramdas Pophale) SiO2 
 PCOD9136722
Probable space group: C C
;
_chemical_formula_sum "Si O2"
_cell_formula_units_Z 32
_cell_length_a 23.362261
_cell_length_b 12.137115
_cell_length_c 8.852964
_cell_angle_alpha 90.000000
_cell_angle_beta 149.651713
_cell_angle_gamma 90.000000
_cell_volume 1268.322598
_symmetry_space_group_name_H-M "C C"
_symmetry_group_IT_number 9
_symmetry_cell_setting 'monoclinic'
loop_
_space_group_symop_operation_xyz
x,y,z
x,-y,1/2+z
1/2+x,1/2+y,z
1/2+x,1/2-y,1/2+z
loop_
_atom_site_type_symbol
_atom_site_label
_atom_site_fract_x
_atom_site_fract_y
_atom_site_fract_z
Si Si1 0.721080 0.049784 0.732400
Si Si2 0.651701 0.608498 0.689039
Si Si3 0.542764 0.302558 0.661476
Si Si4 0.275722 0.655295 0.534263
Si Si5 0.508546 0.195276 0.304087
Si Si6 0.380619 0.033755 0.222427
Si Si7 0.926030 0.830672 0.827442
Si Si8 0.461065 0.133410 0.697668
O O1 0.748982 0.090661 0.628062
O O2 0.595730 0.097832 0.466580
O O3 0.811326 0.101417 0.056770
O O4 0.734386 0.921656 0.802521
O O5 0.611840 0.617489 0.424994
O O6 0.537465 0.600486 0.528521
O O7 0.711586 0.725293 0.880398
O O8 0.746862 0.514825 0.905329
O O9 0.411503 0.336183 0.343847
O O10 0.579334 0.275968 0.575996
O O11 0.544161 0.190191 0.765499
O O12 0.412136 0.137917 0.187674
O O13 0.456286 0.265035 0.048606
O O14 0.391978 0.059252 0.424605
O O15 0.467946 0.941657 0.362673
O O16 0.908869 0.741562 0.654465
#
# Coordination Sequence:
#
# PCOD9136722 Si02
#       8
#     4   4   4   4   4   4   4   4
#     4  12  28  43  70 106 137 188 232 284 347 411
#     4  11  22  47  70  90 144 184 221 289 344 395
#     4  10  24  46  68  95 142 185 220 287 347 401
#     4  12  25  49  68 104 143 183 236 281 344 419
#     4  11  25  40  71 104 133 177 238 279 346 402
#     4  11  23  41  68 106 130 178 228 286 342 406
#     4  11  24  47  68  96 142 185 225 285 346 412
#     4  10  21  43  67  93 139 168 228 281 338 402
#
# _framework density 25.230174000000002
#
# number of rings (size 3 to 8) (size 9 to 14) (size 15 to 20)
#    0.000    1.000    6.250    0.750    8.750    1.000 
#    2.250    0.000    0.000    0.000    0.000    0.000 
#    0.000    0.000    0.000    0.000    0.000    0.000 
#
# Total GULP energy -89295.029141 kJ/mol
# GULP energy per Si atom -5580.939321 kJ/mol
# Density = 2.517275 g / cm^3
# Si number density = 25.230174 Si / 1000 Ang^3
#
#
#
# Elastic Constant Matrix: (Units=GPa)
#
#
# Indices 1 2 3 4 5 6 
#
# 1 66.7754 32.8835 29.0051 0.0000 -10.9504 0.0000
# 2 32.8835 41.8659 35.8765 0.0000 -5.9617 0.0000
# 3 29.0051 35.8765 138.3176 0.0000 -0.8026 0.0000
# 4 0.0000 0.0000 0.0000 42.0846 0.0000 -6.2232
# 5 -10.9504 -5.9617 -0.8026 0.0000 37.3697 0.0000
# 6 0.0000 0.0000 0.0000 -6.2232 0.0000 27.6960
#
#
#
# Elastic Compliance Matrix: (Units=1/GPa)
#
#
# Indices 1 2 3 4 5 6 
#
# 1 0.025095 -0.018777 -0.000367 0.000000 0.004350 0.000000
# 2 -0.018777 0.045621 -0.007886 0.000000 0.001606 0.000000
# 3 -0.000367 -0.007886 0.009345 0.000000 -0.001165 0.000000
# 4 0.000000 0.000000 0.000000 0.024578 0.000000 0.005523
# 5 0.004350 0.001606 -0.001165 0.000000 0.028266 0.000000
# 6 0.000000 0.000000 0.000000 0.005523 0.000000 0.037347
#
#
# Mechanical properties :
#
#
# Convention : Reuss Voigt Hill
#
# Bulk Modulus (GPa) = 38.45971 49.16544 43.81257
# Shear Modulus (GPa) = 21.46112 31.37632 26.41872
#
# Velocity S-wave (km/s) = 2.91969 3.53030 3.23942
# Velocity P-wave (km/s) = 5.16166 6.01219 5.60309
#
# Compressibility (1/GPa) = 0.02600123
#
# Stress axis : x y z
#
# Youngs Moduli (GPa) = 39.84854 21.91984 107.00456
#
# Poissons Ratio (x) = 0.41159 0.03925
# Poissons Ratio (y) = 0.74824 0.84385
# Poissons Ratio (z) = 0.01462 0.17286
#
# Static dielectric constant tensor:
#      x y z
#    x 1.982770 0.000000 0.003120 
#    y 0.000000 2.121810 0.000000 
#    z 0.003120 0.000000 2.058650 
# 
# From -- ./inp_files/12249.got.cif
#   From: 2010.05.17/outbox.cif.g08.bks.cpg/sg9_7_cif.got.tgz:12249.got - 2010.06.03 20:04:27.
