data_PCOD9136669
_publ_section_title
;
Structure prediction by ZEFSAII (Michael W. Deem and Ramdas Pophale) SiO2 
 PCOD9136669
Probable space group: C C
;
_chemical_formula_sum "Si O2"
_cell_formula_units_Z 28
_cell_length_a 17.880149
_cell_length_b 5.684044
_cell_length_c 14.004429
_cell_angle_alpha 90.000000
_cell_angle_beta 109.953127
_cell_angle_gamma 90.000000
_cell_volume 1337.854667
_symmetry_space_group_name_H-M "C C"
_symmetry_group_IT_number 9
_symmetry_cell_setting 'monoclinic'
loop_
_space_group_symop_operation_xyz
x,y,z
x,-y,1/2+z
1/2+x,1/2+y,z
1/2+x,1/2-y,1/2+z
loop_
_atom_site_type_symbol
_atom_site_label
_atom_site_fract_x
_atom_site_fract_y
_atom_site_fract_z
Si Si1 0.300510 0.648333 0.176010
Si Si2 0.191020 0.406124 0.460405
Si Si3 0.819725 0.132262 0.399679
Si Si4 0.382149 0.999742 0.563783
Si Si5 0.475612 0.377822 0.515555
Si Si6 0.101514 0.097754 0.918057
Si Si7 0.959162 0.113234 0.707436
O O1 0.290224 0.708934 0.282680
O O2 0.335006 0.849812 0.121483
O O3 0.370782 0.454190 0.204791
O O4 0.223031 0.571781 0.083433
O O5 0.265963 0.423747 0.420183
O O6 0.144418 0.650720 0.419386
O O7 0.321337 0.828178 0.483102
O O8 0.912008 0.051969 0.438172
O O9 0.147930 0.152407 0.430363
O O10 0.429526 0.131658 0.500177
O O11 0.448486 0.864489 0.653924
O O12 0.560120 0.386908 0.503580
O O13 0.479749 0.445179 0.628126
O O14 0.026468 0.094087 0.814294
#
# Coordination Sequence:
#
# PCOD9136669 Si02
#       7
#     4   4   4   4   4   4   4
#     4  11  23  44  74 102 140 198 248 300 366 440
#     4  12  28  48  66 114 155 178 244 310 371 436
#     4  11  23  44  74 103 141 199 247 302 363 444
#     4  10  21  42  74 107 134 179 272 308 330 453
#     4  10  23  42  73 101 139 186 252 291 357 443
#     4  12  29  46  72 106 155 187 228 317 377 423
#     4  10  23  42  73 103 134 191 251 294 352 447
#
# _framework density 20.929029
#
# number of rings (size 3 to 8) (size 9 to 14) (size 15 to 20)
#    0.000    1.143    5.714    0.857   10.000    2.286 
#    0.000    0.000    0.000    0.000    0.000    0.000 
#    0.000    0.000    0.000    0.000    0.000    0.000 
#
# Total GULP energy -78054.192818 kJ/mol
# GULP energy per Si atom -5575.299487 kJ/mol
# Density = 2.088139 g / cm^3
# Si number density = 20.929029 Si / 1000 Ang^3
#
#
#
# Elastic Constant Matrix: (Units=GPa)
#
#
# Indices 1 2 3 4 5 6 
#
# 1 55.6360 31.4779 -1.0438 0.0000 -0.9552 0.0000
# 2 31.4779 108.3691 21.7558 0.0000 13.0124 0.0000
# 3 -1.0438 21.7558 121.2562 0.0000 12.3454 0.0000
# 4 0.0000 0.0000 0.0000 12.5850 0.0000 2.3365
# 5 -0.9552 13.0124 12.3454 0.0000 39.4386 0.0000
# 6 0.0000 0.0000 0.0000 2.3365 0.0000 23.6038
#
#
#
# Elastic Compliance Matrix: (Units=1/GPa)
#
#
# Indices 1 2 3 4 5 6 
#
# 1 0.021944 -0.006904 0.001179 0.000000 0.002440 0.000000
# 2 -0.006904 0.012033 -0.001856 0.000000 -0.003556 0.000000
# 3 0.001179 -0.001856 0.008806 0.000000 -0.002115 0.000000
# 4 0.000000 0.000000 0.000000 0.080947 0.000000 -0.008013
# 5 0.002440 -0.003556 -0.002115 0.000000 0.027251 0.000000
# 6 0.000000 0.000000 0.000000 -0.008013 0.000000 0.043159
#
#
# Mechanical properties :
#
#
# Convention : Reuss Voigt Hill
#
# Bulk Modulus (GPa) = 36.20504 43.29348 39.74926
# Shear Modulus (GPa) = 22.88241 30.66355 26.77298
#
# Velocity S-wave (km/s) = 3.31015 3.83184 3.58051
# Velocity P-wave (km/s) = 5.65207 6.34887 6.01058
#
# Compressibility (1/GPa) = 0.02762047
#
# Stress axis : x y z
#
# Youngs Moduli (GPa) = 45.57040 83.10656 113.56441
#
# Poissons Ratio (x) = 0.57375 -0.13391
# Poissons Ratio (y) = 0.31461 0.21081
# Poissons Ratio (z) = -0.05373 0.15427
#
# Static dielectric constant tensor:
#      x y z
#    x 1.770600 0.000000 -0.000060 
#    y 0.000000 1.865930 0.000000 
#    z -0.000060 0.000000 1.738670 
# 
# From -- ./inp_files/26240.got.cif
#   From: 2010.05.17/outbox.cif.g08.bks.cpg/sg9_14_cif.got.tgz:26240.got - 2010.06.03 20:04:27.
