data_PCOD9136476
_publ_section_title
;
Structure prediction by ZEFSAII (Michael W. Deem and Ramdas Pophale) SiO2 
 PCOD9136476
Probable space group: C C
;
_chemical_formula_sum "Si O2"
_cell_formula_units_Z 32
_cell_length_a 5.223161
_cell_length_b 24.217375
_cell_length_c 11.930427
_cell_angle_alpha 90.000000
_cell_angle_beta 57.084510
_cell_angle_gamma 90.000000
_cell_volume 1266.844156
_symmetry_space_group_name_H-M "C C"
_symmetry_group_IT_number 9
_symmetry_cell_setting 'monoclinic'
loop_
_space_group_symop_operation_xyz
x,y,z
x,-y,1/2+z
1/2+x,1/2+y,z
1/2+x,1/2-y,1/2+z
loop_
_atom_site_type_symbol
_atom_site_label
_atom_site_fract_x
_atom_site_fract_y
_atom_site_fract_z
Si Si1 0.731670 0.397015 0.303970
Si Si2 0.068600 0.240224 0.496713
Si Si3 0.161834 0.715224 0.210831
Si Si4 0.831196 0.829248 0.883699
Si Si5 0.607800 0.517815 0.398438
Si Si6 0.957732 0.571016 0.507321
Si Si7 0.430622 0.102319 0.185874
Si Si8 0.579972 0.141994 0.925665
O O1 0.617780 0.452281 0.393344
O O2 0.443641 0.357439 0.352688
O O3 0.855770 0.417096 0.156612
O O4 0.981657 0.370795 0.324505
O O5 0.336813 0.230052 0.343257
O O6 0.937603 0.300258 0.498369
O O7 0.190154 0.246504 0.594329
O O8 0.834552 0.194235 0.509075
O O9 0.170323 0.650614 0.165932
O O10 0.356102 0.716024 0.278930
O O11 0.115415 0.868945 0.796099
O O12 0.538737 0.868691 0.936301
O O13 0.274531 0.536836 0.435302
O O14 0.887606 0.543704 0.256513
O O15 0.693672 0.542113 0.499213
O O16 0.459200 0.098127 0.045794
#
# Coordination Sequence:
#
# PCOD9136476 Si02
#       8
#     4   4   4   4   4   4   4   4
#     4  12  28  44  70 103 145 182 234 289 365 410
#     4  10  25  40  67 101 140 184 245 288 364 424
#     4  10  21  41  66  99 134 184 236 288 361 421
#     4  10  22  43  72  99 136 191 231 301 348 431
#     4  11  24  44  73 100 134 189 226 296 342 430
#     4  11  25  47  72 105 142 177 243 286 361 424
#     4   9  22  43  67  97 133 174 238 277 346 426
#     4  11  27  46  65 104 140 185 227 297 345 426
#
# _framework density 25.259620999999999
#
# number of rings (size 3 to 8) (size 9 to 14) (size 15 to 20)
#    0.000    1.500    1.250    1.500   10.500    3.000 
#    0.000    0.000    0.000    0.000    0.000    0.000 
#    0.000    0.000    0.000    0.000    0.000    0.000 
#
# Total GULP energy -89453.277179 kJ/mol
# GULP energy per Si atom -5590.829824 kJ/mol
# Density = 2.520213 g / cm^3
# Si number density = 25.259621 Si / 1000 Ang^3
#
#
#
# Elastic Constant Matrix: (Units=GPa)
#
#
# Indices 1 2 3 4 5 6 
#
# 1 81.5990 21.1451 12.1127 0.0000 34.4078 0.0000
# 2 21.1451 54.0986 8.8081 0.0000 9.3553 0.0000
# 3 12.1127 8.8081 92.4371 0.0000 30.5214 0.0000
# 4 0.0000 0.0000 0.0000 23.4514 0.0000 4.5135
# 5 34.4078 9.3553 30.5214 0.0000 39.4536 0.0000
# 6 0.0000 0.0000 0.0000 4.5135 0.0000 13.0746
#
#
#
# Elastic Compliance Matrix: (Units=1/GPa)
#
#
# Indices 1 2 3 4 5 6 
#
# 1 0.022166 -0.005694 0.004802 0.000000 -0.021696 0.000000
# 2 -0.005694 0.020751 -0.001674 0.000000 0.001340 0.000000
# 3 0.004802 -0.001674 0.015580 0.000000 -0.015843 0.000000
# 4 0.000000 0.000000 0.000000 0.045676 0.000000 -0.015768
# 5 -0.021696 0.001340 -0.015843 0.000000 0.056206 0.000000
# 6 0.000000 0.000000 0.000000 -0.015768 0.000000 0.081927
#
#
# Mechanical properties :
#
#
# Convention : Reuss Voigt Hill
#
# Bulk Modulus (GPa) = 18.73882 34.69629 26.71756
# Shear Modulus (GPa) = 18.85181 27.60050 23.22615
#
# Velocity S-wave (km/s) = 2.73485 3.30915 3.03561
# Velocity P-wave (km/s) = 4.17219 5.32600 4.78401
#
# Compressibility (1/GPa) = 0.05336514
#
# Stress axis : x y z
#
# Youngs Moduli (GPa) = 45.11365 48.19024 64.18633
#
# Poissons Ratio (x) = 0.27439 -0.30820
# Poissons Ratio (y) = 0.25687 0.10742
# Poissons Ratio (z) = -0.21662 0.08065
#
# Static dielectric constant tensor:
#      x y z
#    x 2.062730 0.000000 -0.008640 
#    y 0.000000 2.032120 0.000000 
#    z -0.008640 0.000000 1.987240 
# 
# From -- ./inp_files/13728.got.cif
#   From: 2010.05.17/outbox.cif.g08.bks.cpg/sg9_7_cif.got.tgz:13728.got - 2010.06.03 20:04:27.
