data_PCOD9136151
_publ_section_title
;
Structure prediction by ZEFSAII (Michael W. Deem and Ramdas Pophale) SiO2 
 PCOD9136151
Probable space group: C C
;
_chemical_formula_sum "Si O2"
_cell_formula_units_Z 28
_cell_length_a 14.470253
_cell_length_b 11.260609
_cell_length_c 8.431526
_cell_angle_alpha 90.000000
_cell_angle_beta 67.695971
_cell_angle_gamma 90.000000
_cell_volume 1271.076960
_symmetry_space_group_name_H-M "C C"
_symmetry_group_IT_number 9
_symmetry_cell_setting 'monoclinic'
loop_
_space_group_symop_operation_xyz
x,y,z
x,-y,1/2+z
1/2+x,1/2+y,z
1/2+x,1/2-y,1/2+z
loop_
_atom_site_type_symbol
_atom_site_label
_atom_site_fract_x
_atom_site_fract_y
_atom_site_fract_z
Si Si1 0.674960 0.538233 0.662990
Si Si2 0.970197 0.111254 0.942497
Si Si3 0.918239 0.650031 0.949256
Si Si4 0.067774 0.217237 0.155220
Si Si5 0.259231 0.342677 0.986368
Si Si6 0.848268 0.942882 0.230234
Si Si7 0.829759 0.556349 0.313093
O O1 0.579345 0.604170 0.794285
O O2 0.625536 0.408574 0.647792
O O3 0.739699 0.602948 0.484530
O O4 0.759422 0.518178 0.739300
O O5 0.893221 0.128741 0.849410
O O6 0.981072 0.199448 0.081746
O O7 0.936567 0.989065 0.054201
O O8 0.904208 0.523939 0.870204
O O9 0.017421 0.722783 0.841139
O O10 0.828566 0.727848 0.935443
O O11 0.894470 0.635646 0.150814
O O12 0.146966 0.306720 0.030703
O O13 0.271510 0.382675 0.161674
O O14 0.298532 0.442815 0.843657
#
# Coordination Sequence:
#
# PCOD9136151 Si02
#       7
#     4   4   4   4   4   4   4
#     4  11  18  36  66  96 118 168 230 270 318 380
#     4  11  18  38  65 100 123 170 228 287 316 382
#     4  11  23  43  64  95 133 173 217 274 338 383
#     4  12  22  37  71  91 132 172 220 270 332 389
#     4  11  22  43  64  95 131 177 215 278 327 396
#     4  10  22  38  66  91 137 169 218 275 340 379
#     4  10  21  39  64  90 134 173 206 276 335 391
#
# _framework density 22.028562999999998
#
# number of rings (size 3 to 8) (size 9 to 14) (size 15 to 20)
#    0.000    1.143    7.143    0.857    0.000    1.143 
#    5.143    1.429    0.000    0.000    0.000    0.000 
#    0.000    0.000    0.000    0.000    0.000    0.000 
#
# Total GULP energy -78061.261968 kJ/mol
# GULP energy per Si atom -5575.804426 kJ/mol
# Density = 2.197843 g / cm^3
# Si number density = 22.028563 Si / 1000 Ang^3
#
#
#
# Elastic Constant Matrix: (Units=GPa)
#
#
# Indices 1 2 3 4 5 6 
#
# 1 42.1746 14.3244 9.4241 0.0000 5.5505 0.0000
# 2 14.3244 46.7605 35.2344 0.0000 -6.2442 0.0000
# 3 9.4241 35.2344 126.3518 0.0000 -12.3057 0.0000
# 4 0.0000 0.0000 0.0000 42.0961 0.0000 3.7313
# 5 5.5505 -6.2442 -12.3057 0.0000 40.8817 0.0000
# 6 0.0000 0.0000 0.0000 3.7313 0.0000 26.6617
#
#
#
# Elastic Compliance Matrix: (Units=1/GPa)
#
#
# Indices 1 2 3 4 5 6 
#
# 1 0.027476 -0.009091 -0.000013 0.000000 -0.005123 0.000000
# 2 -0.009091 0.030229 -0.007399 0.000000 0.003624 0.000000
# 3 -0.000013 -0.007399 0.010167 0.000000 0.001932 0.000000
# 4 0.000000 0.000000 0.000000 0.024054 0.000000 -0.003366
# 5 -0.005123 0.003624 0.001932 0.000000 0.026291 0.000000
# 6 0.000000 0.000000 0.000000 -0.003366 0.000000 0.037978
#
#
# Mechanical properties :
#
#
# Convention : Reuss Voigt Hill
#
# Bulk Modulus (GPa) = 28.68099 37.02808 32.85453
# Shear Modulus (GPa) = 24.89757 32.34815 28.62286
#
# Velocity S-wave (km/s) = 3.36555 3.83621 3.60856
# Velocity P-wave (km/s) = 5.30573 6.03884 5.68412
#
# Compressibility (1/GPa) = 0.03486630
#
# Stress axis : x y z
#
# Youngs Moduli (GPa) = 36.39571 33.08038 98.35983
#
# Poissons Ratio (x) = 0.30073 0.00129
# Poissons Ratio (y) = 0.33087 0.72774
# Poissons Ratio (z) = 0.00048 0.24475
#
# Static dielectric constant tensor:
#      x y z
#    x 1.765680 0.000000 0.015730 
#    y 0.000000 1.894410 0.000000 
#    z 0.015730 0.000000 1.877740 
# 
# From -- ./inp_files/8898.got.cif
#   From: 2010.05.17/outbox.cif.g08.bks.cpg/sg9_5_cif.got.tgz:8898.got - 2010.06.03 20:04:27.
