data_PCOD9136371
_publ_section_title
;
Structure prediction by ZEFSAII (Michael W. Deem and Ramdas Pophale) SiO2 
 PCOD9136371
Probable space group: C C
;
_chemical_formula_sum "Si O2"
_cell_formula_units_Z 32
_cell_length_a 7.532530
_cell_length_b 12.610187
_cell_length_c 21.515767
_cell_angle_alpha 90.000000
_cell_angle_beta 140.029725
_cell_angle_gamma 90.000000
_cell_volume 1312.858949
_symmetry_space_group_name_H-M "C C"
_symmetry_group_IT_number 9
_symmetry_cell_setting 'monoclinic'
loop_
_space_group_symop_operation_xyz
x,y,z
x,-y,1/2+z
1/2+x,1/2+y,z
1/2+x,1/2-y,1/2+z
loop_
_atom_site_type_symbol
_atom_site_label
_atom_site_fract_x
_atom_site_fract_y
_atom_site_fract_z
Si Si1 0.617090 0.908650 0.013890
Si Si2 0.552858 0.367149 0.350624
Si Si3 0.792103 0.661684 0.256515
Si Si4 0.784134 0.013844 0.433680
Si Si5 0.874501 0.456277 0.547889
Si Si6 0.389668 0.185590 0.818642
Si Si7 0.013079 0.087573 0.296076
Si Si8 0.375674 0.225155 0.137650
O O1 0.586935 0.965674 0.071998
O O2 0.645338 0.784461 0.035776
O O3 0.815738 0.958684 0.015437
O O4 0.332052 0.932290 0.902075
O O5 0.332021 0.275053 0.300346
O O6 0.752996 0.380392 0.462135
O O7 0.397092 0.475241 0.288995
O O8 0.754579 0.330116 0.349581
O O9 0.549077 0.607329 0.231468
O O10 0.074908 0.596087 0.344421
O O11 0.771372 0.688370 0.177622
O O12 0.095570 0.016719 0.492765
O O13 0.633442 0.900224 0.379961
O O14 0.982506 0.379788 0.631185
O O15 0.455553 0.307304 0.820703
O O16 0.108706 0.181363 0.701520
#
# Coordination Sequence:
#
# PCOD9136371 Si02
#       8
#     4   4   4   4   4   4   4   4
#     4  10  23  47  67  99 141 181 234 292 338 420
#     4  10  21  40  69  96 130 181 236 277 330 422
#     4  10  22  42  66 100 139 172 235 290 336 420
#     4  11  22  46  78  97 131 198 247 271 343 441
#     4  11  23  45  70  99 139 187 231 287 350 420
#     4  11  22  42  71  99 137 185 228 297 347 407
#     4  10  21  44  70  97 130 188 239 274 340 428
#     4  11  26  42  61 107 149 170 232 300 364 402
#
# _framework density 24.374283999999999
#
# number of rings (size 3 to 8) (size 9 to 14) (size 15 to 20)
#    0.000    1.500    3.750    3.000    7.000    3.000 
#    6.750    0.000    0.000    0.000    0.000    0.000 
#    0.000    0.000    0.000    0.000    0.000    0.000 
#
# Total GULP energy -89284.877326 kJ/mol
# GULP energy per Si atom -5580.304833 kJ/mol
# Density = 2.431881 g / cm^3
# Si number density = 24.374284 Si / 1000 Ang^3
#
#
#
# Elastic Constant Matrix: (Units=GPa)
#
#
# Indices 1 2 3 4 5 6 
#
# 1 71.3174 51.1536 21.2908 0.0000 -14.1420 0.0000
# 2 51.1536 152.6037 29.6771 0.0000 -14.8915 0.0000
# 3 21.2908 29.6771 39.2806 0.0001 -22.6132 0.0000
# 4 0.0000 0.0000 0.0001 50.1566 0.0000 -0.4703
# 5 -14.1420 -14.8915 -22.6132 0.0000 29.1140 0.0000
# 6 0.0000 0.0000 0.0000 -0.4703 0.0000 45.7151
#
#
#
# Elastic Compliance Matrix: (Units=1/GPa)
#
#
# Indices 1 2 3 4 5 6 
#
# 1 0.020020 -0.005445 -0.004961 0.000000 0.003087 0.000000
# 2 -0.005445 0.009180 -0.005072 0.000000 -0.001889 0.000000
# 3 -0.004961 -0.005072 0.052631 0.000000 0.035876 0.000000
# 4 0.000000 0.000000 0.000000 0.019939 0.000000 0.000205
# 5 0.003087 -0.001889 0.035876 0.000000 0.062746 0.000000
# 6 0.000000 0.000000 0.000000 0.000205 0.000000 0.021877
#
#
# Mechanical properties :
#
#
# Convention : Reuss Voigt Hill
#
# Bulk Modulus (GPa) = 19.65508 51.93831 35.79669
# Shear Modulus (GPa) = 21.33942 35.73582 28.53762
#
# Velocity S-wave (km/s) = 2.96208 3.83316 3.42542
# Velocity P-wave (km/s) = 4.44746 6.39888 5.51025
#
# Compressibility (1/GPa) = 0.05087743
#
# Stress axis : x y z
#
# Youngs Moduli (GPa) = 49.94916 108.93090 19.00006
#
# Poissons Ratio (x) = 0.59313 0.09425
# Poissons Ratio (y) = 0.27197 0.09636
# Poissons Ratio (z) = 0.24778 0.55246
#
# Static dielectric constant tensor:
#      x y z
#    x 2.067130 0.000000 0.078690 
#    y 0.000000 1.970130 0.000000 
#    z 0.078690 0.000000 2.105780 
# 
# From -- ./inp_files/32634.got.cif
#   From: 2010.05.17/outbox.cif.g08.bks.cpg/sg9_17_cif.got.tgz:32634.got - 2010.06.03 20:04:27.
