data_PCOD9136321
_publ_section_title
;
Structure prediction by ZEFSAII (Michael W. Deem and Ramdas Pophale) SiO2 
 PCOD9136321
Probable space group: C C
;
_chemical_formula_sum "Si O2"
_cell_formula_units_Z 32
_cell_length_a 6.462907
_cell_length_b 13.935610
_cell_length_c 16.154912
_cell_angle_alpha 90.000000
_cell_angle_beta 112.502080
_cell_angle_gamma 90.000000
_cell_volume 1344.210557
_symmetry_space_group_name_H-M "C C"
_symmetry_group_IT_number 9
_symmetry_cell_setting 'monoclinic'
loop_
_space_group_symop_operation_xyz
x,y,z
x,-y,1/2+z
1/2+x,1/2+y,z
1/2+x,1/2-y,1/2+z
loop_
_atom_site_type_symbol
_atom_site_label
_atom_site_fract_x
_atom_site_fract_y
_atom_site_fract_z
Si Si1 0.062210 0.426373 0.410910
Si Si2 0.972563 0.710685 0.675258
Si Si3 0.550195 0.721827 0.363457
Si Si4 0.111659 0.009678 0.378321
Si Si5 0.634833 0.002449 0.743664
Si Si6 0.957696 0.995467 0.047287
Si Si7 0.304856 0.847738 0.642140
Si Si8 0.488618 0.283314 0.036095
O O1 0.078920 0.490872 0.332288
O O2 0.204884 0.467393 0.507858
O O3 0.166455 0.323757 0.401566
O O4 0.802938 0.432352 0.392596
O O5 0.023689 0.596736 0.685824
O O6 0.198227 0.765291 0.682709
O O7 0.922717 0.750257 0.760062
O O8 0.757643 0.732615 0.585257
O O9 0.682044 0.621656 0.374679
O O10 0.417475 0.707420 0.429403
O O11 0.037617 0.002914 0.462997
O O12 0.903030 0.994107 0.284980
O O13 0.532232 0.903234 0.697889
O O14 0.121064 0.068001 0.116954
O O15 0.959930 0.886114 0.075500
O O16 0.349456 0.796918 0.561494
#
# Coordination Sequence:
#
# PCOD9136321 Si02
#       8
#     4   4   4   4   4   4   4   4
#     4  10  21  40  66  95 130 182 222 285 350 410
#     4  11  24  44  68 103 141 183 236 293 350 427
#     4  10  22  42  68  98 138 178 236 288 342 420
#     4  10  21  40  66  95 130 182 222 285 350 410
#     4  10  23  41  63  97 138 169 235 288 335 423
#     4  10  23  41  63  97 138 169 235 288 335 423
#     4  12  24  44  70 100 138 188 226 296 354 408
#     4  11  24  44  68 103 141 183 236 293 350 427
#
# _framework density 23.805793000000001
#
# number of rings (size 3 to 8) (size 9 to 14) (size 15 to 20)
#    0.000    1.500    1.250    3.000    0.000    6.000 
#    6.750   11.250    0.000    0.000    0.000    0.000 
#    0.000    0.000    0.000    0.000    0.000    0.000 
#
# Total GULP energy -89349.831613 kJ/mol
# GULP energy per Si atom -5584.364476 kJ/mol
# Density = 2.375161 g / cm^3
# Si number density = 23.805793 Si / 1000 Ang^3
#
#
#
# Elastic Constant Matrix: (Units=GPa)
#
#
# Indices 1 2 3 4 5 6 
#
# 1 74.7581 26.6474 25.0305 0.0000 14.3101 0.0000
# 2 26.6474 120.2537 19.7100 0.0000 -0.4204 0.0000
# 3 25.0305 19.7100 52.7774 0.0000 -0.4814 0.0000
# 4 0.0000 0.0000 0.0000 35.4637 0.0000 -0.8328
# 5 14.3101 -0.4204 -0.4814 0.0000 29.0546 0.0000
# 6 0.0000 0.0000 0.0000 -0.8328 0.0000 27.9818
#
#
#
# Elastic Compliance Matrix: (Units=1/GPa)
#
#
# Indices 1 2 3 4 5 6 
#
# 1 0.018895 -0.002916 -0.007959 0.000000 -0.009480 0.000000
# 2 -0.002916 0.009308 -0.002079 0.000000 0.001536 0.000000
# 3 -0.007959 -0.002079 0.023538 0.000000 0.004280 0.000000
# 4 0.000000 0.000000 0.000000 0.028218 0.000000 0.000840
# 5 -0.009480 0.001536 0.004280 0.000000 0.039180 0.000000
# 6 0.000000 0.000000 0.000000 0.000840 0.000000 0.035762
#
#
# Mechanical properties :
#
#
# Convention : Reuss Voigt Hill
#
# Bulk Modulus (GPa) = 38.71003 43.39613 41.05308
# Shear Modulus (GPa) = 26.39627 30.26010 28.32819
#
# Velocity S-wave (km/s) = 3.33350 3.56915 3.45334
# Velocity P-wave (km/s) = 5.57785 5.93750 5.76048
#
# Compressibility (1/GPa) = 0.02583310
#
# Stress axis : x y z
#
# Youngs Moduli (GPa) = 52.92311 107.43411 42.48492
#
# Poissons Ratio (x) = 0.31325 0.33814
# Poissons Ratio (y) = 0.15431 0.08834
# Poissons Ratio (z) = 0.42121 0.22339
#
# Static dielectric constant tensor:
#      x y z
#    x 1.927140 0.000000 0.003340 
#    y 0.000000 1.932120 0.000000 
#    z 0.003340 0.000000 1.909520 
# 
# From -- ./inp_files/28648.got.cif
#   From: 2010.05.17/outbox.cif.g08.bks.cpg/sg9_15_cif.got.tgz:28648.got - 2010.06.03 20:04:27.
