data_PCOD9136191
_publ_section_title
;
Structure prediction by ZEFSAII (Michael W. Deem and Ramdas Pophale) SiO2 
 PCOD9136191
Probable space group: C C
;
_chemical_formula_sum "Si O2"
_cell_formula_units_Z 28
_cell_length_a 8.803756
_cell_length_b 18.479854
_cell_length_c 7.617571
_cell_angle_alpha 90.000000
_cell_angle_beta 67.386815
_cell_angle_gamma 90.000000
_cell_volume 1144.042165
_symmetry_space_group_name_H-M "C C"
_symmetry_group_IT_number 9
_symmetry_cell_setting 'monoclinic'
loop_
_space_group_symop_operation_xyz
x,y,z
x,-y,1/2+z
1/2+x,1/2+y,z
1/2+x,1/2-y,1/2+z
loop_
_atom_site_type_symbol
_atom_site_label
_atom_site_fract_x
_atom_site_fract_y
_atom_site_fract_z
Si Si1 0.197890 0.454717 0.559570
Si Si2 0.327056 0.053887 0.308320
Si Si3 0.930912 0.787247 0.105853
Si Si4 0.153927 0.391438 0.186057
Si Si5 0.782155 0.301386 0.935001
Si Si6 0.946713 0.835087 0.482811
Si Si7 0.280039 0.897227 0.430989
O O1 0.175922 0.419936 0.376922
O O2 0.222204 0.541013 0.541933
O O3 0.336048 0.403816 0.584989
O O4 0.023581 0.452657 0.736509
O O5 0.280321 0.114206 0.471985
O O6 0.244281 0.976316 0.364636
O O7 0.290727 0.082650 0.130963
O O8 0.772723 0.823724 0.091795
O O9 0.901342 0.711679 0.216070
O O10 0.967085 0.836658 0.261844
O O11 0.103674 0.781158 0.936607
O O12 0.958243 0.375009 0.270735
O O13 0.845065 0.240992 0.045202
O O14 0.130088 0.842055 0.473194
#
# Coordination Sequence:
#
# PCOD9136191 Si02
#       7
#     4   4   4   4   4   4   4
#     4   9  18  37  58  88 120 171 202 275 304 395
#     4  10  22  38  67  89 135 168 223 254 345 376
#     4   9  21  38  66  86 121 179 211 262 322 402
#     4   9  19  36  61  86 128 160 218 255 331 371
#     4  10  21  39  67  86 124 179 214 257 335 394
#     4   9  21  36  64  86 131 157 221 265 329 372
#     4  10  22  38  63 101 125 170 213 290 304 402
#
# _framework density 24.474623000000001
#
# number of rings (size 3 to 8) (size 9 to 14) (size 15 to 20)
#    0.857    1.714    0.000    0.857    6.000    1.143 
#    0.000    1.429    0.000    0.000    0.000    0.000 
#    0.000    0.000    0.000    0.000    0.000    0.000 
#
# Total GULP energy -78015.719446 kJ/mol
# GULP energy per Si atom -5572.551389 kJ/mol
# Density = 2.441892 g / cm^3
# Si number density = 24.474623 Si / 1000 Ang^3
#
#
#
# Elastic Constant Matrix: (Units=GPa)
#
#
# Indices 1 2 3 4 5 6 
#
# 1 84.1494 49.8852 7.8709 0.0000 -5.8462 0.0000
# 2 49.8852 109.1610 13.6496 0.0000 -4.2102 0.0000
# 3 7.8709 13.6496 34.6166 0.0000 -3.5874 0.0000
# 4 0.0000 0.0000 0.0000 19.5634 0.0000 -2.1814
# 5 -5.8462 -4.2102 -3.5874 0.0000 14.0818 0.0000
# 6 0.0000 0.0000 0.0000 -2.1814 0.0000 32.2365
#
#
#
# Elastic Compliance Matrix: (Units=1/GPa)
#
#
# Indices 1 2 3 4 5 6 
#
# 1 0.016603 -0.007361 -0.000397 0.000000 0.004591 0.000000
# 2 -0.007361 0.012952 -0.003440 0.000000 -0.000060 0.000000
# 3 -0.000397 -0.003440 0.031030 0.000000 0.006712 0.000000
# 4 0.000000 0.000000 0.000000 0.051504 0.000000 0.003485
# 5 0.004591 -0.000060 0.006712 0.000000 0.074612 0.000000
# 6 0.000000 0.000000 0.000000 0.003485 0.000000 0.031257
#
#
# Mechanical properties :
#
#
# Convention : Reuss Voigt Hill
#
# Bulk Modulus (GPa) = 26.18436 41.19314 33.68875
# Shear Modulus (GPa) = 19.75632 23.61111 21.68372
#
# Velocity S-wave (km/s) = 2.84424 3.10936 2.97975
# Velocity P-wave (km/s) = 4.63768 5.45512 5.06292
#
# Compressibility (1/GPa) = 0.03819074
#
# Stress axis : x y z
#
# Youngs Moduli (GPa) = 60.22888 77.20586 32.22686
#
# Poissons Ratio (x) = 0.56830 0.01279
# Poissons Ratio (y) = 0.44333 0.11085
# Poissons Ratio (z) = 0.02391 0.26557
#
# Static dielectric constant tensor:
#      x y z
#    x 2.005970 0.000000 0.018410 
#    y 0.000000 2.047250 0.000000 
#    z 0.018410 0.000000 1.982160 
# 
# From -- ./inp_files/14889.got.cif
#   From: 2010.05.17/outbox.cif.g08.bks.cpg/sg9_8_cif.got.tgz:14889.got - 2010.06.03 20:04:27.
