data_PCOD9136508
_publ_section_title
;
Structure prediction by ZEFSAII (Michael W. Deem and Ramdas Pophale) SiO2 
 PCOD9136508
Probable space group: C C
;
_chemical_formula_sum "Si O2"
_cell_formula_units_Z 28
_cell_length_a 5.546483
_cell_length_b 25.014762
_cell_length_c 9.916702
_cell_angle_alpha 90.000000
_cell_angle_beta 56.857997
_cell_angle_gamma 90.000000
_cell_volume 1152.051328
_symmetry_space_group_name_H-M "C C"
_symmetry_group_IT_number 9
_symmetry_cell_setting 'monoclinic'
loop_
_space_group_symop_operation_xyz
x,y,z
x,-y,1/2+z
1/2+x,1/2+y,z
1/2+x,1/2-y,1/2+z
loop_
_atom_site_type_symbol
_atom_site_label
_atom_site_fract_x
_atom_site_fract_y
_atom_site_fract_z
Si Si1 0.698310 0.887806 0.269210
Si Si2 0.469887 0.912118 0.944001
Si Si3 0.327627 0.803691 0.869940
Si Si4 0.998909 0.052565 0.424107
Si Si5 0.392617 0.279123 0.576913
Si Si6 0.140467 0.933746 0.318392
Si Si7 0.993733 0.724258 0.812657
O O1 0.369507 0.908940 0.353418
O O2 0.716330 0.824196 0.238865
O O3 0.869840 0.898232 0.354181
O O4 0.855832 0.921491 0.101904
O O5 0.349554 0.851832 0.969255
O O6 0.336885 0.935648 0.847018
O O7 0.810540 0.920365 0.862873
O O8 0.328470 0.939297 0.121060
O O9 0.082942 0.783260 0.840899
O O10 0.618382 0.813971 0.696278
O O11 0.336846 0.749875 0.954262
O O12 0.001371 0.989277 0.407115
O O13 0.399239 0.234137 0.689752
O O14 0.719341 0.298324 0.476345
#
# Coordination Sequence:
#
# PCOD9136508 Si02
#       7
#     4   4   4   4   4   4   4
#     4  10  23  39  69  98 133 178 226 283 366 416
#     4  10  23  39  69  98 133 178 226 283 366 416
#     4  11  24  42  70 102 145 190 235 293 352 440
#     4  10  21  41  68  96 128 176 233 292 352 414
#     4  10  24  40  66  98 148 176 244 278 354 408
#     4  10  21  41  68  96 128 176 233 292 352 414
#     4  11  24  42  70 102 145 190 235 293 352 440
#
# _framework density 24.304472000000001
#
# number of rings (size 3 to 8) (size 9 to 14) (size 15 to 20)
#    0.000    1.714    0.000    3.429   16.000    0.000 
#    0.000    8.571    0.000    0.000    0.000    0.000 
#    0.000    0.000    0.000    0.000    0.000    0.000 
#
# Total GULP energy -77970.278997 kJ/mol
# GULP energy per Si atom -5569.305643 kJ/mol
# Density = 2.424915 g / cm^3
# Si number density = 24.304472 Si / 1000 Ang^3
#
#
#
# Elastic Constant Matrix: (Units=GPa)
#
#
# Indices 1 2 3 4 5 6 
#
# 1 134.2567 -11.6837 3.5110 0.0000 -15.1074 0.0000
# 2 -11.6837 66.3375 12.1485 0.0000 -4.7132 0.0000
# 3 3.5110 12.1485 67.4568 0.0000 -11.2921 0.0000
# 4 0.0000 0.0000 0.0000 25.8303 0.0000 2.1489
# 5 -15.1074 -4.7132 -11.2921 0.0000 19.4399 0.0000
# 6 0.0000 0.0000 0.0000 2.1489 0.0000 35.2420
#
#
#
# Elastic Compliance Matrix: (Units=1/GPa)
#
#
# Indices 1 2 3 4 5 6 
#
# 1 0.008421 0.001920 0.000431 0.000000 0.007260 0.000000
# 2 0.001920 0.016126 -0.002326 0.000000 0.004051 0.000000
# 3 0.000431 -0.002326 0.016818 0.000000 0.009540 0.000000
# 4 0.000000 0.000000 0.000000 0.038912 0.000000 -0.002373
# 5 0.007260 0.004051 0.009540 0.000000 0.063607 0.000000
# 6 0.000000 0.000000 0.000000 -0.002373 0.000000 0.028520
#
#
# Mechanical properties :
#
#
# Convention : Reuss Voigt Hill
#
# Bulk Modulus (GPa) = 24.14531 30.66697 27.40614
# Shear Modulus (GPa) = 26.85883 33.70746 30.28314
#
# Velocity S-wave (km/s) = 3.32791 3.72813 3.53369
# Velocity P-wave (km/s) = 4.97219 5.58365 5.28677
#
# Compressibility (1/GPa) = 0.04141591
#
# Stress axis : x y z
#
# Youngs Moduli (GPa) = 118.74752 62.01019 59.46085
#
# Poissons Ratio (x) = -0.11906 -0.02564
# Poissons Ratio (y) = -0.22800 0.13831
# Poissons Ratio (z) = -0.05121 0.14424
#
# Static dielectric constant tensor:
#      x y z
#    x 2.017550 0.000000 -0.107290 
#    y 0.000000 1.974540 0.000000 
#    z -0.107290 0.000000 2.025650 
# 
# From -- ./inp_files/13843.got.cif
#   From: 2010.05.17/outbox.cif.g08.bks.cpg/sg9_7_cif.got.tgz:13843.got - 2010.06.03 20:04:27.
