data_PCOD9136256
_publ_section_title
;
Structure prediction by ZEFSAII (Michael W. Deem and Ramdas Pophale) SiO2 
 PCOD9136256
Probable space group: C C
;
_chemical_formula_sum "Si O2"
_cell_formula_units_Z 28
_cell_length_a 9.732828
_cell_length_b 10.079467
_cell_length_c 26.495796
_cell_angle_alpha 90.000000
_cell_angle_beta 148.736228
_cell_angle_gamma 90.000000
_cell_volume 1348.972669
_symmetry_space_group_name_H-M "C C"
_symmetry_group_IT_number 9
_symmetry_cell_setting 'monoclinic'
loop_
_space_group_symop_operation_xyz
x,y,z
x,-y,1/2+z
1/2+x,1/2+y,z
1/2+x,1/2-y,1/2+z
loop_
_atom_site_type_symbol
_atom_site_label
_atom_site_fract_x
_atom_site_fract_y
_atom_site_fract_z
Si Si1 0.961270 0.145808 0.176030
Si Si2 0.527509 0.114749 0.840856
Si Si3 0.900063 0.258639 0.526615
Si Si4 0.018661 0.302576 0.819629
Si Si5 0.590448 0.320687 0.518161
Si Si6 0.478607 0.346238 0.201369
Si Si7 0.844573 0.959731 0.528188
O O1 0.710575 0.223968 0.117582
O O2 0.243300 0.217305 0.263529
O O3 0.975836 0.004101 0.208624
O O4 0.908746 0.107765 0.100743
O O5 0.237272 0.175647 0.746776
O O6 0.542015 0.964382 0.823743
O O7 0.785084 0.196655 0.904413
O O8 0.584433 0.097233 0.919015
O O9 0.753950 0.258323 0.426883
O O10 0.771317 0.356487 0.527389
O O11 0.824030 0.115904 0.525448
O O12 0.002956 0.236182 0.760230
O O13 0.561427 0.433145 0.552243
O O14 0.717189 0.201644 0.590117
#
# Coordination Sequence:
#
# PCOD9136256 Si02
#       7
#     4   4   4   4   4   4   4
#     4  11  22  39  66  90 126 161 205 251 306 363
#     4   8  20  37  59  90 122 162 204 238 308 360
#     4  11  23  40  64  92 123 163 204 255 304 366
#     4  10  21  40  62  90 125 163 204 251 308 362
#     4  10  21  40  62  93 125 158 209 250 305 361
#     4  11  20  38  68  90 120 166 205 250 313 358
#     4   9  19  42  61  85 129 161 195 253 304 356
#
# _framework density 20.756536000000001
#
# number of rings (size 3 to 8) (size 9 to 14) (size 15 to 20)
#    0.857    1.143    2.857    0.857    0.000    2.286 
#    2.571    1.429    0.000    0.000    0.000    0.000 
#    0.000    0.000    0.000    0.000    0.000    0.000 
#
# Total GULP energy -77985.145327 kJ/mol
# GULP energy per Si atom -5570.367523 kJ/mol
# Density = 2.070929 g / cm^3
# Si number density = 20.756536 Si / 1000 Ang^3
#
#
#
# Elastic Constant Matrix: (Units=GPa)
#
#
# Indices 1 2 3 4 5 6 
#
# 1 75.2064 19.5129 9.2384 0.0000 3.5005 0.0000
# 2 19.5129 18.7483 13.2958 0.0000 -4.4054 0.0000
# 3 9.2384 13.2958 62.7752 0.0000 33.1666 0.0000
# 4 0.0000 0.0000 0.0000 35.4650 0.0000 -2.2528
# 5 3.5005 -4.4054 33.1666 0.0000 40.6513 0.0000
# 6 0.0000 0.0000 0.0000 -2.2528 0.0000 26.9753
#
#
#
# Elastic Compliance Matrix: (Units=1/GPa)
#
#
# Indices 1 2 3 4 5 6 
#
# 1 0.021703 -0.035612 0.012963 0.000000 -0.016304 0.000000
# 2 -0.035612 0.155679 -0.067258 0.000000 0.074812 0.000000
# 3 0.012963 -0.067258 0.057490 0.000000 -0.055310 0.000000
# 4 0.000000 0.000000 0.000000 0.028347 0.000000 0.002367
# 5 -0.016304 0.074812 -0.055310 0.000000 0.079237 0.000000
# 6 0.000000 0.000000 0.000000 0.002367 0.000000 0.037269
#
#
# Mechanical properties :
#
#
# Convention : Reuss Voigt Hill
#
# Bulk Modulus (GPa) = 18.16294 26.75824 22.46059
# Shear Modulus (GPa) = 8.65212 28.26386 18.45799
#
# Velocity S-wave (km/s) = 2.04388 3.69410 2.98528
# Velocity P-wave (km/s) = 3.78674 5.57805 4.76729
#
# Compressibility (1/GPa) = 0.05505717
#
# Stress axis : x y z
#
# Youngs Moduli (GPa) = 46.07637 6.42346 17.39436
#
# Poissons Ratio (x) = 0.22875 -0.22548
# Poissons Ratio (y) = 1.64088 1.16991
# Poissons Ratio (z) = -0.59729 0.43203
#
# Static dielectric constant tensor:
#      x y z
#    x 1.762800 0.000000 0.000960 
#    y 0.000000 1.735720 0.000000 
#    z 0.000960 0.000000 1.821530 
# 
# From -- ./inp_files/22592.got.cif
#   From: 2010.05.17/outbox.cif.g08.bks.cpg/sg9_12_cif.got.tgz:22592.got - 2010.06.03 20:04:27.
