data_PCOD9136764
_publ_section_title
;
Structure prediction by ZEFSAII (Michael W. Deem and Ramdas Pophale) SiO2 
 PCOD9136764
Probable space group: C C
;
_chemical_formula_sum "Si O2"
_cell_formula_units_Z 28
_cell_length_a 9.071772
_cell_length_b 11.869742
_cell_length_c 15.032572
_cell_angle_alpha 90.000000
_cell_angle_beta 54.913694
_cell_angle_gamma 90.000000
_cell_volume 1324.562379
_symmetry_space_group_name_H-M "C C"
_symmetry_group_IT_number 9
_symmetry_cell_setting 'monoclinic'
loop_
_space_group_symop_operation_xyz
x,y,z
x,-y,1/2+z
1/2+x,1/2+y,z
1/2+x,1/2-y,1/2+z
loop_
_atom_site_type_symbol
_atom_site_label
_atom_site_fract_x
_atom_site_fract_y
_atom_site_fract_z
Si Si1 0.108630 0.149239 0.773960
Si Si2 0.669810 0.594135 0.947127
Si Si3 0.759137 0.390673 0.038630
Si Si4 0.488203 0.247125 0.652773
Si Si5 0.971859 0.221583 0.348852
Si Si6 0.633155 0.936588 0.987406
Si Si7 0.703390 0.198671 0.933277
O O1 0.104116 0.083215 0.869006
O O2 0.170112 0.082800 0.664793
O O3 0.271599 0.238561 0.730296
O O4 0.910874 0.197704 0.829804
O O5 0.856483 0.662896 0.881103
O O6 0.696942 0.477769 0.986591
O O7 0.544031 0.671766 0.052962
O O8 0.698221 0.269082 0.025982
O O9 0.974843 0.396488 0.975375
O O10 0.566041 0.287617 0.719997
O O11 0.564035 0.122401 0.602724
O O12 0.825886 0.121384 0.404589
O O13 0.089171 0.240290 0.395746
O O14 0.644701 0.070432 0.973548
#
# Coordination Sequence:
#
# PCOD9136764 Si02
#       7
#     4   4   4   4   4   4   4
#     4  10  23  43  63  99 135 178 228 276 339 405
#     4  10  21  43  71  94 134 183 221 281 345 399
#     4  11  24  45  68  99 139 179 225 283 345 404
#     4   9  20  43  71  92 137 186 220 276 352 394
#     4  10  22  43  70  99 135 179 224 280 338 400
#     4  10  23  46  68  95 142 179 223 286 335 403
#     4  12  25  43  67 106 136 174 237 276 336 415
#
# _framework density 21.139057000000001
#
# number of rings (size 3 to 8) (size 9 to 14) (size 15 to 20)
#    0.000    1.714    1.429    3.429    4.000    2.286 
#    7.714    1.429    0.000    0.000    0.000    0.000 
#    0.000    0.000    0.000    0.000    0.000    0.000 
#
# Total GULP energy -78144.732281 kJ/mol
# GULP energy per Si atom -5581.766592 kJ/mol
# Density = 2.109094 g / cm^3
# Si number density = 21.139057 Si / 1000 Ang^3
#
#
#
# Elastic Constant Matrix: (Units=GPa)
#
#
# Indices 1 2 3 4 5 6 
#
# 1 123.4851 47.6653 62.7804 0.0000 26.9987 0.0000
# 2 47.6653 115.1296 41.3624 0.0000 24.1379 0.0000
# 3 62.7804 41.3624 116.1600 0.0000 20.6650 0.0000
# 4 0.0000 0.0000 0.0000 3.0353 0.0000 2.7752
# 5 26.9987 24.1379 20.6650 0.0000 30.0647 0.0000
# 6 0.0000 0.0000 0.0000 2.7752 0.0000 29.3066
#
#
#
# Elastic Compliance Matrix: (Units=1/GPa)
#
#
# Indices 1 2 3 4 5 6 
#
# 1 0.012908 -0.002193 -0.005066 0.000000 -0.006349 0.000000
# 2 -0.002193 0.011517 -0.001847 0.000000 -0.006008 0.000000
# 3 -0.005066 -0.001847 0.012454 0.000000 -0.002528 0.000000
# 4 0.000000 0.000000 0.000000 0.360690 0.000000 -0.034156
# 5 -0.006349 -0.006008 -0.002528 0.000000 0.045524 0.000000
# 6 0.000000 0.000000 0.000000 -0.034156 0.000000 0.037357
#
#
# Mechanical properties :
#
#
# Convention : Reuss Voigt Hill
#
# Bulk Modulus (GPa) = 53.56920 73.15453 63.36186
# Shear Modulus (GPa) = 9.90324 26.01241 17.95783
#
# Velocity S-wave (km/s) = 2.16679 3.51171 2.91780
# Velocity P-wave (km/s) = 5.62640 7.15012 6.43353
#
# Compressibility (1/GPa) = 0.01866744
#
# Stress axis : x y z
#
# Youngs Moduli (GPa) = 77.46840 86.82882 80.29343
#
# Poissons Ratio (x) = 0.19042 0.40678
# Poissons Ratio (y) = 0.16989 0.14830
# Poissons Ratio (z) = 0.39247 0.16037
#
# Static dielectric constant tensor:
#      x y z
#    x 1.774520 0.000000 0.006680 
#    y 0.000000 1.761420 0.000000 
#    z 0.006680 0.000000 1.806920 
# 
# From -- ./inp_files/14220.got.cif
#   From: 2010.05.17/outbox.cif.g08.bks.cpg/sg9_8_cif.got.tgz:14220.got - 2010.06.03 20:04:27.
