data_PCOD9136469
_publ_section_title
;
Structure prediction by ZEFSAII (Michael W. Deem and Ramdas Pophale) SiO2 
 PCOD9136469
Probable space group: C C
;
_chemical_formula_sum "Si O2"
_cell_formula_units_Z 24
_cell_length_a 9.267044
_cell_length_b 13.900904
_cell_length_c 14.963058
_cell_angle_alpha 90.000000
_cell_angle_beta 149.694130
_cell_angle_gamma 90.000000
_cell_volume 972.670426
_symmetry_space_group_name_H-M "C C"
_symmetry_group_IT_number 9
_symmetry_cell_setting 'monoclinic'
loop_
_space_group_symop_operation_xyz
x,y,z
x,-y,1/2+z
1/2+x,1/2+y,z
1/2+x,1/2-y,1/2+z
loop_
_atom_site_type_symbol
_atom_site_label
_atom_site_fract_x
_atom_site_fract_y
_atom_site_fract_z
Si Si1 0.348910 0.467501 0.961070
Si Si2 0.088494 0.268850 0.887770
Si Si3 0.137048 0.285668 0.600328
Si Si4 0.953454 0.444697 0.371807
Si Si5 0.147869 0.885005 0.973378
Si Si6 0.601173 0.873553 0.066185
O O1 0.153893 0.369955 0.869149
O O2 0.486709 0.472956 0.936382
O O3 0.142029 0.551414 0.882815
O O4 0.625115 0.467063 0.174129
O O5 0.887266 0.185433 0.742118
O O6 0.410496 0.227644 0.058892
O O7 0.967711 0.302254 0.918995
O O8 0.982053 0.347474 0.441110
O O9 0.202432 0.186289 0.585746
O O10 0.414733 0.337468 0.783961
O O11 0.101475 0.525941 0.513340
O O12 0.421342 0.895504 0.058258
#
# Coordination Sequence:
#
# PCOD9136469 Si02
#       6
#     4   4   4   4   4   4
#     4  10  23  43  65  95 136 182 225 279 343 408
#     4  10  21  41  66  94 132 181 223 267 337 420
#     4  11  21  40  65  93 131 177 223 276 337 406
#     4  11  23  43  67  98 136 176 224 288 344 395
#     4  11  23  40  63  94 130 179 225 271 335 415
#     4  11  23  41  66  98 131 173 224 279 336 404
#
# _framework density 24.674339
#
# number of rings (size 3 to 8) (size 9 to 14) (size 15 to 20)
#    0.000    1.333    0.000    8.000    0.000    2.667 
#    0.000    6.667    0.000    0.000    0.000    0.000 
#    0.000    0.000    0.000    0.000    0.000    0.000 
#
# Total GULP energy -67065.708589 kJ/mol
# GULP energy per Si atom -5588.809049 kJ/mol
# Density = 2.461818 g / cm^3
# Si number density = 24.674339 Si / 1000 Ang^3
#
#
#
# Elastic Constant Matrix: (Units=GPa)
#
#
# Indices 1 2 3 4 5 6 
#
# 1 196.7872 32.4498 28.1730 0.0017 17.7329 0.0003
# 2 32.4498 62.2958 24.4120 -0.0007 3.4700 -0.0002
# 3 28.1730 24.4120 83.5595 0.0064 3.5875 0.0024
# 4 0.0017 -0.0007 0.0064 40.7833 0.0014 -3.0378
# 5 17.7329 3.4700 3.5875 0.0014 24.0520 0.0004
# 6 0.0003 -0.0002 0.0024 -3.0378 0.0004 32.2836
#
#
#
# Elastic Compliance Matrix: (Units=1/GPa)
#
#
# Indices 1 2 3 4 5 6 
#
# 1 0.006002 -0.002464 -0.001136 0.000000 -0.003900 0.000000
# 2 -0.002464 0.019220 -0.004774 0.000001 -0.000244 0.000001
# 3 -0.001136 -0.004774 0.013768 -0.000002 -0.000527 -0.000001
# 4 0.000000 0.000001 -0.000002 0.024693 -0.000001 0.002324
# 5 -0.003900 -0.000244 -0.000527 -0.000001 0.044566 -0.000001
# 6 0.000000 0.000001 -0.000001 0.002324 -0.000001 0.031194
#
#
# Mechanical properties :
#
#
# Convention : Reuss Voigt Hill
#
# Bulk Modulus (GPa) = 44.96042 56.96802 50.96422
# Shear Modulus (GPa) = 30.56123 36.59762 33.57942
#
# Velocity S-wave (km/s) = 3.52317 3.85545 3.69305
# Velocity P-wave (km/s) = 5.90012 6.55419 6.23573
#
# Compressibility (1/GPa) = 0.02224179
#
# Stress axis : x y z
#
# Youngs Moduli (GPa) = 166.60930 52.02836 72.63200
#
# Poissons Ratio (x) = 0.12819 0.08254
# Poissons Ratio (y) = 0.41051 0.34675
# Poissons Ratio (z) = 0.18933 0.24838
#
# Static dielectric constant tensor:
#      x y z
#    x 1.987560 0.000000 -0.060000 
#    y 0.000000 1.990900 0.000000 
#    z -0.060000 0.000000 1.934700 
# 
# From -- ./inp_files/4998.got.cif
#   From: 2010.05.17/outbox.cif.g08.bks.cpg/sg9_3_cif.got.tgz:4998.got - 2010.06.03 20:04:27.
