data_PCOD9136107
_publ_section_title
;
Structure prediction by ZEFSAII (Michael W. Deem and Ramdas Pophale) SiO2 
 PCOD9136107
Probable space group: C C
;
_chemical_formula_sum "Si O2"
_cell_formula_units_Z 28
_cell_length_a 18.495317
_cell_length_b 6.517680
_cell_length_c 19.930874
_cell_angle_alpha 90.000000
_cell_angle_beta 27.771284
_cell_angle_gamma 90.000000
_cell_volume 1119.474414
_symmetry_space_group_name_H-M "C C"
_symmetry_group_IT_number 9
_symmetry_cell_setting 'monoclinic'
loop_
_space_group_symop_operation_xyz
x,y,z
x,-y,1/2+z
1/2+x,1/2+y,z
1/2+x,1/2-y,1/2+z
loop_
_atom_site_type_symbol
_atom_site_label
_atom_site_fract_x
_atom_site_fract_y
_atom_site_fract_z
Si Si1 0.433830 0.750066 0.647700
Si Si2 0.660380 0.280438 0.281691
Si Si3 0.673911 0.488399 0.408777
Si Si4 0.172871 0.515897 0.031549
Si Si5 0.911161 0.752763 0.792724
Si Si6 0.935693 0.524898 0.008440
Si Si7 0.401832 0.601048 0.445557
O O1 0.495229 0.532388 0.571760
O O2 0.259992 0.807397 0.809815
O O3 0.466678 0.907571 0.559255
O O4 0.559578 0.806199 0.601902
O O5 0.686958 0.325755 0.338672
O O6 0.814576 0.336899 0.114620
O O7 0.582159 0.057957 0.346253
O O8 0.536832 0.450968 0.358306
O O9 0.785657 0.419854 0.376847
O O10 0.257384 0.529123 0.033949
O O11 0.061237 0.316119 0.129198
O O12 0.313299 0.463635 0.864865
O O13 0.950223 0.770614 0.839010
O O14 0.867443 0.727707 0.029236
#
# Coordination Sequence:
#
# PCOD9136107 Si02
#       7
#     4   4   4   4   4   4   4
#     4  10  21  39  61  91 124 164 211 258 313 371
#     4  11  24  41  66  96 128 168 213 263 318 377
#     4  10  21  39  61  91 124 164 211 258 313 371
#     4   9  20  37  59  84 120 160 200 250 306 367
#     4   9  20  37  59  84 120 160 200 250 306 367
#     4  11  24  41  66  96 128 168 213 263 318 377
#     4  10  22  42  66  88 132 164 210 254 320 374
#
# _framework density 25.011737
#
# number of rings (size 3 to 8) (size 9 to 14) (size 15 to 20)
#    0.857    1.143    1.429    1.714    0.000    5.714 
#    0.000    2.857    0.000    0.000    0.000    0.000 
#    0.000    0.000    0.000    0.000    0.000    0.000 
#
# Total GULP energy -78091.969413 kJ/mol
# GULP energy per Si atom -5577.997815 kJ/mol
# Density = 2.495481 g / cm^3
# Si number density = 25.011737 Si / 1000 Ang^3
#
#
#
# Elastic Constant Matrix: (Units=GPa)
#
#
# Indices 1 2 3 4 5 6 
#
# 1 71.2966 31.3023 11.5510 -0.0008 -3.1769 -0.0003
# 2 31.3023 32.7470 9.8136 -0.0035 0.0154 0.0025
# 3 11.5510 9.8136 77.7526 -0.0010 -8.9909 0.0012
# 4 -0.0008 -0.0035 -0.0010 40.2380 0.0009 -10.2200
# 5 -3.1769 0.0154 -8.9909 0.0009 18.1245 -0.0003
# 6 -0.0003 0.0025 0.0012 -10.2200 -0.0003 43.5840
#
#
#
# Elastic Compliance Matrix: (Units=1/GPa)
#
#
# Indices 1 2 3 4 5 6 
#
# 1 0.024505 -0.023365 -0.000204 -0.000001 0.004214 0.000001
# 2 -0.023365 0.054093 -0.004069 0.000004 -0.006160 -0.000002
# 3 -0.000204 -0.004069 0.014217 0.000000 0.007020 0.000000
# 4 -0.000001 0.000004 0.000000 0.026426 -0.000002 0.006197
# 5 0.004214 -0.006160 0.007020 -0.000002 0.059400 0.000000
# 6 0.000001 -0.000002 0.000000 0.006197 0.000000 0.024397
#
#
# Mechanical properties :
#
#
# Convention : Reuss Voigt Hill
#
# Bulk Modulus (GPa) = 26.63813 31.90332 29.27072
# Shear Modulus (GPa) = 18.46199 28.99790 23.72995
#
# Velocity S-wave (km/s) = 2.71981 3.40865 3.08352
# Velocity P-wave (km/s) = 4.53172 5.31741 4.94021
#
# Compressibility (1/GPa) = 0.03754017
#
# Stress axis : x y z
#
# Youngs Moduli (GPa) = 40.80833 18.48663 70.33856
#
# Poissons Ratio (x) = 0.43193 0.01437
# Poissons Ratio (y) = 0.95347 0.28618
# Poissons Ratio (z) = 0.00833 0.07521
#
# Static dielectric constant tensor:
#      x y z
#    x 1.958980 0.000000 0.025460 
#    y 0.000000 1.979040 0.000000 
#    z 0.025460 0.000000 2.003470 
# 
# From -- ./inp_files/18925.got.cif
#   From: 2010.05.17/outbox.cif.g08.bks.cpg/sg9_10_cif.got.tgz:18925.got - 2010.06.03 20:04:27.
