data_PCOD9136336
_publ_section_title
;
Structure prediction by ZEFSAII (Michael W. Deem and Ramdas Pophale) SiO2 
 PCOD9136336
Probable space group: C C
;
_chemical_formula_sum "Si O2"
_cell_formula_units_Z 32
_cell_length_a 6.609835
_cell_length_b 14.849078
_cell_length_c 14.694519
_cell_angle_alpha 90.000000
_cell_angle_beta 89.227276
_cell_angle_gamma 90.000000
_cell_volume 1442.135222
_symmetry_space_group_name_H-M "C C"
_symmetry_group_IT_number 9
_symmetry_cell_setting 'monoclinic'
loop_
_space_group_symop_operation_xyz
x,y,z
x,-y,1/2+z
1/2+x,1/2+y,z
1/2+x,1/2-y,1/2+z
loop_
_atom_site_type_symbol
_atom_site_label
_atom_site_fract_x
_atom_site_fract_y
_atom_site_fract_z
Si Si1 0.084150 0.167465 0.025430
Si Si2 0.879421 0.997487 0.055687
Si Si3 0.948265 0.056256 0.254609
Si Si4 0.393791 0.093448 0.271541
Si Si5 0.274294 0.734306 0.888769
Si Si6 0.168757 0.459868 0.383386
Si Si7 0.729240 0.195076 0.177046
Si Si8 0.473527 0.708403 0.551152
O O1 0.287725 0.220664 0.046803
O O2 0.907361 0.187999 0.100938
O O3 0.075254 0.058633 0.026694
O O4 0.985919 0.201557 0.932360
O O5 0.896831 0.892221 0.039797
O O6 0.856540 0.012074 0.163783
O O7 0.698798 0.034959 0.992088
O O8 0.861242 0.159421 0.262364
O O9 0.185110 0.053392 0.239513
O O10 0.874156 0.002661 0.341692
O O11 0.331131 0.185957 0.321522
O O12 0.544460 0.124093 0.191039
O O13 0.499624 0.023409 0.340038
O O14 0.165349 0.643950 0.853038
O O15 0.127972 0.770314 0.968835
O O16 0.601806 0.281065 0.144690
#
# Coordination Sequence:
#
# PCOD9136336 Si02
#       8
#     4   4   4   4   4   4   4   4
#     4   9  20  41  61  90 132 169 216 283 332 399
#     4  10  21  40  67  93 131 174 222 282 333 400
#     4  10  22  42  62  94 132 174 218 287 338 395
#     4  11  22  42  68  93 135 180 221 282 347 399
#     4  10  23  38  62  95 129 169 226 277 333 412
#     4  10  23  43  63  95 138 173 224 283 337 409
#     4   9  20  38  60  89 129 161 215 274 325 397
#     4  11  21  38  65  95 122 178 222 270 349 405
#
# _framework density 22.189319000000001
#
# number of rings (size 3 to 8) (size 9 to 14) (size 15 to 20)
#    0.000    2.000    0.000    3.750    1.750    4.000 
#    2.250   20.000    0.000    0.000    0.000    0.000 
#    0.000    0.000    0.000    0.000    0.000    0.000 
#
# Total GULP energy -89076.774699 kJ/mol
# GULP energy per Si atom -5567.298419 kJ/mol
# Density = 2.213882 g / cm^3
# Si number density = 22.189319 Si / 1000 Ang^3
#
#
#
# Elastic Constant Matrix: (Units=GPa)
#
#
# Indices 1 2 3 4 5 6 
#
# 1 100.0075 24.0348 20.0855 0.0000 -1.3107 0.0000
# 2 24.0348 125.5133 23.1807 0.0000 9.5559 0.0000
# 3 20.0855 23.1807 70.2936 0.0000 1.4612 0.0000
# 4 0.0000 0.0000 0.0000 40.8542 0.0000 0.4916
# 5 -1.3107 9.5559 1.4612 0.0000 26.7851 0.0000
# 6 0.0000 0.0000 0.0000 0.4916 0.0000 17.1593
#
#
#
# Elastic Compliance Matrix: (Units=1/GPa)
#
#
# Indices 1 2 3 4 5 6 
#
# 1 0.010949 -0.001717 -0.002589 0.000000 0.001289 0.000000
# 2 -0.001717 0.008981 -0.002405 0.000000 -0.003157 0.000000
# 3 -0.002589 -0.002405 0.015762 0.000000 -0.000128 0.000000
# 4 0.000000 0.000000 0.000000 0.024486 0.000000 -0.000702
# 5 0.001289 -0.003157 -0.000128 0.000000 0.038530 0.000000
# 6 0.000000 0.000000 0.000000 -0.000702 0.000000 0.058298
#
#
# Mechanical properties :
#
#
# Convention : Reuss Voigt Hill
#
# Bulk Modulus (GPa) = 44.90605 47.82405 46.36505
# Shear Modulus (GPa) = 28.11355 32.19393 30.15374
#
# Velocity S-wave (km/s) = 3.56334 3.81317 3.69037
# Velocity P-wave (km/s) = 6.10012 6.40207 6.25292
#
# Compressibility (1/GPa) = 0.02226871
#
# Stress axis : x y z
#
# Youngs Moduli (GPa) = 91.33498 111.35143 63.44459
#
# Poissons Ratio (x) = 0.19114 0.16427
# Poissons Ratio (y) = 0.15678 0.15261
# Poissons Ratio (z) = 0.23648 0.26785
#
# Static dielectric constant tensor:
#      x y z
#    x 1.828820 0.000000 0.031650 
#    y 0.000000 1.862040 0.000000 
#    z 0.031650 0.000000 1.845660 
# 
# From -- ./inp_files/28607.got.cif
#   From: 2010.05.17/outbox.cif.g08.bks.cpg/sg9_15_cif.got.tgz:28607.got - 2010.06.03 20:04:27.
