data_PCOD9136024
_publ_section_title
;
Structure prediction by ZEFSAII (Michael W. Deem and Ramdas Pophale) SiO2 
 PCOD9136024
Probable space group: C C
;
_chemical_formula_sum "Si O2"
_cell_formula_units_Z 32
_cell_length_a 16.695139
_cell_length_b 6.835821
_cell_length_c 27.872041
_cell_angle_alpha 90.000000
_cell_angle_beta 28.136999
_cell_angle_gamma 90.000000
_cell_volume 1500.051534
_symmetry_space_group_name_H-M "C C"
_symmetry_group_IT_number 9
_symmetry_cell_setting 'monoclinic'
loop_
_space_group_symop_operation_xyz
x,y,z
x,-y,1/2+z
1/2+x,1/2+y,z
1/2+x,1/2-y,1/2+z
loop_
_atom_site_type_symbol
_atom_site_label
_atom_site_fract_x
_atom_site_fract_y
_atom_site_fract_z
Si Si1 0.419350 0.956572 0.714420
Si Si2 0.753686 0.717373 0.882226
Si Si3 0.821589 0.197342 0.202370
Si Si4 0.795282 0.191753 0.009346
Si Si5 0.210398 0.077789 0.008222
Si Si6 0.205546 0.572736 0.843493
Si Si7 0.852707 0.854260 0.579613
Si Si8 0.875186 0.816344 0.003656
O O1 0.616068 0.919562 0.601103
O O2 0.337698 0.744747 0.763687
O O3 0.373608 0.084890 0.785497
O O4 0.346717 0.085720 0.709358
O O5 0.785145 0.682382 0.921627
O O6 0.757880 0.939805 0.861049
O O7 0.557207 0.652805 0.976810
O O8 0.774667 0.197503 0.171603
O O9 0.698989 0.076882 0.302066
O O10 0.006313 0.089998 0.110134
O O11 0.804798 0.276804 0.058835
O O12 0.787610 0.360981 0.974474
O O13 0.927332 0.010060 0.943708
O O14 0.256660 0.189574 0.032473
O O15 0.028910 0.684903 0.940215
O O16 0.801410 0.071250 0.588874
#
# Coordination Sequence:
#
# PCOD9136024 Si02
#       8
#     4   4   4   4   4   4   4   4
#     4  11  20  41  62  90 124 160 211 263 310 373
#     4  10  23  39  63  90 125 163 213 260 315 383
#     4  10  21  39  64  90 121 163 213 259 315 376
#     4  10  21  38  63  88 126 166 206 263 312 370
#     4  11  21  41  63  91 124 168 211 259 314 382
#     4  11  22  40  65  92 125 167 206 270 320 367
#     4   9  20  42  57  89 122 163 204 255 310 374
#     4  10  22  40  61  90 127 164 210 257 318 375
#
# _framework density 21.332598999999998
#
# number of rings (size 3 to 8) (size 9 to 14) (size 15 to 20)
#    0.750    1.000    3.750    0.750    0.000    2.000 
#    6.750    1.250    0.000    0.000    0.000    0.000 
#    0.000    0.000    0.000    0.000    0.000    0.000 
#
# Total GULP energy -89192.601377 kJ/mol
# GULP energy per Si atom -5574.537586 kJ/mol
# Density = 2.128405 g / cm^3
# Si number density = 21.332599 Si / 1000 Ang^3
#
#
#
# Elastic Constant Matrix: (Units=GPa)
#
#
# Indices 1 2 3 4 5 6 
#
# 1 81.5864 51.2268 22.0052 -0.0006 23.3998 -0.0116
# 2 51.2268 136.1282 25.0728 -0.0007 11.9600 -0.0090
# 3 22.0052 25.0728 36.7004 0.0005 17.8390 -0.0002
# 4 -0.0006 -0.0007 0.0005 26.5045 0.0005 -4.5061
# 5 23.3998 11.9600 17.8390 0.0005 26.1937 -0.0008
# 6 -0.0116 -0.0090 -0.0002 -4.5061 -0.0008 27.5558
#
#
#
# Elastic Compliance Matrix: (Units=1/GPa)
#
#
# Indices 1 2 3 4 5 6 
#
# 1 0.020802 -0.006356 -0.000760 0.000002 -0.015163 0.000007
# 2 -0.006356 0.010346 -0.005562 0.000000 0.004742 0.000001
# 3 -0.000760 -0.005562 0.044754 -0.000001 -0.027261 -0.000003
# 4 0.000002 0.000000 -0.000001 0.038808 -0.000001 0.006346
# 5 -0.015163 0.004742 -0.027261 -0.000001 0.068124 -0.000003
# 6 0.000007 0.000001 -0.000003 0.006346 -0.000003 0.037328
#
#
# Mechanical properties :
#
#
# Convention : Reuss Voigt Hill
#
# Bulk Modulus (GPa) = 19.78406 50.11384 34.94895
# Shear Modulus (GPa) = 19.05748 26.45815 22.75781
#
# Velocity S-wave (km/s) = 2.99214 3.52557 3.26975
# Velocity P-wave (km/s) = 4.60776 6.33368 5.53836
#
# Compressibility (1/GPa) = 0.05054573
#
# Stress axis : x y z
#
# Youngs Moduli (GPa) = 48.07339 96.65983 22.34452
#
# Poissons Ratio (x) = 0.61434 0.01698
# Poissons Ratio (y) = 0.30554 0.12428
# Poissons Ratio (z) = 0.03653 0.53762
#
# Static dielectric constant tensor:
#      x y z
#    x 1.787270 0.000000 -0.028650 
#    y 0.000000 1.803620 0.000000 
#    z -0.028650 0.000000 1.823590 
# 
# From -- ./inp_files/30878.got.cif
#   From: 2010.05.17/outbox.cif.g08.bks.cpg/sg9_16_cif.got.tgz:30878.got - 2010.06.03 20:04:27.
