data_PCOD9136063
_publ_section_title
;
Structure prediction by ZEFSAII (Michael W. Deem and Ramdas Pophale) SiO2 
 PCOD9136063
Probable space group: C C
;
_chemical_formula_sum "Si O2"
_cell_formula_units_Z 28
_cell_length_a 11.976198
_cell_length_b 6.788205
_cell_length_c 31.152781
_cell_angle_alpha 90.000000
_cell_angle_beta 157.440944
_cell_angle_gamma 90.000000
_cell_volume 971.604500
_symmetry_space_group_name_H-M "C C"
_symmetry_group_IT_number 9
_symmetry_cell_setting 'monoclinic'
loop_
_space_group_symop_operation_xyz
x,y,z
x,-y,1/2+z
1/2+x,1/2+y,z
1/2+x,1/2-y,1/2+z
loop_
_atom_site_type_symbol
_atom_site_label
_atom_site_fract_x
_atom_site_fract_y
_atom_site_fract_z
Si Si1 0.321870 0.576702 0.814960
Si Si2 0.893055 0.174982 0.751881
Si Si3 0.704931 0.332856 0.090941
Si Si4 0.358297 0.370943 0.145160
Si Si5 0.733283 0.607250 0.511025
Si Si6 0.905974 0.142859 0.571491
Si Si7 0.835602 0.661163 0.401579
O O1 0.446577 0.723211 0.821824
O O2 0.262299 0.672329 0.840825
O O3 0.994823 0.541251 0.683647
O O4 0.527353 0.392177 0.896764
O O5 0.974531 0.216259 0.730962
O O6 0.544419 0.212045 0.623094
O O7 0.048711 0.959335 0.809964
O O8 0.785811 0.103518 0.127071
O O9 0.553492 0.347446 0.990819
O O10 0.559564 0.406204 0.082300
O O11 0.549977 0.376591 0.169522
O O12 0.043526 0.287009 0.016029
O O13 0.832421 0.376182 0.542306
O O14 0.588693 0.041462 0.464708
#
# Coordination Sequence:
#
# PCOD9136063 Si02
#       7
#     4   4   4   4   4   4   4
#     4  10  21  39  66  91 127 171 210 259 318 375
#     4  11  19  37  67  92 121 170 212 252 319 376
#     4  11  21  43  63  93 130 163 211 269 309 378
#     4  10  21  38  66  93 125 167 210 263 316 371
#     4  10  21  40  65  89 127 171 202 263 318 365
#     4   9  21  40  61  88 129 159 205 262 309 374
#     4   9  20  35  62  94 121 163 208 258 311 367
#
# _framework density 28.81831
#
# number of rings (size 3 to 8) (size 9 to 14) (size 15 to 20)
#    0.857    1.143    2.857    0.857    2.000    0.000 
#    7.714    2.857    0.000    0.000    0.000    0.000 
#    0.000    0.000    0.000    0.000    0.000    0.000 
#
# Total GULP energy -77939.432393 kJ/mol
# GULP energy per Si atom -5567.102314 kJ/mol
# Density = 2.875272 g / cm^3
# Si number density = 28.818310 Si / 1000 Ang^3
#
#
#
# Elastic Constant Matrix: (Units=GPa)
#
#
# Indices 1 2 3 4 5 6 
#
# 1 208.6990 26.1061 44.4466 -0.0008 -26.7346 0.0006
# 2 26.1061 71.0592 10.4409 0.0011 -12.6231 -0.0001
# 3 44.4466 10.4409 111.6262 -0.0032 -31.2278 0.0014
# 4 -0.0008 0.0011 -0.0032 41.1097 0.0009 -11.9317
# 5 -26.7346 -12.6231 -31.2278 0.0009 54.7972 -0.0007
# 6 0.0006 -0.0001 0.0014 -11.9317 -0.0007 43.6556
#
#
#
# Elastic Compliance Matrix: (Units=1/GPa)
#
#
# Indices 1 2 3 4 5 6 
#
# 1 0.005516 -0.001535 -0.001664 0.000000 0.001389 0.000000
# 2 -0.001535 0.015125 -0.000045 0.000000 0.002709 0.000000
# 3 -0.001664 -0.000045 0.011177 0.000001 0.005547 0.000000
# 4 0.000000 0.000000 0.000001 0.026421 0.000000 0.007221
# 5 0.001389 0.002709 0.005547 0.000000 0.022712 0.000000
# 6 0.000000 0.000000 0.000000 0.007221 0.000000 0.024880
#
#
# Mechanical properties :
#
#
# Convention : Reuss Voigt Hill
#
# Bulk Modulus (GPa) = 39.48147 61.48571 50.48359
# Shear Modulus (GPa) = 41.40311 48.60521 45.00416
#
# Velocity S-wave (km/s) = 3.79449 4.11129 3.95606
# Velocity P-wave (km/s) = 5.73824 6.62713 6.19864
#
# Compressibility (1/GPa) = 0.02532834
#
# Stress axis : x y z
#
# Youngs Moduli (GPa) = 181.29122 66.11682 89.46790
#
# Poissons Ratio (x) = 0.10150 0.14888
# Poissons Ratio (y) = 0.27832 0.00407
# Poissons Ratio (z) = 0.30169 0.00301
#
# Static dielectric constant tensor:
#      x y z
#    x 2.233240 0.000000 0.075760 
#    y 0.000000 2.437860 0.000000 
#    z 0.075760 0.000000 2.386700 
# 
# From -- ./inp_files/24113.got.cif
#   From: 2010.05.17/outbox.cif.g08.bks.cpg/sg9_13_cif.got.tgz:24113.got - 2010.06.03 20:04:27.
