data_PCOD9136776
_publ_section_title
;
Structure prediction by ZEFSAII (Michael W. Deem and Ramdas Pophale) SiO2 
 PCOD9136776
Probable space group: C C
;
_chemical_formula_sum "Si O2"
_cell_formula_units_Z 28
_cell_length_a 18.910011
_cell_length_b 5.152663
_cell_length_c 17.903081
_cell_angle_alpha 90.000000
_cell_angle_beta 43.808752
_cell_angle_gamma 90.000000
_cell_volume 1207.581370
_symmetry_space_group_name_H-M "C C"
_symmetry_group_IT_number 9
_symmetry_cell_setting 'monoclinic'
loop_
_space_group_symop_operation_xyz
x,y,z
x,-y,1/2+z
1/2+x,1/2+y,z
1/2+x,1/2-y,1/2+z
loop_
_atom_site_type_symbol
_atom_site_label
_atom_site_fract_x
_atom_site_fract_y
_atom_site_fract_z
Si Si1 0.386040 0.462547 0.043180
Si Si2 0.582700 0.648360 0.836054
Si Si3 0.634615 0.662586 0.066343
Si Si4 0.122222 0.517419 0.430535
Si Si5 0.195070 0.315797 0.606064
Si Si6 0.469136 0.636218 0.630096
Si Si7 0.279681 0.150126 0.235742
O O1 0.302120 0.629903 0.065052
O O2 0.422694 0.543959 0.099196
O O3 0.325383 0.207531 0.118055
O O4 0.488439 0.451992 0.916173
O O5 0.612430 0.731177 0.731115
O O6 0.688591 0.548384 0.792087
O O7 0.554655 0.882004 0.912943
O O8 0.702064 0.419996 0.042078
O O9 0.519607 0.541766 0.154116
O O10 0.656987 0.914959 0.098721
O O11 0.649086 0.762815 0.970663
O O12 0.060778 0.298077 0.522523
O O13 0.219906 0.393610 0.316823
O O14 0.380641 0.850246 0.710789
#
# Coordination Sequence:
#
# PCOD9136776 Si02
#       7
#     4   4   4   4   4   4   4
#     4  10  23  46  74 112 136 206 255 312 366 459
#     4  12  24  44  79 111 146 200 268 311 371 461
#     4  12  26  51  70 110 163 199 241 320 387 456
#     4  12  21  44  78 108 143 203 256 306 371 462
#     4  12  28  49  72 112 163 195 244 328 388 436
#     4  10  23  45  78 105 145 201 258 300 375 456
#     4  10  21  43  75 112 140 190 262 319 358 438
#
# _framework density 23.186841000000001
#
# number of rings (size 3 to 8) (size 9 to 14) (size 15 to 20)
#    0.857    0.000    5.714    0.857    2.000    1.143 
#    5.143    0.000    0.000    0.000    0.000    0.000 
#    0.000    0.000    0.000    0.000    0.000    0.000 
#
# Total GULP energy -78008.704179 kJ/mol
# GULP energy per Si atom -5572.050298 kJ/mol
# Density = 2.313407 g / cm^3
# Si number density = 23.186841 Si / 1000 Ang^3
#
#
#
# Elastic Constant Matrix: (Units=GPa)
#
#
# Indices 1 2 3 4 5 6 
#
# 1 132.0759 58.7358 26.9308 0.0052 -0.3623 -0.0689
# 2 58.7358 119.3144 30.3514 0.0005 -0.7059 -0.0384
# 3 26.9308 30.3514 84.7191 -0.0064 -20.9745 0.0072
# 4 0.0052 0.0005 -0.0064 30.2792 0.0039 9.5457
# 5 -0.3623 -0.7059 -20.9745 0.0039 32.0198 0.0073
# 6 -0.0689 -0.0384 0.0072 9.5457 0.0073 27.7320
#
#
#
# Elastic Compliance Matrix: (Units=1/GPa)
#
#
# Indices 1 2 3 4 5 6 
#
# 1 0.009911 -0.004410 -0.001870 -0.000009 -0.001210 0.000022
# 2 -0.004410 0.011334 -0.003114 -0.000002 -0.001840 0.000007
# 3 -0.001870 -0.003114 0.016103 0.000008 0.010458 -0.000019
# 4 -0.000009 -0.000002 0.000008 0.037046 0.000004 -0.012752
# 5 -0.001210 -0.001840 0.010458 0.000004 0.038027 -0.000020
# 6 0.000022 0.000007 -0.000019 -0.012752 -0.000020 0.040449
#
#
# Mechanical properties :
#
#
# Convention : Reuss Voigt Hill
#
# Bulk Modulus (GPa) = 53.88248 63.12727 58.50488
# Shear Modulus (GPa) = 28.11457 32.67897 30.39677
#
# Velocity S-wave (km/s) = 3.48591 3.75824 3.62463
# Velocity P-wave (km/s) = 6.28418 6.79095 6.54247
#
# Compressibility (1/GPa) = 0.01855891
#
# Stress axis : x y z
#
# Youngs Moduli (GPa) = 100.90102 88.23380 62.10030
#
# Poissons Ratio (x) = 0.38914 0.11613
# Poissons Ratio (y) = 0.44500 0.19337
# Poissons Ratio (z) = 0.18869 0.27475
#
# Static dielectric constant tensor:
#      x y z
#    x 1.927950 0.000010 -0.037800 
#    y 0.000010 1.970740 0.000000 
#    z -0.037800 0.000000 1.881600 
# 
# From -- ./inp_files/31109.got.cif
#   From: 2010.05.17/outbox.cif.g08.bks.cpg/sg9_16_cif.got.tgz:31109.got - 2010.06.03 20:04:27.
