data_PCOD9136205
_publ_section_title
;
Structure prediction by ZEFSAII (Michael W. Deem and Ramdas Pophale) SiO2 
 PCOD9136205
Probable space group: C C
;
_chemical_formula_sum "Si O2"
_cell_formula_units_Z 24
_cell_length_a 13.744169
_cell_length_b 5.129361
_cell_length_c 13.688744
_cell_angle_alpha 90.000000
_cell_angle_beta 100.669588
_cell_angle_gamma 90.000000
_cell_volume 948.355709
_symmetry_space_group_name_H-M "C C"
_symmetry_group_IT_number 9
_symmetry_cell_setting 'monoclinic'
loop_
_space_group_symop_operation_xyz
x,y,z
x,-y,1/2+z
1/2+x,1/2+y,z
1/2+x,1/2-y,1/2+z
loop_
_atom_site_type_symbol
_atom_site_label
_atom_site_fract_x
_atom_site_fract_y
_atom_site_fract_z
Si Si1 0.515270 0.923950 0.967200
Si Si2 0.092511 0.908224 0.873224
Si Si3 0.808761 0.518944 0.330973
Si Si4 0.224737 0.235041 0.642077
Si Si5 0.324146 0.734576 0.630399
Si Si6 0.021950 0.062864 0.147794
O O1 0.557043 0.684187 0.909563
O O2 0.573101 0.182954 0.947523
O O3 0.239209 0.481362 0.101233
O O4 0.520138 0.812246 0.077379
O O5 0.402604 0.991466 0.917051
O O6 0.031236 0.852161 0.762301
O O7 0.780248 0.268645 0.258700
O O8 0.924661 0.890141 0.110798
O O9 0.707148 0.591493 0.364667
O O10 0.335774 0.782744 0.748559
O O11 0.284131 0.016242 0.591151
O O12 0.118766 0.111787 0.645451
#
# Coordination Sequence:
#
# PCOD9136205 Si02
#       6
#     4   4   4   4   4   4
#     4  12  27  43  69 105 130 182 231 271 344 401
#     4  11  26  46  67  97 143 174 224 287 331 402
#     4   9  23  40  68  92 135 174 218 273 341 382
#     4   9  22  38  65  95 126 177 216 262 342 387
#     4  10  21  39  68  92 128 175 216 269 337 388
#     4  11  25  44  73  97 138 180 225 282 335 402
#
# _framework density 25.306958999999999
#
# number of rings (size 3 to 8) (size 9 to 14) (size 15 to 20)
#    1.000    0.667    1.667    1.000    4.667    8.000 
#    0.000    0.000    0.000    0.000    0.000    0.000 
#    0.000    0.000    0.000    0.000    0.000    0.000 
#
# Total GULP energy -67199.892486 kJ/mol
# GULP energy per Si atom -5599.991040 kJ/mol
# Density = 2.524936 g / cm^3
# Si number density = 25.306959 Si / 1000 Ang^3
#
#
#
# Elastic Constant Matrix: (Units=GPa)
#
#
# Indices 1 2 3 4 5 6 
#
# 1 99.5366 -21.6289 4.0369 0.0000 -14.8741 0.0000
# 2 -21.6289 69.8570 24.1366 0.0000 -4.8816 0.0000
# 3 4.0369 24.1366 111.7103 0.0000 6.3890 0.0000
# 4 0.0000 0.0000 0.0000 25.3632 0.0000 -1.5653
# 5 -14.8741 -4.8816 6.3890 0.0000 37.2423 0.0000
# 6 0.0000 0.0000 0.0000 -1.5653 0.0000 25.1605
#
#
#
# Elastic Compliance Matrix: (Units=1/GPa)
#
#
# Indices 1 2 3 4 5 6 
#
# 1 0.012002 0.004732 -0.001783 0.000000 0.005719 0.000000
# 2 0.004732 0.017594 -0.004254 0.000000 0.004926 0.000000
# 3 -0.001783 -0.004254 0.010107 0.000000 -0.003004 0.000000
# 4 0.000000 0.000000 0.000000 0.039579 0.000000 0.002462
# 5 0.005719 0.004926 -0.003004 0.000000 0.030296 0.000000
# 6 0.000000 0.000000 0.000000 0.002462 0.000000 0.039898
#
#
# Mechanical properties :
#
#
# Convention : Reuss Voigt Hill
#
# Bulk Modulus (GPa) = 26.96022 32.68814 29.82418
# Shear Modulus (GPa) = 30.40409 35.85715 33.13062
#
# Velocity S-wave (km/s) = 3.46990 3.76824 3.62214
# Velocity P-wave (km/s) = 5.17011 5.64602 5.41330
#
# Compressibility (1/GPa) = 0.03709168
#
# Stress axis : x y z
#
# Youngs Moduli (GPa) = 83.32127 56.83740 98.94008
#
# Poissons Ratio (x) = -0.26894 0.17643
# Poissons Ratio (y) = -0.39425 0.42091
# Poissons Ratio (z) = 0.14858 0.24180
#
# Static dielectric constant tensor:
#      x y z
#    x 2.018780 0.000000 0.059540 
#    y 0.000000 1.956770 0.000000 
#    z 0.059540 0.000000 2.064510 
# 
# From -- ./inp_files/25214.got.cif
#   From: 2010.05.17/outbox.cif.g08.bks.cpg/sg9_13_cif.got.tgz:25214.got - 2010.06.03 20:04:27.
