data_PCOD9136445
_publ_section_title
;
Structure prediction by ZEFSAII (Michael W. Deem and Ramdas Pophale) SiO2 
 PCOD9136445
Probable space group: C C
;
_chemical_formula_sum "Si O2"
_cell_formula_units_Z 32
_cell_length_a 25.437244
_cell_length_b 8.030882
_cell_length_c 14.815363
_cell_angle_alpha 90.000000
_cell_angle_beta 151.240666
_cell_angle_gamma 90.000000
_cell_volume 1456.161249
_symmetry_space_group_name_H-M "C C"
_symmetry_group_IT_number 9
_symmetry_cell_setting 'monoclinic'
loop_
_space_group_symop_operation_xyz
x,y,z
x,-y,1/2+z
1/2+x,1/2+y,z
1/2+x,1/2-y,1/2+z
loop_
_atom_site_type_symbol
_atom_site_label
_atom_site_fract_x
_atom_site_fract_y
_atom_site_fract_z
Si Si1 0.600000 0.261320 0.670970
Si Si2 0.765170 0.984681 0.980224
Si Si3 0.454382 0.517986 0.522058
Si Si4 0.233930 0.649554 0.633080
Si Si5 0.003555 0.443747 0.873312
Si Si6 0.863308 0.722239 0.008120
Si Si7 0.982396 0.166101 0.363394
Si Si8 0.703981 0.513647 0.174073
O O1 0.670469 0.113283 0.816198
O O2 0.544867 0.375135 0.663658
O O3 0.508564 0.179161 0.467466
O O4 0.674902 0.377179 0.719762
O O5 0.880114 0.083854 0.157812
O O6 0.745730 0.902823 0.047762
O O7 0.773259 0.842555 0.917182
O O8 0.336808 0.427811 0.341097
O O9 0.451387 0.659319 0.592551
O O10 0.473288 0.602250 0.452794
O O11 0.123593 0.575826 0.509947
O O12 0.228922 0.848225 0.637141
O O13 0.980701 0.635085 0.860221
O O14 0.918246 0.377494 0.671808
O O15 0.805338 0.604111 0.848751
O O16 0.095547 0.094618 0.493922
#
# Coordination Sequence:
#
# PCOD9136445 Si02
#       8
#     4   4   4   4   4   4   4   4
#     4  10  22  43  65  90 127 166 208 262 312 367
#     4  11  23  41  66  95 127 165 210 257 312 374
#     4  10  23  41  62  90 126 167 209 257 312 371
#     4  10  22  41  63  91 127 166 209 258 313 372
#     4  11  23  41  65  94 127 164 209 261 312 371
#     4  12  24  39  65  96 127 167 210 255 311 374
#     4  10  22  43  65  91 126 163 208 261 314 373
#     4  10  21  41  65  89 127 168 207 259 314 370
#
# _framework density 21.975587000000001
#
# number of rings (size 3 to 8) (size 9 to 14) (size 15 to 20)
#    0.000    1.500    0.000    6.750    0.000    7.000 
#    0.000    7.500    0.000    0.000    0.000    0.000 
#    0.000    0.000    0.000    0.000    0.000    0.000 
#
# Total GULP energy -89593.874818 kJ/mol
# GULP energy per Si atom -5599.617176 kJ/mol
# Density = 2.192557 g / cm^3
# Si number density = 21.975587 Si / 1000 Ang^3
#
#
#
# Elastic Constant Matrix: (Units=GPa)
#
#
# Indices 1 2 3 4 5 6 
#
# 1 38.8962 33.4182 13.3677 0.0000 8.1851 0.0000
# 2 33.4182 139.0205 34.5671 0.0000 9.6216 0.0000
# 3 13.3677 34.5671 73.8431 0.0000 7.6503 0.0000
# 4 0.0000 0.0000 0.0000 33.5576 0.0000 -2.8996
# 5 8.1851 9.6216 7.6503 0.0000 19.8425 0.0000
# 6 0.0000 0.0000 0.0000 -2.8996 0.0000 29.4989
#
#
#
# Elastic Compliance Matrix: (Units=1/GPa)
#
#
# Indices 1 2 3 4 5 6 
#
# 1 0.034628 -0.007160 -0.001871 0.000000 -0.010091 0.000000
# 2 -0.007160 0.009750 -0.003213 0.000000 -0.000536 0.000000
# 3 -0.001871 -0.003213 0.015774 0.000000 -0.003752 0.000000
# 4 0.000000 0.000000 0.000000 0.030055 0.000000 0.002954
# 5 -0.010091 -0.000536 -0.003752 0.000000 0.056266 0.000000
# 6 0.000000 0.000000 0.000000 0.002954 0.000000 0.034190
#
#
# Mechanical properties :
#
#
# Convention : Reuss Voigt Hill
#
# Bulk Modulus (GPa) = 28.04005 46.05174 37.04589
# Shear Modulus (GPa) = 23.03743 27.94025 25.48884
#
# Velocity S-wave (km/s) = 3.24129 3.56957 3.40938
# Velocity P-wave (km/s) = 5.17641 6.16364 5.69147
#
# Compressibility (1/GPa) = 0.03566328
#
# Stress axis : x y z
#
# Youngs Moduli (GPa) = 28.87848 102.56145 63.39737
#
# Poissons Ratio (x) = 0.73437 0.11864
# Poissons Ratio (y) = 0.20678 0.20367
# Poissons Ratio (z) = 0.05404 0.32948
#
# Static dielectric constant tensor:
#      x y z
#    x 1.804940 0.000000 0.006220 
#    y 0.000000 1.779560 0.000000 
#    z 0.006220 0.000000 1.789350 
# 
# From -- ./inp_files/28027.got.cif
#   From: 2010.05.17/outbox.cif.g08.bks.cpg/sg9_15_cif.got.tgz:28027.got - 2010.06.03 20:04:27.
