data_PCOD9136165
_publ_section_title
;
Structure prediction by ZEFSAII (Michael W. Deem and Ramdas Pophale) SiO2 
 PCOD9136165
Probable space group: C C
;
_chemical_formula_sum "Si O2"
_cell_formula_units_Z 24
_cell_length_a 5.103611
_cell_length_b 20.603525
_cell_length_c 8.460105
_cell_angle_alpha 90.000000
_cell_angle_beta 96.790125
_cell_angle_gamma 90.000000
_cell_volume 883.360405
_symmetry_space_group_name_H-M "C C"
_symmetry_group_IT_number 9
_symmetry_cell_setting 'monoclinic'
loop_
_space_group_symop_operation_xyz
x,y,z
x,-y,1/2+z
1/2+x,1/2+y,z
1/2+x,1/2-y,1/2+z
loop_
_atom_site_type_symbol
_atom_site_label
_atom_site_fract_x
_atom_site_fract_y
_atom_site_fract_z
Si Si1 0.445590 0.982528 0.735770
Si Si2 0.543768 0.418380 0.537989
Si Si3 0.211330 0.695222 0.860450
Si Si4 0.678797 0.740401 0.702150
Si Si5 0.808317 0.876540 0.859652
Si Si6 0.432202 0.451091 0.138298
O O1 0.354208 0.935290 0.580658
O O2 0.560245 0.926367 0.856006
O O3 0.926443 0.989712 0.512060
O O4 0.662398 0.035141 0.706213
O O5 0.468044 0.399034 0.715153
O O6 0.691888 0.527367 0.751764
O O7 0.379174 0.726101 0.730529
O O8 0.396746 0.633454 0.919911
O O9 0.909784 0.690882 0.776909
O O10 0.208515 0.737904 0.021802
O O11 0.734712 0.804188 0.813796
O O12 0.958912 0.887393 0.034960
#
# Coordination Sequence:
#
# PCOD9136165 Si02
#       6
#     4   4   4   4   4   4
#     4   9  20  34  58  89 113 161 210 253 321 389
#     4   8  21  38  63  85 123 167 215 261 337 392
#     4  11  24  44  68  98 132 178 233 271 342 396
#     4  11  26  41  72  96 136 179 224 283 331 405
#     4  10  21  39  65  87 127 169 216 263 343 401
#     4   9  20  34  58  89 113 154 210 259 306 395
#
# _framework density 27.168979
#
# number of rings (size 3 to 8) (size 9 to 14) (size 15 to 20)
#    1.000    1.333    0.000    1.000   14.000    0.000 
#    0.000    8.333    0.000    0.000    0.000    0.000 
#    0.000    0.000    0.000    0.000    0.000    0.000 
#
# Total GULP energy -66965.021035 kJ/mol
# GULP energy per Si atom -5580.418420 kJ/mol
# Density = 2.710714 g / cm^3
# Si number density = 27.168979 Si / 1000 Ang^3
#
#
#
# Elastic Constant Matrix: (Units=GPa)
#
#
# Indices 1 2 3 4 5 6 
#
# 1 153.0811 -1.4444 41.1477 0.0000 -10.5391 0.0000
# 2 -1.4444 53.7424 12.8224 0.0000 -6.9107 0.0000
# 3 41.1477 12.8224 112.5117 0.0000 8.5047 0.0000
# 4 0.0000 0.0000 0.0000 38.6871 0.0000 15.0398
# 5 -10.5391 -6.9107 8.5047 0.0000 43.8951 0.0000
# 6 0.0000 0.0000 0.0000 15.0398 0.0000 25.9952
#
#
#
# Elastic Compliance Matrix: (Units=1/GPa)
#
#
# Indices 1 2 3 4 5 6 
#
# 1 0.007561 0.001282 -0.003109 0.000000 0.002620 0.000000
# 2 0.001282 0.019885 -0.003039 0.000000 0.004027 0.000000
# 3 -0.003109 -0.003039 0.010620 0.000000 -0.003283 0.000000
# 4 0.000000 0.000000 0.000000 0.033349 0.000000 -0.019295
# 5 0.002620 0.004027 -0.003283 0.000000 0.024681 0.000000
# 6 0.000000 0.000000 0.000000 -0.019295 0.000000 0.049632
#
#
# Mechanical properties :
#
#
# Convention : Reuss Voigt Hill
#
# Bulk Modulus (GPa) = 35.29630 47.15407 41.22519
# Shear Modulus (GPa) = 30.32066 39.50276 34.91171
#
# Velocity S-wave (km/s) = 3.34429 3.81723 3.58856
# Velocity P-wave (km/s) = 5.28507 6.06810 5.69007
#
# Compressibility (1/GPa) = 0.02833158
#
# Stress axis : x y z
#
# Youngs Moduli (GPa) = 132.26354 50.28979 94.16581
#
# Poissons Ratio (x) = -0.06446 0.29278
# Poissons Ratio (y) = -0.16954 0.28621
# Poissons Ratio (z) = 0.41123 0.15285
#
# Static dielectric constant tensor:
#      x y z
#    x 2.156540 0.000000 0.055060 
#    y 0.000000 2.143680 0.000000 
#    z 0.055060 0.000000 2.195050 
# 
# From -- ./inp_files/3840.got.cif
#   From: 2010.05.17/outbox.cif.g08.bks.cpg/sg9_2_cif.got.tgz:3840.got - 2010.06.03 20:04:27.
