data_PCOD9136480
_publ_section_title
;
Structure prediction by ZEFSAII (Michael W. Deem and Ramdas Pophale) SiO2 
 PCOD9136480
Probable space group: C C
;
_chemical_formula_sum "Si O2"
_cell_formula_units_Z 32
_cell_length_a 16.962354
_cell_length_b 7.244592
_cell_length_c 13.565206
_cell_angle_alpha 90.000000
_cell_angle_beta 53.444337
_cell_angle_gamma 90.000000
_cell_volume 1339.037224
_symmetry_space_group_name_H-M "C C"
_symmetry_group_IT_number 9
_symmetry_cell_setting 'monoclinic'
loop_
_space_group_symop_operation_xyz
x,y,z
x,-y,1/2+z
1/2+x,1/2+y,z
1/2+x,1/2-y,1/2+z
loop_
_atom_site_type_symbol
_atom_site_label
_atom_site_fract_x
_atom_site_fract_y
_atom_site_fract_z
Si Si1 0.391870 0.642534 0.814480
Si Si2 0.440098 0.653943 0.120804
Si Si3 0.151000 0.146773 0.949977
Si Si4 0.243501 0.267202 0.699085
Si Si5 0.667322 0.073307 0.993073
Si Si6 0.606644 0.503284 0.694064
Si Si7 0.481686 0.977757 0.252077
Si Si8 0.115903 0.362294 0.314592
O O1 0.401470 0.532250 0.702743
O O2 0.491671 0.560316 0.790923
O O3 0.402252 0.862722 0.803415
O O4 0.280704 0.611252 0.934123
O O5 0.541717 0.637210 0.987230
O O6 0.358472 0.714758 0.104872
O O7 0.457533 0.802725 0.198259
O O8 0.169686 0.354950 0.969749
O O9 0.135561 0.030322 0.058825
O O10 0.229681 0.134911 0.806348
O O11 0.193240 0.469179 0.744598
O O12 0.181129 0.159119 0.668539
O O13 0.578850 0.076049 0.135883
O O14 0.627261 0.173602 0.923135
O O15 0.632627 0.319963 0.737107
O O16 0.512313 0.926671 0.341663
#
# Coordination Sequence:
#
# PCOD9136480 Si02
#       8
#     4   4   4   4   4   4   4   4
#     4  11  21  42  67  92 129 175 210 264 332 381
#     4  10  21  41  67  89 132 171 211 269 322 384
#     4   9  20  43  65  89 136 171 206 273 328 373
#     4  11  23  42  65  94 133 172 213 269 325 383
#     4  10  22  43  67  92 132 178 208 273 334 376
#     4  11  23  41  66  96 130 168 219 268 317 390
#     4  11  23  44  64  96 133 166 218 273 319 389
#     4  11  21  40  65  90 135 163 217 273 309 384
#
# _framework density 23.897767000000002
#
# number of rings (size 3 to 8) (size 9 to 14) (size 15 to 20)
#    0.000    1.500    7.500    0.000    1.750    2.000 
#    2.250    8.750    0.000    0.000    0.000    0.000 
#    0.000    0.000    0.000    0.000    0.000    0.000 
#
# Total GULP energy -89249.682685 kJ/mol
# GULP energy per Si atom -5578.105168 kJ/mol
# Density = 2.384337 g / cm^3
# Si number density = 23.897767 Si / 1000 Ang^3
#
#
#
# Elastic Constant Matrix: (Units=GPa)
#
#
# Indices 1 2 3 4 5 6 
#
# 1 135.0994 25.6737 20.5977 -0.0001 0.3615 0.0001
# 2 25.6737 80.0401 2.0062 0.0001 5.5642 0.0001
# 3 20.5977 2.0062 45.9641 -0.0001 -4.7760 0.0001
# 4 -0.0001 0.0001 -0.0001 33.9423 0.0000 2.7364
# 5 0.3615 5.5642 -4.7760 0.0000 37.3680 -0.0001
# 6 0.0001 0.0001 0.0001 2.7364 -0.0001 9.5777
#
#
#
# Elastic Compliance Matrix: (Units=1/GPa)
#
#
# Indices 1 2 3 4 5 6 
#
# 1 0.008462 -0.002610 -0.003695 0.000000 -0.000166 0.000000
# 2 -0.002610 0.013456 0.000382 0.000000 -0.001930 0.000000
# 3 -0.003695 0.000382 0.023708 0.000000 0.003009 0.000000
# 4 0.000000 0.000000 0.000000 0.030156 0.000000 -0.008616
# 5 -0.000166 -0.001930 0.003009 0.000000 0.027434 0.000000
# 6 0.000000 0.000000 0.000000 -0.008616 0.000000 0.106870
#
#
# Mechanical properties :
#
#
# Convention : Reuss Voigt Hill
#
# Bulk Modulus (GPa) = 29.60469 39.73988 34.67228
# Shear Modulus (GPa) = 21.44148 30.36601 25.90374
#
# Velocity S-wave (km/s) = 2.99861 3.56850 3.29590
# Velocity P-wave (km/s) = 4.94002 5.80036 5.38739
#
# Compressibility (1/GPa) = 0.03377844
#
# Stress axis : x y z
#
# Youngs Moduli (GPa) = 118.17815 74.31896 42.17984
#
# Poissons Ratio (x) = 0.19398 0.15586
# Poissons Ratio (y) = 0.30846 -0.01611
# Poissons Ratio (z) = 0.43670 -0.02838
#
# Static dielectric constant tensor:
#      x y z
#    x 1.977490 0.000000 0.106190 
#    y 0.000000 1.961390 0.000000 
#    z 0.106190 0.000000 1.977670 
# 
# From -- ./inp_files/25673.got.cif
#   From: 2010.05.17/outbox.cif.g08.bks.cpg/sg9_13_cif.got.tgz:25673.got - 2010.06.03 20:04:27.
