data_PCOD9136144
_publ_section_title
;
Structure prediction by ZEFSAII (Michael W. Deem and Ramdas Pophale) SiO2 
 PCOD9136144
Probable space group: C C
;
_chemical_formula_sum "Si O2"
_cell_formula_units_Z 32
_cell_length_a 7.561449
_cell_length_b 13.476940
_cell_length_c 15.148993
_cell_angle_alpha 90.000000
_cell_angle_beta 52.252836
_cell_angle_gamma 90.000000
_cell_volume 1220.682568
_symmetry_space_group_name_H-M "C C"
_symmetry_group_IT_number 9
_symmetry_cell_setting 'monoclinic'
loop_
_space_group_symop_operation_xyz
x,y,z
x,-y,1/2+z
1/2+x,1/2+y,z
1/2+x,1/2-y,1/2+z
loop_
_atom_site_type_symbol
_atom_site_label
_atom_site_fract_x
_atom_site_fract_y
_atom_site_fract_z
Si Si1 0.783680 0.085348 0.724990
Si Si2 0.132130 0.310805 0.021770
Si Si3 0.201019 0.427907 0.609730
Si Si4 0.382605 0.229149 0.289754
Si Si5 0.753360 0.370074 0.270782
Si Si6 0.879268 0.012940 0.377094
Si Si7 0.773871 0.385704 0.993878
Si Si8 0.222251 0.889891 0.483053
O O1 0.726423 0.191258 0.787533
O O2 0.806592 0.010198 0.800358
O O3 0.027483 0.113087 0.610727
O O4 0.658262 0.020372 0.689272
O O5 0.968422 0.350683 0.147066
O O6 0.952194 0.321753 0.995410
O O7 0.332068 0.377514 0.924117
O O8 0.241664 0.211788 0.029299
O O9 0.236768 0.453073 0.495540
O O10 0.452843 0.400654 0.562492
O O11 0.025595 0.341680 0.681634
O O12 0.563290 0.296986 0.288557
O O13 0.272243 0.159531 0.397180
O O14 0.635488 0.477643 0.300001
O O15 0.784741 0.357749 0.364834
O O16 0.825481 0.504787 0.976814
#
# Coordination Sequence:
#
# PCOD9136144 Si02
#       8
#     4   4   4   4   4   4   4   4
#     4  10  22  39  65 102 136 171 239 289 334 420
#     4  12  21  41  68  94 133 186 220 287 355 403
#     4  10  21  41  62  95 133 176 231 287 329 422
#     4  11  20  37  69  93 129 180 228 280 352 404
#     4  10  21  39  63  96 127 172 231 275 340 420
#     4  10  23  38  67  96 139 177 231 288 353 411
#     4  11  22  37  66 102 131 173 236 287 336 422
#     4  10  22  38  64  96 126 171 232 277 337 412
#
# _framework density 26.214839000000001
#
# number of rings (size 3 to 8) (size 9 to 14) (size 15 to 20)
#    0.000    1.500    5.000    0.750    5.250    0.000 
#    0.000    1.250   13.750    0.000    0.000    0.000 
#    0.000    0.000    0.000    0.000    0.000    0.000 
#
# Total GULP energy -89452.200077 kJ/mol
# GULP energy per Si atom -5590.762505 kJ/mol
# Density = 2.615517 g / cm^3
# Si number density = 26.214839 Si / 1000 Ang^3
#
#
#
# Elastic Constant Matrix: (Units=GPa)
#
#
# Indices 1 2 3 4 5 6 
#
# 1 48.7515 27.8272 7.9901 0.0000 -10.9182 0.0000
# 2 27.8272 152.1766 46.3677 0.0000 -10.6882 0.0000
# 3 7.9901 46.3677 125.4676 0.0001 12.2176 0.0000
# 4 0.0000 0.0000 0.0001 -4.3686 0.0000 0.9284
# 5 -10.9182 -10.6882 12.2176 0.0000 24.2890 0.0000
# 6 0.0000 0.0000 0.0000 0.9284 0.0000 22.0417
#
#
#
# Elastic Compliance Matrix: (Units=1/GPa)
#
#
# Indices 1 2 3 4 5 6 
#
# 1 0.025025 -0.003438 -0.001337 0.000000 0.010409 0.000000
# 2 -0.003438 0.008470 -0.003285 0.000000 0.003834 0.000000
# 3 -0.001337 -0.003285 0.009956 0.000000 -0.007054 0.000000
# 4 0.000000 0.000000 0.000000 -0.226876 0.000000 0.009556
# 5 0.010409 0.003834 -0.007054 0.000000 0.051085 0.000000
# 6 0.000000 0.000000 0.000000 0.009556 0.000000 0.044966
#
#
# Mechanical properties :
#
#
# Convention : Reuss Voigt Hill
#
# Bulk Modulus (GPa) = 36.58632 54.52952 45.55792
# Shear Modulus (GPa) = -80.45732 24.67313 -27.89210
#
# Velocity S-wave (km/s) = -5.54600 3.07121 -3.26541
# Velocity P-wave (km/s) = 5.19848 5.78123 1.78863
#
# Compressibility (1/GPa) = 0.02733262
#
# Stress axis : x y z
#
# Youngs Moduli (GPa) = 39.96074 118.06331 100.44099
#
# Poissons Ratio (x) = 0.40586 0.13426
# Poissons Ratio (y) = 0.13737 0.32991
# Poissons Ratio (z) = 0.05342 0.38779
#
# Static dielectric constant tensor:
#      x y z
#    x 2.113390 0.000000 -0.042760 
#    y 0.000000 2.204360 0.000000 
#    z -0.042760 0.000000 2.047430 
# 
# From -- ./inp_files/16278.got.cif
#   From: 2010.05.17/outbox.cif.g08.bks.cpg/sg9_9_cif.got.tgz:16278.got - 2010.06.03 20:04:27.
