data_PCOD9136054
_publ_section_title
;
Structure prediction by ZEFSAII (Michael W. Deem and Ramdas Pophale) SiO2 
 PCOD9136054
Probable space group: C C
;
_chemical_formula_sum "Si O2"
_cell_formula_units_Z 32
_cell_length_a 11.972049
_cell_length_b 7.204939
_cell_length_c 17.642285
_cell_angle_alpha 90.000000
_cell_angle_beta 125.183968
_cell_angle_gamma 90.000000
_cell_volume 1243.765193
_symmetry_space_group_name_H-M "C C"
_symmetry_group_IT_number 9
_symmetry_cell_setting 'monoclinic'
loop_
_space_group_symop_operation_xyz
x,y,z
x,-y,1/2+z
1/2+x,1/2+y,z
1/2+x,1/2-y,1/2+z
loop_
_atom_site_type_symbol
_atom_site_label
_atom_site_fract_x
_atom_site_fract_y
_atom_site_fract_z
Si Si1 0.680670 0.913192 0.977740
Si Si2 0.620427 0.006896 0.686579
Si Si3 0.940260 0.341165 0.354394
Si Si4 0.684158 0.713735 0.833676
Si Si5 0.585616 0.330822 0.058161
Si Si6 0.911186 0.948484 0.285765
Si Si7 0.964453 0.198865 0.976581
Si Si8 0.846630 0.729309 0.572462
O O1 0.557116 0.012985 0.881460
O O2 0.735991 0.762621 0.939390
O O3 0.788746 0.059275 0.052539
O O4 0.592815 0.828688 0.011097
O O5 0.756647 0.102322 0.707038
O O6 0.495060 0.146334 0.649124
O O7 0.671623 0.906755 0.783350
O O8 0.583391 0.826658 0.620786
O O9 0.791298 0.404578 0.324945
O O10 0.922160 0.172750 0.289397
O O11 0.004488 0.249710 0.454697
O O12 0.535051 0.626743 0.784589
O O13 0.515512 0.526269 0.047062
O O14 0.736195 0.371288 0.082486
O O15 0.930847 0.874112 0.379693
O O16 0.846936 0.296811 0.980137
#
# Coordination Sequence:
#
# PCOD9136054 Si02
#       8
#     4   4   4   4   4   4   4   4
#     4  10  21  38  65  98 121 159 220 263 312 386
#     4  11  24  40  58  95 135 165 210 259 324 395
#     4   9  19  38  64  91 118 156 212 260 302 370
#     4  10  22  43  66  87 126 169 205 262 318 372
#     4  10  23  39  60  93 126 161 210 262 314 380
#     4   9  21  42  64  90 124 164 212 258 311 385
#     4  10  22  42  67  91 120 165 223 265 307 381
#     4  11  22  38  64  91 128 167 200 265 324 367
#
# _framework density 25.728328999999999
#
# number of rings (size 3 to 8) (size 9 to 14) (size 15 to 20)
#    0.000    2.000    0.000    3.750    0.000   13.000 
#    0.000    6.250    0.000    0.000    0.000    0.000 
#    0.000    0.000    0.000    0.000    0.000    0.000 
#
# Total GULP energy -89366.245207 kJ/mol
# GULP energy per Si atom -5585.390325 kJ/mol
# Density = 2.566977 g / cm^3
# Si number density = 25.728329 Si / 1000 Ang^3
#
#
#
# Elastic Constant Matrix: (Units=GPa)
#
#
# Indices 1 2 3 4 5 6 
#
# 1 147.5883 34.2966 24.9135 0.0000 34.8182 0.0000
# 2 34.2966 77.0173 17.2403 0.0000 17.3900 0.0000
# 3 24.9135 17.2403 71.4351 0.0000 24.9814 0.0000
# 4 0.0000 0.0000 0.0000 33.9492 0.0000 1.7591
# 5 34.8182 17.3900 24.9814 0.0000 48.4425 0.0000
# 6 0.0000 0.0000 0.0000 1.7591 0.0000 46.2884
#
#
#
# Elastic Compliance Matrix: (Units=1/GPa)
#
#
# Indices 1 2 3 4 5 6 
#
# 1 0.008657 -0.002589 -0.000663 0.000000 -0.004951 0.000000
# 2 -0.002589 0.015141 -0.001831 0.000000 -0.002630 0.000000
# 3 -0.000663 -0.001831 0.017416 0.000000 -0.007847 0.000000
# 4 0.000000 0.000000 0.000000 0.029514 0.000000 -0.001122
# 5 -0.004951 -0.002630 -0.007847 0.000000 0.029193 0.000000
# 6 0.000000 0.000000 0.000000 -0.001122 0.000000 0.021646
#
#
# Mechanical properties :
#
#
# Convention : Reuss Voigt Hill
#
# Bulk Modulus (GPa) = 32.20860 49.88238 41.04549
# Shear Modulus (GPa) = 35.19077 40.37538 37.78308
#
# Velocity S-wave (km/s) = 3.70237 3.96573 3.83631
# Velocity P-wave (km/s) = 5.55181 6.35607 5.96750
#
# Compressibility (1/GPa) = 0.03104761
#
# Stress axis : x y z
#
# Youngs Moduli (GPa) = 115.51153 66.04698 57.41763
#
# Poissons Ratio (x) = 0.17098 0.03807
# Poissons Ratio (y) = 0.29903 0.10516
# Poissons Ratio (z) = 0.07659 0.12096
#
# Static dielectric constant tensor:
#      x y z
#    x 2.064200 0.000000 0.029360 
#    y 0.000000 2.091100 0.000000 
#    z 0.029360 0.000000 2.057150 
# 
# From -- ./inp_files/33066.got.cif
#   From: 2010.05.17/outbox.cif.g08.bks.cpg/sg9_17_cif.got.tgz:33066.got - 2010.06.03 20:04:27.
