data_PCOD9136366
_publ_section_title
;
Structure prediction by ZEFSAII (Michael W. Deem and Ramdas Pophale) SiO2 
 PCOD9136366
Probable space group: C C
;
_chemical_formula_sum "Si O2"
_cell_formula_units_Z 32
_cell_length_a 7.639075
_cell_length_b 12.107588
_cell_length_c 13.454232
_cell_angle_alpha 90.000000
_cell_angle_beta 65.298692
_cell_angle_gamma 90.000000
_cell_volume 1130.528723
_symmetry_space_group_name_H-M "C C"
_symmetry_group_IT_number 9
_symmetry_cell_setting 'monoclinic'
loop_
_space_group_symop_operation_xyz
x,y,z
x,-y,1/2+z
1/2+x,1/2+y,z
1/2+x,1/2-y,1/2+z
loop_
_atom_site_type_symbol
_atom_site_label
_atom_site_fract_x
_atom_site_fract_y
_atom_site_fract_z
Si Si1 0.290620 0.700551 0.619440
Si Si2 0.238228 0.239492 0.489957
Si Si3 0.155855 0.708973 0.204308
Si Si4 0.437868 0.970794 0.643039
Si Si5 0.841243 0.033693 0.465918
Si Si6 0.882274 0.899494 0.282352
Si Si7 0.900689 0.686921 0.788808
Si Si8 0.738511 0.518536 0.987659
O O1 0.505568 0.748923 0.561552
O O2 0.281857 0.656738 0.510346
O O3 0.296611 0.591828 0.693086
O O4 0.105677 0.748870 0.719058
O O5 0.312730 0.289390 0.577384
O O6 0.288296 0.310318 0.381239
O O7 0.300469 0.111540 0.465499
O O8 0.994048 0.617425 0.217206
O O9 0.245051 0.721711 0.291825
O O10 0.072198 0.832672 0.215146
O O11 0.637459 0.976420 0.534576
O O12 0.275882 0.952246 0.595492
O O13 0.408505 0.086815 0.705571
O O14 0.900633 0.008354 0.340281
O O15 0.025707 0.993586 0.487481
O O16 0.850411 0.613651 0.898107
#
# Coordination Sequence:
#
# PCOD9136366 Si02
#       8
#     4   4   4   4   4   4   4   4
#     4   9  23  40  67 101 142 184 240 298 367 448
#     4  10  21  41  68  98 139 188 232 301 372 429
#     4  11  22  40  66 100 141 184 239 302 359 434
#     4  11  23  42  67  98 144 183 236 305 366 434
#     4  10  21  40  68  99 136 185 234 291 359 439
#     4  11  20  42  68  96 142 179 234 305 363 428
#     4  11  22  42  68 101 141 189 246 299 369 453
#     4  11  22  41  72 101 131 194 243 283 381 443
#
# _framework density 28.305339
#
# number of rings (size 3 to 8) (size 9 to 14) (size 15 to 20)
#    0.000    1.500    3.750    1.500    0.000    0.000 
#    4.500    1.250   11.000    0.000    0.000    0.000 
#    0.000    0.000    0.000    0.000    0.000    0.000 
#
# Total GULP energy -89074.764757 kJ/mol
# GULP energy per Si atom -5567.172797 kJ/mol
# Density = 2.824091 g / cm^3
# Si number density = 28.305339 Si / 1000 Ang^3
#
#
#
# Elastic Constant Matrix: (Units=GPa)
#
#
# Indices 1 2 3 4 5 6 
#
# 1 85.8086 24.5720 24.2725 0.0000 13.5301 0.0000
# 2 24.5720 125.2458 50.1854 0.0000 7.6692 0.0000
# 3 24.2725 50.1854 135.5341 0.0000 14.4513 0.0000
# 4 0.0000 0.0000 0.0000 47.6708 0.0000 7.9062
# 5 13.5301 7.6692 14.4513 0.0000 41.6015 0.0000
# 6 0.0000 0.0000 0.0000 7.9062 0.0000 44.9849
#
#
#
# Elastic Compliance Matrix: (Units=1/GPa)
#
#
# Indices 1 2 3 4 5 6 
#
# 1 0.013093 -0.001838 -0.001294 0.000000 -0.003470 0.000000
# 2 -0.001838 0.009645 -0.003236 0.000000 -0.000056 0.000000
# 3 -0.001294 -0.003236 0.009034 0.000000 -0.002121 0.000000
# 4 0.000000 0.000000 0.000000 0.021607 0.000000 -0.003797
# 5 -0.003470 -0.000056 -0.002121 0.000000 0.025913 0.000000
# 6 0.000000 0.000000 0.000000 -0.003797 0.000000 0.022897
#
#
# Mechanical properties :
#
#
# Convention : Reuss Voigt Hill
#
# Bulk Modulus (GPa) = 52.53151 60.51645 56.52398
# Shear Modulus (GPa) = 41.22956 43.35534 42.29245
#
# Velocity S-wave (km/s) = 3.82068 3.91794 3.86962
# Velocity P-wave (km/s) = 6.16949 6.47250 6.32281
#
# Compressibility (1/GPa) = 0.01903619
#
# Stress axis : x y z
#
# Youngs Moduli (GPa) = 76.37465 103.68040 110.68702
#
# Poissons Ratio (x) = 0.19053 0.14328
# Poissons Ratio (y) = 0.14035 0.35821
# Poissons Ratio (z) = 0.09886 0.33554
#
# Static dielectric constant tensor:
#      x y z
#    x 2.447010 0.000000 0.085030 
#    y 0.000000 2.447600 0.000000 
#    z 0.085030 0.000000 2.200430 
# 
# From -- ./inp_files/14747.got.cif
#   From: 2010.05.17/outbox.cif.g08.bks.cpg/sg9_8_cif.got.tgz:14747.got - 2010.06.03 20:04:27.
