data_PCOD9136189
_publ_section_title
;
Structure prediction by ZEFSAII (Michael W. Deem and Ramdas Pophale) SiO2 
 PCOD9136189
Probable space group: C C
;
_chemical_formula_sum "Si O2"
_cell_formula_units_Z 28
_cell_length_a 19.937153
_cell_length_b 7.665030
_cell_length_c 10.789054
_cell_angle_alpha 90.000000
_cell_angle_beta 39.874959
_cell_angle_gamma 90.000000
_cell_volume 1057.050703
_symmetry_space_group_name_H-M "C C"
_symmetry_group_IT_number 9
_symmetry_cell_setting 'monoclinic'
loop_
_space_group_symop_operation_xyz
x,y,z
x,-y,1/2+z
1/2+x,1/2+y,z
1/2+x,1/2-y,1/2+z
loop_
_atom_site_type_symbol
_atom_site_label
_atom_site_fract_x
_atom_site_fract_y
_atom_site_fract_z
Si Si1 0.933440 0.478464 0.058900
Si Si2 0.502063 0.536296 0.122624
Si Si3 0.043070 0.327157 0.568102
Si Si4 0.234835 0.109048 0.696516
Si Si5 0.660417 0.905690 0.623081
Si Si6 0.909849 0.123323 0.511391
Si Si7 0.220294 0.271274 0.137823
O O1 0.831117 0.380916 0.156069
O O2 0.977370 0.497551 0.138090
O O3 0.907921 0.682465 0.072825
O O4 0.038394 0.417497 0.840638
O O5 0.479091 0.338524 0.201389
O O6 0.472025 0.634971 0.291721
O O7 0.623249 0.580485 0.923232
O O8 0.446890 0.518770 0.062945
O O9 0.142075 0.330832 0.515885
O O10 0.102603 0.273008 0.356918
O O11 0.220044 0.272252 0.626973
O O12 0.252188 0.929974 0.591037
O O13 0.711345 0.096793 0.536251
O O14 0.793269 0.112452 0.623302
#
# Coordination Sequence:
#
# PCOD9136189 Si02
#       7
#     4   4   4   4   4   4   4
#     4   9  22  45  63  98 141 185 225 295 356 415
#     4  10  21  39  67 103 138 186 232 289 345 423
#     4   9  20  40  66  94 134 183 228 290 352 409
#     4  10  22  44  67  97 141 178 233 285 355 416
#     4  11  22  40  72  98 130 180 241 283 344 424
#     4  10  21  40  69 101 146 184 231 289 356 416
#     4   9  22  42  64  97 140 178 224 285 356 411
#
# _framework density 26.488795
#
# number of rings (size 3 to 8) (size 9 to 14) (size 15 to 20)
#    0.000    2.286    0.000    1.714    2.000    4.571 
#   10.286    2.857    9.429    0.000    0.000    0.000 
#    0.000    0.000    0.000    0.000    0.000    0.000 
#
# Total GULP energy -77963.369902 kJ/mol
# GULP energy per Si atom -5568.812136 kJ/mol
# Density = 2.642851 g / cm^3
# Si number density = 26.488795 Si / 1000 Ang^3
#
#
#
# Elastic Constant Matrix: (Units=GPa)
#
#
# Indices 1 2 3 4 5 6 
#
# 1 99.6694 45.9458 19.4112 0.0000 -17.3690 0.0000
# 2 45.9458 69.6447 25.6259 -0.0001 13.4900 0.0000
# 3 19.4112 25.6259 79.0429 0.0000 -10.6705 0.0000
# 4 0.0000 -0.0001 0.0000 21.6594 0.0000 -12.2300
# 5 -17.3690 13.4900 -10.6705 0.0000 39.4229 0.0000
# 6 0.0000 0.0000 0.0000 -12.2300 0.0000 40.4405
#
#
#
# Elastic Compliance Matrix: (Units=1/GPa)
#
#
# Indices 1 2 3 4 5 6 
#
# 1 0.020233 -0.017396 0.002780 0.000000 0.015620 0.000000
# 2 -0.017396 0.033554 -0.009539 0.000000 -0.021728 0.000000
# 3 0.002780 -0.009539 0.016262 0.000000 0.008890 0.000000
# 4 0.000000 0.000000 0.000000 0.055677 0.000000 0.016838
# 5 0.015620 -0.021728 0.008890 0.000000 0.042089 0.000000
# 6 0.000000 0.000000 0.000000 0.016838 0.000000 0.029820
#
#
# Mechanical properties :
#
#
# Convention : Reuss Voigt Hill
#
# Bulk Modulus (GPa) = 46.00520 47.81362 46.90941
# Shear Modulus (GPa) = 19.74786 30.79618 25.27202
#
# Velocity S-wave (km/s) = 2.73338 3.41341 3.09214
# Velocity P-wave (km/s) = 5.23138 5.79869 5.52233
#
# Compressibility (1/GPa) = 0.02173668
#
# Stress axis : x y z
#
# Youngs Moduli (GPa) = 49.42376 29.80268 61.49468
#
# Poissons Ratio (x) = 0.51846 -0.17094
# Poissons Ratio (y) = 0.85980 0.58662
# Poissons Ratio (z) = -0.13738 0.28430
#
# Static dielectric constant tensor:
#      x y z
#    x 2.401130 0.000000 0.101430 
#    y 0.000000 1.611500 0.000000 
#    z 0.101430 0.000000 2.279430 
# 
# From -- ./inp_files/19993.got.cif
#   From: 2010.05.17/outbox.cif.g08.bks.cpg/sg9_10_cif.got.tgz:19993.got - 2010.06.03 20:04:27.
