data_PCOD9136628
_publ_section_title
;
Structure prediction by ZEFSAII (Michael W. Deem and Ramdas Pophale) SiO2 
 PCOD9136628
Probable space group: C C
;
_chemical_formula_sum "Si O2"
_cell_formula_units_Z 32
_cell_length_a 20.530504
_cell_length_b 11.404130
_cell_length_c 7.427351
_cell_angle_alpha 90.000000
_cell_angle_beta 128.173826
_cell_angle_gamma 90.000000
_cell_volume 1367.084105
_symmetry_space_group_name_H-M "C C"
_symmetry_group_IT_number 9
_symmetry_cell_setting 'monoclinic'
loop_
_space_group_symop_operation_xyz
x,y,z
x,-y,1/2+z
1/2+x,1/2+y,z
1/2+x,1/2-y,1/2+z
loop_
_atom_site_type_symbol
_atom_site_label
_atom_site_fract_x
_atom_site_fract_y
_atom_site_fract_z
Si Si1 0.612040 0.196941 0.117810
Si Si2 0.005670 0.910322 0.846029
Si Si3 0.076106 0.485836 0.873294
Si Si4 0.293627 0.717483 0.564948
Si Si5 0.353201 0.335621 0.809136
Si Si6 0.552885 0.661517 0.030145
Si Si7 0.427585 0.148987 0.152932
Si Si8 0.707682 0.824587 0.286632
O O1 0.584009 0.100372 0.216001
O O2 0.705189 0.231717 0.319572
O O3 0.560792 0.314235 0.041931
O O4 0.596235 0.123768 0.907140
O O5 0.009717 0.863948 0.648742
O O6 0.919399 0.906237 0.806035
O O7 0.046021 0.038052 0.917563
O O8 0.978488 0.470365 0.749033
O O9 0.146104 0.429624 0.123797
O O10 0.339494 0.631616 0.497699
O O11 0.350373 0.833158 0.654775
O O12 0.272237 0.681720 0.729085
O O13 0.266428 0.340264 0.558061
O O14 0.389585 0.202800 0.902828
O O15 0.646817 0.711479 0.196273
O O16 0.497578 0.758811 0.837605
#
# Coordination Sequence:
#
# PCOD9136628 Si02
#       8
#     4   4   4   4   4   4   4   4
#     4  11  23  41  66  98 131 182 229 285 346 425
#     4  12  25  43  70 100 142 185 246 287 356 429
#     4  10  23  40  68  95 136 177 224 287 348 421
#     4   9  21  39  71  93 141 171 232 292 347 416
#     4  10  21  42  69 101 139 173 233 298 346 423
#     4  11  25  42  72 101 140 190 235 296 360 423
#     4   9  20  43  66  98 135 175 228 285 354 411
#     4  10  22  44  68 102 136 181 235 288 361 420
#
# _framework density 23.407485999999999
#
# number of rings (size 3 to 8) (size 9 to 14) (size 15 to 20)
#    0.750    1.000    1.250    2.250    8.750    1.000 
#    2.250    1.250    2.750    0.000    0.000    0.000 
#    0.000    0.000    0.000    0.000    0.000    0.000 
#
# Total GULP energy -89252.425765 kJ/mol
# GULP energy per Si atom -5578.276610 kJ/mol
# Density = 2.335421 g / cm^3
# Si number density = 23.407486 Si / 1000 Ang^3
#
#
#
# Elastic Constant Matrix: (Units=GPa)
#
#
# Indices 1 2 3 4 5 6 
#
# 1 122.6819 22.3180 20.2424 0.0000 -6.2219 0.0000
# 2 22.3180 56.7043 27.2869 0.0000 27.2739 0.0000
# 3 20.2424 27.2869 62.2810 0.0000 -4.2703 0.0000
# 4 0.0000 0.0000 0.0000 26.6385 0.0000 2.7581
# 5 -6.2219 27.2739 -4.2703 0.0000 46.8147 0.0000
# 6 0.0000 0.0000 0.0000 2.7581 0.0000 19.3867
#
#
#
# Elastic Compliance Matrix: (Units=1/GPa)
#
#
# Indices 1 2 3 4 5 6 
#
# 1 0.009492 -0.005904 -0.000177 0.000000 0.004685 0.000000
# 2 -0.005904 0.041422 -0.018050 0.000000 -0.026563 0.000000
# 3 -0.000177 -0.018050 0.024897 0.000000 0.012763 0.000000
# 4 0.000000 0.000000 0.000000 0.038101 0.000000 -0.005421
# 5 0.004685 -0.026563 0.012763 0.000000 0.038623 0.000000
# 6 0.000000 0.000000 0.000000 -0.005421 0.000000 0.052353
#
#
# Mechanical properties :
#
#
# Convention : Reuss Voigt Hill
#
# Bulk Modulus (GPa) = 36.30040 42.37353 39.33697
# Shear Modulus (GPa) = 19.05970 30.02264 24.54117
#
# Velocity S-wave (km/s) = 2.85661 3.58524 3.24146
# Velocity P-wave (km/s) = 5.14024 5.93973 5.55439
#
# Compressibility (1/GPa) = 0.02754790
#
# Stress axis : x y z
#
# Youngs Moduli (GPa) = 105.35118 24.14196 40.16511
#
# Poissons Ratio (x) = 0.14254 0.00711
# Poissons Ratio (y) = 0.62202 0.72499
# Poissons Ratio (z) = 0.01865 0.43577
#
# Static dielectric constant tensor:
#      x y z
#    x 2.055480 0.000000 -0.105190 
#    y 0.000000 1.894750 0.000000 
#    z -0.105190 0.000000 1.923280 
# 
# From -- ./inp_files/12147.got.cif
#   From: 2010.05.17/outbox.cif.g08.bks.cpg/sg9_7_cif.got.tgz:12147.got - 2010.06.03 20:04:27.
