data_PCOD9136015
_publ_section_title
;
Structure prediction by ZEFSAII (Michael W. Deem and Ramdas Pophale) SiO2 
 PCOD9136015
Probable space group: C C
;
_chemical_formula_sum "Si O2"
_cell_formula_units_Z 24
_cell_length_a 19.459859
_cell_length_b 5.077159
_cell_length_c 27.178904
_cell_angle_alpha 90.000000
_cell_angle_beta 155.620937
_cell_angle_gamma 90.000000
_cell_volume 1108.414564
_symmetry_space_group_name_H-M "C C"
_symmetry_group_IT_number 9
_symmetry_cell_setting 'monoclinic'
loop_
_space_group_symop_operation_xyz
x,y,z
x,-y,1/2+z
1/2+x,1/2+y,z
1/2+x,1/2-y,1/2+z
loop_
_atom_site_type_symbol
_atom_site_label
_atom_site_fract_x
_atom_site_fract_y
_atom_site_fract_z
Si Si1 0.858540 0.650346 0.678040
Si Si2 0.599076 0.458193 0.780505
Si Si3 0.450096 0.226742 0.101314
Si Si4 0.243050 0.343237 0.151324
Si Si5 0.447190 0.271611 0.532550
Si Si6 0.585913 0.210541 0.373706
O O1 0.761258 0.377513 0.620459
O O2 0.941038 0.759881 0.682300
O O3 0.024814 0.583779 0.819752
O O4 0.744302 0.871868 0.627832
O O5 0.585268 0.658345 0.726574
O O6 0.588680 0.632077 0.823472
O O7 0.770244 0.300125 0.893131
O O8 0.444124 0.435213 0.052287
O O9 0.473165 0.938910 0.093804
O O10 0.272038 0.257568 0.012791
O O11 0.424534 0.319823 0.296816
O O12 0.094062 0.275334 0.089735
#
# Coordination Sequence:
#
# PCOD9136015 Si02
#       6
#     4   4   4   4   4   4
#     4   9  17  35  60  79 104 154 188 234 280 329
#     4  10  21  38  62  86 118 147 204 238 284 351
#     4  11  23  35  63  86 115 155 195 236 294 344
#     4   9  18  34  61  75 116 150 185 232 296 332
#     4  11  22  38  57  88 120 155 183 244 297 347
#     4   8  19  38  59  82 107 153 191 238 279 331
#
# _framework density 21.652550000000002
#
# number of rings (size 3 to 8) (size 9 to 14) (size 15 to 20)
#    1.000    1.333    1.667    1.000    2.333    0.000 
#    0.000    3.333    7.333    0.000    0.000    0.000 
#    0.000    0.000    0.000    0.000    0.000    0.000 
#
# Total GULP energy -66873.389898 kJ/mol
# GULP energy per Si atom -5572.782491 kJ/mol
# Density = 2.160327 g / cm^3
# Si number density = 21.652550 Si / 1000 Ang^3
#
#
#
# Elastic Constant Matrix: (Units=GPa)
#
#
# Indices 1 2 3 4 5 6 
#
# 1 106.5146 16.0953 33.2735 0.0003 35.9933 0.0075
# 2 16.0953 101.1718 -6.5138 -0.0088 2.4469 -0.0137
# 3 33.2735 -6.5138 36.9607 0.0074 9.2435 0.0138
# 4 0.0003 -0.0088 0.0074 22.5105 0.0013 -2.4912
# 5 35.9933 2.4469 9.2435 0.0013 35.0480 0.0035
# 6 0.0075 -0.0137 0.0138 -2.4912 0.0035 28.7995
#
#
#
# Elastic Compliance Matrix: (Units=1/GPa)
#
#
# Indices 1 2 3 4 5 6 
#
# 1 0.020111 -0.003741 -0.014629 0.000004 -0.016534 0.000002
# 2 -0.003741 0.010745 0.004805 0.000003 0.001825 0.000004
# 3 -0.014629 0.004805 0.040040 -0.000013 0.004128 -0.000015
# 4 0.000004 0.000003 -0.000013 0.044853 -0.000003 0.003880
# 5 -0.016534 0.001825 0.004128 -0.000003 0.044296 -0.000002
# 6 0.000002 0.000004 -0.000015 0.003880 -0.000002 0.035058
#
#
# Mechanical properties :
#
#
# Convention : Reuss Voigt Hill
#
# Bulk Modulus (GPa) = 22.84913 36.70634 29.77774
# Shear Modulus (GPa) = 21.11304 30.72440 25.91872
#
# Velocity S-wave (km/s) = 3.12602 3.77101 3.46356
# Velocity P-wave (km/s) = 4.85848 5.99583 5.45687
#
# Compressibility (1/GPa) = 0.04376534
#
# Stress axis : x y z
#
# Youngs Moduli (GPa) = 49.72509 93.06977 24.97516
#
# Poissons Ratio (x) = 0.34820 0.36536
# Poissons Ratio (y) = 0.18604 -0.12001
# Poissons Ratio (z) = 0.72742 -0.44723
#
# Static dielectric constant tensor:
#      x y z
#    x 1.756440 0.000000 -0.013400 
#    y 0.000000 1.830050 0.000000 
#    z -0.013400 0.000000 1.880430 
# 
# From -- ./inp_files/18741.got.cif
#   From: 2010.05.17/outbox.cif.g08.bks.cpg/sg9_10_cif.got.tgz:18741.got - 2010.06.03 20:04:27.
