data_PCOD9136948
_publ_section_title
;
Structure prediction by ZEFSAII (Michael W. Deem and Ramdas Pophale) SiO2 
 PCOD9136948
Probable space group: C C
;
_chemical_formula_sum "Si O2"
_cell_formula_units_Z 28
_cell_length_a 10.553358
_cell_length_b 9.672126
_cell_length_c 22.522212
_cell_angle_alpha 90.000000
_cell_angle_beta 150.128986
_cell_angle_gamma 90.000000
_cell_volume 1144.974537
_symmetry_space_group_name_H-M "C C"
_symmetry_group_IT_number 9
_symmetry_cell_setting 'monoclinic'
loop_
_space_group_symop_operation_xyz
x,y,z
x,-y,1/2+z
1/2+x,1/2+y,z
1/2+x,1/2-y,1/2+z
loop_
_atom_site_type_symbol
_atom_site_label
_atom_site_fract_x
_atom_site_fract_y
_atom_site_fract_z
Si Si1 0.646720 0.139124 0.171320
Si Si2 0.947491 0.054058 0.970761
Si Si3 0.478628 0.146992 0.856220
Si Si4 0.048041 0.959917 0.630172
Si Si5 0.345068 0.239275 0.929932
Si Si6 0.245719 0.327863 0.198276
Si Si7 0.221943 0.300721 0.051658
O O1 0.472160 0.206542 0.150741
O O2 0.908485 0.217716 0.288835
O O3 0.677446 0.978118 0.194293
O O4 0.509200 0.188625 0.054111
O O5 0.160354 0.025438 0.108066
O O6 0.011886 0.179720 0.952803
O O7 0.747525 0.106338 0.938757
O O8 0.865318 0.901682 0.920394
O O9 0.460825 0.169781 0.918775
O O10 0.271062 0.030672 0.759081
O O11 0.079156 0.796938 0.657631
O O12 0.810513 0.065221 0.550182
O O13 0.049073 0.203152 0.822707
O O14 0.171722 0.342449 0.098448
#
# Coordination Sequence:
#
# PCOD9136948 Si02
#       7
#     4   4   4   4   4   4   4
#     4  11  26  48  71 111 149 184 251 306 355 446
#     4  11  24  43  79 101 143 201 236 301 379 421
#     4  11  24  46  73 106 147 189 247 296 358 440
#     4  10  21  46  72 100 144 188 239 301 349 441
#     4  12  24  43  78 108 147 195 244 299 376 431
#     4  11  24  44  76 106 145 193 242 299 375 426
#     4  10  23  48  69 104 147 180 247 304 350 441
#
# _framework density 24.454692999999999
#
# number of rings (size 3 to 8) (size 9 to 14) (size 15 to 20)
#    0.000    1.143    7.143    0.000    2.000    5.714 
#    0.000    1.429    0.000    0.000    0.000    0.000 
#    0.000    0.000    0.000    0.000    0.000    0.000 
#
# Total GULP energy -78020.094421 kJ/mol
# GULP energy per Si atom -5572.863887 kJ/mol
# Density = 2.439903 g / cm^3
# Si number density = 24.454693 Si / 1000 Ang^3
#
#
#
# Elastic Constant Matrix: (Units=GPa)
#
#
# Indices 1 2 3 4 5 6 
#
# 1 83.1255 52.7746 15.5667 -0.0114 7.1887 -0.0072
# 2 52.7746 238.7538 22.1541 -0.0102 18.4374 -0.0064
# 3 15.5667 22.1541 33.6436 -0.0205 -11.6695 -0.0133
# 4 -0.0114 -0.0102 -0.0205-2442.3010 -0.0090-1558.6206
# 5 7.1887 18.4374 -11.6695 -0.0090 20.3574 -0.0058
# 6 -0.0072 -0.0064 -0.0133-1558.6206 -0.0058 -930.4862
#
#
#
# Elastic Compliance Matrix: (Units=1/GPa)
#
#
# Indices 1 2 3 4 5 6 
#
# 1 0.015757 -0.001933 -0.009163 0.000000 -0.009066 0.000000
# 2 -0.001933 0.005722 -0.005535 0.000000 -0.007672 0.000000
# 3 -0.009163 -0.005535 0.050511 -0.000001 0.037203 0.000000
# 4 0.000000 0.000000 -0.000001 0.005935 -0.000001 -0.009942
# 5 -0.009066 -0.007672 0.037203 -0.000001 0.080598 0.000000
# 6 0.000000 0.000000 0.000000 -0.009942 0.000000 0.015579
#
#
# Mechanical properties :
#
#
# Convention : Reuss Voigt Hill
#
# Bulk Modulus (GPa) = 25.81962 59.61262 42.71612
# Shear Modulus (GPa) = 22.69921 -652.81746 -315.05912
#
# Velocity S-wave (km/s) = 3.04997 -16.35632 -11.36281
# Velocity P-wave (km/s) = 4.79418 18.22844 12.43567
#
# Compressibility (1/GPa) = 0.03873024
#
# Stress axis : x y z
#
# Youngs Moduli (GPa) = 63.46431 174.77547 19.79749
#
# Poissons Ratio (x) = 0.33777 0.18140
# Poissons Ratio (y) = 0.12265 0.10957
# Poissons Ratio (z) = 0.58150 0.96731
#
# Static dielectric constant tensor:
#      x y z
#    x 1.914310 0.000010 -0.010860 
#    y 0.000010 18.151270 0.000000 
#    z -0.010860 0.000000 2.314790 
# 
# From -- ./inp_files/20838.got.cif
#   From: 2010.05.17/outbox.cif.g08.bks.cpg/sg9_11_cif.got.tgz:20838.got - 2010.06.03 20:04:27.
