data_PCOD9136463
_publ_section_title
;
Structure prediction by ZEFSAII (Michael W. Deem and Ramdas Pophale) SiO2 
 PCOD9136463
Probable space group: C C
;
_chemical_formula_sum "Si O2"
_cell_formula_units_Z 28
_cell_length_a 19.055616
_cell_length_b 7.478550
_cell_length_c 10.382638
_cell_angle_alpha 90.000000
_cell_angle_beta 135.464357
_cell_angle_gamma 90.000000
_cell_volume 1037.730693
_symmetry_space_group_name_H-M "C C"
_symmetry_group_IT_number 9
_symmetry_cell_setting 'monoclinic'
loop_
_space_group_symop_operation_xyz
x,y,z
x,-y,1/2+z
1/2+x,1/2+y,z
1/2+x,1/2-y,1/2+z
loop_
_atom_site_type_symbol
_atom_site_label
_atom_site_fract_x
_atom_site_fract_y
_atom_site_fract_z
Si Si1 0.722480 0.141242 0.048840
Si Si2 0.403915 0.117018 0.212399
Si Si3 0.044473 0.088482 0.350902
Si Si4 0.190366 0.746831 0.493680
Si Si5 0.499148 0.590638 0.023774
Si Si6 0.232315 0.827847 0.810260
Si Si7 0.874094 0.356228 0.389667
O O1 0.804974 0.183581 0.267730
O O2 0.682767 0.954858 0.934439
O O3 0.623984 0.252542 0.958633
O O4 0.770885 0.245116 0.990584
O O5 0.284942 0.158991 0.051687
O O6 0.449565 0.263458 0.368206
O O7 0.422357 0.940471 0.322562
O O8 0.437794 0.143059 0.107463
O O9 0.106441 0.900311 0.403029
O O10 0.994182 0.079943 0.425324
O O11 0.968410 0.099136 0.131482
O O12 0.221625 0.689938 0.680100
O O13 0.618655 0.616919 0.191593
O O14 0.294924 0.985778 0.827175
#
# Coordination Sequence:
#
# PCOD9136463 Si02
#       7
#     4   4   4   4   4   4   4
#     4  11  20  36  72  95 120 173 220 272 322 380
#     4  11  23  41  64  96 138 172 218 275 340 386
#     4  10  21  44  66  91 136 170 215 275 323 391
#     4  10  22  37  69  98 123 166 232 264 316 408
#     4  10  21  41  66  90 132 177 207 267 342 388
#     4   9  19  41  61  94 125 164 224 269 315 393
#     4  11  20  42  68  92 134 180 212 280 324 386
#
# _framework density 26.981952
#
# number of rings (size 3 to 8) (size 9 to 14) (size 15 to 20)
#    0.000    1.714    5.714    0.857    2.000    1.143 
#   12.857    1.429    0.000    0.000    0.000    0.000 
#    0.000    0.000    0.000    0.000    0.000    0.000 
#
# Total GULP energy -78078.198319 kJ/mol
# GULP energy per Si atom -5577.014166 kJ/mol
# Density = 2.692054 g / cm^3
# Si number density = 26.981952 Si / 1000 Ang^3
#
#
#
# Elastic Constant Matrix: (Units=GPa)
#
#
# Indices 1 2 3 4 5 6 
#
# 1 63.8608 -6.4194 22.8931 0.0000 1.2109 0.0000
# 2 -6.4194 91.8400 -10.8131 0.0000 29.9132 0.0000
# 3 22.8931 -10.8131 133.0702 0.0000 -32.4659 0.0000
# 4 0.0000 0.0000 0.0000 32.4424 0.0000 9.7313
# 5 1.2109 29.9132 -32.4659 0.0000 50.8494 0.0000
# 6 0.0000 0.0000 0.0000 9.7313 0.0000 30.1932
#
#
#
# Elastic Compliance Matrix: (Units=1/GPa)
#
#
# Indices 1 2 3 4 5 6 
#
# 1 0.017308 0.002087 -0.003800 0.000000 -0.004066 0.000000
# 2 0.002087 0.013833 -0.001460 0.000000 -0.009119 0.000000
# 3 -0.003800 -0.001460 0.009810 0.000000 0.007212 0.000000
# 4 0.000000 0.000000 0.000000 0.034123 0.000000 -0.010998
# 5 -0.004066 -0.009119 0.007212 0.000000 0.029732 0.000000
# 6 0.000000 0.000000 0.000000 -0.010998 0.000000 0.036665
#
#
# Mechanical properties :
#
#
# Convention : Reuss Voigt Hill
#
# Bulk Modulus (GPa) = 28.89831 33.34357 31.12094
# Shear Modulus (GPa) = 31.37726 41.57101 36.47413
#
# Velocity S-wave (km/s) = 3.41383 3.92943 3.68067
# Velocity P-wave (km/s) = 5.12567 5.74211 5.44262
#
# Compressibility (1/GPa) = 0.03460410
#
# Stress axis : x y z
#
# Youngs Moduli (GPa) = 57.77609 72.29264 101.94073
#
# Poissons Ratio (x) = -0.15085 0.38738
# Poissons Ratio (y) = -0.12056 0.14881
# Poissons Ratio (z) = 0.21955 0.10553
#
# Static dielectric constant tensor:
#      x y z
#    x 2.219030 0.000000 -0.067800 
#    y 0.000000 2.196220 0.000000 
#    z -0.067800 0.000000 2.207160 
# 
# From -- ./inp_files/21100.got.cif
#   From: 2010.05.17/outbox.cif.g08.bks.cpg/sg9_11_cif.got.tgz:21100.got - 2010.06.03 20:04:27.
