data_PCOD9136098
_publ_section_title
;
Structure prediction by ZEFSAII (Michael W. Deem and Ramdas Pophale) SiO2 
 PCOD9136098
Probable space group: C C
;
_chemical_formula_sum "Si O2"
_cell_formula_units_Z 32
_cell_length_a 16.767293
_cell_length_b 14.721779
_cell_length_c 8.215262
_cell_angle_alpha 90.000000
_cell_angle_beta 43.567404
_cell_angle_gamma 90.000000
_cell_volume 1397.637762
_symmetry_space_group_name_H-M "C C"
_symmetry_group_IT_number 9
_symmetry_cell_setting 'monoclinic'
loop_
_space_group_symop_operation_xyz
x,y,z
x,-y,1/2+z
1/2+x,1/2+y,z
1/2+x,1/2-y,1/2+z
loop_
_atom_site_type_symbol
_atom_site_label
_atom_site_fract_x
_atom_site_fract_y
_atom_site_fract_z
Si Si1 0.908790 0.930019 0.332480
Si Si2 0.747605 0.103182 0.569794
Si Si3 0.992243 0.342040 0.427781
Si Si4 0.283591 0.888053 0.926266
Si Si5 0.986928 0.318861 0.804015
Si Si6 0.731366 0.181791 0.950075
Si Si7 0.063507 0.962813 0.404950
Si Si8 0.956629 0.208497 0.174381
O O1 0.834736 0.840752 0.418533
O O2 0.962897 0.942700 0.426110
O O3 0.813593 0.008930 0.447325
O O4 0.019782 0.944980 0.051923
O O5 0.612467 0.104574 0.727629
O O6 0.765925 0.138302 0.727356
O O7 0.823788 0.176538 0.362522
O O8 0.008914 0.291087 0.579866
O O9 0.877103 0.401544 0.641334
O O10 0.973291 0.275964 0.303071
O O11 0.369360 0.874342 0.953958
O O12 0.223226 0.791309 0.968807
O O13 0.184249 0.956262 0.131765
O O14 0.109205 0.365590 0.666550
O O15 0.979950 0.253249 0.966629
O O16 0.043040 0.879001 0.561767
#
# Coordination Sequence:
#
# PCOD9136098 Si02
#       8
#     4   4   4   4   4   4   4   4
#     4  11  24  41  65  93 132 183 220 275 338 410
#     4  10  21  39  59  95 129 171 227 267 335 406
#     4   9  22  36  61  91 132 167 214 284 321 393
#     4  10  21  40  62  95 129 165 221 277 335 392
#     4   9  21  36  60  94 125 169 207 283 329 376
#     4  11  19  40  63  91 131 173 220 279 332 392
#     4  11  24  40  64  97 134 177 224 273 342 412
#     4  11  20  36  62 100 126 167 223 272 334 385
#
# _framework density 22.895776000000001
#
# number of rings (size 3 to 8) (size 9 to 14) (size 15 to 20)
#    0.750    1.000    3.750    0.750    1.750    2.000 
#    0.000    2.500    0.000    0.000    0.000    0.000 
#    0.000    0.000    0.000    0.000    0.000    0.000 
#
# Total GULP energy -89087.818664 kJ/mol
# GULP energy per Si atom -5567.988667 kJ/mol
# Density = 2.284366 g / cm^3
# Si number density = 22.895776 Si / 1000 Ang^3
#
#
#
# Elastic Constant Matrix: (Units=GPa)
#
#
# Indices 1 2 3 4 5 6 
#
# 1 71.2477 13.8551 33.2420 0.0000 -11.3242 0.0000
# 2 13.8551 38.8722 27.7607 0.0000 -6.6082 0.0000
# 3 33.2420 27.7607 134.4246 0.0000 -21.9815 0.0000
# 4 0.0000 0.0000 0.0000 24.6014 0.0000 -4.7908
# 5 -11.3242 -6.6082 -21.9815 0.0000 42.9117 0.0000
# 6 0.0000 0.0000 0.0000 -4.7908 0.0000 16.9005
#
#
#
# Elastic Compliance Matrix: (Units=1/GPa)
#
#
# Indices 1 2 3 4 5 6 
#
# 1 0.016449 -0.003327 -0.003006 0.000000 0.002288 0.000000
# 2 -0.003327 0.030948 -0.005384 0.000000 0.001130 0.000000
# 3 -0.003006 -0.005384 0.009855 0.000000 0.003426 0.000000
# 4 0.000000 0.000000 0.000000 0.043023 0.000000 0.012196
# 5 0.002288 0.001130 0.003426 0.000000 0.025836 0.000000
# 6 0.000000 0.000000 0.000000 0.012196 0.000000 0.062627
#
#
# Mechanical properties :
#
#
# Convention : Reuss Voigt Hill
#
# Bulk Modulus (GPa) = 29.57039 43.80667 36.68853
# Shear Modulus (GPa) = 22.37692 28.19516 25.28604
#
# Velocity S-wave (km/s) = 3.12963 3.51302 3.32685
# Velocity P-wave (km/s) = 5.09929 5.96906 5.55123
#
# Compressibility (1/GPa) = 0.03381761
#
# Stress axis : x y z
#
# Youngs Moduli (GPa) = 60.79432 32.31224 101.47587
#
# Poissons Ratio (x) = 0.10749 0.30508
# Poissons Ratio (y) = 0.20225 0.54632
# Poissons Ratio (z) = 0.18277 0.17396
#
# Static dielectric constant tensor:
#      x y z
#    x 1.839870 0.000000 -0.018060 
#    y 0.000000 1.922710 0.000000 
#    z -0.018060 0.000000 1.888020 
# 
# From -- ./inp_files/10955.got.cif
#   From: 2010.05.17/outbox.cif.g08.bks.cpg/sg9_6_cif.got.tgz:10955.got - 2010.06.03 20:04:27.
