data_PCOD9136651
_publ_section_title
;
Structure prediction by ZEFSAII (Michael W. Deem and Ramdas Pophale) SiO2 
 PCOD9136651
Probable space group: C C
;
_chemical_formula_sum "Si O2"
_cell_formula_units_Z 32
_cell_length_a 10.935869
_cell_length_b 15.337443
_cell_length_c 17.036636
_cell_angle_alpha 90.000000
_cell_angle_beta 149.485940
_cell_angle_gamma 90.000000
_cell_volume 1450.907929
_symmetry_space_group_name_H-M "C C"
_symmetry_group_IT_number 9
_symmetry_cell_setting 'monoclinic'
loop_
_space_group_symop_operation_xyz
x,y,z
x,-y,1/2+z
1/2+x,1/2+y,z
1/2+x,1/2-y,1/2+z
loop_
_atom_site_type_symbol
_atom_site_label
_atom_site_fract_x
_atom_site_fract_y
_atom_site_fract_z
Si Si1 0.206000 0.208702 0.692350
Si Si2 0.796063 0.681753 0.922975
Si Si3 0.581336 0.988072 0.554733
Si Si4 0.919609 0.852740 0.691672
Si Si5 0.837654 0.915491 0.472334
Si Si6 0.352688 0.013414 0.755409
Si Si7 0.827527 0.250515 0.859114
Si Si8 0.242173 0.674374 0.656408
O O1 0.309858 0.207530 0.838086
O O2 0.315466 0.276897 0.690050
O O3 0.250278 0.111152 0.688124
O O4 0.931730 0.241405 0.543293
O O5 0.521388 0.668204 0.792741
O O6 0.930678 0.589326 0.011552
O O7 0.634438 0.081065 0.620000
O O8 0.844058 0.944113 0.686960
O O9 0.446986 0.001192 0.396736
O O10 0.821621 0.866141 0.548492
O O11 0.192039 0.824731 0.832828
O O12 0.609049 0.983721 0.348523
O O13 0.802809 0.842180 0.387465
O O14 0.108846 0.955091 0.611481
O O15 0.710775 0.240851 0.710294
O O16 0.098499 0.283411 0.005434
#
# Coordination Sequence:
#
# PCOD9136651 Si02
#       8
#     4   4   4   4   4   4   4   4
#     4  10  21  42  70  99 129 180 229 283 341 419
#     4  10  23  43  66 101 133 175 234 283 352 414
#     4   9  23  41  69  96 128 181 228 278 344 420
#     4  10  21  44  71  96 133 177 235 270 341 429
#     4  11  23  44  66 105 138 185 242 285 357 421
#     4  10  22  40  69  97 136 182 230 289 346 419
#     4  12  25  43  67 101 137 184 225 289 350 419
#     4  12  26  43  68  99 140 178 231 289 355 415
#
# _framework density 22.055156
#
# number of rings (size 3 to 8) (size 9 to 14) (size 15 to 20)
#    0.000    1.500    2.500    2.250    8.750    1.000 
#    6.750    0.000    0.000    0.000    0.000    0.000 
#    0.000    0.000    0.000    0.000    0.000    0.000 
#
# Total GULP energy -89179.273849 kJ/mol
# GULP energy per Si atom -5573.704616 kJ/mol
# Density = 2.200496 g / cm^3
# Si number density = 22.055156 Si / 1000 Ang^3
#
#
#
# Elastic Constant Matrix: (Units=GPa)
#
#
# Indices 1 2 3 4 5 6 
#
# 1 63.1380 30.5275 29.1832 0.0001 26.8621 0.0004
# 2 30.5275 87.5813 48.9898 0.0032 9.5960 0.0003
# 3 29.1832 48.9898 91.4825 0.0086 32.7428 0.0020
# 4 0.0001 0.0032 0.0086 46.6890 0.0024 2.8938
# 5 26.8621 9.5960 32.7428 0.0024 38.6851 0.0003
# 6 0.0004 0.0003 0.0020 2.8938 0.0003 19.5353
#
#
#
# Elastic Compliance Matrix: (Units=1/GPa)
#
#
# Indices 1 2 3 4 5 6 
#
# 1 0.026856 -0.008980 0.003040 0.000001 -0.018994 -0.000001
# 2 -0.008980 0.019949 -0.011877 0.000000 0.011340 0.000001
# 3 0.003040 -0.011877 0.022986 -0.000002 -0.018620 -0.000002
# 4 0.000001 0.000000 -0.000002 0.021617 0.000000 -0.003202
# 5 -0.018994 0.011340 -0.018620 0.000000 0.051985 0.000001
# 6 -0.000001 0.000001 -0.000002 -0.003202 0.000001 0.051664
#
#
# Mechanical properties :
#
#
# Convention : Reuss Voigt Hill
#
# Bulk Modulus (GPa) = 29.27697 51.06700 40.17198
# Shear Modulus (GPa) = 20.65456 29.88196 25.26826
#
# Velocity S-wave (km/s) = 3.06354 3.68485 3.38847
# Velocity P-wave (km/s) = 5.08104 6.42718 5.79334
#
# Compressibility (1/GPa) = 0.03415654
#
# Stress axis : x y z
#
# Youngs Moduli (GPa) = 37.23540 50.12724 43.50519
#
# Poissons Ratio (x) = 0.45016 -0.13226
# Poissons Ratio (y) = 0.33439 0.51671
# Poissons Ratio (z) = -0.11320 0.59536
#
# Static dielectric constant tensor:
#      x y z
#    x 1.842230 0.000000 0.050630 
#    y 0.000000 1.786740 0.000000 
#    z 0.050630 0.000000 1.834920 
# 
# From -- ./inp_files/30166.got.cif
#   From: 2010.05.17/outbox.cif.g08.bks.cpg/sg9_16_cif.got.tgz:30166.got - 2010.06.03 20:04:27.
