data_PCOD9136433
_publ_section_title
;
Structure prediction by ZEFSAII (Michael W. Deem and Ramdas Pophale) SiO2 
 PCOD9136433
Probable space group: C C
;
_chemical_formula_sum "Si O2"
_cell_formula_units_Z 32
_cell_length_a 10.266420
_cell_length_b 9.963947
_cell_length_c 18.667205
_cell_angle_alpha 90.000000
_cell_angle_beta 118.196046
_cell_angle_gamma 90.000000
_cell_volume 1682.950231
_symmetry_space_group_name_H-M "C C"
_symmetry_group_IT_number 9
_symmetry_cell_setting 'monoclinic'
loop_
_space_group_symop_operation_xyz
x,y,z
x,-y,1/2+z
1/2+x,1/2+y,z
1/2+x,1/2-y,1/2+z
loop_
_atom_site_type_symbol
_atom_site_label
_atom_site_fract_x
_atom_site_fract_y
_atom_site_fract_z
Si Si1 0.288980 0.388372 0.436620
Si Si2 0.313845 0.063987 0.826487
Si Si3 0.015148 0.671187 0.760707
Si Si4 0.011822 0.677026 0.437048
Si Si5 0.681597 0.031732 0.216784
Si Si6 0.223946 0.522647 0.070753
Si Si7 0.740115 0.181793 0.373504
Si Si8 0.475352 0.512547 0.231550
O O1 0.150634 0.342662 0.352091
O O2 0.426688 0.297552 0.452181
O O3 0.243004 0.381885 0.507725
O O4 0.311293 0.545892 0.423597
O O5 0.378240 0.102129 0.765596
O O6 0.344377 0.192539 0.885068
O O7 0.395414 0.932642 0.876843
O O8 0.138020 0.043899 0.780784
O O9 0.069001 0.586217 0.706688
O O10 0.986539 0.825597 0.736737
O O11 0.119155 0.597845 0.519002
O O12 0.112028 0.719802 0.395782
O O13 0.664043 0.081322 0.130667
O O14 0.674395 0.138327 0.278869
O O15 0.352301 0.477110 0.260048
O O16 0.387833 0.473423 0.136637
#
# Coordination Sequence:
#
# PCOD9136433 Si02
#       8
#     4   4   4   4   4   4   4   4
#     4  10  21  41  64  89 129 165 209 261 315 373
#     4  12  21  37  67  95 117 161 219 256 303 387
#     4  11  20  38  62  93 120 163 214 253 312 378
#     4  11  22  39  64  92 126 168 211 260 314 381
#     4   9  20  38  59  87 125 164 199 258 317 368
#     4   9  21  39  60  92 129 170 203 266 322 364
#     4  10  22  38  61  94 125 156 213 263 311 367
#     4  10  23  36  61  94 123 167 206 263 314 372
#
# _framework density 19.014229
#
# number of rings (size 3 to 8) (size 9 to 14) (size 15 to 20)
#    0.750    1.000    6.250    0.000    5.250    0.000 
#    0.000    5.000    2.750    0.000    0.000    0.000 
#    0.000    0.000    0.000    0.000    0.000    0.000 
#
# Total GULP energy -89132.315844 kJ/mol
# GULP energy per Si atom -5570.769740 kJ/mol
# Density = 1.897095 g / cm^3
# Si number density = 19.014229 Si / 1000 Ang^3
#
#
#
# Elastic Constant Matrix: (Units=GPa)
#
#
# Indices 1 2 3 4 5 6 
#
# 1 120.9887 52.8264 24.8055 0.0000 -17.2904 0.0000
# 2 52.8264 79.8730 1.1936 0.0000 -10.0459 0.0000
# 3 24.8055 1.1936 72.5115 0.0000 -18.8350 0.0000
# 4 0.0000 0.0000 0.0000 6.8658 0.0000 -4.0718
# 5 -17.2904 -10.0459 -18.8350 0.0000 42.9359 0.0000
# 6 0.0000 0.0000 0.0000 -4.0718 0.0000 37.0919
#
#
#
# Elastic Compliance Matrix: (Units=1/GPa)
#
#
# Indices 1 2 3 4 5 6 
#
# 1 0.012894 -0.008274 -0.003870 0.000000 0.001559 0.000000
# 2 -0.008274 0.018236 0.003130 0.000000 0.002308 0.000000
# 3 -0.003870 0.003130 0.016758 0.000000 0.006525 0.000000
# 4 0.000000 0.000000 0.000000 0.155793 0.000000 0.017102
# 5 0.001559 0.002308 0.006525 0.000000 0.027321 0.000000
# 6 0.000000 0.000000 0.000000 0.017102 0.000000 0.028837
#
#
# Mechanical properties :
#
#
# Convention : Reuss Voigt Hill
#
# Bulk Modulus (GPa) = 33.48997 47.89157 40.69077
# Shear Modulus (GPa) = 17.37197 30.34856 23.86026
#
# Velocity S-wave (km/s) = 3.02591 3.99945 3.54625
# Velocity P-wave (km/s) = 5.46439 6.82418 6.18178
#
# Compressibility (1/GPa) = 0.02985969
#
# Stress axis : x y z
#
# Youngs Moduli (GPa) = 77.55553 54.83802 59.67235
#
# Poissons Ratio (x) = 0.45372 0.23092
# Poissons Ratio (y) = 0.64169 -0.18675
# Poissons Ratio (z) = 0.30012 -0.17162
#
# Static dielectric constant tensor:
#      x y z
#    x 1.677640 0.000000 -0.004740 
#    y 0.000000 1.674590 0.000000 
#    z -0.004740 0.000000 1.682110 
# 
# From -- ./inp_files/33145.got.cif
#   From: 2010.05.17/outbox.cif.g08.bks.cpg/sg9_17_cif.got.tgz:33145.got - 2010.06.03 20:04:27.
