data_PCOD9136564
_publ_section_title
;
Structure prediction by ZEFSAII (Michael W. Deem and Ramdas Pophale) SiO2 
 PCOD9136564
Probable space group: C C
;
_chemical_formula_sum "Si O2"
_cell_formula_units_Z 32
_cell_length_a 10.095099
_cell_length_b 11.830017
_cell_length_c 14.762274
_cell_angle_alpha 90.000000
_cell_angle_beta 131.551920
_cell_angle_gamma 90.000000
_cell_volume 1319.340385
_symmetry_space_group_name_H-M "C C"
_symmetry_group_IT_number 9
_symmetry_cell_setting 'monoclinic'
loop_
_space_group_symop_operation_xyz
x,y,z
x,-y,1/2+z
1/2+x,1/2+y,z
1/2+x,1/2-y,1/2+z
loop_
_atom_site_type_symbol
_atom_site_label
_atom_site_fract_x
_atom_site_fract_y
_atom_site_fract_z
Si Si1 0.359520 0.874336 0.422640
Si Si2 0.339898 0.194160 0.533889
Si Si3 0.752287 0.133926 0.125349
Si Si4 0.730745 0.194160 0.709883
Si Si5 0.429649 0.416314 0.455584
Si Si6 0.140992 0.083687 0.288187
Si Si7 0.711121 0.125666 0.321134
Si Si8 0.318356 0.133922 0.118425
O O1 0.566153 0.891470 0.493593
O O2 0.285317 0.750001 0.371888
O O3 0.342093 0.883911 0.523172
O O4 0.245763 0.969192 0.321521
O O5 0.292380 0.236444 0.612466
O O6 0.535322 0.138420 0.621884
O O7 0.366432 0.311279 0.488923
O O8 0.192968 0.124389 0.413851
O O9 0.728550 0.116097 0.220602
O O10 0.931948 0.068679 0.182463
O O11 0.877673 0.124388 0.829920
O O12 0.704209 0.311278 0.754848
O O13 0.778267 0.236447 0.631308
O O14 0.324881 0.530809 0.422252
O O15 0.638693 0.431322 0.561310
O O16 0.504489 0.108526 0.250181
#
# Coordination Sequence:
#
# PCOD9136564 Si02
#       8
#     4   4   4   4   4   4   4   4
#     4  11  24  42  59  96 132 161 200 256 322 369
#     4   9  20  40  66  91 118 161 216 256 297 363
#     4  10  22  41  62  92 122 168 205 247 314 363
#     4   9  20  40  66  91 118 161 216 256 297 363
#     4  10  21  42  64  91 123 161 211 258 302 367
#     4  10  21  42  64  91 123 161 211 258 302 367
#     4  11  24  42  59  96 132 161 200 256 322 369
#     4  10  22  41  62  92 122 168 205 247 314 363
#
# _framework density 24.254546000000001
#
# number of rings (size 3 to 8) (size 9 to 14) (size 15 to 20)
#    0.000    2.000    0.000    2.250    3.500    1.000 
#   27.000    0.000    0.000    0.000    0.000    0.000 
#    0.000    0.000    0.000    0.000    0.000    0.000 
#
# Total GULP energy -89456.287207 kJ/mol
# GULP energy per Si atom -5591.017950 kJ/mol
# Density = 2.419934 g / cm^3
# Si number density = 24.254546 Si / 1000 Ang^3
#
#
#
# Elastic Constant Matrix: (Units=GPa)
#
#
# Indices 1 2 3 4 5 6 
#
# 1 76.5426 20.4884 41.0241 0.0000 40.0883 0.0000
# 2 20.4884 114.6635 57.3958 0.0000 31.1304 0.0000
# 3 41.0241 57.3958 145.3647 0.0000 55.2407 0.0000
# 4 0.0000 0.0000 0.0000 31.9985 0.0000 -5.8798
# 5 40.0883 31.1304 55.2407 0.0000 63.2429 0.0000
# 6 0.0000 0.0000 0.0000 -5.8798 0.0000 7.2331
#
#
#
# Elastic Compliance Matrix: (Units=1/GPa)
#
#
# Indices 1 2 3 4 5 6 
#
# 1 0.019706 0.000244 -0.001295 0.000000 -0.011480 0.000000
# 2 0.000244 0.011121 -0.003474 0.000000 -0.002594 0.000000
# 3 -0.001295 -0.003474 0.011458 0.000000 -0.007477 0.000000
# 4 0.000000 0.000000 0.000000 0.036739 0.000000 0.029865
# 5 -0.011480 -0.002594 -0.007477 0.000000 0.030897 0.000000
# 6 0.000000 0.000000 0.000000 0.029865 0.000000 0.162530
#
#
# Mechanical properties :
#
#
# Convention : Reuss Voigt Hill
#
# Bulk Modulus (GPa) = 30.08919 63.82082 46.95500
# Shear Modulus (GPa) = 17.08939 35.00574 26.04756
#
# Velocity S-wave (km/s) = 2.65728 3.80315 3.28063
# Velocity P-wave (km/s) = 4.67412 6.75688 5.80959
#
# Compressibility (1/GPa) = 0.03323453
#
# Stress axis : x y z
#
# Youngs Moduli (GPa) = 50.74602 89.92138 87.27692
#
# Poissons Ratio (x) = -0.02193 0.11302
# Poissons Ratio (y) = -0.01238 0.30319
# Poissons Ratio (z) = 0.06572 0.31238
#
# Static dielectric constant tensor:
#      x y z
#    x 1.984660 0.000000 -0.021130 
#    y 0.000000 1.934540 0.000000 
#    z -0.021130 0.000000 1.942730 
# 
# From -- ./inp_files/30070.got.cif
#   From: 2010.05.17/outbox.cif.g08.bks.cpg/sg9_16_cif.got.tgz:30070.got - 2010.06.03 20:04:27.
