data_PCOD9136131
_publ_section_title
;
Structure prediction by ZEFSAII (Michael W. Deem and Ramdas Pophale) SiO2 
 PCOD9136131
Probable space group: C C
;
_chemical_formula_sum "Si O2"
_cell_formula_units_Z 24
_cell_length_a 9.973030
_cell_length_b 21.138570
_cell_length_c 4.839776
_cell_angle_alpha 90.000000
_cell_angle_beta 70.781857
_cell_angle_gamma 90.000000
_cell_volume 963.441144
_symmetry_space_group_name_H-M "C C"
_symmetry_group_IT_number 9
_symmetry_cell_setting 'monoclinic'
loop_
_space_group_symop_operation_xyz
x,y,z
x,-y,1/2+z
1/2+x,1/2+y,z
1/2+x,1/2-y,1/2+z
loop_
_atom_site_type_symbol
_atom_site_label
_atom_site_fract_x
_atom_site_fract_y
_atom_site_fract_z
Si Si1 0.112350 0.655867 0.478640
Si Si2 0.297566 0.962193 0.752791
Si Si3 0.640934 0.961442 0.587155
Si Si4 0.844951 0.213204 0.703716
Si Si5 0.795669 0.657590 0.590959
Si Si6 0.038714 0.793110 0.529863
O O1 0.170990 0.602395 0.235600
O O2 0.212221 0.674282 0.668615
O O3 0.954997 0.780663 0.870332
O O4 0.946070 0.639169 0.633457
O O5 0.469551 0.959984 0.662975
O O6 0.253705 0.020959 0.976064
O O7 0.246278 0.898575 0.927848
O O8 0.689238 0.020116 0.748597
O O9 0.809631 0.280314 0.879435
O O10 0.589781 0.225614 0.368228
O O11 0.928839 0.177552 0.888463
O O12 0.684150 0.669763 0.909447
#
# Coordination Sequence:
#
# PCOD9136131 Si02
#       6
#     4   4   4   4   4   4
#     4  10  21  39  63  88 121 160 207 256 308 372
#     4   9  19  35  59  90 121 158 206 260 313 367
#     4   9  19  33  54  84 114 149 198 255 307 357
#     4  11  24  40  60  91 127 163 204 257 317 376
#     4  10  23  42  66  94 129 168 213 263 317 380
#     4  11  24  39  60  91 126 164 204 255 318 376
#
# _framework density 24.910706999999999
#
# number of rings (size 3 to 8) (size 9 to 14) (size 15 to 20)
#    0.000    2.000    0.000    3.000    0.000   16.000 
#    0.000    0.000    0.000    6.000    0.000    0.000 
#    0.000    0.000    0.000    0.000    0.000    0.000 
#
# Total GULP energy -66985.448426 kJ/mol
# GULP energy per Si atom -5582.120702 kJ/mol
# Density = 2.485401 g / cm^3
# Si number density = 24.910707 Si / 1000 Ang^3
#
#
#
# Elastic Constant Matrix: (Units=GPa)
#
#
# Indices 1 2 3 4 5 6 
#
# 1 91.7780 26.0958 54.1844 0.0000 5.1432 0.0000
# 2 26.0958 81.2645 35.3420 0.0000 -14.2395 0.0000
# 3 54.1844 35.3420 161.8804 0.0000 5.9620 0.0000
# 4 0.0000 0.0000 0.0000 40.0209 0.0000 10.3168
# 5 5.1432 -14.2395 5.9620 0.0000 32.0756 0.0000
# 6 0.0000 0.0000 0.0000 10.3168 0.0000 20.2059
#
#
#
# Elastic Compliance Matrix: (Units=1/GPa)
#
#
# Indices 1 2 3 4 5 6 
#
# 1 0.014379 -0.003444 -0.003947 0.000000 -0.003101 0.000000
# 2 -0.003444 0.015984 -0.002637 0.000000 0.008138 0.000000
# 3 -0.003947 -0.002637 0.008150 0.000000 -0.002052 0.000000
# 4 0.000000 0.000000 0.000000 0.028774 0.000000 -0.014692
# 5 -0.003101 0.008138 -0.002052 0.000000 0.035668 0.000000
# 6 0.000000 0.000000 0.000000 -0.014692 0.000000 0.056992
#
#
# Mechanical properties :
#
#
# Convention : Reuss Voigt Hill
#
# Bulk Modulus (GPa) = 54.17812 62.90746 58.54279
# Shear Modulus (GPa) = 26.85938 33.08055 29.96996
#
# Velocity S-wave (km/s) = 3.28720 3.64808 3.47233
# Velocity P-wave (km/s) = 6.01695 6.56145 6.29509
#
# Compressibility (1/GPa) = 0.01845764
#
# Stress axis : x y z
#
# Youngs Moduli (GPa) = 69.54529 62.56168 122.70456
#
# Poissons Ratio (x) = 0.21549 0.48429
# Poissons Ratio (y) = 0.23954 0.32351
# Poissons Ratio (z) = 0.27448 0.16495
#
# Static dielectric constant tensor:
#      x y z
#    x 2.056200 0.000000 -0.018400 
#    y 0.000000 2.041740 0.000000 
#    z -0.018400 0.000000 1.971560 
# 
# From -- ./inp_files/848.got.cif
#   From: 2010.05.17/outbox.cif.g08.bks.cpg/sg9_1_cif.got.tgz:848.got - 2010.06.03 20:04:27.
