data_PCOD9136703
_publ_section_title
;
Structure prediction by ZEFSAII (Michael W. Deem and Ramdas Pophale) SiO2 
 PCOD9136703
Probable space group: C C
;
_chemical_formula_sum "Si O2"
_cell_formula_units_Z 32
_cell_length_a 34.457816
_cell_length_b 7.873894
_cell_length_c 13.730053
_cell_angle_alpha 90.000000
_cell_angle_beta 23.712034
_cell_angle_gamma 90.000000
_cell_volume 1498.052014
_symmetry_space_group_name_H-M "C C"
_symmetry_group_IT_number 9
_symmetry_cell_setting 'monoclinic'
loop_
_space_group_symop_operation_xyz
x,y,z
x,-y,1/2+z
1/2+x,1/2+y,z
1/2+x,1/2-y,1/2+z
loop_
_atom_site_type_symbol
_atom_site_label
_atom_site_fract_x
_atom_site_fract_y
_atom_site_fract_z
Si Si1 0.577960 0.094094 0.523640
Si Si2 0.293348 0.880782 0.452257
Si Si3 0.768857 0.723128 0.620329
Si Si4 0.832510 0.086942 0.148942
Si Si5 0.651382 0.874098 0.181965
Si Si6 0.409606 0.568566 0.651274
Si Si7 0.429124 0.650691 0.268130
Si Si8 0.472274 0.920790 0.452710
O O1 0.661295 0.208226 0.379289
O O2 0.505164 0.211368 0.629310
O O3 0.520471 0.010695 0.744275
O O4 0.631670 0.966143 0.328886
O O5 0.208062 0.799596 0.582338
O O6 0.342244 0.739443 0.408647
O O7 0.262132 0.034519 0.594523
O O8 0.380531 0.967376 0.191617
O O9 0.821257 0.750134 0.604083
O O10 0.824895 0.841211 0.411310
O O11 0.726673 0.039390 0.433758
O O12 0.888876 0.080828 0.121356
O O13 0.881233 0.951150 0.966108
O O14 0.549122 0.893410 0.363134
O O15 0.474156 0.484271 0.587521
O O16 0.442706 0.724148 0.508425
#
# Coordination Sequence:
#
# PCOD9136703 Si02
#       8
#     4   4   4   4   4   4   4   4
#     4  12  23  43  67 101 136 174 232 283 337 417
#     4  11  25  46  65 101 140 176 228 285 350 411
#     4  10  23  40  66  97 133 173 225 278 337 416
#     4  11  20  42  71  91 133 185 218 274 358 404
#     4  12  24  44  71  98 138 184 228 290 343 414
#     4  10  21  43  65  94 135 179 219 280 350 409
#     4  11  23  41  68  97 135 178 226 282 345 410
#     4  11  25  45  67 103 136 179 234 286 344 421
#
# _framework density 21.361073000000001
#
# number of rings (size 3 to 8) (size 9 to 14) (size 15 to 20)
#    0.000    1.000    6.250    0.750    1.750    1.000 
#    2.250    2.500    0.000    0.000    0.000    0.000 
#    0.000    0.000    0.000    0.000    0.000    0.000 
#
# Total GULP energy -89162.611081 kJ/mol
# GULP energy per Si atom -5572.663193 kJ/mol
# Density = 2.131245 g / cm^3
# Si number density = 21.361073 Si / 1000 Ang^3
#
#
#
# Elastic Constant Matrix: (Units=GPa)
#
#
# Indices 1 2 3 4 5 6 
#
# 1 115.8705 43.6845 27.4896 0.0000 13.2189 0.0000
# 2 43.6845 79.6413 33.0291 0.0000 4.1495 0.0000
# 3 27.4896 33.0291 76.9110 0.0000 18.4295 0.0000
# 4 0.0000 0.0000 0.0000 20.1502 0.0000 5.7907
# 5 13.2189 4.1495 18.4295 0.0000 38.0510 0.0000
# 6 0.0000 0.0000 0.0000 5.7907 0.0000 30.9419
#
#
#
# Elastic Compliance Matrix: (Units=1/GPa)
#
#
# Indices 1 2 3 4 5 6 
#
# 1 0.011315 -0.005676 -0.000920 0.000000 -0.002866 0.000000
# 2 -0.005676 0.018223 -0.006554 0.000000 0.003159 0.000000
# 3 -0.000920 -0.006554 0.017985 0.000000 -0.007676 0.000000
# 4 0.000000 0.000000 0.000000 0.052448 0.000000 -0.009815
# 5 -0.002866 0.003159 -0.007676 0.000000 0.030650 0.000000
# 6 0.000000 0.000000 0.000000 -0.009815 0.000000 0.034156
#
#
# Mechanical properties :
#
#
# Convention : Reuss Voigt Hill
#
# Bulk Modulus (GPa) = 47.11752 53.42548 50.27150
# Shear Modulus (GPa) = 25.23323 29.04326 27.13825
#
# Velocity S-wave (km/s) = 3.44069 3.69132 3.56821
# Velocity P-wave (km/s) = 6.15549 6.57516 6.36878
#
# Compressibility (1/GPa) = 0.02122353
#
# Stress axis : x y z
#
# Youngs Moduli (GPa) = 88.37471 54.87532 55.60196
#
# Poissons Ratio (x) = 0.31146 0.05116
# Poissons Ratio (y) = 0.50160 0.36442
# Poissons Ratio (z) = 0.08131 0.35966
#
# Static dielectric constant tensor:
#      x y z
#    x 1.814990 0.000000 -0.026300 
#    y 0.000000 1.836190 0.000000 
#    z -0.026300 0.000000 1.798290 
# 
# From -- ./inp_files/21412.got.cif
#   From: 2010.05.17/outbox.cif.g08.bks.cpg/sg9_11_cif.got.tgz:21412.got - 2010.06.03 20:04:27.
