data_PCOD9136983
_publ_section_title
;
Structure prediction by ZEFSAII (Michael W. Deem and Ramdas Pophale) SiO2 
 PCOD9136983
Probable space group: C C
;
_chemical_formula_sum "Si O2"
_cell_formula_units_Z 20
_cell_length_a 5.468647
_cell_length_b 13.928404
_cell_length_c 10.348217
_cell_angle_alpha 90.000000
_cell_angle_beta 101.443331
_cell_angle_gamma 90.000000
_cell_volume 772.550095
_symmetry_space_group_name_H-M "C C"
_symmetry_group_IT_number 9
_symmetry_cell_setting 'monoclinic'
loop_
_space_group_symop_operation_xyz
x,y,z
x,-y,1/2+z
1/2+x,1/2+y,z
1/2+x,1/2-y,1/2+z
loop_
_atom_site_type_symbol
_atom_site_label
_atom_site_fract_x
_atom_site_fract_y
_atom_site_fract_z
Si Si1 0.621710 0.728193 0.364140
Si Si2 0.041064 0.983338 0.781709
Si Si3 0.405171 0.608468 0.007183
Si Si4 0.753868 0.775105 0.108831
Si Si5 0.276130 0.848329 0.167602
O O1 0.631014 0.613974 0.357867
O O2 0.696394 0.810071 0.473773
O O3 0.809327 0.756044 0.265108
O O4 0.359418 0.763539 0.274367
O O5 0.887515 0.949991 0.638682
O O6 0.251733 0.052681 0.742289
O O7 0.907668 0.043218 0.880565
O O8 0.657536 0.674090 0.042786
O O9 0.506521 0.842961 0.090501
O O10 0.998529 0.827288 0.082840
#
# Coordination Sequence:
#
# PCOD9136983 Si02
#       5
#     4   4   4   4   4
#     4   9  23  47  71 109 157 202 257 335 378 472
#     4  11  24  47  78 114 156 214 262 327 403 483
#     4  11  24  49  73 120 156 209 267 325 400 478
#     4   9  22  45  74 101 157 194 253 332 380 453
#     4  10  21  50  70 112 146 205 261 319 393 464
#
# _framework density 25.888286999999998
#
# number of rings (size 3 to 8) (size 9 to 14) (size 15 to 20)
#    1.200    0.800    2.000    0.000    2.800    1.600 
#   18.000    0.000    0.000    0.000    0.000    0.000 
#    0.000    0.000    0.000    0.000    0.000    0.000 
#
# Total GULP energy -55755.082079 kJ/mol
# GULP energy per Si atom -5575.508208 kJ/mol
# Density = 2.582936 g / cm^3
# Si number density = 25.888287 Si / 1000 Ang^3
#
#
#
# Elastic Constant Matrix: (Units=GPa)
#
#
# Indices 1 2 3 4 5 6 
#
# 1 135.7231 59.8012 34.6795 0.0000 4.4052 0.0000
# 2 59.8012 209.6205 87.2255 0.0000 -3.6669 0.0000
# 3 34.6795 87.2255 127.3721 0.0000 -10.3966 0.0000
# 4 0.0000 0.0000 0.0000 47.5920 0.0000 -14.0667
# 5 4.4052 -3.6669 -10.3966 0.0000 39.1327 0.0000
# 6 0.0000 0.0000 0.0000 -14.0667 0.0000 32.7192
#
#
#
# Elastic Compliance Matrix: (Units=1/GPa)
#
#
# Indices 1 2 3 4 5 6 
#
# 1 0.008581 -0.002031 -0.001063 0.000000 -0.001439 0.000000
# 2 -0.002031 0.007166 -0.004376 0.000000 -0.000262 0.000000
# 3 -0.001063 -0.004376 0.011360 0.000000 0.002728 0.000000
# 4 0.000000 0.000000 0.000000 0.024071 0.000000 0.010348
# 5 -0.001439 -0.000262 0.002728 0.000000 0.026416 0.000000
# 6 0.000000 0.000000 0.000000 0.010348 0.000000 0.035012
#
#
# Mechanical properties :
#
#
# Convention : Reuss Voigt Hill
#
# Bulk Modulus (GPa) = 82.18724 92.90311 87.54518
# Shear Modulus (GPa) = 37.99352 43.28941 40.64146
#
# Velocity S-wave (km/s) = 3.83508 4.09364 3.96647
# Velocity P-wave (km/s) = 7.17121 7.63596 7.40723
#
# Compressibility (1/GPa) = 0.01216734
#
# Stress axis : x y z
#
# Youngs Moduli (GPa) = 116.53537 139.54414 88.02988
#
# Poissons Ratio (x) = 0.28340 0.09358
# Poissons Ratio (y) = 0.23667 0.38521
# Poissons Ratio (z) = 0.12388 0.61064
#
# Static dielectric constant tensor:
#      x y z
#    x 2.076470 0.000000 0.019170 
#    y 0.000000 2.028620 0.000000 
#    z 0.019170 0.000000 2.331500 
# 
# From -- ./inp_files/12891.got.cif
#   From: 2010.05.17/outbox.cif.g08.bks.cpg/sg9_7_cif.got.tgz:12891.got - 2010.06.03 20:04:27.
