data_PCOD9136118
_publ_section_title
;
Structure prediction by ZEFSAII (Michael W. Deem and Ramdas Pophale) SiO2 
 PCOD9136118
Probable space group: C C
;
_chemical_formula_sum "Si O2"
_cell_formula_units_Z 32
_cell_length_a 34.717118
_cell_length_b 5.281882
_cell_length_c 9.132028
_cell_angle_alpha 90.000000
_cell_angle_beta 50.514581
_cell_angle_gamma 90.000000
_cell_volume 1292.399359
_symmetry_space_group_name_H-M "C C"
_symmetry_group_IT_number 9
_symmetry_cell_setting 'monoclinic'
loop_
_space_group_symop_operation_xyz
x,y,z
x,-y,1/2+z
1/2+x,1/2+y,z
1/2+x,1/2-y,1/2+z
loop_
_atom_site_type_symbol
_atom_site_label
_atom_site_fract_x
_atom_site_fract_y
_atom_site_fract_z
Si Si1 0.289750 0.626179 0.589400
Si Si2 0.885923 0.127757 0.178269
Si Si3 0.364303 0.872082 0.638765
Si Si4 0.268530 0.877191 0.050132
Si Si5 0.637605 0.232604 0.531365
Si Si6 0.018582 0.764867 0.842169
Si Si7 0.981908 0.734280 0.597173
Si Si8 0.675069 0.734226 0.606200
O O1 0.328573 0.579306 0.361630
O O2 0.327077 0.751249 0.613187
O O3 0.268410 0.347075 0.669897
O O4 0.250838 0.843904 0.639937
O O5 0.887027 0.351182 0.055077
O O6 0.922435 0.225400 0.216580
O O7 0.902202 0.848442 0.090880
O O8 0.325831 0.923929 0.865791
O O9 0.233907 0.778726 0.003425
O O10 0.578216 0.230946 0.694576
O O11 0.658671 0.479043 0.564129
O O12 0.650628 0.248657 0.327518
O O13 0.659948 0.978511 0.549398
O O14 0.999850 0.749459 0.719988
O O15 0.996444 0.533729 0.990941
O O16 0.006125 0.035346 0.946025
#
# Coordination Sequence:
#
# PCOD9136118 Si02
#       8
#     4   4   4   4   4   4   4   4
#     4  10  21  39  62  87 135 169 219 272 330 395
#     4  10  23  38  59  97 124 177 221 273 332 393
#     4  10  21  39  62  87 135 169 219 272 330 395
#     4  10  23  38  61  97 124 177 221 271 332 395
#     4  12  26  47  73 103 142 180 229 292 356 411
#     4  12  26  49  71 105 138 184 227 294 356 411
#     4  12  27  45  76 103 140 182 236 286 341 427
#     4  12  27  45  76 105 140 182 234 286 341 427
#
# _framework density 24.760148000000001
#
# number of rings (size 3 to 8) (size 9 to 14) (size 15 to 20)
#    0.000    1.000    0.000    6.000    7.000    0.000 
#    0.000    0.000    0.000    0.000    0.000    0.000 
#    0.000    0.000    0.000    0.000    0.000    0.000 
#
# Total GULP energy -89546.077035 kJ/mol
# GULP energy per Si atom -5596.629815 kJ/mol
# Density = 2.470379 g / cm^3
# Si number density = 24.760148 Si / 1000 Ang^3
#
#
#
# Elastic Constant Matrix: (Units=GPa)
#
#
# Indices 1 2 3 4 5 6 
#
# 1 126.9711 25.8362 33.0125 0.0000 -2.7922 0.0000
# 2 25.8362 172.2168 49.7085 0.0000 4.6164 0.0000
# 3 33.0125 49.7085 84.6754 0.0000 16.9057 0.0000
# 4 0.0000 0.0000 0.0000 35.8520 0.0000 7.1097
# 5 -2.7922 4.6164 16.9057 0.0000 49.9704 0.0000
# 6 0.0000 0.0000 0.0000 7.1097 0.0000 48.9425
#
#
#
# Elastic Compliance Matrix: (Units=1/GPa)
#
#
# Indices 1 2 3 4 5 6 
#
# 1 0.008928 -0.000338 -0.003634 0.000000 0.001759 0.000000
# 2 -0.000338 0.007034 -0.004144 0.000000 0.000733 0.000000
# 3 -0.003634 -0.004144 0.016755 0.000000 -0.005489 0.000000
# 4 0.000000 0.000000 0.000000 0.028720 0.000000 -0.004172
# 5 0.001759 0.000733 -0.005489 0.000000 0.021899 0.000000
# 6 0.000000 0.000000 0.000000 -0.004172 0.000000 0.021038
#
#
# Mechanical properties :
#
#
# Convention : Reuss Voigt Hill
#
# Bulk Modulus (GPa) = 60.65758 66.77531 63.71644
# Shear Modulus (GPa) = 39.65104 45.30671 42.47888
#
# Velocity S-wave (km/s) = 4.00610 4.28228 4.14649
# Velocity P-wave (km/s) = 6.77862 7.17482 6.97953
#
# Compressibility (1/GPa) = 0.01648599
#
# Stress axis : x y z
#
# Youngs Moduli (GPa) = 112.00713 142.17219 59.68367
#
# Poissons Ratio (x) = 0.04801 0.21688
# Poissons Ratio (y) = 0.03782 0.24732
# Poissons Ratio (z) = 0.40701 0.58914
#
# Static dielectric constant tensor:
#      x y z
#    x 1.922340 0.000000 -0.029020 
#    y 0.000000 2.017310 0.000000 
#    z -0.029020 0.000000 2.050880 
# 
# From -- ./inp_files/12629.got.cif
#   From: 2010.05.17/outbox.cif.g08.bks.cpg/sg9_7_cif.got.tgz:12629.got - 2010.06.03 20:04:27.
