data_PCOD9136514
_publ_section_title
;
Structure prediction by ZEFSAII (Michael W. Deem and Ramdas Pophale) SiO2 
 PCOD9136514
Probable space group: C C
;
_chemical_formula_sum "Si O2"
_cell_formula_units_Z 24
_cell_length_a 11.471459
_cell_length_b 7.270518
_cell_length_c 22.086880
_cell_angle_alpha 90.000000
_cell_angle_beta 148.507129
_cell_angle_gamma 90.000000
_cell_volume 962.310650
_symmetry_space_group_name_H-M "C C"
_symmetry_group_IT_number 9
_symmetry_cell_setting 'monoclinic'
loop_
_space_group_symop_operation_xyz
x,y,z
x,-y,1/2+z
1/2+x,1/2+y,z
1/2+x,1/2-y,1/2+z
loop_
_atom_site_type_symbol
_atom_site_label
_atom_site_fract_x
_atom_site_fract_y
_atom_site_fract_z
Si Si1 0.066410 0.234862 0.238910
Si Si2 0.671636 0.808773 0.421705
Si Si3 0.110545 0.289915 0.583050
Si Si4 0.665387 0.620594 0.157213
Si Si5 0.611953 0.238844 0.368989
Si Si6 0.825992 0.043221 0.296871
O O1 0.124173 0.216615 0.334837
O O2 0.183875 0.115794 0.238786
O O3 0.149692 0.443874 0.262418
O O4 0.804268 0.185956 0.119454
O O5 0.477003 0.720982 0.376421
O O6 0.932832 0.774020 0.546934
O O7 0.646968 0.029822 0.407557
O O8 0.182609 0.408857 0.673474
O O9 0.851164 0.306489 0.452072
O O10 0.145302 0.078298 0.619665
O O11 0.885892 0.719244 0.228958
O O12 0.521277 0.389284 0.376080
#
# Coordination Sequence:
#
# PCOD9136514 Si02
#       6
#     4   4   4   4   4   4
#     4  10  22  43  71  99 128 184 234 260 357 403
#     4  10  22  44  66  99 142 170 229 290 320 409
#     4  10  22  46  65 101 145 169 231 292 323 411
#     4  10  21  43  70  95 141 176 219 290 329 399
#     4  10  21  41  69  95 139 179 216 286 337 387
#     4  10  22  41  69  97 135 178 231 276 334 403
#
# _framework density 24.939972999999998
#
# number of rings (size 3 to 8) (size 9 to 14) (size 15 to 20)
#    0.000    2.000    3.333    0.000    4.667    2.667 
#   12.000   13.333    0.000    0.000    0.000    0.000 
#    0.000    0.000    0.000    0.000    0.000    0.000 
#
# Total GULP energy -66891.163561 kJ/mol
# GULP energy per Si atom -5574.263630 kJ/mol
# Density = 2.488321 g / cm^3
# Si number density = 24.939973 Si / 1000 Ang^3
#
#
#
# Elastic Constant Matrix: (Units=GPa)
#
#
# Indices 1 2 3 4 5 6 
#
# 1 71.4413 -17.4394 31.7770 0.0001 27.6793 0.0000
# 2 -17.4394 67.2351 17.8793 0.0002 9.9674 0.0000
# 3 31.7770 17.8793 178.3504 0.0010 50.6738 0.0001
# 4 0.0001 0.0002 0.0010 39.3606 0.0000 15.9920
# 5 27.6793 9.9674 50.6738 0.0000 41.7388 0.0000
# 6 0.0000 0.0000 0.0001 15.9920 0.0000 36.2140
#
#
#
# Elastic Compliance Matrix: (Units=1/GPa)
#
#
# Indices 1 2 3 4 5 6 
#
# 1 0.022641 0.008401 -0.000061 0.000000 -0.016947 0.000000
# 2 0.008401 0.018605 -0.000789 0.000000 -0.009057 0.000000
# 3 -0.000061 -0.000789 0.008598 0.000000 -0.010209 0.000000
# 4 0.000000 0.000000 0.000000 0.030961 0.000000 -0.013672
# 5 -0.016947 -0.009057 -0.010209 0.000000 0.049754 0.000000
# 6 0.000000 0.000000 0.000000 -0.013672 0.000000 0.033651
#
#
# Mechanical properties :
#
#
# Convention : Reuss Voigt Hill
#
# Bulk Modulus (GPa) = 15.39736 42.38450 28.89093
# Shear Modulus (GPa) = 29.28150 42.45000 35.86575
#
# Velocity S-wave (km/s) = 3.43020 4.13011 3.79632
# Velocity P-wave (km/s) = 4.67713 6.30676 5.55206
#
# Compressibility (1/GPa) = 0.06494621
#
# Stress axis : x y z
#
# Youngs Moduli (GPa) = 44.16682 53.74993 116.31190
#
# Poissons Ratio (x) = -0.45157 0.00713
# Poissons Ratio (y) = -0.37106 0.09174
# Poissons Ratio (z) = 0.00271 0.04239
#
# Static dielectric constant tensor:
#      x y z
#    x 1.984110 0.000000 -0.018410 
#    y 0.000000 2.012230 0.000000 
#    z -0.018410 0.000000 2.050860 
# 
# From -- ./inp_files/23995.got.cif
#   From: 2010.05.17/outbox.cif.g08.bks.cpg/sg9_12_cif.got.tgz:23995.got - 2010.06.03 20:04:27.
