data_PCOD9136248
_publ_section_title
;
Structure prediction by ZEFSAII (Michael W. Deem and Ramdas Pophale) SiO2 
 PCOD9136248
Probable space group: C C
;
_chemical_formula_sum "Si O2"
_cell_formula_units_Z 32
_cell_length_a 10.918682
_cell_length_b 10.297334
_cell_length_c 19.453002
_cell_angle_alpha 90.000000
_cell_angle_beta 140.335809
_cell_angle_gamma 90.000000
_cell_volume 1396.038939
_symmetry_space_group_name_H-M "C C"
_symmetry_group_IT_number 9
_symmetry_cell_setting 'monoclinic'
loop_
_space_group_symop_operation_xyz
x,y,z
x,-y,1/2+z
1/2+x,1/2+y,z
1/2+x,1/2-y,1/2+z
loop_
_atom_site_type_symbol
_atom_site_label
_atom_site_fract_x
_atom_site_fract_y
_atom_site_fract_z
Si Si1 0.498490 0.433987 0.359820
Si Si2 0.550406 0.524429 0.242060
Si Si3 0.521458 0.698567 0.005110
Si Si4 0.390728 0.832614 0.740020
Si Si5 0.594262 0.946349 0.703346
Si Si6 0.593183 0.993812 0.545679
Si Si7 0.085582 0.691266 0.787142
Si Si8 0.896495 0.414159 0.326992
O O1 0.615959 0.498820 0.349505
O O2 0.596046 0.375122 0.468855
O O3 0.413044 0.304998 0.286357
O O4 0.325207 0.530775 0.305142
O O5 0.324117 0.506821 0.139490
O O6 0.596450 0.674705 0.251826
O O7 0.673969 0.432839 0.247343
O O8 0.666870 0.650547 0.125565
O O9 0.534028 0.855136 0.009840
O O10 0.296897 0.663154 0.909622
O O11 0.511684 0.841040 0.721005
O O12 0.459821 0.950056 0.817992
O O13 0.544446 0.942879 0.601268
O O14 0.521129 0.081010 0.706205
O O15 0.505486 0.908079 0.446433
O O16 0.943909 0.693058 0.790906
#
# Coordination Sequence:
#
# PCOD9136248 Si02
#       8
#     4   4   4   4   4   4   4   4
#     4  10  21  40  61  92 126 172 216 274 334 384
#     4  11  23  40  64  94 139 172 219 278 338 398
#     4  11  21  40  68  92 122 180 226 270 341 395
#     4  11  21  39  67  92 128 167 223 274 323 400
#     4   9  21  39  62  92 124 170 220 273 327 396
#     4  11  22  40  68  94 128 177 222 273 344 396
#     4  10  23  42  64  92 137 172 225 277 335 395
#     4  11  24  42  64 100 130 172 223 281 326 406
#
# _framework density 22.921997000000001
#
# number of rings (size 3 to 8) (size 9 to 14) (size 15 to 20)
#    0.000    1.500    5.000    0.750    3.500    2.000 
#    0.000    0.000    0.000    0.000    0.000    0.000 
#    0.000    0.000    0.000    0.000    0.000    0.000 
#
# Total GULP energy -89383.835734 kJ/mol
# GULP energy per Si atom -5586.489733 kJ/mol
# Density = 2.286983 g / cm^3
# Si number density = 22.921997 Si / 1000 Ang^3
#
#
#
# Elastic Constant Matrix: (Units=GPa)
#
#
# Indices 1 2 3 4 5 6 
#
# 1 138.3640 10.5176 30.6440 0.0000 -7.2259 0.0000
# 2 10.5176 44.5811 8.9325 0.0000 2.0596 0.0000
# 3 30.6440 8.9325 95.3301 0.0000 -17.5272 0.0000
# 4 0.0000 0.0000 0.0000 21.2853 0.0000 1.7918
# 5 -7.2259 2.0596 -17.5272 0.0000 35.7824 0.0000
# 6 0.0000 0.0000 0.0000 1.7918 0.0000 24.9290
#
#
#
# Elastic Compliance Matrix: (Units=1/GPa)
#
#
# Indices 1 2 3 4 5 6 
#
# 1 0.007873 -0.001422 -0.002297 0.000000 0.000547 0.000000
# 2 -0.001422 0.023339 -0.002230 0.000000 -0.002723 0.000000
# 3 -0.002297 -0.002230 0.012501 0.000000 0.005788 0.000000
# 4 0.000000 0.000000 0.000000 0.047267 0.000000 -0.003397
# 5 0.000547 -0.002723 0.005788 0.000000 0.031049 0.000000
# 6 0.000000 0.000000 0.000000 -0.003397 0.000000 0.040358
#
#
# Mechanical properties :
#
#
# Convention : Reuss Voigt Hill
#
# Bulk Modulus (GPa) = 31.43261 42.05148 36.74204
# Shear Modulus (GPa) = 27.04297 31.61144 29.32720
#
# Velocity S-wave (km/s) = 3.43852 3.71764 3.58080
# Velocity P-wave (km/s) = 5.43205 6.06738 5.75848
#
# Compressibility (1/GPa) = 0.03181409
#
# Stress axis : x y z
#
# Youngs Moduli (GPa) = 127.02154 42.84625 79.99118
#
# Poissons Ratio (x) = 0.06094 0.18373
# Poissons Ratio (y) = 0.18067 0.17841
# Poissons Ratio (z) = 0.29176 0.09556
#
# Static dielectric constant tensor:
#      x y z
#    x 1.912870 0.000000 0.001080 
#    y 0.000000 1.831390 0.000000 
#    z 0.001080 0.000000 1.838980 
# 
# From -- ./inp_files/20964.got.cif
#   From: 2010.05.17/outbox.cif.g08.bks.cpg/sg9_11_cif.got.tgz:20964.got - 2010.06.03 20:04:27.
