data_PCOD9136008
_publ_section_title
;
Structure prediction by ZEFSAII (Michael W. Deem and Ramdas Pophale) SiO2 
 PCOD9136008
Probable space group: C C
;
_chemical_formula_sum "Si O2"
_cell_formula_units_Z 32
_cell_length_a 26.971605
_cell_length_b 9.436638
_cell_length_c 8.665799
_cell_angle_alpha 90.000000
_cell_angle_beta 50.014346
_cell_angle_gamma 90.000000
_cell_volume 1689.965681
_symmetry_space_group_name_H-M "C C"
_symmetry_group_IT_number 9
_symmetry_cell_setting 'monoclinic'
loop_
_space_group_symop_operation_xyz
x,y,z
x,-y,1/2+z
1/2+x,1/2+y,z
1/2+x,1/2-y,1/2+z
loop_
_atom_site_type_symbol
_atom_site_label
_atom_site_fract_x
_atom_site_fract_y
_atom_site_fract_z
Si Si1 0.965650 0.154828 0.910130
Si Si2 0.324541 0.657422 0.692494
Si Si3 0.590546 0.158094 0.160314
Si Si4 0.090545 0.658133 0.529776
Si Si5 0.965646 0.154792 0.279512
Si Si6 0.208481 0.841888 0.793552
Si Si7 0.824540 0.157466 0.061627
Si Si8 0.208478 0.841930 0.424802
O O1 0.022254 0.265708 0.763177
O O2 0.983831 0.000023 0.808437
O O3 0.957342 0.144188 0.111432
O O4 0.897092 0.193860 0.971599
O O5 0.397090 0.693807 0.492295
O O6 0.272724 0.766340 0.729352
O O7 0.310507 0.499971 0.655148
O O8 0.321475 0.654124 0.883192
O O9 0.599314 0.155511 0.327509
O O10 0.591707 0.999974 0.092742
O O11 0.647656 0.249848 0.971829
O O12 0.147653 0.749905 0.489803
O O13 0.022251 0.734332 0.700070
O O14 0.210297 0.845601 0.605541
O O15 0.203168 0.999974 0.869814
O O16 0.772722 0.266393 0.232017
#
# Coordination Sequence:
#
# PCOD9136008 Si02
#       8
#     4   4   4   4   4   4   4   4
#     4  10  21  38  61  89 121 157 199 245 296 353
#     4  11  22  39  63  90 122 159 200 244 295 352
#     4  11  24  41  62  89 121 158 200 246 297 352
#     4  11  24  41  62  89 121 158 200 246 297 352
#     4  10  21  38  61  89 121 157 199 245 296 353
#     4  12  25  42  63  88 120 156 199 247 298 355
#     4  11  22  39  63  90 122 159 200 244 295 352
#     4  12  25  42  63  88 120 156 199 247 298 355
#
# _framework density 18.935296999999998
#
# number of rings (size 3 to 8) (size 9 to 14) (size 15 to 20)
#    0.000    1.000    0.000    9.000    0.000    7.000 
#    0.000    2.500    0.000    0.000    0.000    0.000 
#    0.000    0.000    0.000    0.000    0.000    0.000 
#
# Total GULP energy -89547.135338 kJ/mol
# GULP energy per Si atom -5596.695959 kJ/mol
# Density = 1.889220 g / cm^3
# Si number density = 18.935297 Si / 1000 Ang^3
#
#
#
# Elastic Constant Matrix: (Units=GPa)
#
#
# Indices 1 2 3 4 5 6 
#
# 1 171.2907 120.8736 74.7959 0.0000 13.3391 0.0000
# 2 120.8736 183.8933 116.7691 0.0000 -14.6773 0.0000
# 3 74.7959 116.7691 177.3676 0.0000 6.8432 0.0000
# 4 0.0000 0.0000 0.0000 29.4386 0.0000 -4.8394
# 5 13.3391 -14.6773 6.8432 0.0000 27.7338 0.0000
# 6 0.0000 0.0000 0.0000 -4.8394 0.0000 30.8674
#
#
#
# Elastic Compliance Matrix: (Units=1/GPa)
#
#
# Indices 1 2 3 4 5 6 
#
# 1 0.014445 -0.012179 0.002466 0.000000 -0.014002 0.000000
# 2 -0.012179 0.020949 -0.009399 0.000000 0.019263 0.000000
# 3 0.002466 -0.009399 0.011129 0.000000 -0.008906 0.000000
# 4 0.000000 0.000000 0.000000 0.034868 0.000000 0.005467
# 5 -0.014002 0.019263 -0.008906 0.000000 0.055184 0.000000
# 6 0.000000 0.000000 0.000000 0.005467 0.000000 0.033254
#
#
# Mechanical properties :
#
#
# Convention : Reuss Voigt Hill
#
# Bulk Modulus (GPa) = 120.46843 128.60322 124.53582
# Shear Modulus (GPa) = 23.71717 32.28216 27.99967
#
# Velocity S-wave (km/s) = 3.54296 4.13348 3.84956
# Velocity P-wave (km/s) = 8.97195 9.53129 9.25585
#
# Compressibility (1/GPa) = 0.00830093
#
# Stress axis : x y z
#
# Youngs Moduli (GPa) = 69.22586 47.73589 89.85283
#
# Poissons Ratio (x) = 0.58136 -0.22160
# Poissons Ratio (y) = 0.84308 0.84452
# Poissons Ratio (z) = -0.17073 0.44866
#
# Static dielectric constant tensor:
#      x y z
#    x 1.635740 0.000000 -0.002820 
#    y 0.000000 1.617980 0.000000 
#    z -0.002820 0.000000 1.634900 
# 
# From -- ./inp_files/12376.got.cif
#   From: 2010.05.17/outbox.cif.g08.bks.cpg/sg9_7_cif.got.tgz:12376.got - 2010.06.03 20:04:27.
