data_PCOD9136478
_publ_section_title
;
Structure prediction by ZEFSAII (Michael W. Deem and Ramdas Pophale) SiO2 
 PCOD9136478
Probable space group: C C
;
_chemical_formula_sum "Si O2"
_cell_formula_units_Z 32
_cell_length_a 9.746278
_cell_length_b 10.471173
_cell_length_c 19.156021
_cell_angle_alpha 90.000000
_cell_angle_beta 134.517169
_cell_angle_gamma 90.000000
_cell_volume 1393.970435
_symmetry_space_group_name_H-M "C C"
_symmetry_group_IT_number 9
_symmetry_cell_setting 'monoclinic'
loop_
_space_group_symop_operation_xyz
x,y,z
x,-y,1/2+z
1/2+x,1/2+y,z
1/2+x,1/2-y,1/2+z
loop_
_atom_site_type_symbol
_atom_site_label
_atom_site_fract_x
_atom_site_fract_y
_atom_site_fract_z
Si Si1 0.963760 0.194120 0.703830
Si Si2 0.787306 0.953535 0.719232
Si Si3 0.843331 0.440371 0.602077
Si Si4 0.305128 0.632931 0.377388
Si Si5 0.660257 0.087375 0.922113
Si Si6 0.425005 0.664456 0.134995
Si Si7 0.749910 0.519332 0.724682
Si Si8 0.181224 0.845651 0.977021
O O1 0.864793 0.086662 0.715933
O O2 0.818910 0.291463 0.614099
O O3 0.117461 0.279597 0.803111
O O4 0.094813 0.124934 0.692233
O O5 0.561459 0.949318 0.653152
O O6 0.870984 0.913099 0.823730
O O7 0.856101 0.848620 0.688726
O O8 0.806957 0.510043 0.663917
O O9 0.710000 0.503036 0.495485
O O10 0.263156 0.508054 0.406229
O O11 0.507267 0.698482 0.467661
O O12 0.438393 0.046745 0.838243
O O13 0.777719 0.075950 0.036389
O O14 0.675200 0.240276 0.913031
O O15 0.639445 0.612416 0.203114
O O16 0.382109 0.799839 0.085881
#
# Coordination Sequence:
#
# PCOD9136478 Si02
#       8
#     4   4   4   4   4   4   4   4
#     4  10  22  40  66  96 130 173 228 274 345 404
#     4  10  23  43  65 103 130 174 236 281 335 417
#     4  11  24  39  69  96 134 178 225 277 351 401
#     4  11  21  44  67  97 135 179 228 280 353 401
#     4  10  21  41  67 100 134 181 229 278 347 409
#     4   9  23  42  68 100 136 179 236 275 355 404
#     4  11  20  43  73  93 138 186 218 290 344 413
#     4  10  24  40  65  99 141 174 228 283 338 415
#
# _framework density 22.956009999999999
#
# number of rings (size 3 to 8) (size 9 to 14) (size 15 to 20)
#    0.750    1.000    3.750    0.750    5.250    0.000 
#    6.750    1.250    0.000    0.000    0.000    0.000 
#    0.000    0.000    0.000    0.000    0.000    0.000 
#
# Total GULP energy -89126.557390 kJ/mol
# GULP energy per Si atom -5570.409837 kJ/mol
# Density = 2.290376 g / cm^3
# Si number density = 22.956010 Si / 1000 Ang^3
#
#
#
# Elastic Constant Matrix: (Units=GPa)
#
#
# Indices 1 2 3 4 5 6 
#
# 1 92.9868 5.4386 -0.6283 0.0000 -12.0121 0.0000
# 2 5.4386 66.2801 -24.0259 0.0000 -4.1667 0.0000
# 3 -0.6283 -24.0259 34.0224 0.0000 3.9121 0.0000
# 4 0.0000 0.0000 0.0000 -36.5003 0.0000 16.1800
# 5 -12.0121 -4.1667 3.9121 0.0000 23.5891 0.0000
# 6 0.0000 0.0000 0.0000 16.1800 0.0000 37.4843
#
#
#
# Elastic Compliance Matrix: (Units=1/GPa)
#
#
# Indices 1 2 3 4 5 6 
#
# 1 0.011568 -0.001004 -0.001174 0.000000 0.005908 0.000000
# 2 -0.001004 0.020401 0.014305 0.000000 0.000720 0.000000
# 3 -0.001174 0.014305 0.040014 0.000000 -0.004707 0.000000
# 4 0.000000 0.000000 0.000000 -0.022997 0.000000 0.009926
# 5 0.005908 0.000720 -0.004707 0.000000 0.046309 0.000000
# 6 0.000000 0.000000 0.000000 0.009926 0.000000 0.022393
#
#
# Mechanical properties :
#
#
# Convention : Reuss Voigt Hill
#
# Bulk Modulus (GPa) = 10.39098 17.20645 13.79871
# Shear Modulus (GPa) = 39.83661 19.08161 29.45911
#
# Velocity S-wave (km/s) = 4.17027 2.88623 3.58618
# Velocity P-wave (km/s) = 5.26540 4.31494 4.81369
#
# Compressibility (1/GPa) = 0.09623734
#
# Stress axis : x y z
#
# Youngs Moduli (GPa) = 86.44374 49.01823 24.99124
#
# Poissons Ratio (x) = 0.04919 0.02935
# Poissons Ratio (y) = 0.08675 -0.35750
# Poissons Ratio (z) = 0.10152 -0.70121
#
# Static dielectric constant tensor:
#      x y z
#    x 1.892670 0.000000 0.218780 
#    y 0.000000 2.020340 0.000000 
#    z 0.218780 0.000000 2.501080 
# 
# From -- ./inp_files/32642.got.cif
#   From: 2010.05.17/outbox.cif.g08.bks.cpg/sg9_17_cif.got.tgz:32642.got - 2010.06.03 20:04:27.
