data_PCOD9136832
_publ_section_title
;
Structure prediction by ZEFSAII (Michael W. Deem and Ramdas Pophale) SiO2 
 PCOD9136832
Probable space group: C C
;
_chemical_formula_sum "Si O2"
_cell_formula_units_Z 32
_cell_length_a 9.681104
_cell_length_b 11.651518
_cell_length_c 20.631390
_cell_angle_alpha 90.000000
_cell_angle_beta 147.497862
_cell_angle_gamma 90.000000
_cell_volume 1250.483154
_symmetry_space_group_name_H-M "C C"
_symmetry_group_IT_number 9
_symmetry_cell_setting 'monoclinic'
loop_
_space_group_symop_operation_xyz
x,y,z
x,-y,1/2+z
1/2+x,1/2+y,z
1/2+x,1/2-y,1/2+z
loop_
_atom_site_type_symbol
_atom_site_label
_atom_site_fract_x
_atom_site_fract_y
_atom_site_fract_z
Si Si1 0.112050 0.973711 0.715250
Si Si2 0.661002 0.327204 0.935997
Si Si3 0.437632 0.099336 0.231167
Si Si4 0.283688 0.246746 0.946878
Si Si5 0.451054 0.459521 0.279310
Si Si6 0.894093 0.691010 0.399958
Si Si7 0.615938 0.263136 0.187867
Si Si8 0.495593 0.861076 0.182955
O O1 0.189959 0.898381 0.682161
O O2 0.356262 0.938013 0.857836
O O3 0.066039 0.101632 0.672227
O O4 0.907411 0.976093 0.693817
O O5 0.561886 0.452864 0.876220
O O6 0.886396 0.301177 0.973601
O O7 0.414111 0.250240 0.824565
O O8 0.752054 0.322275 0.045104
O O9 0.689152 0.139029 0.372066
O O10 0.462496 0.182861 0.178793
O O11 0.449941 0.969098 0.211383
O O12 0.160510 0.142814 0.857429
O O13 0.116202 0.251958 0.947223
O O14 0.555364 0.231179 0.089204
O O15 0.193215 0.407928 0.206483
O O16 0.639117 0.758496 0.275614
#
# Coordination Sequence:
#
# PCOD9136832 Si02
#       8
#     4   4   4   4   4   4   4   4
#     4  10  23  44  68 100 145 185 250 300 366 452
#     4  11  24  42  70 106 144 191 246 306 373 453
#     4  11  23  45  70 107 143 186 248 304 368 446
#     4  10  23  43  73 102 143 193 244 311 379 453
#     4  10  21  44  69 100 141 190 240 303 375 453
#     4   9  23  45  65 104 138 190 251 297 376 445
#     4  12  24  44  71 110 147 195 247 313 388 444
#     4  11  23  45  74 101 145 192 250 308 375 450
#
# _framework density 25.590108000000001
#
# number of rings (size 3 to 8) (size 9 to 14) (size 15 to 20)
#    0.000    1.500    2.500    1.500    1.750    2.000 
#   11.250    0.000    0.000    0.000    0.000    0.000 
#    0.000    0.000    0.000    0.000    0.000    0.000 
#
# Total GULP energy -89288.177334 kJ/mol
# GULP energy per Si atom -5580.511083 kJ/mol
# Density = 2.553186 g / cm^3
# Si number density = 25.590108 Si / 1000 Ang^3
#
#
#
# Elastic Constant Matrix: (Units=GPa)
#
#
# Indices 1 2 3 4 5 6 
#
# 1 123.6709 24.6512 30.3460 0.0000 -33.9038 -0.0002
# 2 24.6512 82.7862 27.5226 -0.0001 -17.8860 0.0001
# 3 30.3460 27.5226 129.9235 -0.0001 -27.3998 -0.0002
# 4 0.0000 -0.0001 -0.0001 23.6755 0.0000 -14.3108
# 5 -33.9038 -17.8860 -27.3998 0.0000 33.5038 -0.0002
# 6 -0.0002 0.0001 -0.0002 -14.3108 -0.0002 26.4078
#
#
#
# Elastic Compliance Matrix: (Units=1/GPa)
#
#
# Indices 1 2 3 4 5 6 
#
# 1 0.011267 -0.000980 -0.000157 0.000000 0.010750 0.000000
# 2 -0.000980 0.014034 -0.001659 0.000000 0.005143 0.000000
# 3 -0.000157 -0.001659 0.009504 0.000000 0.006728 0.000000
# 4 0.000000 0.000000 0.000000 0.062813 0.000001 0.034039
# 5 0.010750 0.005143 0.006728 0.000001 0.048973 0.000001
# 6 0.000000 0.000000 0.000000 0.034039 0.000001 0.056314
#
#
# Mechanical properties :
#
#
# Convention : Reuss Voigt Hill
#
# Bulk Modulus (GPa) = 34.23290 55.71336 44.97313
# Shear Modulus (GPa) = 22.91106 33.64146 28.27626
#
# Velocity S-wave (km/s) = 2.99542 3.62971 3.32771
# Velocity P-wave (km/s) = 5.03685 6.27576 5.69012
#
# Compressibility (1/GPa) = 0.02921166
#
# Stress axis : x y z
#
# Youngs Moduli (GPa) = 88.75593 71.25539 105.22094
#
# Poissons Ratio (x) = 0.06985 0.01651
# Poissons Ratio (y) = 0.08701 0.17460
# Poissons Ratio (z) = 0.01393 0.11824
#
# Static dielectric constant tensor:
#      x y z
#    x 2.138940 0.000000 0.065650 
#    y 0.000000 1.991830 0.000000 
#    z 0.065650 0.000000 2.102960 
# 
# From -- ./inp_files/33358.got.cif
#   From: 2010.05.17/outbox.cif.g08.bks.cpg/sg9_17_cif.got.tgz:33358.got - 2010.06.03 20:04:27.
