data_PCOD9136677
_publ_section_title
;
Structure prediction by ZEFSAII (Michael W. Deem and Ramdas Pophale) SiO2 
 PCOD9136677
Probable space group: C C
;
_chemical_formula_sum "Si O2"
_cell_formula_units_Z 28
_cell_length_a 7.709041
_cell_length_b 10.889749
_cell_length_c 21.173611
_cell_angle_alpha 90.000000
_cell_angle_beta 51.499776
_cell_angle_gamma 90.000000
_cell_volume 1391.093030
_symmetry_space_group_name_H-M "C C"
_symmetry_group_IT_number 9
_symmetry_cell_setting 'monoclinic'
loop_
_space_group_symop_operation_xyz
x,y,z
x,-y,1/2+z
1/2+x,1/2+y,z
1/2+x,1/2-y,1/2+z
loop_
_atom_site_type_symbol
_atom_site_label
_atom_site_fract_x
_atom_site_fract_y
_atom_site_fract_z
Si Si1 0.021700 0.916959 0.005200
Si Si2 0.850339 0.994087 0.418729
Si Si3 0.504513 0.667049 0.702368
Si Si4 0.737885 0.735638 0.143420
Si Si5 0.358742 0.598762 0.288754
Si Si6 0.919427 0.277049 0.853523
Si Si7 0.832483 0.478928 0.053738
O O1 0.809359 0.844409 0.080548
O O2 0.168599 0.969132 0.029911
O O3 0.182178 0.829260 0.927797
O O4 0.934421 0.005869 0.971194
O O5 0.913818 0.860202 0.380557
O O6 0.589490 0.025280 0.478373
O O7 0.940358 0.084124 0.342798
O O8 0.377281 0.730964 0.673892
O O9 0.399129 0.534221 0.746472
O O10 0.482410 0.758532 0.766097
O O11 0.745807 0.627716 0.620897
O O12 0.490817 0.706553 0.222798
O O13 0.805513 0.608891 0.094777
O O14 0.103697 0.636062 0.342411
#
# Coordination Sequence:
#
# PCOD9136677 Si02
#       7
#     4   4   4   4   4   4   4
#     4  11  23  39  64  93 126 168 208 253 311 363
#     4  11  23  40  64  93 125 167 205 255 312 361
#     4   9  22  40  62  88 125 165 205 258 307 362
#     4  10  21  43  62  89 128 165 202 260 309 359
#     4  10  22  40  63  91 126 161 212 256 302 371
#     4  11  22  41  63  95 124 163 210 256 306 366
#     4  10  21  43  60  93 132 155 212 260 295 378
#
# _framework density 20.128056000000001
#
# number of rings (size 3 to 8) (size 9 to 14) (size 15 to 20)
#    0.000    1.714    2.857    0.857    2.000    2.286 
#    7.714    0.000    0.000    0.000    0.000    0.000 
#    0.000    0.000    0.000    0.000    0.000    0.000 
#
# Total GULP energy -78005.815842 kJ/mol
# GULP energy per Si atom -5571.843989 kJ/mol
# Density = 2.008224 g / cm^3
# Si number density = 20.128056 Si / 1000 Ang^3
#
#
#
# Elastic Constant Matrix: (Units=GPa)
#
#
# Indices 1 2 3 4 5 6 
#
# 1 52.4888 17.2786 26.3323 -0.0001 22.3940 0.0000
# 2 17.2786 31.2727 14.3521 0.0000 10.1877 0.0000
# 3 26.3323 14.3521 88.2212 -0.0001 17.7616 0.0000
# 4 -0.0001 0.0000 -0.0001 55.7944 0.0000 -6.7516
# 5 22.3940 10.1877 17.7616 0.0000 36.3730 0.0000
# 6 0.0000 0.0000 0.0000 -6.7516 0.0000 25.8053
#
#
#
# Elastic Compliance Matrix: (Units=1/GPa)
#
#
# Indices 1 2 3 4 5 6 
#
# 1 0.030648 -0.010313 -0.004716 0.000000 -0.013678 0.000000
# 2 -0.010313 0.040082 -0.002729 0.000000 -0.003544 0.000000
# 3 -0.004716 -0.002729 0.013806 0.000000 -0.003073 0.000000
# 4 0.000000 0.000000 0.000000 0.018509 0.000000 0.004843
# 5 -0.013678 -0.003544 -0.003073 0.000000 0.038408 0.000000
# 6 0.000000 0.000000 0.000000 0.004843 0.000000 0.040019
#
#
# Mechanical properties :
#
#
# Convention : Reuss Voigt Hill
#
# Bulk Modulus (GPa) = 20.40030 31.98988 26.19509
# Shear Modulus (GPa) = 21.42909 31.19586 26.31248
#
# Velocity S-wave (km/s) = 3.26642 3.94111 3.61952
# Velocity P-wave (km/s) = 4.93794 6.05289 5.52362
#
# Compressibility (1/GPa) = 0.04901889
#
# Stress axis : x y z
#
# Youngs Moduli (GPa) = 32.62824 24.94888 72.43443
#
# Poissons Ratio (x) = 0.25731 0.34163
# Poissons Ratio (y) = 0.33651 0.19766
# Poissons Ratio (z) = 0.15389 0.06808
#
# Static dielectric constant tensor:
#      x y z
#    x 1.694040 0.000000 0.010900 
#    y 0.000000 1.642730 0.000000 
#    z 0.010900 0.000000 1.778930 
# 
# From -- ./inp_files/22584.got.cif
#   From: 2010.05.17/outbox.cif.g08.bks.cpg/sg9_12_cif.got.tgz:22584.got - 2010.06.03 20:04:27.
