data_PCOD9136429
_publ_section_title
;
Structure prediction by ZEFSAII (Michael W. Deem and Ramdas Pophale) SiO2 
 PCOD9136429
Probable space group: C C
;
_chemical_formula_sum "Si O2"
_cell_formula_units_Z 32
_cell_length_a 27.124826
_cell_length_b 9.165678
_cell_length_c 8.553151
_cell_angle_alpha 90.000000
_cell_angle_beta 34.731890
_cell_angle_gamma 90.000000
_cell_volume 1211.524337
_symmetry_space_group_name_H-M "C C"
_symmetry_group_IT_number 9
_symmetry_cell_setting 'monoclinic'
loop_
_space_group_symop_operation_xyz
x,y,z
x,-y,1/2+z
1/2+x,1/2+y,z
1/2+x,1/2-y,1/2+z
loop_
_atom_site_type_symbol
_atom_site_label
_atom_site_fract_x
_atom_site_fract_y
_atom_site_fract_z
Si Si1 0.109990 0.484315 0.334300
Si Si2 0.882452 0.714822 0.240104
Si Si3 0.127759 0.934250 0.931165
Si Si4 0.451153 0.667179 0.048541
Si Si5 0.586695 0.295415 0.710908
Si Si6 0.858610 0.969444 0.500923
Si Si7 0.701746 0.178246 0.880505
Si Si8 0.914566 0.558362 0.846589
O O1 0.116123 0.368470 0.173907
O O2 0.163988 0.406349 0.327645
O O3 0.011053 0.505062 0.644608
O O4 0.141738 0.637736 0.184099
O O5 0.831378 0.851970 0.441150
O O6 0.871491 0.586613 0.394129
O O7 0.869653 0.639210 0.107353
O O8 0.982363 0.774600 0.976120
O O9 0.043476 0.857679 0.230120
O O10 0.121087 0.105951 0.980025
O O11 0.119809 0.889849 0.772444
O O12 0.204636 0.845661 0.817228
O O13 0.441342 0.558409 0.220949
O O14 0.430796 0.827124 0.164116
O O15 0.382737 0.614489 0.095691
O O16 0.788888 0.094959 0.696064
#
# Coordination Sequence:
#
# PCOD9136429 Si02
#       8
#     4   4   4   4   4   4   4   4
#     4  10  21  41  63  99 135 179 231 286 360 422
#     4  11  22  39  62 103 140 182 239 299 367 415
#     4  11  21  40  63 103 132 182 240 295 345 416
#     4  12  22  41  66 100 140 186 243 301 351 423
#     4  10  22  35  64  97 132 169 234 299 341 406
#     4  12  25  42  66 101 144 189 241 297 366 432
#     4  11  24  42  66  96 144 186 230 289 365 434
#     4  11  23  38  70 103 141 181 240 314 345 418
#
# _framework density 26.413004999999998
#
# number of rings (size 3 to 8) (size 9 to 14) (size 15 to 20)
#    0.000    1.000    3.750    3.750    3.500    1.000 
#    0.000    1.250    0.000    6.000    0.000    0.000 
#    0.000    0.000    0.000    0.000    0.000    0.000 
#
# Total GULP energy -89669.055620 kJ/mol
# GULP energy per Si atom -5604.315976 kJ/mol
# Density = 2.635289 g / cm^3
# Si number density = 26.413005 Si / 1000 Ang^3
#
#
#
# Elastic Constant Matrix: (Units=GPa)
#
#
# Indices 1 2 3 4 5 6 
#
# 1 108.4245 44.0636 14.8278 0.0000 7.2788 0.0000
# 2 44.0636 164.8351 20.9752 0.0000 14.5680 0.0000
# 3 14.8278 20.9752 32.5355 0.0000 8.5518 0.0000
# 4 0.0000 0.0000 0.0000 45.3362 0.0000 15.2190
# 5 7.2788 14.5680 8.5518 0.0000 27.7991 0.0000
# 6 0.0000 0.0000 0.0000 15.2190 0.0000 50.8839
#
#
#
# Elastic Compliance Matrix: (Units=1/GPa)
#
#
# Indices 1 2 3 4 5 6 
#
# 1 0.010669 -0.002399 -0.003168 0.000000 -0.000562 0.000000
# 2 -0.002399 0.007292 -0.003012 0.000000 -0.002266 0.000000
# 3 -0.003168 -0.003012 0.036434 0.000000 -0.008801 0.000000
# 4 0.000000 0.000000 0.000000 0.024519 0.000000 -0.007334
# 5 -0.000562 -0.002266 -0.008801 0.000000 0.040014 0.000000
# 6 0.000000 0.000000 0.000000 -0.007334 0.000000 0.021846
#
#
# Mechanical properties :
#
#
# Convention : Reuss Voigt Hill
#
# Bulk Modulus (GPa) = 26.85488 51.72537 39.29013
# Shear Modulus (GPa) = 29.35230 39.86574 34.60902
#
# Velocity S-wave (km/s) = 3.33721 3.88921 3.62374
# Velocity P-wave (km/s) = 5.00386 6.30823 5.69352
#
# Compressibility (1/GPa) = 0.03723718
#
# Stress axis : x y z
#
# Youngs Moduli (GPa) = 93.72939 137.14457 27.44676
#
# Poissons Ratio (x) = 0.32905 0.08695
# Poissons Ratio (y) = 0.22488 0.08266
# Poissons Ratio (z) = 0.29692 0.41303
#
# Static dielectric constant tensor:
#      x y z
#    x 2.102710 0.000000 -0.026540 
#    y 0.000000 2.019180 0.000000 
#    z -0.026540 0.000000 2.093520 
# 
# From -- ./inp_files/12417.got.cif
#   From: 2010.05.17/outbox.cif.g08.bks.cpg/sg9_7_cif.got.tgz:12417.got - 2010.06.03 20:04:27.
