data_PCOD9136494
_publ_section_title
;
Structure prediction by ZEFSAII (Michael W. Deem and Ramdas Pophale) SiO2 
 PCOD9136494
Probable space group: C C
;
_chemical_formula_sum "Si O2"
_cell_formula_units_Z 32
_cell_length_a 13.840570
_cell_length_b 6.658536
_cell_length_c 16.503460
_cell_angle_alpha 90.000000
_cell_angle_beta 70.651763
_cell_angle_gamma 90.000000
_cell_volume 1435.026528
_symmetry_space_group_name_H-M "C C"
_symmetry_group_IT_number 9
_symmetry_cell_setting 'monoclinic'
loop_
_space_group_symop_operation_xyz
x,y,z
x,-y,1/2+z
1/2+x,1/2+y,z
1/2+x,1/2-y,1/2+z
loop_
_atom_site_type_symbol
_atom_site_label
_atom_site_fract_x
_atom_site_fract_y
_atom_site_fract_z
Si Si1 0.450210 0.970926 0.399180
Si Si2 0.082087 0.997829 0.497687
Si Si3 0.807797 0.373936 0.681444
Si Si4 0.267951 0.725775 0.511741
Si Si5 0.945886 0.323314 0.077410
Si Si6 0.084052 0.883610 0.817230
Si Si7 0.983482 0.218899 0.748165
Si Si8 0.122376 0.392686 0.583510
O O1 0.362671 0.798335 0.430702
O O2 0.549000 0.840179 0.349363
O O3 0.448104 0.081269 0.486563
O O4 0.444351 0.139524 0.332057
O O5 0.174857 0.862668 0.504702
O O6 0.976299 0.906607 0.560651
O O7 0.079338 0.993204 0.402086
O O8 0.099106 0.219945 0.525427
O O9 0.793003 0.284077 0.596595
O O10 0.847725 0.600924 0.652811
O O11 0.699706 0.376954 0.754858
O O12 0.894688 0.251466 0.706121
O O13 0.229635 0.495909 0.530097
O O14 0.039250 0.431454 0.097630
O O15 0.010846 0.997508 0.773288
O O16 0.091170 0.297135 0.678490
#
# Coordination Sequence:
#
# PCOD9136494 Si02
#       8
#     4   4   4   4   4   4   4   4
#     4  11  22  42  64  96 139 176 229 287 353 423
#     4  11  21  41  70  96 132 177 240 286 352 430
#     4  10  23  44  65  97 141 180 238 293 357 431
#     4  10  23  42  66  96 132 184 231 289 355 423
#     4   9  20  42  66  93 134 179 221 289 345 421
#     4  12  24  41  67 103 134 182 233 293 358 426
#     4  11  24  43  66  99 143 178 231 300 355 421
#     4  10  21  41  68 100 131 180 231 285 355 425
#
# _framework density 22.299237999999999
#
# number of rings (size 3 to 8) (size 9 to 14) (size 15 to 20)
#    0.000    1.500    2.500    2.250    0.000    4.000 
#    2.250    5.000    0.000    0.000    0.000    0.000 
#    0.000    0.000    0.000    0.000    0.000    0.000 
#
# Total GULP energy -89357.848602 kJ/mol
# GULP energy per Si atom -5584.865538 kJ/mol
# Density = 2.224848 g / cm^3
# Si number density = 22.299238 Si / 1000 Ang^3
#
#
#
# Elastic Constant Matrix: (Units=GPa)
#
#
# Indices 1 2 3 4 5 6 
#
# 1 40.2825 1.7907 -10.2574 0.0000 -8.3161 0.0000
# 2 1.7907 55.4886 -8.1601 0.0000 -8.9738 0.0000
# 3 -10.2574 -8.1601 37.8510 0.0000 -10.3048 0.0000
# 4 0.0000 0.0000 0.0000 32.1732 0.0000 -3.8147
# 5 -8.3161 -8.9738 -10.3048 0.0000 50.8148 0.0000
# 6 0.0000 0.0000 0.0000 -3.8147 0.0000 35.3207
#
#
#
# Elastic Compliance Matrix: (Units=1/GPa)
#
#
# Indices 1 2 3 4 5 6 
#
# 1 0.028773 0.001695 0.010083 0.000000 0.007053 0.000000
# 2 0.001695 0.019662 0.006053 0.000000 0.004977 0.000000
# 3 0.010083 0.006053 0.033020 0.000000 0.009415 0.000000
# 4 0.000000 0.000000 0.000000 0.031485 0.000000 0.003400
# 5 0.007053 0.004977 0.009415 0.000000 0.023622 0.000000
# 6 0.000000 0.000000 0.000000 0.003400 0.000000 0.028679
#
#
# Mechanical properties :
#
#
# Convention : Reuss Voigt Hill
#
# Bulk Modulus (GPa) = 8.53856 11.15208 9.84532
# Shear Modulus (GPa) = 29.65279 33.67834 31.66556
#
# Velocity S-wave (km/s) = 3.65055 3.89046 3.77242
# Velocity P-wave (km/s) = 4.64824 5.01925 4.83730
#
# Compressibility (1/GPa) = 0.11711579
#
# Stress axis : x y z
#
# Youngs Moduli (GPa) = 34.75513 50.85930 30.28477
#
# Poissons Ratio (x) = -0.08620 -0.30535
# Poissons Ratio (y) = -0.05890 -0.18332
# Poissons Ratio (z) = -0.35042 -0.30786
#
# Static dielectric constant tensor:
#      x y z
#    x 1.854680 0.000000 -0.016790 
#    y 0.000000 1.843960 0.000000 
#    z -0.016790 0.000000 1.817360 
# 
# From -- ./inp_files/30358.got.cif
#   From: 2010.05.17/outbox.cif.g08.bks.cpg/sg9_16_cif.got.tgz:30358.got - 2010.06.03 20:04:27.
