data_PCOD9136618
_publ_section_title
;
Structure prediction by ZEFSAII (Michael W. Deem and Ramdas Pophale) SiO2 
 PCOD9136618
Probable space group: C C
;
_chemical_formula_sum "Si O2"
_cell_formula_units_Z 28
_cell_length_a 23.299146
_cell_length_b 8.290882
_cell_length_c 17.558881
_cell_angle_alpha 90.000000
_cell_angle_beta 19.412216
_cell_angle_gamma 90.000000
_cell_volume 1127.325250
_symmetry_space_group_name_H-M "C C"
_symmetry_group_IT_number 9
_symmetry_cell_setting 'monoclinic'
loop_
_space_group_symop_operation_xyz
x,y,z
x,-y,1/2+z
1/2+x,1/2+y,z
1/2+x,1/2-y,1/2+z
loop_
_atom_site_type_symbol
_atom_site_label
_atom_site_fract_x
_atom_site_fract_y
_atom_site_fract_z
Si Si1 0.345920 0.418827 0.278900
Si Si2 0.487951 0.250981 0.232456
Si Si3 0.546061 0.934114 0.396500
Si Si4 0.247378 0.759687 0.159264
Si Si5 0.690647 0.609955 0.248029
Si Si6 0.879621 0.471645 0.263497
Si Si7 0.675793 0.758425 0.928355
O O1 0.406581 0.400252 0.289390
O O2 0.272928 0.588195 0.342554
O O3 0.187296 0.292087 0.466243
O O4 0.519809 0.386891 0.014451
O O5 0.434704 0.256978 0.386502
O O6 0.384964 0.100627 0.323064
O O7 0.672159 0.780590 0.228364
O O8 0.372771 0.900118 0.564963
O O9 0.638078 0.105800 0.267849
O O10 0.491427 0.955095 0.553726
O O11 0.241168 0.762232 0.259419
O O12 0.177006 0.936565 0.224375
O O13 0.713142 0.398303 0.431438
O O14 0.980845 0.315864 0.167767
#
# Coordination Sequence:
#
# PCOD9136618 Si02
#       7
#     4   4   4   4   4   4   4
#     4  11  24  43  72 106 145 199 246 305 371 454
#     4  11  26  44  72 108 153 181 245 323 383 425
#     4  11  25  43  75 110 142 202 256 299 368 459
#     4  11  27  48  77 111 152 196 247 323 381 433
#     4  12  25  45  77 105 151 200 257 304 359 473
#     4  10  21  42  68 104 139 190 251 297 371 446
#     4  10  22  41  71 100 138 194 254 289 363 462
#
# _framework density 24.837553
#
# number of rings (size 3 to 8) (size 9 to 14) (size 15 to 20)
#    0.000    1.143    2.857    2.571    6.000    0.000 
#    2.571    0.000    0.000    0.000    0.000    0.000 
#    0.000    0.000    0.000    0.000    0.000    0.000 
#
# Total GULP energy -78259.046586 kJ/mol
# GULP energy per Si atom -5589.931899 kJ/mol
# Density = 2.478102 g / cm^3
# Si number density = 24.837553 Si / 1000 Ang^3
#
#
#
# Elastic Constant Matrix: (Units=GPa)
#
#
# Indices 1 2 3 4 5 6 
#
# 1 99.2961 56.3144 46.8974 0.0001 -28.3158 0.0000
# 2 56.3144 153.8269 47.5792 0.0000 -37.5074 0.0000
# 3 46.8974 47.5792 86.1166 0.0001 -19.8875 0.0000
# 4 0.0001 0.0000 0.0001 32.4770 0.0000 -27.1047
# 5 -28.3158 -37.5074 -19.8875 0.0000 38.9454 0.0001
# 6 0.0000 0.0000 0.0000 -27.1047 0.0001 47.0612
#
#
#
# Elastic Compliance Matrix: (Units=1/GPa)
#
#
# Indices 1 2 3 4 5 6 
#
# 1 0.016080 -0.002539 -0.005917 0.000000 0.006225 0.000000
# 2 -0.002539 0.009741 -0.002561 0.000000 0.006227 0.000000
# 3 -0.005917 -0.002561 0.016650 0.000000 0.001734 0.000000
# 4 0.000000 0.000000 0.000000 0.059290 0.000000 0.034148
# 5 0.006225 0.006227 0.001734 0.000000 0.037086 0.000000
# 6 0.000000 0.000000 0.000000 0.034148 0.000000 0.040916
#
#
# Mechanical properties :
#
#
# Convention : Reuss Voigt Hill
#
# Bulk Modulus (GPa) = 48.92965 71.20239 60.06602
# Shear Modulus (GPa) = 23.96825 36.25996 30.11411
#
# Velocity S-wave (km/s) = 3.10982 3.82499 3.48579
# Velocity P-wave (km/s) = 5.71290 6.94528 6.35901
#
# Compressibility (1/GPa) = 0.02043751
#
# Stress axis : x y z
#
# Youngs Moduli (GPa) = 62.18731 102.66038 60.06137
#
# Poissons Ratio (x) = 0.26066 0.35537
# Poissons Ratio (y) = 0.15789 0.15382
# Poissons Ratio (z) = 0.36795 0.26291
#
# Static dielectric constant tensor:
#      x y z
#    x 1.949190 0.000000 -0.027870 
#    y 0.000000 2.034500 0.000000 
#    z -0.027870 0.000000 1.953780 
# 
# From -- ./inp_files/31571.got.cif
#   From: 2010.05.17/outbox.cif.g08.bks.cpg/sg9_16_cif.got.tgz:31571.got - 2010.06.03 20:04:27.
