data_PCOD9136154
_publ_section_title
;
Structure prediction by ZEFSAII (Michael W. Deem and Ramdas Pophale) SiO2 
 PCOD9136154
Probable space group: C C
;
_chemical_formula_sum "Si O2"
_cell_formula_units_Z 32
_cell_length_a 11.621317
_cell_length_b 26.909572
_cell_length_c 5.120019
_cell_angle_alpha 90.000000
_cell_angle_beta 112.530780
_cell_angle_gamma 90.000000
_cell_volume 1478.946091
_symmetry_space_group_name_H-M "C C"
_symmetry_group_IT_number 9
_symmetry_cell_setting 'monoclinic'
loop_
_space_group_symop_operation_xyz
x,y,z
x,-y,1/2+z
1/2+x,1/2+y,z
1/2+x,1/2-y,1/2+z
loop_
_atom_site_type_symbol
_atom_site_label
_atom_site_fract_x
_atom_site_fract_y
_atom_site_fract_z
Si Si1 0.162280 0.138787 0.594250
Si Si2 0.149982 0.364067 0.815662
Si Si3 0.330753 0.702582 0.190337
Si Si4 0.550711 0.030823 0.059649
Si Si5 0.051319 0.184429 0.981778
Si Si6 0.607799 0.789353 0.160007
Si Si7 0.414218 0.802788 0.390802
Si Si8 0.251966 0.968998 0.306390
O O1 0.132908 0.154753 0.271722
O O2 0.289836 0.165702 0.793722
O O3 0.183764 0.080507 0.654307
O O4 0.058245 0.157091 0.710819
O O5 0.274575 0.344846 0.786497
O O6 0.119072 0.419949 0.718495
O O7 0.027264 0.331274 0.629349
O O8 0.159451 0.342835 0.115818
O O9 0.204350 0.727245 0.967221
O O10 0.423193 0.690390 0.033140
O O11 0.388336 0.744946 0.428606
O O12 0.401596 0.040125 0.932905
O O13 0.579631 0.012764 0.792697
O O14 0.104347 0.240160 0.983478
O O15 0.469462 0.798800 0.145574
O O16 0.223471 0.987680 0.572599
#
# Coordination Sequence:
#
# PCOD9136154 Si02
#       8
#     4   4   4   4   4   4   4   4
#     4  12  23  41  63  93 129 165 210 257 327 382
#     4  11  23  39  70  90 131 180 209 274 331 383
#     4  10  23  42  57  92 133 173 220 256 308 394
#     4  10  23  40  64  98 129 158 214 277 332 384
#     4  11  26  39  61  93 130 177 212 259 304 388
#     4  10  23  37  62  89 129 173 214 258 318 379
#     4  10  22  37  59  96 130 164 210 257 321 390
#     4  10  21  39  64  93 125 158 203 274 335 384
#
# _framework density 21.637028000000001
#
# number of rings (size 3 to 8) (size 9 to 14) (size 15 to 20)
#    0.000    1.500    2.500    1.500   10.500    2.000 
#    0.000    0.000    0.000    4.500    0.000    0.000 
#    0.000    0.000    0.000    0.000    0.000    0.000 
#
# Total GULP energy -89288.705577 kJ/mol
# GULP energy per Si atom -5580.544099 kJ/mol
# Density = 2.158778 g / cm^3
# Si number density = 21.637028 Si / 1000 Ang^3
#
#
#
# Elastic Constant Matrix: (Units=GPa)
#
#
# Indices 1 2 3 4 5 6 
#
# 1 77.1132 14.0426 1.2519 0.0000 1.5716 0.0000
# 2 14.0426 104.3071 8.3229 0.0000 7.4893 0.0000
# 3 1.2519 8.3229 63.2075 0.0000 -0.4721 0.0000
# 4 0.0000 0.0000 0.0000 37.8766 0.0000 7.6056
# 5 1.5716 7.4893 -0.4721 0.0000 29.8005 0.0000
# 6 0.0000 0.0000 0.0000 7.6056 0.0000 20.1125
#
#
#
# Elastic Compliance Matrix: (Units=1/GPa)
#
#
# Indices 1 2 3 4 5 6 
#
# 1 0.013296 -0.001769 -0.000032 0.000000 -0.000257 0.000000
# 2 -0.001769 0.010107 -0.001314 0.000000 -0.002468 0.000000
# 3 -0.000032 -0.001314 0.015999 0.000000 0.000585 0.000000
# 4 0.000000 0.000000 0.000000 0.028571 0.000000 -0.010804
# 5 -0.000257 -0.002468 0.000585 0.000000 0.034199 0.000000
# 6 0.000000 0.000000 0.000000 -0.010804 0.000000 0.053806
#
#
# Mechanical properties :
#
#
# Convention : Reuss Voigt Hill
#
# Bulk Modulus (GPa) = 30.14682 32.42918 31.28800
# Shear Modulus (GPa) = 28.85724 32.29194 30.57459
#
# Velocity S-wave (km/s) = 3.65594 3.86740 3.76316
# Velocity P-wave (km/s) = 5.63777 5.91293 5.77699
#
# Compressibility (1/GPa) = 0.03317099
#
# Stress axis : x y z
#
# Youngs Moduli (GPa) = 75.21150 98.93864 62.50398
#
# Poissons Ratio (x) = 0.17502 0.00202
# Poissons Ratio (y) = 0.13305 0.08215
# Poissons Ratio (z) = 0.00243 0.13003
#
# Static dielectric constant tensor:
#      x y z
#    x 1.816480 0.000000 -0.027740 
#    y 0.000000 1.765520 0.000000 
#    z -0.027740 0.000000 1.920060 
# 
# From -- ./inp_files/2031.got.cif
#   From: 2010.05.17/outbox.cif.g08.bks.cpg/sg9_2_cif.got.tgz:2031.got - 2010.06.03 20:04:27.
