data_PCOD9136355
_publ_section_title
;
Structure prediction by ZEFSAII (Michael W. Deem and Ramdas Pophale) SiO2 
 PCOD9136355
Probable space group: C C
;
_chemical_formula_sum "Si O2"
_cell_formula_units_Z 32
_cell_length_a 12.978627
_cell_length_b 9.775851
_cell_length_c 25.203371
_cell_angle_alpha 90.000000
_cell_angle_beta 30.438723
_cell_angle_gamma 90.000000
_cell_volume 1620.023633
_symmetry_space_group_name_H-M "C C"
_symmetry_group_IT_number 9
_symmetry_cell_setting 'monoclinic'
loop_
_space_group_symop_operation_xyz
x,y,z
x,-y,1/2+z
1/2+x,1/2+y,z
1/2+x,1/2-y,1/2+z
loop_
_atom_site_type_symbol
_atom_site_label
_atom_site_fract_x
_atom_site_fract_y
_atom_site_fract_z
Si Si1 0.443660 0.987223 0.748180
Si Si2 0.691921 0.696238 0.298169
Si Si3 0.329986 0.861499 0.989807
Si Si4 0.531494 0.606987 0.144566
Si Si5 0.247053 0.669576 0.475327
Si Si6 0.572906 0.908060 0.582945
Si Si7 0.245792 0.261108 0.855584
Si Si8 0.626684 0.006232 0.780606
O O1 0.317652 0.845756 0.795186
O O2 0.592569 0.981599 0.631769
O O3 0.569169 0.014921 0.744954
O O4 0.282196 0.109964 0.815831
O O5 0.471248 0.631491 0.395828
O O6 0.837013 0.635253 0.187723
O O7 0.660826 0.854025 0.298127
O O8 0.522352 0.817144 0.940346
O O9 0.438134 0.930575 0.891565
O O10 0.205113 0.728493 0.026635
O O11 0.178111 0.974381 0.082442
O O12 0.424529 0.650993 0.247405
O O13 0.336903 0.573336 0.194361
O O14 0.648231 0.728709 0.062228
O O15 0.128684 0.527660 0.518424
O O16 0.268299 0.741897 0.408868
#
# Coordination Sequence:
#
# PCOD9136355 Si02
#       8
#     4   4   4   4   4   4   4   4
#     4  10  21  44  67  95 131 182 221 287 339 408
#     4  10  21  40  68  94 136 167 236 282 332 423
#     4  11  23  43  64  97 135 169 229 286 341 415
#     4  11  22  43  67  95 133 176 220 288 339 407
#     4  12  23  43  68  95 136 181 221 282 353 406
#     4  10  24  42  63  96 134 177 226 284 339 408
#     4  11  24  40  66  98 135 174 228 277 351 415
#     4  11  22  43  69  98 134 178 233 284 340 422
#
# _framework density 19.752797999999999
#
# number of rings (size 3 to 8) (size 9 to 14) (size 15 to 20)
#    0.750    0.500    5.000    0.750    1.750    1.000 
#    9.000    1.250    0.000    0.000    0.000    0.000 
#    0.000    0.000    0.000    0.000    0.000    0.000 
#
# Total GULP energy -89134.273507 kJ/mol
# GULP energy per Si atom -5570.892094 kJ/mol
# Density = 1.970784 g / cm^3
# Si number density = 19.752798 Si / 1000 Ang^3
#
#
#
# Elastic Constant Matrix: (Units=GPa)
#
#
# Indices 1 2 3 4 5 6 
#
# 1 28.2416 11.0563 10.7556 -0.0001 -1.6389 0.0000
# 2 11.0563 117.4975 42.1772 -0.0001 -4.4785 0.0000
# 3 10.7556 42.1772 98.3507 -0.0003 -23.3729 0.0001
# 4 -0.0001 -0.0001 -0.0003 27.4422 0.0002 2.6914
# 5 -1.6389 -4.4785 -23.3729 0.0002 23.0373 -0.0001
# 6 0.0000 0.0000 0.0001 2.6914 -0.0001 18.2268
#
#
#
# Elastic Compliance Matrix: (Units=1/GPa)
#
#
# Indices 1 2 3 4 5 6 
#
# 1 0.037552 -0.002366 -0.003382 0.000000 -0.001220 0.000000
# 2 -0.002366 0.010390 -0.004950 0.000000 -0.003171 0.000000
# 3 -0.003382 -0.004950 0.016306 0.000000 0.015341 0.000000
# 4 0.000000 0.000000 0.000000 0.036976 0.000000 -0.005460
# 5 -0.001220 -0.003171 0.015341 0.000000 0.058269 0.000000
# 6 0.000000 0.000000 0.000000 -0.005460 0.000000 0.055670
#
#
# Mechanical properties :
#
#
# Convention : Reuss Voigt Hill
#
# Bulk Modulus (GPa) = 23.33646 41.34090 32.33868
# Shear Modulus (GPa) = 19.93273 25.74796 22.84035
#
# Velocity S-wave (km/s) = 3.18009 3.61433 3.40414
# Velocity P-wave (km/s) = 5.03229 6.19616 5.64430
#
# Compressibility (1/GPa) = 0.04285140
#
# Stress axis : x y z
#
# Youngs Moduli (GPa) = 26.62954 96.25006 61.32647
#
# Poissons Ratio (x) = 0.22774 0.20739
# Poissons Ratio (y) = 0.06301 0.30359
# Poissons Ratio (z) = 0.09006 0.47647
#
# Static dielectric constant tensor:
#      x y z
#    x 1.680980 0.000000 -0.005290 
#    y 0.000000 1.746200 0.000000 
#    z -0.005290 0.000000 1.710930 
# 
# From -- ./inp_files/36691.got.cif
#   From: 2010.05.17/outbox.cif.g08.bks.cpg/sg9_19_cif.got.tgz:36691.got - 2010.06.03 20:04:27.
