data_PCOD9136312
_publ_section_title
;
Structure prediction by ZEFSAII (Michael W. Deem and Ramdas Pophale) SiO2 
 PCOD9136312
Probable space group: C C
;
_chemical_formula_sum "Si O2"
_cell_formula_units_Z 32
_cell_length_a 14.993411
_cell_length_b 15.891465
_cell_length_c 9.636567
_cell_angle_alpha 90.000000
_cell_angle_beta 39.312616
_cell_angle_gamma 90.000000
_cell_volume 1454.683387
_symmetry_space_group_name_H-M "C C"
_symmetry_group_IT_number 9
_symmetry_cell_setting 'monoclinic'
loop_
_space_group_symop_operation_xyz
x,y,z
x,-y,1/2+z
1/2+x,1/2+y,z
1/2+x,1/2-y,1/2+z
loop_
_atom_site_type_symbol
_atom_site_label
_atom_site_fract_x
_atom_site_fract_y
_atom_site_fract_z
Si Si1 0.086920 0.717397 0.359480
Si Si2 0.593966 0.325867 0.613096
Si Si3 0.869946 0.416271 0.188808
Si Si4 0.244232 0.404215 0.366387
Si Si5 0.880586 0.085871 0.217984
Si Si6 0.133811 0.345307 0.201416
Si Si7 0.466964 0.987398 0.815795
Si Si8 0.896837 0.817667 0.423243
O O1 0.041741 0.777393 0.538751
O O2 0.252061 0.723270 0.150234
O O3 0.019510 0.630513 0.489985
O O4 0.018799 0.750444 0.299131
O O5 0.752822 0.357354 0.397550
O O6 0.496075 0.407964 0.704469
O O7 0.583868 0.252249 0.741099
O O8 0.896332 0.494700 0.254627
O O9 0.849510 0.448386 0.057930
O O10 0.319862 0.493636 0.265063
O O11 0.199579 0.363927 0.273718
O O12 0.353173 0.349183 0.325366
O O13 0.103175 0.428462 0.624250
O O14 0.752863 0.140595 0.439232
O O15 0.923558 0.112096 0.009031
O O16 0.022268 0.421434 0.306931
#
# Coordination Sequence:
#
# PCOD9136312 Si02
#       8
#     4   4   4   4   4   4   4   4
#     4  11  19  38  66  90 115 168 217 259 318 399
#     4  11  22  40  66  94 127 174 216 273 328 404
#     4  12  22  41  65  95 134 168 222 268 338 395
#     4  11  22  40  63  97 126 166 218 286 321 394
#     4  10  21  40  66  90 127 175 226 259 333 406
#     4  11  21  39  67  96 127 168 226 272 327 400
#     4  11  22  38  68  96 125 172 223 272 326 402
#     4  11  21  38  65  90 123 165 218 265 321 398
#
# _framework density 21.997914000000002
#
# number of rings (size 3 to 8) (size 9 to 14) (size 15 to 20)
#    0.000    1.000    6.250    3.000    0.000    0.000 
#    9.000    1.250    0.000    0.000    0.000    0.000 
#    0.000    0.000    0.000    0.000    0.000    0.000 
#
# Total GULP energy -89122.990261 kJ/mol
# GULP energy per Si atom -5570.186891 kJ/mol
# Density = 2.194785 g / cm^3
# Si number density = 21.997914 Si / 1000 Ang^3
#
#
#
# Elastic Constant Matrix: (Units=GPa)
#
#
# Indices 1 2 3 4 5 6 
#
# 1 116.9216 35.4869 7.6224 0.0000 11.5664 0.0000
# 2 35.4869 60.4548 12.2211 0.0000 2.8891 0.0000
# 3 7.6224 12.2211 27.9257 0.0000 -1.4732 0.0000
# 4 0.0000 0.0000 0.0000 17.4362 0.0000 -1.1062
# 5 11.5664 2.8891 -1.4732 0.0000 25.8852 0.0000
# 6 0.0000 0.0000 0.0000 -1.1062 0.0000 41.2607
#
#
#
# Elastic Compliance Matrix: (Units=1/GPa)
#
#
# Indices 1 2 3 4 5 6 
#
# 1 0.010841 -0.006056 -0.000530 0.000000 -0.004198 0.000000
# 2 -0.006056 0.021690 -0.007848 0.000000 -0.000162 0.000000
# 3 -0.000530 -0.007848 0.039566 0.000000 0.003365 0.000000
# 4 0.000000 0.000000 0.000000 0.057450 0.000000 0.001540
# 5 -0.004198 -0.000162 0.003365 0.000000 0.040718 0.000000
# 6 0.000000 0.000000 0.000000 0.001540 0.000000 0.024277
#
#
# Mechanical properties :
#
#
# Convention : Reuss Voigt Hill
#
# Bulk Modulus (GPa) = 23.13257 35.10699 29.11978
# Shear Modulus (GPa) = 21.02445 26.91454 23.96950
#
# Velocity S-wave (km/s) = 3.09487 3.50166 3.30453
# Velocity P-wave (km/s) = 4.82800 5.68706 5.27505
#
# Compressibility (1/GPa) = 0.04322910
#
# Stress axis : x y z
#
# Youngs Moduli (GPa) = 92.24639 46.10410 25.27425
#
# Poissons Ratio (x) = 0.27918 0.01340
# Poissons Ratio (y) = 0.55860 0.19835
# Poissons Ratio (z) = 0.04892 0.36182
#
# Static dielectric constant tensor:
#      x y z
#    x 1.828670 0.000000 -0.015800 
#    y 0.000000 1.947760 0.000000 
#    z -0.015800 0.000000 1.834080 
# 
# From -- ./inp_files/9937.got.cif
#   From: 2010.05.17/outbox.cif.g08.bks.cpg/sg9_5_cif.got.tgz:9937.got - 2010.06.03 20:04:27.
