data_PCOD9136227
_publ_section_title
;
Structure prediction by ZEFSAII (Michael W. Deem and Ramdas Pophale) SiO2 
 PCOD9136227
Probable space group: C C
;
_chemical_formula_sum "Si O2"
_cell_formula_units_Z 24
_cell_length_a 11.785882
_cell_length_b 11.293539
_cell_length_c 10.162878
_cell_angle_alpha 90.000000
_cell_angle_beta 40.306833
_cell_angle_gamma 90.000000
_cell_volume 875.050406
_symmetry_space_group_name_H-M "C C"
_symmetry_group_IT_number 9
_symmetry_cell_setting 'monoclinic'
loop_
_space_group_symop_operation_xyz
x,y,z
x,-y,1/2+z
1/2+x,1/2+y,z
1/2+x,1/2-y,1/2+z
loop_
_atom_site_type_symbol
_atom_site_label
_atom_site_fract_x
_atom_site_fract_y
_atom_site_fract_z
Si Si1 0.355690 0.616712 0.184390
Si Si2 0.866226 0.004322 0.433580
Si Si3 0.576444 0.188964 0.100135
Si Si4 0.959781 0.368597 0.139247
Si Si5 0.723167 0.596454 0.371265
Si Si6 0.135087 0.708054 0.752808
O O1 0.445154 0.556055 0.231781
O O2 0.147232 0.600454 0.403973
O O3 0.379898 0.754239 0.142393
O O4 0.457521 0.554697 0.975643
O O5 0.712858 0.904238 0.543505
O O6 0.794003 0.125054 0.565922
O O7 0.578472 0.332795 0.087947
O O8 0.578327 0.156110 0.943041
O O9 0.382865 0.158728 0.313618
O O10 0.006483 0.318410 0.244858
O O11 0.813629 0.469442 0.276357
O O12 0.692983 0.661572 0.254061
#
# Coordination Sequence:
#
# PCOD9136227 Si02
#       6
#     4   4   4   4   4   4
#     4  11  25  46  75 100 150 192 243 305 380 421
#     4  11  20  46  69 102 139 198 229 304 365 443
#     4  10  21  39  72  98 137 190 231 300 364 430
#     4  11  24  48  71 107 148 191 247 314 354 453
#     4  10  21  42  68 106 138 186 240 298 368 428
#     4   9  21  39  73  95 138 185 238 289 377 413
#
# _framework density 27.42699
#
# number of rings (size 3 to 8) (size 9 to 14) (size 15 to 20)
#    1.000    0.667    5.000    0.000    4.667    1.333 
#   12.000    0.000    0.000    0.000    0.000    0.000 
#    0.000    0.000    0.000    0.000    0.000    0.000 
#
# Total GULP energy -66810.747282 kJ/mol
# GULP energy per Si atom -5567.562273 kJ/mol
# Density = 2.736456 g / cm^3
# Si number density = 27.426990 Si / 1000 Ang^3
#
#
#
# Elastic Constant Matrix: (Units=GPa)
#
#
# Indices 1 2 3 4 5 6 
#
# 1 93.4424 32.9124 36.9501 0.0000 11.7756 0.0000
# 2 32.9124 249.3504 21.7890 0.0000 -4.3965 0.0000
# 3 36.9501 21.7890 56.7075 0.0000 14.4419 0.0000
# 4 0.0000 0.0000 0.0000 -2.3464 0.0000 3.6836
# 5 11.7756 -4.3965 14.4419 0.0000 44.3114 0.0000
# 6 0.0000 0.0000 0.0000 3.6836 0.0000 49.1043
#
#
#
# Elastic Compliance Matrix: (Units=1/GPa)
#
#
# Indices 1 2 3 4 5 6 
#
# 1 0.014778 -0.001195 -0.008876 0.000000 -0.001153 0.000000
# 2 -0.001195 0.004289 -0.001154 0.000000 0.001119 0.000000
# 3 -0.008876 -0.001154 0.025398 0.000000 -0.006033 0.000000
# 4 0.000000 0.000000 0.000000 -0.381277 0.000000 0.028602
# 5 -0.001153 0.001119 -0.006033 0.000000 0.024951 0.000000
# 6 0.000000 0.000000 0.000000 0.028602 0.000000 0.018219
#
#
# Mechanical properties :
#
#
# Convention : Reuss Voigt Hill
#
# Bulk Modulus (GPa) = 45.42693 64.75593 55.09143
# Shear Modulus (GPa) = -18.95002 38.73711 9.89354
#
# Velocity S-wave (km/s) = -2.63140 3.76223 1.90133
# Velocity P-wave (km/s) = 2.71412 6.52181 4.99502
#
# Compressibility (1/GPa) = 0.02201338
#
# Stress axis : x y z
#
# Youngs Moduli (GPa) = 67.66791 233.16680 39.37304
#
# Poissons Ratio (x) = 0.27870 0.34949
# Poissons Ratio (y) = 0.08088 0.04544
# Poissons Ratio (z) = 0.60065 0.26910
#
# Static dielectric constant tensor:
#      x y z
#    x 2.385310 0.000000 -0.223070 
#    y 0.000000 3.399020 0.000000 
#    z -0.223070 0.000000 2.517810 
# 
# From -- ./inp_files/18037.got.cif
#   From: 2010.05.17/outbox.cif.g08.bks.cpg/sg9_10_cif.got.tgz:18037.got - 2010.06.03 20:04:27.
