data_PCOD9136443
_publ_section_title
;
Structure prediction by ZEFSAII (Michael W. Deem and Ramdas Pophale) SiO2 
 PCOD9136443
Probable space group: C C
;
_chemical_formula_sum "Si O2"
_cell_formula_units_Z 32
_cell_length_a 23.620510
_cell_length_b 5.328494
_cell_length_c 10.136800
_cell_angle_alpha 90.000000
_cell_angle_beta 107.107139
_cell_angle_gamma 90.000000
_cell_volume 1219.387758
_symmetry_space_group_name_H-M "C C"
_symmetry_group_IT_number 9
_symmetry_cell_setting 'monoclinic'
loop_
_space_group_symop_operation_xyz
x,y,z
x,-y,1/2+z
1/2+x,1/2+y,z
1/2+x,1/2-y,1/2+z
loop_
_atom_site_type_symbol
_atom_site_label
_atom_site_fract_x
_atom_site_fract_y
_atom_site_fract_z
Si Si1 0.480830 0.328821 0.230150
Si Si2 0.760256 0.011951 0.189899
Si Si3 0.596694 0.745008 0.977897
Si Si4 0.120476 0.250689 0.411512
Si Si5 0.212732 0.004438 0.282749
Si Si6 0.869331 0.266102 0.823578
Si Si7 0.512566 0.169073 0.661074
Si Si8 0.815124 0.397601 0.047696
O O1 0.547886 0.313567 0.331838
O O2 0.433543 0.308878 0.314445
O O3 0.474742 0.579512 0.142338
O O4 0.476421 0.083868 0.138573
O O5 0.732061 0.738404 0.201423
O O6 0.825123 0.971367 0.300178
O O7 0.783947 0.133996 0.069619
O O8 0.718942 0.232538 0.219786
O O9 0.621897 0.466990 0.022431
O O10 0.559334 0.837752 0.075837
O O11 0.640622 0.968409 0.963974
O O12 0.155774 0.115030 0.318906
O O13 0.053271 0.311352 0.320988
O O14 0.260826 0.973181 0.433997
O O15 0.863322 0.374631 0.965219
O O16 0.841964 0.455944 0.692419
#
# Coordination Sequence:
#
# PCOD9136443 Si02
#       8
#     4   4   4   4   4   4   4   4
#     4  10  24  40  64  97 125 177 218 272 343 401
#     4  11  24  44  64  99 135 178 227 288 334 416
#     4  10  21  41  64  98 131 166 218 281 328 411
#     4  10  22  41  65  97 128 172 220 268 343 397
#     4  11  25  43  69  98 139 182 229 283 348 407
#     4  11  27  44  73  98 142 184 235 286 352 408
#     4  10  22  42  64  94 136 163 223 275 332 411
#     4  11  25  47  67 101 138 178 238 287 338 417
#
# _framework density 26.242675999999999
#
# number of rings (size 3 to 8) (size 9 to 14) (size 15 to 20)
#    0.000    1.500    2.500    1.500    7.000    2.000 
#    0.000    0.000    0.000    0.000    0.000    0.000 
#    0.000    0.000    0.000    0.000    0.000    0.000 
#
# Total GULP energy -89378.173750 kJ/mol
# GULP energy per Si atom -5586.135859 kJ/mol
# Density = 2.618295 g / cm^3
# Si number density = 26.242676 Si / 1000 Ang^3
#
#
#
# Elastic Constant Matrix: (Units=GPa)
#
#
# Indices 1 2 3 4 5 6 
#
# 1 113.2259 29.8376 17.6374 0.0000 -19.9743 0.0000
# 2 29.8376 160.7973 39.3144 0.0000 -3.5954 0.0000
# 3 17.6374 39.3144 87.4492 0.0000 -13.3231 0.0000
# 4 0.0000 0.0000 0.0000 28.1174 0.0000 -8.3102
# 5 -19.9743 -3.5954 -13.3231 0.0000 50.2658 0.0000
# 6 0.0000 0.0000 0.0000 -8.3102 0.0000 40.7098
#
#
#
# Elastic Compliance Matrix: (Units=1/GPa)
#
#
# Indices 1 2 3 4 5 6 
#
# 1 0.010015 -0.001594 -0.000744 0.000000 0.003668 0.000000
# 2 -0.001594 0.007247 -0.003078 0.000000 -0.000931 0.000000
# 3 -0.000744 -0.003078 0.013433 0.000000 0.003045 0.000000
# 4 0.000000 0.000000 0.000000 0.037849 0.000000 0.007726
# 5 0.003668 -0.000931 0.003045 0.000000 0.022092 0.000000
# 6 0.000000 0.000000 0.000000 0.007726 0.000000 0.026141
#
#
# Mechanical properties :
#
#
# Convention : Reuss Voigt Hill
#
# Bulk Modulus (GPa) = 50.34943 59.45013 54.89978
# Shear Modulus (GPa) = 37.24915 42.13078 39.68997
#
# Velocity S-wave (km/s) = 3.77159 4.01113 3.89320
# Velocity P-wave (km/s) = 6.18015 6.64495 6.41676
#
# Compressibility (1/GPa) = 0.01986120
#
# Stress axis : x y z
#
# Youngs Moduli (GPa) = 99.84871 137.99479 74.44352
#
# Poissons Ratio (x) = 0.22002 0.05540
# Poissons Ratio (y) = 0.15920 0.22915
# Poissons Ratio (z) = 0.07431 0.42477
#
# Static dielectric constant tensor:
#      x y z
#    x 2.077280 0.000000 0.051190 
#    y 0.000000 2.149030 0.000000 
#    z 0.051190 0.000000 2.148480 
# 
# From -- ./inp_files/20622.got.cif
#   From: 2010.05.17/outbox.cif.g08.bks.cpg/sg9_11_cif.got.tgz:20622.got - 2010.06.03 20:04:27.
