data_PCOD9136525
_publ_section_title
;
Structure prediction by ZEFSAII (Michael W. Deem and Ramdas Pophale) SiO2 
 PCOD9136525
Probable space group: C C
;
_chemical_formula_sum "Si O2"
_cell_formula_units_Z 24
_cell_length_a 19.732958
_cell_length_b 5.337354
_cell_length_c 13.096703
_cell_angle_alpha 90.000000
_cell_angle_beta 43.902101
_cell_angle_gamma 90.000000
_cell_volume 956.492809
_symmetry_space_group_name_H-M "C C"
_symmetry_group_IT_number 9
_symmetry_cell_setting 'monoclinic'
loop_
_space_group_symop_operation_xyz
x,y,z
x,-y,1/2+z
1/2+x,1/2+y,z
1/2+x,1/2-y,1/2+z
loop_
_atom_site_type_symbol
_atom_site_label
_atom_site_fract_x
_atom_site_fract_y
_atom_site_fract_z
Si Si1 0.969680 0.056150 0.539540
Si Si2 0.719079 0.144179 0.642023
Si Si3 0.497041 0.131832 0.826324
Si Si4 0.272864 0.538188 0.881516
Si Si5 0.059576 0.571805 0.530223
Si Si6 0.799677 0.644140 0.546586
O O1 0.964458 0.124429 0.425130
O O2 0.011152 0.316343 0.542274
O O3 0.868150 0.022004 0.709701
O O4 0.037204 0.814350 0.485571
O O5 0.606330 0.079512 0.747928
O O6 0.769870 0.169286 0.474820
O O7 0.738726 0.417290 0.663326
O O8 0.768781 0.900683 0.633740
O O9 0.511867 0.153399 0.689929
O O10 0.412123 0.930627 0.936191
O O11 0.274833 0.783226 0.954772
O O12 0.171446 0.503796 0.932321
#
# Coordination Sequence:
#
# PCOD9136525 Si02
#       6
#     4   4   4   4   4   4
#     4  12  27  45  75 115 144 200 256 300 386 451
#     4   9  22  39  71 103 142 187 244 288 390 424
#     4  11  25  46  77 110 150 199 249 317 368 458
#     4   9  23  43  74 101 146 191 245 300 383 427
#     4  11  26  46  74 107 162 189 245 320 376 449
#     4  10  21  41  71 102 136 198 235 303 369 441
#
# _framework density 25.091667999999999
#
# number of rings (size 3 to 8) (size 9 to 14) (size 15 to 20)
#    1.000    0.667    1.667    1.000    4.667    6.667 
#    0.000    0.000    0.000    0.000    0.000    0.000 
#    0.000    0.000    0.000    0.000    0.000    0.000 
#
# Total GULP energy -67067.402169 kJ/mol
# GULP energy per Si atom -5588.950181 kJ/mol
# Density = 2.503456 g / cm^3
# Si number density = 25.091668 Si / 1000 Ang^3
#
#
#
# Elastic Constant Matrix: (Units=GPa)
#
#
# Indices 1 2 3 4 5 6 
#
# 1 116.8615 87.4050 61.6027 0.0142 -14.7861 -0.0052
# 2 87.4050 209.4834 53.7342 0.0866 -27.8579 -0.0310
# 3 61.6027 53.7342 133.5316 0.0497 -8.1199 -0.0565
# 4 0.0142 0.0866 0.0497 23.5459 0.0216 -5.7452
# 5 -14.7861 -27.8579 -8.1199 0.0216 31.0878 -0.0226
# 6 -0.0052 -0.0310 -0.0565 -5.7452 -0.0226 45.8411
#
#
#
# Elastic Compliance Matrix: (Units=1/GPa)
#
#
# Indices 1 2 3 4 5 6 
#
# 1 0.014864 -0.004752 -0.004851 0.000016 0.001544 -0.000005
# 2 -0.004752 0.007468 -0.000552 -0.000027 0.004288 0.000003
# 3 -0.004851 -0.000552 0.009936 -0.000014 -0.000207 0.000010
# 4 0.000016 -0.000027 -0.000014 0.043810 -0.000046 0.005491
# 5 0.001544 0.004288 -0.000207 -0.000046 0.036690 0.000015
# 6 -0.000005 0.000003 0.000010 0.005491 0.000015 0.022503
#
#
# Mechanical properties :
#
#
# Convention : Reuss Voigt Hill
#
# Bulk Modulus (GPa) = 83.62681 96.15114 89.88898
# Shear Modulus (GPa) = 31.33450 37.23726 34.28588
#
# Velocity S-wave (km/s) = 3.53767 3.85651 3.70053
# Velocity P-wave (km/s) = 7.07727 7.63108 7.35939
#
# Compressibility (1/GPa) = 0.01195789
#
# Stress axis : x y z
#
# Youngs Moduli (GPa) = 67.27622 133.89843 100.63921
#
# Poissons Ratio (x) = 0.63631 0.48821
# Poissons Ratio (y) = 0.31971 0.05557
# Poissons Ratio (z) = 0.32636 0.07394
#
# Static dielectric constant tensor:
#      x y z
#    x 2.019110 -0.000040 0.026020 
#    y -0.000040 2.002960 0.000010 
#    z 0.026020 0.000010 2.004810 
# 
# From -- ./inp_files/27101.got.cif
#   From: 2010.05.17/outbox.cif.g08.bks.cpg/sg9_14_cif.got.tgz:27101.got - 2010.06.03 20:04:27.
