data_PCOD9136728
_publ_section_title
;
Structure prediction by ZEFSAII (Michael W. Deem and Ramdas Pophale) SiO2 
 PCOD9136728
Probable space group: C C
;
_chemical_formula_sum "Si O2"
_cell_formula_units_Z 28
_cell_length_a 7.510057
_cell_length_b 17.617360
_cell_length_c 14.305762
_cell_angle_alpha 90.000000
_cell_angle_beta 132.455170
_cell_angle_gamma 90.000000
_cell_volume 1396.487562
_symmetry_space_group_name_H-M "C C"
_symmetry_group_IT_number 9
_symmetry_cell_setting 'monoclinic'
loop_
_space_group_symop_operation_xyz
x,y,z
x,-y,1/2+z
1/2+x,1/2+y,z
1/2+x,1/2-y,1/2+z
loop_
_atom_site_type_symbol
_atom_site_label
_atom_site_fract_x
_atom_site_fract_y
_atom_site_fract_z
Si Si1 0.514950 0.035247 0.698790
Si Si2 0.696215 0.506084 0.250325
Si Si3 0.898469 0.614942 0.461563
Si Si4 0.968427 0.157627 0.188090
Si Si5 0.248299 0.736993 0.650690
Si Si6 0.999182 0.897164 0.334936
Si Si7 0.482660 0.869949 0.616490
O O1 0.419550 0.076492 0.570727
O O2 0.769895 0.073960 0.811934
O O3 0.318668 0.038960 0.710503
O O4 0.564882 0.946277 0.698122
O O5 0.904229 0.547265 0.387113
O O6 0.534390 0.577643 0.160993
O O7 0.536463 0.453898 0.260921
O O8 0.643690 0.653276 0.341901
O O9 0.103811 0.679175 0.531758
O O10 0.695366 0.158062 0.124506
O O11 0.054512 0.224824 0.151861
O O12 0.430899 0.685392 0.773725
O O13 0.394535 0.803081 0.652293
O O14 0.246449 0.895325 0.476942
#
# Coordination Sequence:
#
# PCOD9136728 Si02
#       7
#     4   4   4   4   4   4   4
#     4  11  21  42  69  95 130 177 223 275 341 385
#     4  10  21  43  67  97 128 176 222 276 336 387
#     4   9  21  43  63  97 136 166 226 285 311 407
#     4  10  22  41  63  93 135 172 219 276 335 398
#     4  11  24  41  66  96 139 174 222 274 347 388
#     4  11  25  43  65 103 135 166 235 283 316 417
#     4  12  22  41  67  95 135 179 215 279 336 400
#
# _framework density 20.050304000000001
#
# number of rings (size 3 to 8) (size 9 to 14) (size 15 to 20)
#    0.857    0.571    4.286    0.857    0.000    4.571 
#    5.143    4.286    0.000    0.000    0.000    0.000 
#    0.000    0.000    0.000    0.000    0.000    0.000 
#
# Total GULP energy -78113.160097 kJ/mol
# GULP energy per Si atom -5579.511435 kJ/mol
# Density = 2.000467 g / cm^3
# Si number density = 20.050304 Si / 1000 Ang^3
#
#
#
# Elastic Constant Matrix: (Units=GPa)
#
#
# Indices 1 2 3 4 5 6 
#
# 1 84.1397 15.5120 12.1404 0.0000 9.4309 0.0000
# 2 15.5120 83.4804 3.5306 0.0000 -0.3220 0.0000
# 3 12.1404 3.5306 49.4474 0.0000 14.8264 0.0000
# 4 0.0000 0.0000 0.0000 19.0767 0.0000 0.2219
# 5 9.4309 -0.3220 14.8264 0.0000 20.3449 0.0000
# 6 0.0000 0.0000 0.0000 0.2219 0.0000 15.6488
#
#
#
# Elastic Compliance Matrix: (Units=1/GPa)
#
#
# Indices 1 2 3 4 5 6 
#
# 1 0.013108 -0.002389 -0.001554 0.000000 -0.004982 0.000000
# 2 -0.002389 0.012468 -0.000889 0.000000 0.001953 0.000000
# 3 -0.001554 -0.000889 0.026177 0.000000 -0.018370 0.000000
# 4 0.000000 0.000000 0.000000 0.052429 0.000000 -0.000744
# 5 -0.004982 0.001953 -0.018370 0.000000 0.064880 0.000000
# 6 0.000000 0.000000 0.000000 -0.000744 0.000000 0.063913
#
#
# Mechanical properties :
#
#
# Convention : Reuss Voigt Hill
#
# Bulk Modulus (GPa) = 23.75980 31.04817 27.40399
# Shear Modulus (GPa) = 19.48039 23.40638 21.44338
#
# Velocity S-wave (km/s) = 3.12039 3.42040 3.27384
# Velocity P-wave (km/s) = 4.98581 5.57832 5.29037
#
# Compressibility (1/GPa) = 0.04208790
#
# Stress axis : x y z
#
# Youngs Moduli (GPa) = 76.28888 80.20564 38.20194
#
# Poissons Ratio (x) = 0.19163 0.05937
# Poissons Ratio (y) = 0.18227 0.03397
# Poissons Ratio (z) = 0.11856 0.07132
#
# Static dielectric constant tensor:
#      x y z
#    x 1.684550 0.000000 -0.012950 
#    y 0.000000 1.711850 0.000000 
#    z -0.012950 0.000000 1.732260 
# 
# From -- ./inp_files/22198.got.cif
#   From: 2010.05.17/outbox.cif.g08.bks.cpg/sg9_12_cif.got.tgz:22198.got - 2010.06.03 20:04:27.
