data_PCOD9136632
_publ_section_title
;
Structure prediction by ZEFSAII (Michael W. Deem and Ramdas Pophale) SiO2 
 PCOD9136632
Probable space group: C C
;
_chemical_formula_sum "Si O2"
_cell_formula_units_Z 32
_cell_length_a 7.422130
_cell_length_b 9.059521
_cell_length_c 25.430744
_cell_angle_alpha 90.000000
_cell_angle_beta 52.632381
_cell_angle_gamma 90.000000
_cell_volume 1359.025587
_symmetry_space_group_name_H-M "C C"
_symmetry_group_IT_number 9
_symmetry_cell_setting 'monoclinic'
loop_
_space_group_symop_operation_xyz
x,y,z
x,-y,1/2+z
1/2+x,1/2+y,z
1/2+x,1/2-y,1/2+z
loop_
_atom_site_type_symbol
_atom_site_label
_atom_site_fract_x
_atom_site_fract_y
_atom_site_fract_z
Si Si1 0.787780 0.057364 0.174520
Si Si2 0.065364 0.622261 0.801790
Si Si3 0.192959 0.606806 0.077040
Si Si4 0.280562 0.955536 0.093609
Si Si5 0.483700 0.574047 0.340994
Si Si6 0.559013 0.321018 0.263659
Si Si7 0.156742 0.604572 0.968273
Si Si8 0.798435 0.374317 0.885664
O O1 0.786372 0.029615 0.112565
O O2 0.723748 0.226597 0.198612
O O3 0.037045 0.020638 0.149635
O O4 0.607420 0.962444 0.239875
O O5 0.934601 0.774889 0.820423
O O6 0.318979 0.655601 0.776971
O O7 0.922321 0.529528 0.869722
O O8 0.950586 0.521744 0.109125
O O9 0.231506 0.783115 0.084849
O O10 0.289012 0.585399 0.000826
O O11 0.407281 0.039275 0.022719
O O12 0.626350 0.477127 0.274939
O O13 0.269879 0.486060 0.401154
O O14 0.625368 0.605571 0.368221
O O15 0.500405 0.224967 0.325544
O O16 0.176299 0.777355 0.951153
#
# Coordination Sequence:
#
# PCOD9136632 Si02
#       8
#     4   4   4   4   4   4   4   4
#     4  11  23  48  73 103 150 194 248 309 384 468
#     4  10  22  42  66 106 139 186 237 307 378 456
#     4  10  25  48  70 110 145 199 257 312 387 468
#     4  10  25  49  71 107 148 199 255 314 388 460
#     4  10  21  42  69 103 139 182 242 305 377 456
#     4   9  21  43  61 100 137 179 236 295 369 446
#     4   9  23  44  71 101 147 187 249 314 377 463
#     4   9  20  40  65  98 135 182 232 294 372 443
#
# _framework density 23.546281
#
# number of rings (size 3 to 8) (size 9 to 14) (size 15 to 20)
#    0.750    1.500    0.000    0.750    0.000   10.000 
#   29.250    0.000    0.000    0.000    0.000    0.000 
#    0.000    0.000    0.000    0.000    0.000    0.000 
#
# Total GULP energy -89093.011860 kJ/mol
# GULP energy per Si atom -5568.313241 kJ/mol
# Density = 2.349269 g / cm^3
# Si number density = 23.546281 Si / 1000 Ang^3
#
#
#
# Elastic Constant Matrix: (Units=GPa)
#
#
# Indices 1 2 3 4 5 6 
#
# 1 37.3075 -3.3700 -9.3856 0.0000 -1.0512 0.0000
# 2 -3.3700 122.7780 31.2235 0.0000 -5.0393 0.0000
# 3 -9.3856 31.2235 84.2600 0.0000 2.5209 0.0000
# 4 0.0000 0.0000 0.0000 27.5698 0.0000 4.6414
# 5 -1.0512 -5.0393 2.5209 0.0000 32.6344 0.0000
# 6 0.0000 0.0000 0.0000 4.6414 0.0000 18.9254
#
#
#
# Elastic Compliance Matrix: (Units=1/GPa)
#
#
# Indices 1 2 3 4 5 6 
#
# 1 0.027591 0.000008 0.003051 0.000000 0.000654 0.000000
# 2 0.000008 0.009082 -0.003414 0.000000 0.001666 0.000000
# 3 0.003051 -0.003414 0.013517 0.000000 -0.001473 0.000000
# 4 0.000000 0.000000 0.000000 0.037834 0.000000 -0.009279
# 5 0.000654 0.001666 -0.001473 0.000000 0.031035 0.000000
# 6 0.000000 0.000000 0.000000 -0.009279 0.000000 0.055115
#
#
# Mechanical properties :
#
#
# Convention : Reuss Voigt Hill
#
# Bulk Modulus (GPa) = 20.21049 31.25346 25.73197
# Shear Modulus (GPa) = 26.12657 30.88443 28.50550
#
# Velocity S-wave (km/s) = 3.33466 3.62560 3.48317
# Velocity P-wave (km/s) = 4.84030 5.55235 5.20851
#
# Compressibility (1/GPa) = 0.04947926
#
# Stress axis : x y z
#
# Youngs Moduli (GPa) = 36.24380 110.11182 73.98041
#
# Poissons Ratio (x) = -0.00092 -0.22569
# Poissons Ratio (y) = -0.00030 0.25259
# Poissons Ratio (z) = -0.11057 0.37595
#
# Static dielectric constant tensor:
#      x y z
#    x 1.892970 0.000000 0.013290 
#    y 0.000000 1.993900 0.000000 
#    z 0.013290 0.000000 1.916600 
# 
# From -- ./inp_files/36317.got.cif
#   From: 2010.05.17/outbox.cif.g08.bks.cpg/sg9_19_cif.got.tgz:36317.got - 2010.06.03 20:04:27.
