data_PCOD9136287
_publ_section_title
;
Structure prediction by ZEFSAII (Michael W. Deem and Ramdas Pophale) SiO2 
 PCOD9136287
Probable space group: C C
;
_chemical_formula_sum "Si O2"
_cell_formula_units_Z 24
_cell_length_a 6.812129
_cell_length_b 13.030102
_cell_length_c 13.959814
_cell_angle_alpha 90.000000
_cell_angle_beta 117.977369
_cell_angle_gamma 90.000000
_cell_volume 1094.300011
_symmetry_space_group_name_H-M "C C"
_symmetry_group_IT_number 9
_symmetry_cell_setting 'monoclinic'
loop_
_space_group_symop_operation_xyz
x,y,z
x,-y,1/2+z
1/2+x,1/2+y,z
1/2+x,1/2-y,1/2+z
loop_
_atom_site_type_symbol
_atom_site_label
_atom_site_fract_x
_atom_site_fract_y
_atom_site_fract_z
Si Si1 0.128090 0.483183 0.226900
Si Si2 0.492015 0.582099 0.948277
Si Si3 0.214867 0.112926 0.542206
Si Si4 0.310654 0.380619 0.096168
Si Si5 0.270691 0.155141 0.176408
Si Si6 0.389221 0.194514 0.406848
O O1 0.259793 0.459636 0.354419
O O2 0.296466 0.466134 0.176216
O O3 0.935914 0.400849 0.155955
O O4 0.990112 0.588219 0.201390
O O5 0.501959 0.696302 0.906385
O O6 0.667612 0.491030 0.969169
O O7 0.558905 0.607085 0.073504
O O8 0.243391 0.201569 0.470254
O O9 0.012985 0.119536 0.569164
O O10 0.305297 0.269832 0.146316
O O11 0.085422 0.382261 0.981996
O O12 0.250979 0.157330 0.285390
#
# Coordination Sequence:
#
# PCOD9136287 Si02
#       6
#     4   4   4   4   4   4
#     4  10  21  41  63  91 130 166 214 277 324 377
#     4  10  21  40  64  93 131 169 213 275 320 384
#     4  10  23  40  65  95 124 178 218 258 340 390
#     4  10  21  41  63  94 128 165 224 269 317 400
#     4  10  21  40  68  92 129 177 214 273 334 378
#     4  10  21  42  63  91 136 165 213 280 323 383
#
# _framework density 21.931827999999999
#
# number of rings (size 3 to 8) (size 9 to 14) (size 15 to 20)
#    0.000    2.000    1.667    1.000    0.000    4.000 
#    6.000    3.333    0.000    0.000    0.000    0.000 
#    0.000    0.000    0.000    0.000    0.000    0.000 
#
# Total GULP energy -66841.879546 kJ/mol
# GULP energy per Si atom -5570.156629 kJ/mol
# Density = 2.188191 g / cm^3
# Si number density = 21.931828 Si / 1000 Ang^3
#
#
#
# Elastic Constant Matrix: (Units=GPa)
#
#
# Indices 1 2 3 4 5 6 
#
# 1 119.1130 18.1066 43.3959 0.0000 -8.8287 0.0000
# 2 18.1066 74.7375 31.3217 0.0000 -2.3535 0.0000
# 3 43.3959 31.3217 196.0924 0.0000 17.8446 0.0000
# 4 0.0000 0.0000 0.0000 28.4107 0.0000 5.7396
# 5 -8.8287 -2.3535 17.8446 0.0000 25.6804 0.0000
# 6 0.0000 0.0000 0.0000 5.7396 0.0000 28.2662
#
#
#
# Elastic Compliance Matrix: (Units=1/GPa)
#
#
# Indices 1 2 3 4 5 6 
#
# 1 0.009834 -0.001206 -0.002435 0.000000 0.004962 0.000000
# 2 -0.001206 0.014723 -0.002316 0.000000 0.002545 0.000000
# 3 -0.002435 -0.002316 0.006516 0.000000 -0.005577 0.000000
# 4 0.000000 0.000000 0.000000 0.036704 0.000000 -0.007453
# 5 0.004962 0.002545 -0.005577 0.000000 0.044755 0.000000
# 6 0.000000 0.000000 0.000000 -0.007453 0.000000 0.036891
#
#
# Mechanical properties :
#
#
# Convention : Reuss Voigt Hill
#
# Bulk Modulus (GPa) = 52.19637 63.95460 58.07549
# Shear Modulus (GPa) = 29.81092 36.27936 33.04514
#
# Velocity S-wave (km/s) = 3.69081 4.07158 3.88586
# Velocity P-wave (km/s) = 6.48180 7.16433 6.83160
#
# Compressibility (1/GPa) = 0.01915842
#
# Stress axis : x y z
#
# Youngs Moduli (GPa) = 101.69122 67.92017 153.46534
#
# Poissons Ratio (x) = 0.08188 0.37373
# Poissons Ratio (y) = 0.12259 0.35550
# Poissons Ratio (z) = 0.24764 0.15734
#
# Static dielectric constant tensor:
#      x y z
#    x 1.812410 0.000000 -0.014940 
#    y 0.000000 1.863560 0.000000 
#    z -0.014940 0.000000 1.817760 
# 
# From -- ./inp_files/12873.got.cif
#   From: 2010.05.17/outbox.cif.g08.bks.cpg/sg9_7_cif.got.tgz:12873.got - 2010.06.03 20:04:27.
