data_PCOD9136616
_publ_section_title
;
Structure prediction by ZEFSAII (Michael W. Deem and Ramdas Pophale) SiO2 
 PCOD9136616
Probable space group: C C
;
_chemical_formula_sum "Si O2"
_cell_formula_units_Z 32
_cell_length_a 14.268426
_cell_length_b 12.049922
_cell_length_c 14.618643
_cell_angle_alpha 90.000000
_cell_angle_beta 35.329934
_cell_angle_gamma 90.000000
_cell_volume 1453.478092
_symmetry_space_group_name_H-M "C C"
_symmetry_group_IT_number 9
_symmetry_cell_setting 'monoclinic'
loop_
_space_group_symop_operation_xyz
x,y,z
x,-y,1/2+z
1/2+x,1/2+y,z
1/2+x,1/2-y,1/2+z
loop_
_atom_site_type_symbol
_atom_site_label
_atom_site_fract_x
_atom_site_fract_y
_atom_site_fract_z
Si Si1 0.741220 0.212889 0.411820
Si Si2 0.290437 0.872340 0.018310
Si Si3 0.664735 0.063680 0.630464
Si Si4 0.332864 0.107400 0.985782
Si Si5 0.113371 0.878373 0.971251
Si Si6 0.171781 0.657707 0.206252
Si Si7 0.985147 0.868727 0.579896
Si Si8 0.808568 0.241269 0.665438
O O1 0.679506 0.107339 0.516300
O O2 0.752950 0.304524 0.482601
O O3 0.913765 0.178202 0.233340
O O4 0.613878 0.274275 0.446565
O O5 0.239277 0.860209 0.953203
O O6 0.483123 0.858040 0.882273
O O7 0.236477 0.997051 0.087995
O O8 0.198029 0.780194 0.148780
O O9 0.479769 0.066408 0.807660
O O10 0.745459 0.144301 0.644702
O O11 0.713958 0.936094 0.596957
O O12 0.386638 0.169676 0.033824
O O13 0.185408 0.816354 0.823666
O O14 0.941717 0.816675 0.122901
O O15 0.069899 0.010609 0.003689
O O16 0.313093 0.629831 0.165547
#
# Coordination Sequence:
#
# PCOD9136616 Si02
#       8
#     4   4   4   4   4   4   4   4
#     4  11  23  42  71 101 141 177 234 294 336 427
#     4  11  25  46  65  97 142 183 229 285 354 418
#     4  10  21  42  68 101 137 181 227 284 357 406
#     4  10  21  42  68 101 137 181 227 284 357 406
#     4  12  25  45  70 108 140 185 242 287 354 422
#     4  11  25  46  65  97 142 183 229 285 354 418
#     4  12  25  45  70 108 140 185 242 287 354 422
#     4  11  23  42  71 101 141 177 234 294 336 427
#
# _framework density 22.016157
#
# number of rings (size 3 to 8) (size 9 to 14) (size 15 to 20)
#    0.000    1.000    5.000    1.500    0.000    4.000 
#    0.000    5.000    0.000    0.000    0.000    0.000 
#    0.000    0.000    0.000    0.000    0.000    0.000 
#
# Total GULP energy -89139.562173 kJ/mol
# GULP energy per Si atom -5571.222636 kJ/mol
# Density = 2.196605 g / cm^3
# Si number density = 22.016157 Si / 1000 Ang^3
#
#
#
# Elastic Constant Matrix: (Units=GPa)
#
#
# Indices 1 2 3 4 5 6 
#
# 1 83.1169 0.3971 -3.1940 0.0000 -12.9489 0.0000
# 2 0.3971 91.0064 8.1373 0.0001 5.5899 0.0000
# 3 -3.1940 8.1373 52.9398 0.0001 -10.1132 0.0000
# 4 0.0000 0.0001 0.0001 31.4434 0.0000 -1.3394
# 5 -12.9489 5.5899 -10.1132 0.0000 17.7627 0.0000
# 6 0.0000 0.0000 0.0000 -1.3394 0.0000 30.1075
#
#
#
# Elastic Compliance Matrix: (Units=1/GPa)
#
#
# Indices 1 2 3 4 5 6 
#
# 1 0.014136 -0.001145 0.003440 0.000000 0.012624 0.000000
# 2 -0.001145 0.011649 -0.003051 0.000000 -0.006238 0.000000
# 3 0.003440 -0.003051 0.022697 0.000000 0.016391 0.000000
# 4 0.000000 0.000000 0.000000 0.031864 0.000000 0.001417
# 5 0.012624 -0.006238 0.016391 0.000000 0.076796 0.000000
# 6 0.000000 0.000000 0.000000 0.001417 0.000000 0.033277
#
#
# Mechanical properties :
#
#
# Convention : Reuss Voigt Hill
#
# Bulk Modulus (GPa) = 21.28987 26.41600 23.85293
# Shear Modulus (GPa) = 24.08634 30.64424 27.36529
#
# Velocity S-wave (km/s) = 3.31120 3.73486 3.52939
# Velocity P-wave (km/s) = 4.93050 5.53384 5.24086
#
# Compressibility (1/GPa) = 0.04697070
#
# Stress axis : x y z
#
# Youngs Moduli (GPa) = 70.74338 85.84279 44.05846
#
# Poissons Ratio (x) = 0.09826 -0.15158
# Poissons Ratio (y) = 0.08098 0.13443
# Poissons Ratio (z) = -0.24338 0.26193
#
# Static dielectric constant tensor:
#      x y z
#    x 1.914430 0.000000 0.020740 
#    y 0.000000 1.856700 0.000000 
#    z 0.020740 0.000000 1.808160 
# 
# From -- ./inp_files/9118.got.cif
#   From: 2010.05.17/outbox.cif.g08.bks.cpg/sg9_5_cif.got.tgz:9118.got - 2010.06.03 20:04:27.
