data_PCOD9136254
_publ_section_title
;
Structure prediction by ZEFSAII (Michael W. Deem and Ramdas Pophale) SiO2 
 PCOD9136254
Probable space group: C C
;
_chemical_formula_sum "Si O2"
_cell_formula_units_Z 20
_cell_length_a 11.170456
_cell_length_b 9.143888
_cell_length_c 13.617610
_cell_angle_alpha 90.000000
_cell_angle_beta 36.603574
_cell_angle_gamma 90.000000
_cell_volume 829.371788
_symmetry_space_group_name_H-M "C C"
_symmetry_group_IT_number 9
_symmetry_cell_setting 'monoclinic'
loop_
_space_group_symop_operation_xyz
x,y,z
x,-y,1/2+z
1/2+x,1/2+y,z
1/2+x,1/2-y,1/2+z
loop_
_atom_site_type_symbol
_atom_site_label
_atom_site_fract_x
_atom_site_fract_y
_atom_site_fract_z
Si Si1 0.715320 0.471673 0.974890
Si Si2 0.556317 0.812648 0.288413
Si Si3 0.092919 0.302019 0.671437
Si Si4 0.781586 0.072661 0.457530
Si Si5 0.794050 0.939361 0.721514
O O1 0.855860 0.590760 0.933926
O O2 0.871712 0.373817 0.809182
O O3 0.615474 0.360914 0.118477
O O4 0.531390 0.553205 0.044278
O O5 0.494158 0.646542 0.345841
O O6 0.717374 0.895389 0.248631
O O7 0.623087 0.845697 0.132850
O O8 0.243508 0.404545 0.508531
O O9 0.172364 0.332875 0.729262
O O10 0.754915 0.097986 0.360097
#
# Coordination Sequence:
#
# PCOD9136254 Si02
#       5
#     4   4   4   4   4
#     4  10  21  40  62  89 126 159 205 255 302 370
#     4  10  24  40  61  97 122 160 216 250 304 381
#     4  10  24  40  61  97 122 160 216 250 304 381
#     4  10  21  40  62  89 126 159 205 255 302 370
#     4  10  22  42  66  90 128 166 198 264 320 350
#
# _framework density 24.114640000000001
#
# number of rings (size 3 to 8) (size 9 to 14) (size 15 to 20)
#    0.000    2.400    0.000    2.400    0.000   12.800 
#    0.000   24.000    0.000    0.000    0.000    0.000 
#    0.000    0.000    0.000    0.000    0.000    0.000 
#
# Total GULP energy -55869.741441 kJ/mol
# GULP energy per Si atom -5586.974144 kJ/mol
# Density = 2.405975 g / cm^3
# Si number density = 24.114640 Si / 1000 Ang^3
#
#
#
# Elastic Constant Matrix: (Units=GPa)
#
#
# Indices 1 2 3 4 5 6 
#
# 1 71.7637 0.5675 30.0963 0.0000 -11.3989 0.0000
# 2 0.5675 69.9809 15.2060 0.0000 5.0500 0.0000
# 3 30.0963 15.2060 105.7300 0.0000 -3.4748 0.0000
# 4 0.0000 0.0000 0.0000 45.4548 0.0000 -7.5973
# 5 -11.3989 5.0500 -3.4748 0.0000 39.4159 0.0000
# 6 0.0000 0.0000 0.0000 -7.5973 0.0000 21.6004
#
#
#
# Elastic Compliance Matrix: (Units=1/GPa)
#
#
# Indices 1 2 3 4 5 6 
#
# 1 0.016567 0.000566 -0.004656 0.000000 0.004308 0.000000
# 2 0.000566 0.014942 -0.002375 0.000000 -0.001960 0.000000
# 3 -0.004656 -0.002375 0.011123 0.000000 -0.000062 0.000000
# 4 0.000000 0.000000 0.000000 0.023374 0.000000 0.008221
# 5 0.004308 -0.001960 -0.000062 0.000000 0.026862 0.000000
# 6 0.000000 0.000000 0.000000 0.008221 0.000000 0.049187
#
#
# Mechanical properties :
#
#
# Convention : Reuss Voigt Hill
#
# Bulk Modulus (GPa) = 33.66518 37.69048 35.67783
# Shear Modulus (GPa) = 30.32429 34.73456 32.52943
#
# Velocity S-wave (km/s) = 3.54998 3.79937 3.67679
# Velocity P-wave (km/s) = 5.54923 5.90852 5.73169
#
# Compressibility (1/GPa) = 0.02970428
#
# Stress axis : x y z
#
# Youngs Moduli (GPa) = 60.36115 66.92346 89.90542
#
# Poissons Ratio (x) = -0.03790 0.41857
# Poissons Ratio (y) = -0.03419 0.21349
# Poissons Ratio (z) = 0.28102 0.15892
#
# Static dielectric constant tensor:
#      x y z
#    x 1.879590 0.000000 0.003590 
#    y 0.000000 1.948660 0.000000 
#    z 0.003590 0.000000 1.970300 
# 
# From -- ./inp_files/6662.got.cif
#   From: 2010.05.17/outbox.cif.g08.bks.cpg/sg9_4_cif.got.tgz:6662.got - 2010.06.03 20:04:27.
