data_PCOD9136584
_publ_section_title
;
Structure prediction by ZEFSAII (Michael W. Deem and Ramdas Pophale) SiO2 
 PCOD9136584
Probable space group: C C
;
_chemical_formula_sum "Si O2"
_cell_formula_units_Z 32
_cell_length_a 14.511900
_cell_length_b 8.269503
_cell_length_c 24.263004
_cell_angle_alpha 90.000000
_cell_angle_beta 27.953958
_cell_angle_gamma 90.000000
_cell_volume 1364.899111
_symmetry_space_group_name_H-M "C C"
_symmetry_group_IT_number 9
_symmetry_cell_setting 'monoclinic'
loop_
_space_group_symop_operation_xyz
x,y,z
x,-y,1/2+z
1/2+x,1/2+y,z
1/2+x,1/2-y,1/2+z
loop_
_atom_site_type_symbol
_atom_site_label
_atom_site_fract_x
_atom_site_fract_y
_atom_site_fract_z
Si Si1 0.164340 0.993533 0.157990
Si Si2 0.310563 0.551825 0.986666
Si Si3 0.871820 0.257693 0.853662
Si Si4 0.384489 0.061230 0.245245
Si Si5 0.491709 0.734801 0.985251
Si Si6 0.885594 0.192088 0.241230
Si Si7 0.232672 0.551924 0.211261
Si Si8 0.622549 0.689302 0.288694
O O1 0.184760 0.066445 0.207808
O O2 0.092737 0.132499 0.155009
O O3 0.978693 0.872029 0.257809
O O4 0.356464 0.890796 0.044821
O O5 0.257058 0.652524 0.959447
O O6 0.479650 0.631411 0.935273
O O7 0.404923 0.377956 0.920772
O O8 0.119902 0.579300 0.125230
O O9 0.792419 0.393810 0.853714
O O10 0.042503 0.340413 0.799092
O O11 0.268607 0.167999 0.262825
O O12 0.390100 0.877598 0.220882
O O13 0.712202 0.797940 0.878738
O O14 0.396995 0.623604 0.082754
O O15 0.813723 0.081835 0.229470
O O16 0.156878 0.368232 0.246894
#
# Coordination Sequence:
#
# PCOD9136584 Si02
#       8
#     4   4   4   4   4   4   4   4
#     4  10  23  42  68  99 140 179 232 289 342 412
#     4  11  23  45  71  99 140 186 227 292 356 407
#     4  10  21  42  65  99 138 178 225 289 345 413
#     4  12  23  43  71  99 140 181 234 286 349 415
#     4  11  23  47  72  98 144 189 226 291 358 399
#     4  12  25  45  71 105 136 185 235 288 343 419
#     4  11  23  43  69 100 142 180 232 286 345 415
#     4  11  25  45  67 105 140 182 233 291 342 422
#
# _framework density 23.444956999999999
#
# number of rings (size 3 to 8) (size 9 to 14) (size 15 to 20)
#    0.000    1.000    5.000    3.000    0.000    6.000 
#    0.000    0.000    0.000    0.000    0.000    0.000 
#    0.000    0.000    0.000    0.000    0.000    0.000 
#
# Total GULP energy -89284.201539 kJ/mol
# GULP energy per Si atom -5580.262596 kJ/mol
# Density = 2.339159 g / cm^3
# Si number density = 23.444957 Si / 1000 Ang^3
#
#
#
# Elastic Constant Matrix: (Units=GPa)
#
#
# Indices 1 2 3 4 5 6 
#
# 1 78.1349 9.6330 7.6413 -0.0002 7.3660 0.0001
# 2 9.6330 102.4508 31.2495 -0.0003 8.0087 0.0001
# 3 7.6413 31.2495 60.6603 -0.0021 2.3075 0.0007
# 4 -0.0002 -0.0003 -0.0021 22.8502 0.0004 4.8259
# 5 7.3660 8.0087 2.3075 0.0004 20.6450 -0.0002
# 6 0.0001 0.0001 0.0007 4.8259 -0.0002 36.9882
#
#
#
# Elastic Compliance Matrix: (Units=1/GPa)
#
#
# Indices 1 2 3 4 5 6 
#
# 1 0.013404 -0.000534 -0.001245 0.000000 -0.004436 0.000000
# 2 -0.000534 0.011913 -0.005927 0.000000 -0.003769 0.000000
# 3 -0.001245 -0.005927 0.019674 0.000002 0.000544 -0.000001
# 4 0.000000 0.000000 0.000002 0.045003 -0.000001 -0.005872
# 5 -0.004436 -0.003769 0.000544 -0.000001 0.051422 0.000000
# 6 0.000000 0.000000 -0.000001 -0.005872 0.000000 0.027802
#
#
# Mechanical properties :
#
#
# Convention : Reuss Voigt Hill
#
# Bulk Modulus (GPa) = 33.80489 37.58819 35.69654
# Shear Modulus (GPa) = 25.70830 28.94483 27.32657
#
# Velocity S-wave (km/s) = 3.31499 3.51748 3.41774
# Velocity P-wave (km/s) = 5.39466 5.70651 5.55277
#
# Compressibility (1/GPa) = 0.02958152
#
# Stress axis : x y z
#
# Youngs Moduli (GPa) = 74.60382 83.93976 50.82725
#
# Poissons Ratio (x) = 0.04481 0.06327
# Poissons Ratio (y) = 0.03983 0.30123
# Poissons Ratio (z) = 0.09286 0.49748
#
# Static dielectric constant tensor:
#      x y z
#    x 1.823370 0.000000 -0.005650 
#    y 0.000000 1.932140 0.000000 
#    z -0.005650 0.000000 1.930010 
# 
# From -- ./inp_files/25657.got.cif
#   From: 2010.05.17/outbox.cif.g08.bks.cpg/sg9_13_cif.got.tgz:25657.got - 2010.06.03 20:04:27.
