data_PCOD9136831
_publ_section_title
;
Structure prediction by ZEFSAII (Michael W. Deem and Ramdas Pophale) SiO2 
 PCOD9136831
Probable space group: C C
;
_chemical_formula_sum "Si O2"
_cell_formula_units_Z 32
_cell_length_a 10.497330
_cell_length_b 9.637559
_cell_length_c 22.518960
_cell_angle_alpha 90.000000
_cell_angle_beta 37.354778
_cell_angle_gamma 90.000000
_cell_volume 1382.302335
_symmetry_space_group_name_H-M "C C"
_symmetry_group_IT_number 9
_symmetry_cell_setting 'monoclinic'
loop_
_space_group_symop_operation_xyz
x,y,z
x,-y,1/2+z
1/2+x,1/2+y,z
1/2+x,1/2-y,1/2+z
loop_
_atom_site_type_symbol
_atom_site_label
_atom_site_fract_x
_atom_site_fract_y
_atom_site_fract_z
Si Si1 0.512100 0.703671 0.110720
Si Si2 0.202917 0.140565 0.241493
Si Si3 0.005617 0.115527 0.622763
Si Si4 0.227538 0.280921 0.908674
Si Si5 0.397671 0.325704 0.027006
Si Si6 0.692418 0.599065 0.667620
Si Si7 0.237517 0.600859 0.894852
Si Si8 0.012514 0.074440 0.901283
O O1 0.451322 0.547426 0.150052
O O2 0.659800 0.771385 0.106423
O O3 0.310306 0.790284 0.164946
O O4 0.653885 0.713714 0.998139
O O5 0.359480 0.260516 0.199806
O O6 0.978426 0.210708 0.313940
O O7 0.163975 0.023625 0.305642
O O8 0.274681 0.051916 0.157454
O O9 0.983675 0.139477 0.560520
O O10 0.205464 0.129083 0.592688
O O11 0.161544 0.442275 0.928962
O O12 0.137639 0.191538 0.888783
O O13 0.558758 0.208503 0.943069
O O14 0.409774 0.467018 0.985139
O O15 0.445066 0.598642 0.776576
O O16 0.335934 0.634852 0.923088
#
# Coordination Sequence:
#
# PCOD9136831 Si02
#       8
#     4   4   4   4   4   4   4   4
#     4  12  26  44  68 107 141 174 234 290 345 409
#     4  10  24  47  69  99 142 186 229 284 352 414
#     4  12  27  41  69 105 140 182 229 285 355 400
#     4  10  22  45  73  99 137 180 232 286 338 416
#     4  12  25  43  72 104 142 183 227 288 350 412
#     4  10  26  47  67 101 140 182 230 291 343 414
#     4  10  25  45  73  97 137 187 233 279 351 417
#     4  10  21  44  69 100 133 184 232 285 338 408
#
# _framework density 23.149781999999998
#
# number of rings (size 3 to 8) (size 9 to 14) (size 15 to 20)
#    0.000    1.500    3.750    1.500    5.250    9.000 
#    0.000    0.000    0.000    0.000    0.000    0.000 
#    0.000    0.000    0.000    0.000    0.000    0.000 
#
# Total GULP energy -89438.384107 kJ/mol
# GULP energy per Si atom -5589.899007 kJ/mol
# Density = 2.309709 g / cm^3
# Si number density = 23.149782 Si / 1000 Ang^3
#
#
#
# Elastic Constant Matrix: (Units=GPa)
#
#
# Indices 1 2 3 4 5 6 
#
# 1 139.3605 68.3092 37.8550 0.0000 8.4361 0.0000
# 2 68.3092 98.8399 2.5821 0.0000 -8.1403 0.0000
# 3 37.8550 2.5821 36.0587 0.0000 6.9044 0.0000
# 4 0.0000 0.0000 0.0000 23.2267 0.0000 4.0196
# 5 8.4361 -8.1403 6.9044 0.0000 31.5007 0.0000
# 6 0.0000 0.0000 0.0000 4.0196 0.0000 50.5840
#
#
#
# Elastic Compliance Matrix: (Units=1/GPa)
#
#
# Indices 1 2 3 4 5 6 
#
# 1 0.018393 -0.012609 -0.017577 0.000000 -0.004332 0.000000
# 2 -0.012609 0.019041 0.010735 0.000000 0.005944 0.000000
# 3 -0.017577 0.010735 0.045910 0.000000 -0.002581 0.000000
# 4 0.000000 0.000000 0.000000 0.043654 0.000000 -0.003469
# 5 -0.004332 0.005944 -0.002581 0.000000 0.035007 0.000000
# 6 0.000000 0.000000 0.000000 -0.003469 0.000000 0.020045
#
#
# Mechanical properties :
#
#
# Convention : Reuss Voigt Hill
#
# Bulk Modulus (GPa) = 22.50058 54.63906 38.56982
# Shear Modulus (GPa) = 21.20763 32.09647 26.65205
#
# Velocity S-wave (km/s) = 3.03001 3.72757 3.39674
# Velocity P-wave (km/s) = 4.68849 6.49462 5.66401
#
# Compressibility (1/GPa) = 0.04444330
#
# Stress axis : x y z
#
# Youngs Moduli (GPa) = 54.36965 52.51937 21.78163
#
# Poissons Ratio (x) = 0.66221 0.38285
# Poissons Ratio (y) = 0.68554 -0.23383
# Poissons Ratio (z) = 0.95563 -0.56381
#
# Static dielectric constant tensor:
#      x y z
#    x 1.872780 0.000000 0.046420 
#    y 0.000000 1.833990 0.000000 
#    z 0.046420 0.000000 1.972270 
# 
# From -- ./inp_files/35308.got.cif
#   From: 2010.05.17/outbox.cif.g08.bks.cpg/sg9_18_cif.got.tgz:35308.got - 2010.06.03 20:04:27.
