data_PCOD9136217
_publ_section_title
;
Structure prediction by ZEFSAII (Michael W. Deem and Ramdas Pophale) SiO2 
 PCOD9136217
Probable space group: C C
;
_chemical_formula_sum "Si O2"
_cell_formula_units_Z 28
_cell_length_a 12.923019
_cell_length_b 8.949295
_cell_length_c 10.155240
_cell_angle_alpha 90.000000
_cell_angle_beta 72.528226
_cell_angle_gamma 90.000000
_cell_volume 1120.288558
_symmetry_space_group_name_H-M "C C"
_symmetry_group_IT_number 9
_symmetry_cell_setting 'monoclinic'
loop_
_space_group_symop_operation_xyz
x,y,z
x,-y,1/2+z
1/2+x,1/2+y,z
1/2+x,1/2-y,1/2+z
loop_
_atom_site_type_symbol
_atom_site_label
_atom_site_fract_x
_atom_site_fract_y
_atom_site_fract_z
Si Si1 0.359470 0.187052 0.495310
Si Si2 0.925534 0.086218 0.174381
Si Si3 0.009195 0.416305 0.475849
Si Si4 0.306161 0.734463 0.436793
Si Si5 0.488446 0.727305 0.718313
Si Si6 0.131543 0.251987 0.218424
Si Si7 0.689036 0.576233 0.758496
O O1 0.369928 0.341005 0.570297
O O2 0.381190 0.216538 0.334089
O O3 0.254407 0.107004 0.596866
O O4 0.461322 0.080909 0.494223
O O5 0.846496 0.099434 0.330292
O O6 0.027141 0.189887 0.178053
O O7 0.963204 0.918192 0.140708
O O8 0.907471 0.315483 0.466199
O O9 0.036224 0.357883 0.610444
O O10 0.100505 0.378008 0.335143
O O11 0.219665 0.695761 0.580164
O O12 0.256222 0.853870 0.352116
O O13 0.575743 0.663877 0.788543
O O14 0.169857 0.099830 0.276493
#
# Coordination Sequence:
#
# PCOD9136217 Si02
#       7
#     4   4   4   4   4   4   4
#     4  11  24  46  70 100 142 181 232 287 345 413
#     4   9  23  42  69  96 133 180 228 281 342 404
#     4  11  26  39  68 106 134 177 232 287 344 400
#     4  10  21  42  69  96 134 180 230 278 336 413
#     4  11  26  45  70 102 137 181 232 285 346 411
#     4  10  21  39  69  94 135 177 232 274 334 412
#     4  10  23  43  73  96 129 192 232 272 349 419
#
# _framework density 24.993559999999999
#
# number of rings (size 3 to 8) (size 9 to 14) (size 15 to 20)
#    0.000    1.714    1.429    0.857   16.000    1.143 
#    2.571    2.857    0.000    0.000    0.000    0.000 
#    0.000    0.000    0.000    0.000    0.000    0.000 
#
# Total GULP energy -78443.245195 kJ/mol
# GULP energy per Si atom -5603.088943 kJ/mol
# Density = 2.493667 g / cm^3
# Si number density = 24.993560 Si / 1000 Ang^3
#
#
#
# Elastic Constant Matrix: (Units=GPa)
#
#
# Indices 1 2 3 4 5 6 
#
# 1 56.9687 4.4402 9.1336 0.0000 -3.4253 0.0000
# 2 4.4402 65.4665 4.8323 0.0000 0.0429 0.0000
# 3 9.1336 4.8323 133.2320 0.0000 -34.8696 0.0000
# 4 0.0000 0.0000 0.0000 34.3063 0.0000 -0.5724
# 5 -3.4253 0.0429 -34.8696 0.0000 40.5014 0.0000
# 6 0.0000 0.0000 0.0000 -0.5724 0.0000 32.1800
#
#
#
# Elastic Compliance Matrix: (Units=1/GPa)
#
#
# Indices 1 2 3 4 5 6 
#
# 1 0.017843 -0.001136 -0.001016 0.000000 0.000636 0.000000
# 2 -0.001136 0.015401 -0.000659 0.000000 -0.000679 0.000000
# 3 -0.001016 -0.000659 0.009781 0.000000 0.008336 0.000000
# 4 0.000000 0.000000 0.000000 0.029158 0.000000 0.000519
# 5 0.000636 -0.000679 0.008336 0.000000 0.031922 0.000000
# 6 0.000000 0.000000 0.000000 0.000519 0.000000 0.031084
#
#
# Mechanical properties :
#
#
# Convention : Reuss Voigt Hill
#
# Bulk Modulus (GPa) = 26.73414 32.49772 29.61593
# Shear Modulus (GPa) = 32.62072 37.21493 34.91783
#
# Velocity S-wave (km/s) = 3.61663 3.86292 3.74180
# Velocity P-wave (km/s) = 5.30656 5.73819 5.52659
#
# Compressibility (1/GPa) = 0.03740535
#
# Stress axis : x y z
#
# Youngs Moduli (GPa) = 56.04412 64.93057 102.24112
#
# Poissons Ratio (x) = 0.07374 0.10384
# Poissons Ratio (y) = 0.06365 0.06733
# Poissons Ratio (z) = 0.05692 0.04276
#
# Static dielectric constant tensor:
#      x y z
#    x 1.993320 0.000000 -0.002220 
#    y 0.000000 1.883470 0.000000 
#    z -0.002220 0.000000 1.952000 
# 
# From -- ./inp_files/17696.got.cif
#   From: 2010.05.17/outbox.cif.g08.bks.cpg/sg9_9_cif.got.tgz:17696.got - 2010.06.03 20:04:27.
