data_PCOD9136252
_publ_section_title
;
Structure prediction by ZEFSAII (Michael W. Deem and Ramdas Pophale) SiO2 
 PCOD9136252
Probable space group: C C
;
_chemical_formula_sum "Si O2"
_cell_formula_units_Z 32
_cell_length_a 5.275869
_cell_length_b 9.271965
_cell_length_c 26.794519
_cell_angle_alpha 90.000000
_cell_angle_beta 81.974547
_cell_angle_gamma 90.000000
_cell_volume 1297.888455
_symmetry_space_group_name_H-M "C C"
_symmetry_group_IT_number 9
_symmetry_cell_setting 'monoclinic'
loop_
_space_group_symop_operation_xyz
x,y,z
x,-y,1/2+z
1/2+x,1/2+y,z
1/2+x,1/2-y,1/2+z
loop_
_atom_site_type_symbol
_atom_site_label
_atom_site_fract_x
_atom_site_fract_y
_atom_site_fract_z
Si Si1 0.527930 0.875219 0.736430
Si Si2 0.053927 0.043663 0.700125
Si Si3 0.708136 0.977644 0.586618
Si Si4 0.134016 0.101404 0.505829
Si Si5 0.431070 0.918615 0.856291
Si Si6 0.803609 0.319555 0.105210
Si Si7 0.905419 0.087459 0.892446
Si Si8 0.539008 0.104238 0.987467
O O1 0.556192 0.704212 0.724188
O O2 0.462374 0.893996 0.796413
O O3 0.291761 0.947311 0.712712
O O4 0.790334 0.963260 0.719264
O O5 0.108483 0.077632 0.639939
O O6 0.745934 0.843478 0.621155
O O7 0.512771 0.924978 0.547607
O O8 0.580155 0.120156 0.612064
O O9 0.947231 0.013275 0.546011
O O10 0.295322 0.185688 0.545018
O O11 0.988666 0.227163 0.480701
O O12 0.331680 0.004043 0.471156
O O13 0.433346 0.757880 0.880305
O O14 0.670268 0.015703 0.868360
O O15 0.163391 0.001938 0.872859
O O16 0.806608 0.074948 0.952660
#
# Coordination Sequence:
#
# PCOD9136252 Si02
#       8
#     4   4   4   4   4   4   4   4
#     4  12  26  49  73 104 140 183 229 295 363 413
#     4  12  27  45  76 105 140 182 237 290 339 434
#     4  10  21  40  62  87 136 173 217 278 328 402
#     4  10  21  40  62  87 136 173 217 278 328 402
#     4  12  26  49  73 104 140 183 229 295 363 413
#     4  10  23  38  61  97 124 178 225 271 338 391
#     4  12  27  45  76 105 140 182 237 290 339 434
#     4  10  23  38  61  97 124 178 225 271 338 391
#
# _framework density 24.655429999999999
#
# number of rings (size 3 to 8) (size 9 to 14) (size 15 to 20)
#    0.000    1.000    0.000    6.000    7.000    0.000 
#    0.000    0.000    0.000    0.000    0.000    0.000 
#    0.000    0.000    0.000    0.000    0.000    0.000 
#
# Total GULP energy -89491.818655 kJ/mol
# GULP energy per Si atom -5593.238666 kJ/mol
# Density = 2.459931 g / cm^3
# Si number density = 24.655430 Si / 1000 Ang^3
#
#
#
# Elastic Constant Matrix: (Units=GPa)
#
#
# Indices 1 2 3 4 5 6 
#
# 1 146.9317 73.0530 18.7920 0.0000 -32.4976 0.0000
# 2 73.0530 179.4716 12.1032 0.0000 -12.7959 0.0000
# 3 18.7920 12.1032 107.8770 0.0000 -14.6365 0.0000
# 4 0.0000 0.0000 0.0000 36.9214 0.0000 -11.5226
# 5 -32.4976 -12.7959 -14.6365 0.0000 36.5531 0.0000
# 6 0.0000 0.0000 0.0000 -11.5226 0.0000 45.5775
#
#
#
# Elastic Compliance Matrix: (Units=1/GPa)
#
#
# Indices 1 2 3 4 5 6 
#
# 1 0.010396 -0.003651 -0.000339 0.000000 0.007829 0.000000
# 2 -0.003651 0.007012 -0.000273 0.000000 -0.000900 0.000000
# 3 -0.000339 -0.000273 0.009840 0.000000 0.003543 0.000000
# 4 0.000000 0.000000 0.000000 0.029405 0.000000 0.007434
# 5 0.007829 -0.000900 0.003543 0.000000 0.035421 0.000000
# 6 0.000000 0.000000 0.000000 0.007434 0.000000 0.023820
#
#
# Mechanical properties :
#
#
# Convention : Reuss Voigt Hill
#
# Bulk Modulus (GPa) = 53.41069 71.35297 62.38183
# Shear Modulus (GPa) = 38.26725 45.83253 42.04989
#
# Velocity S-wave (km/s) = 3.94392 4.31620 4.13425
# Velocity P-wave (km/s) = 6.51531 7.33773 6.93872
#
# Compressibility (1/GPa) = 0.01872284
#
# Stress axis : x y z
#
# Youngs Moduli (GPa) = 96.19301 142.61141 101.62345
#
# Poissons Ratio (x) = 0.52060 0.03447
# Poissons Ratio (y) = 0.35115 0.02774
# Poissons Ratio (z) = 0.03263 0.03892
#
# Static dielectric constant tensor:
#      x y z
#    x 2.017100 0.000000 0.080100 
#    y 0.000000 2.011000 0.000000 
#    z 0.080100 0.000000 1.959840 
# 
# From -- ./inp_files/37083.got.cif
#   From: 2010.05.17/outbox.cif.g08.bks.cpg/sg9_19_cif.got.tgz:37083.got - 2010.06.03 20:04:27.
