data_PCOD9136479
_publ_section_title
;
Structure prediction by ZEFSAII (Michael W. Deem and Ramdas Pophale) SiO2 
 PCOD9136479
Probable space group: C C
;
_chemical_formula_sum "Si O2"
_cell_formula_units_Z 24
_cell_length_a 9.297039
_cell_length_b 12.231141
_cell_length_c 17.835010
_cell_angle_alpha 90.000000
_cell_angle_beta 27.335142
_cell_angle_gamma 90.000000
_cell_volume 931.282960
_symmetry_space_group_name_H-M "C C"
_symmetry_group_IT_number 9
_symmetry_cell_setting 'monoclinic'
loop_
_space_group_symop_operation_xyz
x,y,z
x,-y,1/2+z
1/2+x,1/2+y,z
1/2+x,1/2-y,1/2+z
loop_
_atom_site_type_symbol
_atom_site_label
_atom_site_fract_x
_atom_site_fract_y
_atom_site_fract_z
Si Si1 0.698780 0.270838 0.962670
Si Si2 0.119844 0.787372 0.629873
Si Si3 0.055838 0.986572 0.110341
Si Si4 0.633389 0.937803 0.920790
Si Si5 0.570291 0.141169 0.167841
Si Si6 0.855176 0.061378 0.477617
O O1 0.431780 0.212195 0.037071
O O2 0.012886 0.289379 0.769601
O O3 0.588917 0.394307 0.033587
O O4 0.712963 0.211993 0.035128
O O5 0.128123 0.665836 0.594600
O O6 0.823127 0.825043 0.817514
O O7 0.135117 0.885225 0.562090
O O8 0.264540 0.943909 0.084628
O O9 0.718639 0.995396 0.305280
O O10 0.762734 0.982759 0.938413
O O11 0.213029 0.102909 0.312610
O O12 0.774097 0.031931 0.075128
#
# Coordination Sequence:
#
# PCOD9136479 Si02
#       6
#     4   4   4   4   4   4
#     4  11  24  46  70 110 142 200 242 311 369 463
#     4   9  23  41  70 102 146 188 244 308 373 439
#     4  10  24  41  72 103 144 193 245 296 389 438
#     4  10  21  41  67 106 137 193 237 308 367 453
#     4  11  26  44  75 102 149 192 251 309 385 439
#     4  11  22  43  72 103 146 192 247 318 369 454
#
# _framework density 25.770900000000001
#
# number of rings (size 3 to 8) (size 9 to 14) (size 15 to 20)
#    1.000    0.667    1.667    2.000    7.000    5.333 
#    3.000    0.000    0.000    0.000    0.000    0.000 
#    0.000    0.000    0.000    0.000    0.000    0.000 
#
# Total GULP energy -67024.915028 kJ/mol
# GULP energy per Si atom -5585.409586 kJ/mol
# Density = 2.571224 g / cm^3
# Si number density = 25.770900 Si / 1000 Ang^3
#
#
#
# Elastic Constant Matrix: (Units=GPa)
#
#
# Indices 1 2 3 4 5 6 
#
# 1 44.4414 23.2180 21.0319 0.0055 -4.4900 -0.0110
# 2 23.2180 164.6755 65.7071 -0.0340 18.8170 0.0055
# 3 21.0319 65.7071 94.1461 -0.0361 25.7272 -0.0432
# 4 0.0055 -0.0340 -0.0361 41.4375 -0.0148 1.3881
# 5 -4.4900 18.8170 25.7272 -0.0148 38.5999 0.0177
# 6 -0.0110 0.0055 -0.0432 1.3881 0.0177 49.0436
#
#
#
# Elastic Compliance Matrix: (Units=1/GPa)
#
#
# Indices 1 2 3 4 5 6 
#
# 1 0.027958 -0.002075 -0.007290 -0.000008 0.009123 -0.000003
# 2 -0.002075 0.008572 -0.005271 0.000003 -0.000907 -0.000006
# 3 -0.007290 -0.005271 0.018901 0.000009 -0.010876 0.000019
# 4 -0.000008 0.000003 0.000009 0.024156 0.000002 -0.000684
# 5 0.009123 -0.000907 -0.010876 0.000002 0.034659 -0.000020
# 6 -0.000003 -0.000006 0.000019 -0.000684 -0.000020 0.020409
#
#
# Mechanical properties :
#
#
# Convention : Reuss Voigt Hill
#
# Bulk Modulus (GPa) = 38.22975 58.13078 48.18026
# Shear Modulus (GPa) = 28.96064 38.70326 33.83195
#
# Velocity S-wave (km/s) = 3.35591 3.87954 3.62718
# Velocity P-wave (km/s) = 5.46652 6.53249 6.02313
#
# Compressibility (1/GPa) = 0.02615764
#
# Stress axis : x y z
#
# Youngs Moduli (GPa) = 35.76846 116.65813 52.90601
#
# Poissons Ratio (x) = 0.24212 0.38569
# Poissons Ratio (y) = 0.07423 0.27888
# Poissons Ratio (z) = 0.26076 0.61493
#
# Static dielectric constant tensor:
#      x y z
#    x 2.025080 0.000010 0.041130 
#    y 0.000010 2.077630 -0.000020 
#    z 0.041130 -0.000020 1.962460 
# 
# From -- ./inp_files/9736.got.cif
#   From: 2010.05.17/outbox.cif.g08.bks.cpg/sg9_5_cif.got.tgz:9736.got - 2010.06.03 20:04:27.
