data_PCOD9136659
_publ_section_title
;
Structure prediction by ZEFSAII (Michael W. Deem and Ramdas Pophale) SiO2 
 PCOD9136659
Probable space group: C C
;
_chemical_formula_sum "Si O2"
_cell_formula_units_Z 32
_cell_length_a 9.548676
_cell_length_b 16.956174
_cell_length_c 15.272908
_cell_angle_alpha 90.000000
_cell_angle_beta 144.310556
_cell_angle_gamma 90.000000
_cell_volume 1442.623221
_symmetry_space_group_name_H-M "C C"
_symmetry_group_IT_number 9
_symmetry_cell_setting 'monoclinic'
loop_
_space_group_symop_operation_xyz
x,y,z
x,-y,1/2+z
1/2+x,1/2+y,z
1/2+x,1/2-y,1/2+z
loop_
_atom_site_type_symbol
_atom_site_label
_atom_site_fract_x
_atom_site_fract_y
_atom_site_fract_z
Si Si1 0.459570 0.124532 0.367990
Si Si2 0.913556 0.891046 0.200595
Si Si3 0.382258 0.442817 0.445053
Si Si4 0.001993 0.063893 0.213702
Si Si5 0.753334 0.796711 0.283544
Si Si6 0.862106 0.489813 0.190368
Si Si7 0.262526 0.273735 0.604453
Si Si8 0.301942 0.834102 0.277957
O O1 0.735620 0.114683 0.528451
O O2 0.284809 0.082248 0.349913
O O3 0.382266 0.214408 0.330786
O O4 0.404963 0.075920 0.253511
O O5 0.778354 0.847845 0.209397
O O6 0.156065 0.849123 0.292645
O O7 0.956369 0.982801 0.239097
O O8 0.409839 0.447161 0.565250
O O9 0.389415 0.350224 0.424425
O O10 0.598241 0.496093 0.515946
O O11 0.117694 0.468647 0.277742
O O12 0.870628 0.140746 0.183941
O O13 0.482252 0.776289 0.174312
O O14 0.834343 0.419545 0.248170
O O15 0.177708 0.223471 0.644668
O O16 0.052223 0.292709 0.429673
#
# Coordination Sequence:
#
# PCOD9136659 Si02
#       8
#     4   4   4   4   4   4   4   4
#     4  10  22  40  68  95 129 185 227 276 352 420
#     4  12  25  44  66 101 141 179 230 289 356 427
#     4  11  21  45  68 101 128 194 233 293 344 440
#     4  10  21  42  71  92 133 186 232 279 349 423
#     4  11  27  42  70 102 138 176 239 293 345 420
#     4  11  20  43  74  92 138 185 239 272 363 426
#     4  11  24  45  73 103 137 188 242 295 348 428
#     4  12  24  45  72 104 144 185 234 293 363 418
#
# _framework density 22.181813999999999
#
# number of rings (size 3 to 8) (size 9 to 14) (size 15 to 20)
#    0.000    1.000    6.250    0.000   10.500    0.000 
#    4.500    0.000    0.000    0.000    0.000    0.000 
#    0.000    0.000    0.000    0.000    0.000    0.000 
#
# Total GULP energy -89345.329538 kJ/mol
# GULP energy per Si atom -5584.083096 kJ/mol
# Density = 2.213133 g / cm^3
# Si number density = 22.181814 Si / 1000 Ang^3
#
#
#
# Elastic Constant Matrix: (Units=GPa)
#
#
# Indices 1 2 3 4 5 6 
#
# 1 54.8989 42.9757 17.4122 -0.0008 3.4478 0.0002
# 2 42.9757 148.7704 30.2081 0.0001 2.7504 0.0001
# 3 17.4122 30.2081 67.1913 0.0020 16.1864 -0.0005
# 4 -0.0008 0.0001 0.0020 33.2770 -0.0003 6.6515
# 5 3.4478 2.7504 16.1864 -0.0003 26.0957 0.0001
# 6 0.0002 0.0001 -0.0005 6.6515 0.0001 8.3678
#
#
#
# Elastic Compliance Matrix: (Units=1/GPa)
#
#
# Indices 1 2 3 4 5 6 
#
# 1 0.024248 -0.006320 -0.003328 0.000001 -0.000473 -0.000001
# 2 -0.006320 0.009095 -0.002847 0.000000 0.001642 0.000000
# 3 -0.003328 -0.002847 0.019807 -0.000002 -0.011546 0.000003
# 4 0.000001 0.000000 -0.000002 0.035727 0.000002 -0.028399
# 5 -0.000473 0.001642 -0.011546 0.000002 0.045371 -0.000002
# 6 -0.000001 0.000000 0.000003 -0.028399 -0.000002 0.142080
#
#
# Mechanical properties :
#
#
# Convention : Reuss Voigt Hill
#
# Bulk Modulus (GPa) = 35.51217 50.22805 42.87011
# Shear Modulus (GPa) = 16.09239 25.56573 20.82906
#
# Velocity S-wave (km/s) = 2.69639 3.39861 3.06766
# Velocity P-wave (km/s) = 5.07330 6.17201 5.64943
#
# Compressibility (1/GPa) = 0.02815936
#
# Stress axis : x y z
#
# Youngs Moduli (GPa) = 41.24036 109.94880 50.48813
#
# Poissons Ratio (x) = 0.69488 0.16804
# Poissons Ratio (y) = 0.26064 0.14373
# Poissons Ratio (z) = 0.13726 0.31301
#
# Static dielectric constant tensor:
#      x y z
#    x 1.850810 0.000000 0.000060 
#    y 0.000000 1.789660 0.000000 
#    z 0.000060 0.000000 1.880080 
# 
# From -- ./inp_files/30168.got.cif
#   From: 2010.05.17/outbox.cif.g08.bks.cpg/sg9_16_cif.got.tgz:30168.got - 2010.06.03 20:04:27.
