data_PCOD9136399
_publ_section_title
;
Structure prediction by ZEFSAII (Michael W. Deem and Ramdas Pophale) SiO2 
 PCOD9136399
Probable space group: C C
;
_chemical_formula_sum "Si O2"
_cell_formula_units_Z 28
_cell_length_a 7.642841
_cell_length_b 25.970938
_cell_length_c 5.522793
_cell_angle_alpha 90.000000
_cell_angle_beta 78.461525
_cell_angle_gamma 90.000000
_cell_volume 1074.074724
_symmetry_space_group_name_H-M "C C"
_symmetry_group_IT_number 9
_symmetry_cell_setting 'monoclinic'
loop_
_space_group_symop_operation_xyz
x,y,z
x,-y,1/2+z
1/2+x,1/2+y,z
1/2+x,1/2-y,1/2+z
loop_
_atom_site_type_symbol
_atom_site_label
_atom_site_fract_x
_atom_site_fract_y
_atom_site_fract_z
Si Si1 0.367330 0.129769 0.064190
Si Si2 0.837110 0.798442 0.790623
Si Si3 0.508337 0.766791 0.621608
Si Si4 0.652473 0.021799 0.504921
Si Si5 0.223244 0.624501 0.678714
Si Si6 0.745915 0.482182 0.684538
Si Si7 0.551497 0.655852 0.863191
O O1 0.381284 0.183699 0.208830
O O2 0.285407 0.078675 0.204592
O O3 0.252903 0.139332 0.850143
O O4 0.568495 0.118279 0.919513
O O5 0.707304 0.787322 0.604454
O O6 0.975859 0.840485 0.657969
O O7 0.719171 0.821347 0.039706
O O8 0.944703 0.751552 0.875813
O O9 0.527596 0.714115 0.770042
O O10 0.685682 0.082073 0.487849
O O11 0.726419 0.996382 0.243250
O O12 0.441222 0.009023 0.590042
O O13 0.419018 0.621454 0.742966
O O14 0.658071 0.493715 0.447703
#
# Coordination Sequence:
#
# PCOD9136399 Si02
#       7
#     4   4   4   4   4   4   4
#     4  12  24  45  76 100 143 198 234 311 372 434
#     4  11  26  44  71 102 146 184 245 302 368 450
#     4  11  25  43  68 101 142 187 237 297 367 441
#     4  10  21  40  73 105 139 187 251 299 363 449
#     4  11  25  46  72 101 144 190 237 305 370 438
#     4  10  22  43  70 109 140 187 256 301 366 453
#     4  11  27  47  66 112 140 183 254 291 370 453
#
# _framework density 26.068953
#
# number of rings (size 3 to 8) (size 9 to 14) (size 15 to 20)
#    0.000    1.143    5.714    0.000   10.000    0.000 
#    7.714    1.429    0.000    0.000    0.000    0.000 
#    0.000    0.000    0.000    0.000    0.000    0.000 
#
# Total GULP energy -78263.438165 kJ/mol
# GULP energy per Si atom -5590.245583 kJ/mol
# Density = 2.600962 g / cm^3
# Si number density = 26.068953 Si / 1000 Ang^3
#
#
#
# Elastic Constant Matrix: (Units=GPa)
#
#
# Indices 1 2 3 4 5 6 
#
# 1 106.6701 27.5704 11.2564 0.0000 29.7655 0.0000
# 2 27.5704 88.7617 13.5153 0.0000 20.5426 0.0000
# 3 11.2564 13.5153 104.2973 0.0000 17.9304 0.0000
# 4 0.0000 0.0000 0.0000 31.2859 0.0000 21.0589
# 5 29.7655 20.5426 17.9304 0.0000 29.9517 0.0000
# 6 0.0000 0.0000 0.0000 21.0589 0.0000 22.0450
#
#
#
# Elastic Compliance Matrix: (Units=1/GPa)
#
#
# Indices 1 2 3 4 5 6 
#
# 1 0.013171 -0.001277 0.000940 0.000000 -0.012776 0.000000
# 2 -0.001277 0.013519 -0.000266 0.000000 -0.007843 0.000000
# 3 0.000940 -0.000266 0.010757 0.000000 -0.007192 0.000000
# 4 0.000000 0.000000 0.000000 0.089534 0.000000 -0.085529
# 5 -0.012776 -0.007843 -0.007192 0.000000 0.055768 0.000000
# 6 0.000000 0.000000 0.000000 -0.085529 0.000000 0.127066
#
#
# Mechanical properties :
#
#
# Convention : Reuss Voigt Hill
#
# Bulk Modulus (GPa) = 27.59275 44.93484 36.26379
# Shear Modulus (GPa) = 15.47508 33.14898 24.31203
#
# Velocity S-wave (km/s) = 2.43908 3.56980 3.05717
# Velocity P-wave (km/s) = 4.30577 5.85369 5.13835
#
# Compressibility (1/GPa) = 0.03624140
#
# Stress axis : x y z
#
# Youngs Moduli (GPa) = 75.92702 73.97237 92.95968
#
# Poissons Ratio (x) = 0.09449 -0.08742
# Poissons Ratio (y) = 0.09699 0.02468
# Poissons Ratio (z) = -0.07140 0.01964
#
# Static dielectric constant tensor:
#      x y z
#    x 2.023100 0.000000 0.018610 
#    y 0.000000 2.089390 0.000000 
#    z 0.018610 0.000000 2.064330 
# 
# From -- ./inp_files/860.got.cif
#   From: 2010.05.17/outbox.cif.g08.bks.cpg/sg9_1_cif.got.tgz:860.got - 2010.06.03 20:04:27.
