data_PCOD9136381
_publ_section_title
;
Structure prediction by ZEFSAII (Michael W. Deem and Ramdas Pophale) SiO2 
 PCOD9136381
Probable space group: C C
;
_chemical_formula_sum "Si O2"
_cell_formula_units_Z 32
_cell_length_a 9.175230
_cell_length_b 10.731993
_cell_length_c 22.152667
_cell_angle_alpha 90.000000
_cell_angle_beta 145.732442
_cell_angle_gamma 90.000000
_cell_volume 1228.221376
_symmetry_space_group_name_H-M "C C"
_symmetry_group_IT_number 9
_symmetry_cell_setting 'monoclinic'
loop_
_space_group_symop_operation_xyz
x,y,z
x,-y,1/2+z
1/2+x,1/2+y,z
1/2+x,1/2-y,1/2+z
loop_
_atom_site_type_symbol
_atom_site_label
_atom_site_fract_x
_atom_site_fract_y
_atom_site_fract_z
Si Si1 0.886620 0.933181 0.992450
Si Si2 0.487269 0.287496 0.503069
Si Si3 0.374597 0.777858 0.826653
Si Si4 0.501798 0.512102 0.851996
Si Si5 0.540167 0.718962 0.656487
Si Si6 0.112330 0.802395 0.971277
Si Si7 0.559345 0.493016 0.233027
Si Si8 0.053231 0.603821 0.053354
O O1 0.640511 0.843343 0.893662
O O2 0.947231 0.895510 0.081113
O O3 0.127770 0.892761 0.033991
O O4 0.859087 0.076656 0.968354
O O5 0.404822 0.235545 0.409430
O O6 0.798991 0.284199 0.607509
O O7 0.360659 0.214406 0.514954
O O8 0.325198 0.636033 0.789352
O O9 0.161938 0.880514 0.738049
O O10 0.591102 0.488969 0.814871
O O11 0.425659 0.387455 0.862556
O O12 0.763869 0.566407 0.971752
O O13 0.692551 0.634789 0.756837
O O14 0.649279 0.811655 0.643110
O O15 0.052655 0.676110 0.988963
O O16 0.251050 0.491022 0.118052
#
# Coordination Sequence:
#
# PCOD9136381 Si02
#       8
#     4   4   4   4   4   4   4   4
#     4  10  21  40  70  97 130 182 231 281 342 415
#     4  11  20  38  73  97 128 177 232 274 348 409
#     4  11  24  43  63 105 137 175 236 285 342 426
#     4  12  24  46  72 101 142 184 232 296 352 420
#     4  10  23  45  64 101 140 181 223 293 343 421
#     4  11  21  38  74  99 126 185 228 284 348 415
#     4  12  28  41  72 107 143 183 236 297 354 419
#     4  11  25  47  68 103 142 183 240 282 357 425
#
# _framework density 26.053936
#
# number of rings (size 3 to 8) (size 9 to 14) (size 15 to 20)
#    0.000    1.000    6.250    1.500    3.500    5.000 
#    0.000    0.000    0.000    0.000    0.000    0.000 
#    0.000    0.000    0.000    0.000    0.000    0.000 
#
# Total GULP energy -89291.240824 kJ/mol
# GULP energy per Si atom -5580.702552 kJ/mol
# Density = 2.599464 g / cm^3
# Si number density = 26.053936 Si / 1000 Ang^3
#
#
#
# Elastic Constant Matrix: (Units=GPa)
#
#
# Indices 1 2 3 4 5 6 
#
# 1 152.9607 55.0533 0.9761 0.0000 -1.0681 0.0000
# 2 55.0533 144.1361 11.0534 0.0000 2.4576 0.0000
# 3 0.9761 11.0534 26.8211 -0.0001 1.7177 0.0000
# 4 0.0000 0.0000 -0.0001 24.9854 0.0000 -1.5340
# 5 -1.0681 2.4576 1.7177 0.0000 26.4956 0.0000
# 6 0.0000 0.0000 0.0000 -1.5340 0.0000 58.0699
#
#
#
# Elastic Compliance Matrix: (Units=1/GPa)
#
#
# Indices 1 2 3 4 5 6 
#
# 1 0.007610 -0.002986 0.000920 0.000000 0.000524 0.000000
# 2 -0.002986 0.008342 -0.003286 0.000000 -0.000681 0.000000
# 3 0.000920 -0.003286 0.038744 0.000000 -0.002170 0.000000
# 4 0.000000 0.000000 0.000000 0.040088 0.000000 0.001059
# 5 0.000524 -0.000681 -0.002170 0.000000 0.037967 0.000000
# 6 0.000000 0.000000 0.000000 0.001059 0.000000 0.017249
#
#
# Mechanical properties :
#
#
# Convention : Reuss Voigt Hill
#
# Bulk Modulus (GPa) = 22.73113 50.89819 36.81466
# Shear Modulus (GPa) = 28.51152 39.03249 33.77201
#
# Velocity S-wave (km/s) = 3.31165 3.87478 3.60423
# Velocity P-wave (km/s) = 4.83387 6.29259 5.61084
#
# Compressibility (1/GPa) = 0.04399253
#
# Stress axis : x y z
#
# Youngs Moduli (GPa) = 131.40223 119.87415 25.81067
#
# Poissons Ratio (x) = 0.35797 -0.02375
# Poissons Ratio (y) = 0.39240 0.08480
# Poissons Ratio (z) = -0.12091 0.39386
#
# Static dielectric constant tensor:
#      x y z
#    x 1.988290 0.000000 0.006260 
#    y 0.000000 2.136700 0.000000 
#    z 0.006260 0.000000 2.121020 
# 
# From -- ./inp_files/22743.got.cif
#   From: 2010.05.17/outbox.cif.g08.bks.cpg/sg9_12_cif.got.tgz:22743.got - 2010.06.03 20:04:27.
