data_PCOD9136343
_publ_section_title
;
Structure prediction by ZEFSAII (Michael W. Deem and Ramdas Pophale) SiO2 
 PCOD9136343
Probable space group: C C
;
_chemical_formula_sum "Si O2"
_cell_formula_units_Z 24
_cell_length_a 7.936901
_cell_length_b 12.215304
_cell_length_c 18.280506
_cell_angle_alpha 90.000000
_cell_angle_beta 32.576073
_cell_angle_gamma 90.000000
_cell_volume 954.253525
_symmetry_space_group_name_H-M "C C"
_symmetry_group_IT_number 9
_symmetry_cell_setting 'monoclinic'
loop_
_space_group_symop_operation_xyz
x,y,z
x,-y,1/2+z
1/2+x,1/2+y,z
1/2+x,1/2-y,1/2+z
loop_
_atom_site_type_symbol
_atom_site_label
_atom_site_fract_x
_atom_site_fract_y
_atom_site_fract_z
Si Si1 0.652340 0.397204 0.723200
Si Si2 0.508031 0.400075 0.010714
Si Si3 0.662697 0.691641 0.063383
Si Si4 0.022672 0.665878 0.791150
Si Si5 0.055467 0.751162 0.335140
Si Si6 0.283886 0.476641 0.466087
O O1 0.623810 0.388705 0.646477
O O2 0.731959 0.276858 0.725615
O O3 0.354195 0.439378 0.875844
O O4 0.944193 0.478122 0.627115
O O5 0.352483 0.298145 0.022204
O O6 0.520878 0.494377 0.945354
O O7 0.834282 0.354031 0.920407
O O8 0.255387 0.418971 0.167412
O O9 0.849954 0.639089 0.928867
O O10 0.308813 0.732736 0.178089
O O11 0.769061 0.717195 0.827118
O O12 0.839561 0.858260 0.409955
#
# Coordination Sequence:
#
# PCOD9136343 Si02
#       6
#     4   4   4   4   4   4
#     4  10  22  38  65  96 128 175 226 281 332 406
#     4  10  21  40  67  99 127 183 224 275 352 401
#     4  10  21  43  63  97 135 180 223 270 357 404
#     4  10  21  42  63  95 140 176 221 280 349 404
#     4  10  22  40  66 100 133 176 222 281 349 396
#     4  12  21  41  68  99 129 172 234 281 335 415
#
# _framework density 25.150549999999999
#
# number of rings (size 3 to 8) (size 9 to 14) (size 15 to 20)
#    0.000    2.000    5.000    2.000    0.000    2.667 
#    0.000    5.000    0.000    4.000    0.000    0.000 
#    0.000    0.000    0.000    0.000    0.000    0.000 
#
# Total GULP energy -67038.849992 kJ/mol
# GULP energy per Si atom -5586.570833 kJ/mol
# Density = 2.509331 g / cm^3
# Si number density = 25.150550 Si / 1000 Ang^3
#
#
#
# Elastic Constant Matrix: (Units=GPa)
#
#
# Indices 1 2 3 4 5 6 
#
# 1 53.3464 16.9512 40.6622 -0.0250 10.9983 0.0126
# 2 16.9512 64.1309 18.2248 -0.0150 10.7036 0.0031
# 3 40.6622 18.2248 155.0121 -0.1250 28.7533 0.0102
# 4 -0.0250 -0.0150 -0.1250 -16.0648 0.0432 -4.8315
# 5 10.9983 10.7036 28.7533 0.0432 50.9071 -0.0079
# 6 0.0126 0.0031 0.0102 -4.8315 -0.0079 34.5592
#
#
#
# Elastic Compliance Matrix: (Units=1/GPa)
#
#
# Indices 1 2 3 4 5 6 
#
# 1 0.024876 -0.004751 -0.005758 0.000009 -0.001123 -0.000006
# 2 -0.004751 0.017352 -0.000343 -0.000012 -0.002428 -0.000002
# 3 -0.005758 -0.000343 0.008666 -0.000065 -0.003578 -0.000010
# 4 0.000009 -0.000012 -0.000065 -0.059736 0.000086 -0.008351
# 5 -0.001123 -0.002428 -0.003578 0.000086 0.022418 0.000019
# 6 -0.000006 -0.000002 -0.000010 -0.008351 0.000019 0.027768
#
#
# Mechanical properties :
#
#
# Convention : Reuss Voigt Hill
#
# Bulk Modulus (GPa) = 34.26176 47.12953 40.69565
# Shear Modulus (GPa) = 68.70092 26.99037 47.84565
#
# Velocity S-wave (km/s) = 5.23213 3.27945 4.36635
# Velocity P-wave (km/s) = 7.08184 5.75495 6.45259
#
# Compressibility (1/GPa) = 0.02918706
#
# Stress axis : x y z
#
# Youngs Moduli (GPa) = 40.19944 57.63095 115.39763
#
# Poissons Ratio (x) = 0.27383 0.66451
# Poissons Ratio (y) = 0.19100 0.03962
# Poissons Ratio (z) = 0.23149 0.01979
#
# Static dielectric constant tensor:
#      x y z
#    x 2.027130 0.000000 -0.071030 
#    y 0.000000 2.080900 0.000030 
#    z -0.071030 0.000030 2.017990 
# 
# From -- ./inp_files/32665.got.cif
#   From: 2010.05.17/outbox.cif.g08.bks.cpg/sg9_17_cif.got.tgz:32665.got - 2010.06.03 20:04:27.
