data_PCOD9136192
_publ_section_title
;
Structure prediction by ZEFSAII (Michael W. Deem and Ramdas Pophale) SiO2 
 PCOD9136192
Probable space group: C C
;
_chemical_formula_sum "Si O2"
_cell_formula_units_Z 32
_cell_length_a 11.816030
_cell_length_b 7.434807
_cell_length_c 23.605646
_cell_angle_alpha 90.000000
_cell_angle_beta 145.167088
_cell_angle_gamma 90.000000
_cell_volume 1184.497340
_symmetry_space_group_name_H-M "C C"
_symmetry_group_IT_number 9
_symmetry_cell_setting 'monoclinic'
loop_
_space_group_symop_operation_xyz
x,y,z
x,-y,1/2+z
1/2+x,1/2+y,z
1/2+x,1/2-y,1/2+z
loop_
_atom_site_type_symbol
_atom_site_label
_atom_site_fract_x
_atom_site_fract_y
_atom_site_fract_z
Si Si1 0.048060 0.434248 0.928000
Si Si2 0.990869 0.948168 0.024993
Si Si3 0.727822 0.452121 0.516579
Si Si4 0.905604 0.549463 0.981627
Si Si5 0.981243 0.957780 0.641829
Si Si6 0.631286 0.050106 0.719269
Si Si7 0.363818 0.463539 0.712062
Si Si8 0.107949 0.396978 0.337379
O O1 0.004700 0.493553 0.846341
O O2 0.100937 0.226805 0.957939
O O3 0.250182 0.536340 0.028626
O O4 0.890766 0.485621 0.911322
O O5 0.838597 0.111711 0.952439
O O6 0.078529 0.963941 0.124186
O O7 0.142393 0.943514 0.035294
O O8 0.869600 0.763071 0.971373
O O9 0.758398 0.537158 0.467183
O O10 0.957045 0.416909 0.626871
O O11 0.135168 0.530455 0.095375
O O12 0.978255 0.043445 0.703934
O O13 0.054615 0.753966 0.678966
O O14 0.824379 0.037682 0.759067
O O15 0.646128 0.013589 0.791702
O O16 0.471702 0.273972 0.767535
#
# Coordination Sequence:
#
# PCOD9136192 Si02
#       8
#     4   4   4   4   4   4   4   4
#     4  10  21  39  67  88 130 162 219 266 308 377
#     4  11  22  37  67  91 130 165 211 261 316 377
#     4  11  22  39  65  98 117 171 224 254 308 386
#     4  10  21  41  63  93 120 172 214 258 309 379
#     4   9  19  37  60  93 116 169 208 255 302 382
#     4  10  22  40  67  91 131 164 215 262 323 376
#     4   9  20  37  64  89 123 169 206 259 313 375
#     4  10  21  40  59  97 133 164 201 267 331 362
#
# _framework density 27.015678000000001
#
# number of rings (size 3 to 8) (size 9 to 14) (size 15 to 20)
#    0.000    2.000    2.500    2.250    7.000    0.000 
#    0.000    5.000    0.000    0.000    0.000    0.000 
#    0.000    0.000    0.000    0.000    0.000    0.000 
#
# Total GULP energy -89373.665374 kJ/mol
# GULP energy per Si atom -5585.854086 kJ/mol
# Density = 2.695419 g / cm^3
# Si number density = 27.015678 Si / 1000 Ang^3
#
#
#
# Elastic Constant Matrix: (Units=GPa)
#
#
# Indices 1 2 3 4 5 6 
#
# 1 231.0854 38.9870 81.1517 0.0000 -76.1704 0.0000
# 2 38.9870 71.3425 16.9096 0.0000 -21.7069 0.0000
# 3 81.1517 16.9096 117.0216 0.0000 -17.6854 0.0000
# 4 0.0000 0.0000 0.0000 29.7363 0.0000 -1.7789
# 5 -76.1704 -21.7069 -17.6854 0.0000 79.9858 0.0000
# 6 0.0000 0.0000 0.0000 -1.7789 0.0000 43.3624
#
#
#
# Elastic Compliance Matrix: (Units=1/GPa)
#
#
# Indices 1 2 3 4 5 6 
#
# 1 0.008337 -0.001485 -0.004581 0.000000 0.006523 0.000000
# 2 -0.001485 0.015852 -0.000853 0.000000 0.002699 0.000000
# 3 -0.004581 -0.000853 0.011537 0.000000 -0.002043 0.000000
# 4 0.000000 0.000000 0.000000 0.033712 0.000000 0.001383
# 5 0.006523 0.002699 -0.002043 0.000000 0.018995 0.000000
# 6 0.000000 0.000000 0.000000 0.001383 0.000000 0.023118
#
#
# Mechanical properties :
#
#
# Convention : Reuss Voigt Hill
#
# Bulk Modulus (GPa) = 45.68809 77.06065 61.37437
# Shear Modulus (GPa) = 37.68345 49.44364 43.56355
#
# Velocity S-wave (km/s) = 3.73885 4.28271 4.01999
# Velocity P-wave (km/s) = 5.96549 7.28298 6.65691
#
# Compressibility (1/GPa) = 0.02188754
#
# Stress axis : x y z
#
# Youngs Moduli (GPa) = 119.94815 63.08402 86.68010
#
# Poissons Ratio (x) = 0.09370 0.39708
# Poissons Ratio (y) = 0.17817 0.07391
# Poissons Ratio (z) = 0.54948 0.05379
#
# Static dielectric constant tensor:
#      x y z
#    x 2.173120 0.000000 -0.016450 
#    y 0.000000 2.072080 0.000000 
#    z -0.016450 0.000000 2.181640 
# 
# From -- ./inp_files/33225.got.cif
#   From: 2010.05.17/outbox.cif.g08.bks.cpg/sg9_17_cif.got.tgz:33225.got - 2010.06.03 20:04:27.
