data_PCOD9136769
_publ_section_title
;
Structure prediction by ZEFSAII (Michael W. Deem and Ramdas Pophale) SiO2 
 PCOD9136769
Probable space group: C C
;
_chemical_formula_sum "Si O2"
_cell_formula_units_Z 32
_cell_length_a 8.961232
_cell_length_b 11.004957
_cell_length_c 14.487369
_cell_angle_alpha 90.000000
_cell_angle_beta 106.422858
_cell_angle_gamma 90.000000
_cell_volume 1370.425190
_symmetry_space_group_name_H-M "C C"
_symmetry_group_IT_number 9
_symmetry_cell_setting 'monoclinic'
loop_
_space_group_symop_operation_xyz
x,y,z
x,-y,1/2+z
1/2+x,1/2+y,z
1/2+x,1/2-y,1/2+z
loop_
_atom_site_type_symbol
_atom_site_label
_atom_site_fract_x
_atom_site_fract_y
_atom_site_fract_z
Si Si1 0.351680 0.904821 0.855830
Si Si2 0.112966 0.268453 0.003396
Si Si3 0.536593 0.158461 0.888174
Si Si4 0.098468 0.002699 0.445859
Si Si5 0.001469 0.382002 0.699462
Si Si6 0.300428 0.621513 0.383812
Si Si7 0.011616 0.339883 0.178711
Si Si8 0.667310 0.729447 0.581339
O O1 0.444492 0.807491 0.933347
O O2 0.364440 0.867806 0.750774
O O3 0.452293 0.029404 0.880010
O O4 0.189769 0.940967 0.874431
O O5 0.151152 0.131979 0.979209
O O6 0.232474 0.358037 0.973667
O O7 0.103797 0.284301 0.110210
O O8 0.407292 0.262246 0.881020
O O9 0.591350 0.171149 0.792335
O O10 0.658102 0.181576 0.990978
O O11 0.128665 0.095794 0.535347
O O12 0.914592 0.007982 0.395568
O O13 0.156882 0.382150 0.789695
O O14 0.038759 0.280573 0.629990
O O15 0.987255 0.516277 0.654047
O O16 0.840233 0.278873 0.152804
#
# Coordination Sequence:
#
# PCOD9136769 Si02
#       8
#     4   4   4   4   4   4   4   4
#     4  10  21  43  74 104 139 187 237 294 354 430
#     4  11  23  42  71 103 140 184 240 286 360 426
#     4  10  21  43  72 101 141 185 234 294 353 412
#     4  11  24  43  72 104 142 186 233 299 353 416
#     4  10  23  42  75 102 139 189 236 290 362 423
#     4  10  22  45  71 100 145 181 228 303 348 424
#     4  11  23  42  74 105 136 194 238 284 362 431
#     4  11  23  42  73 101 144 188 230 298 356 416
#
# _framework density 23.350415999999999
#
# number of rings (size 3 to 8) (size 9 to 14) (size 15 to 20)
#    0.000    1.500    3.750    0.750    0.000    4.000 
#    0.000   15.000   11.000    0.000    0.000    0.000 
#    0.000    0.000    0.000    0.000    0.000    0.000 
#
# Total GULP energy -89509.907242 kJ/mol
# GULP energy per Si atom -5594.369203 kJ/mol
# Density = 2.329727 g / cm^3
# Si number density = 23.350416 Si / 1000 Ang^3
#
#
#
# Elastic Constant Matrix: (Units=GPa)
#
#
# Indices 1 2 3 4 5 6 
#
# 1 96.2291 35.1699 51.9749 0.0000 -27.9997 0.0000
# 2 35.1699 83.4907 29.6534 0.0000 -12.6792 0.0000
# 3 51.9749 29.6534 119.7114 0.0000 -22.3256 0.0000
# 4 0.0000 0.0000 0.0000 33.0478 0.0000 -7.2796
# 5 -27.9997 -12.6792 -22.3256 0.0000 44.7165 0.0000
# 6 0.0000 0.0000 0.0000 -7.2796 0.0000 33.8144
#
#
#
# Elastic Compliance Matrix: (Units=1/GPa)
#
#
# Indices 1 2 3 4 5 6 
#
# 1 0.016517 -0.004206 -0.004877 0.000000 0.006715 0.000000
# 2 -0.004206 0.014425 -0.001627 0.000000 0.000644 0.000000
# 3 -0.004877 -0.001627 0.011267 0.000000 0.002110 0.000000
# 4 0.000000 0.000000 0.000000 0.031766 0.000000 0.006838
# 5 0.006715 0.000644 0.002110 0.000000 0.027804 0.000000
# 6 0.000000 0.000000 0.000000 0.006838 0.000000 0.031045
#
#
# Mechanical properties :
#
#
# Convention : Reuss Voigt Hill
#
# Bulk Modulus (GPa) = 48.10094 59.22530 53.66312
# Shear Modulus (GPa) = 31.02247 34.49127 32.75687
#
# Velocity S-wave (km/s) = 3.64890 3.84750 3.74951
# Velocity P-wave (km/s) = 6.19653 6.71985 6.46349
#
# Compressibility (1/GPa) = 0.02078962
#
# Stress axis : x y z
#
# Youngs Moduli (GPa) = 60.54376 69.32548 88.75101
#
# Poissons Ratio (x) = 0.29157 0.43285
# Poissons Ratio (y) = 0.25463 0.14439
# Poissons Ratio (z) = 0.29528 0.11279
#
# Static dielectric constant tensor:
#      x y z
#    x 1.915900 0.000000 0.011440 
#    y 0.000000 1.869020 0.000000 
#    z 0.011440 0.000000 1.892160 
# 
# From -- ./inp_files/22898.got.cif
#   From: 2010.05.17/outbox.cif.g08.bks.cpg/sg9_12_cif.got.tgz:22898.got - 2010.06.03 20:04:27.
