data_PCOD9136448
_publ_section_title
;
Structure prediction by ZEFSAII (Michael W. Deem and Ramdas Pophale) SiO2 
 PCOD9136448
Probable space group: C C
;
_chemical_formula_sum "Si O2"
_cell_formula_units_Z 32
_cell_length_a 19.677003
_cell_length_b 15.491396
_cell_length_c 14.265861
_cell_angle_alpha 90.000000
_cell_angle_beta 20.279057
_cell_angle_gamma 90.000000
_cell_volume 1507.186659
_symmetry_space_group_name_H-M "C C"
_symmetry_group_IT_number 9
_symmetry_cell_setting 'monoclinic'
loop_
_space_group_symop_operation_xyz
x,y,z
x,-y,1/2+z
1/2+x,1/2+y,z
1/2+x,1/2-y,1/2+z
loop_
_atom_site_type_symbol
_atom_site_label
_atom_site_fract_x
_atom_site_fract_y
_atom_site_fract_z
Si Si1 0.176630 0.528106 0.616250
Si Si2 0.153523 0.138321 0.213849
Si Si3 0.701939 0.639649 0.739494
Si Si4 0.918240 0.702114 0.625286
Si Si5 0.825260 0.471316 0.929770
Si Si6 0.578449 0.782953 0.188754
Si Si7 0.469543 0.477395 0.092161
Si Si8 0.112441 0.523098 0.413456
O O1 0.192364 0.631655 0.578377
O O2 0.360342 0.478974 0.332205
O O3 0.149837 0.505032 0.759006
O O4 0.988593 0.498322 0.797351
O O5 0.023610 0.212668 0.338028
O O6 0.370180 0.179536 0.926426
O O7 0.074423 0.107785 0.416840
O O8 0.168676 0.049118 0.135667
O O9 0.884559 0.672103 0.562413
O O10 0.736587 0.615278 0.586968
O O11 0.540784 0.711524 0.962347
O O12 0.630297 0.552222 0.881893
O O13 0.038133 0.622597 0.516188
O O14 0.714009 0.729569 0.940153
O O15 0.936520 0.468673 0.688280
O O16 0.302333 0.506338 0.232681
#
# Coordination Sequence:
#
# PCOD9136448 Si02
#       8
#     4   4   4   4   4   4   4   4
#     4  10  21  41  65  92 127 167 212 268 323 387
#     4  10  22  38  61  92 130 164 212 275 319 377
#     4  11  22  39  61  96 131 164 214 271 324 387
#     4  12  22  37  68 100 126 168 221 277 324 379
#     4   9  20  41  61  92 133 161 210 265 323 390
#     4  11  22  38  63 100 123 163 225 272 322 381
#     4  10  23  41  62  93 135 169 213 267 325 399
#     4  11  22  41  69  95 125 174 215 265 334 388
#
# _framework density 21.231611000000001
#
# number of rings (size 3 to 8) (size 9 to 14) (size 15 to 20)
#    0.000    1.500    3.750    1.500    3.500    0.000 
#    0.000    1.250    0.000    0.000    0.000    0.000 
#    0.000    0.000    0.000    0.000    0.000    0.000 
#
# Total GULP energy -89334.215854 kJ/mol
# GULP energy per Si atom -5583.388491 kJ/mol
# Density = 2.118329 g / cm^3
# Si number density = 21.231611 Si / 1000 Ang^3
#
#
#
# Elastic Constant Matrix: (Units=GPa)
#
#
# Indices 1 2 3 4 5 6 
#
# 1 72.8099 29.7379 31.4799 0.0052 33.9399 -0.0035
# 2 29.7379 83.6850 25.1260 0.0005 12.0955 -0.0018
# 3 31.4799 25.1260 90.6149 -0.0013 33.3660 0.0004
# 4 0.0052 0.0005 -0.0013 20.2642 -0.0021 8.8737
# 5 33.9399 12.0955 33.3660 -0.0021 41.6068 0.0011
# 6 -0.0035 -0.0018 0.0004 8.8737 0.0011 28.2867
#
#
#
# Elastic Compliance Matrix: (Units=1/GPa)
#
#
# Indices 1 2 3 4 5 6 
#
# 1 0.024878 -0.006132 -0.000179 -0.000011 -0.018368 0.000007
# 2 -0.006132 0.014593 -0.003116 0.000002 0.003259 0.000000
# 3 -0.000179 -0.003116 0.016425 0.000000 -0.012119 0.000000
# 4 -0.000011 0.000002 0.000000 0.057207 0.000012 -0.017946
# 5 -0.018368 0.003259 -0.012119 0.000012 0.047789 -0.000008
# 6 0.000007 0.000000 0.000000 -0.017946 -0.000008 0.040982
#
#
# Mechanical properties :
#
#
# Convention : Reuss Voigt Hill
#
# Bulk Modulus (GPa) = 26.99668 46.64417 36.82042
# Shear Modulus (GPa) = 21.45220 28.74925 25.10073
#
# Velocity S-wave (km/s) = 3.18211 3.68377 3.44209
# Velocity P-wave (km/s) = 5.12289 6.33328 5.75997
#
# Compressibility (1/GPa) = 0.03704159
#
# Stress axis : x y z
#
# Youngs Moduli (GPa) = 40.19557 68.52495 60.88438
#
# Poissons Ratio (x) = 0.42020 0.01091
# Poissons Ratio (y) = 0.24648 0.18972
# Poissons Ratio (z) = 0.00720 0.21353
#
# Static dielectric constant tensor:
#      x y z
#    x 1.846360 0.000000 -0.033120 
#    y 0.000000 1.756030 0.000000 
#    z -0.033120 0.000000 1.818080 
# 
# From -- ./inp_files/7602.got.cif
#   From: 2010.05.17/outbox.cif.g08.bks.cpg/sg9_4_cif.got.tgz:7602.got - 2010.06.03 20:04:27.
