data_PCOD9136031
_publ_section_title
;
Structure prediction by ZEFSAII (Michael W. Deem and Ramdas Pophale) SiO2 
 PCOD9136031
Probable space group: C C
;
_chemical_formula_sum "Si O2"
_cell_formula_units_Z 24
_cell_length_a 12.759150
_cell_length_b 15.686369
_cell_length_c 7.484767
_cell_angle_alpha 90.000000
_cell_angle_beta 142.767909
_cell_angle_gamma 90.000000
_cell_volume 906.379847
_symmetry_space_group_name_H-M "C C"
_symmetry_group_IT_number 9
_symmetry_cell_setting 'monoclinic'
loop_
_space_group_symop_operation_xyz
x,y,z
x,-y,1/2+z
1/2+x,1/2+y,z
1/2+x,1/2-y,1/2+z
loop_
_atom_site_type_symbol
_atom_site_label
_atom_site_fract_x
_atom_site_fract_y
_atom_site_fract_z
Si Si1 0.943370 0.496912 0.238140
Si Si2 0.463063 0.604806 0.831914
Si Si3 0.680196 0.859121 0.669337
Si Si4 0.070358 0.926116 0.856360
Si Si5 0.360289 0.137909 0.326295
Si Si6 0.428403 0.732878 0.239224
O O1 0.934525 0.600244 0.239471
O O2 0.119529 0.455590 0.552112
O O3 0.755346 0.462189 0.052811
O O4 0.928711 0.445962 0.029218
O O5 0.314398 0.645261 0.512557
O O6 0.471911 0.503415 0.810994
O O7 0.459053 0.608784 0.038766
O O8 0.652349 0.639579 0.033839
O O9 0.500989 0.810117 0.455232
O O10 0.765524 0.814844 0.608638
O O11 0.077123 0.839046 0.971125
O O12 0.403440 0.218976 0.511864
#
# Coordination Sequence:
#
# PCOD9136031 Si02
#       6
#     4   4   4   4   4   4
#     4   9  20  40  64  90 126 171 216 259 322 392
#     4  10  21  38  63  93 126 169 217 261 322 395
#     4  11  23  40  63  96 131 173 216 269 328 391
#     4  10  21  42  65  91 128 174 218 269 324 389
#     4   9  20  40  64  93 126 169 214 268 322 384
#     4  11  23  42  65  93 133 170 215 274 330 377
#
# _framework density 26.478963
#
# number of rings (size 3 to 8) (size 9 to 14) (size 15 to 20)
#    0.000    2.000    0.000    4.000    0.000    8.000 
#    0.000    5.000    0.000    0.000    0.000    0.000 
#    0.000    0.000    0.000    0.000    0.000    0.000 
#
# Total GULP energy -66891.679574 kJ/mol
# GULP energy per Si atom -5574.306631 kJ/mol
# Density = 2.641870 g / cm^3
# Si number density = 26.478963 Si / 1000 Ang^3
#
#
#
# Elastic Constant Matrix: (Units=GPa)
#
#
# Indices 1 2 3 4 5 6 
#
# 1 49.7514 40.3385 -9.9412 0.0000 14.7771 0.0000
# 2 40.3385 139.9380 21.7698 0.0000 6.9802 0.0000
# 3 -9.9412 21.7698 130.2266 0.0000 5.4679 0.0000
# 4 0.0000 0.0000 0.0000 34.1316 0.0000 6.2047
# 5 14.7771 6.9802 5.4679 0.0000 27.8295 0.0000
# 6 0.0000 0.0000 0.0000 6.2047 0.0000 44.2296
#
#
#
# Elastic Compliance Matrix: (Units=1/GPa)
#
#
# Indices 1 2 3 4 5 6 
#
# 1 0.033837 -0.009693 0.004896 0.000000 -0.016498 0.000000
# 2 -0.009693 0.010186 -0.002573 0.000000 0.003097 0.000000
# 3 0.004896 -0.002573 0.008636 0.000000 -0.003651 0.000000
# 4 0.000000 0.000000 0.000000 0.030065 0.000000 -0.004218
# 5 -0.016498 0.003097 -0.003651 0.000000 0.044634 0.000000
# 6 0.000000 0.000000 0.000000 -0.004218 0.000000 0.023201
#
#
# Mechanical properties :
#
#
# Convention : Reuss Voigt Hill
#
# Bulk Modulus (GPa) = 26.37088 47.13889 36.75489
# Shear Modulus (GPa) = 28.09970 39.08807 33.59388
#
# Velocity S-wave (km/s) = 3.26115 3.84629 3.56575
# Velocity P-wave (km/s) = 4.91538 6.12914 5.55551
#
# Compressibility (1/GPa) = 0.03792061
#
# Stress axis : x y z
#
# Youngs Moduli (GPa) = 29.55313 98.17626 115.79349
#
# Poissons Ratio (x) = 0.95159 -0.56694
# Poissons Ratio (y) = 0.28645 0.29790
# Poissons Ratio (z) = -0.14470 0.25258
#
# Static dielectric constant tensor:
#      x y z
#    x 2.530180 0.000000 -0.105000 
#    y 0.000000 2.272700 0.000000 
#    z -0.105000 0.000000 2.140920 
# 
# From -- ./inp_files/9909.got.cif
#   From: 2010.05.17/outbox.cif.g08.bks.cpg/sg9_5_cif.got.tgz:9909.got - 2010.06.03 20:04:27.
