data_PCOD9136249
_publ_section_title
;
Structure prediction by ZEFSAII (Michael W. Deem and Ramdas Pophale) SiO2 
 PCOD9136249
Probable space group: C C
;
_chemical_formula_sum "Si O2"
_cell_formula_units_Z 28
_cell_length_a 8.227691
_cell_length_b 10.543292
_cell_length_c 25.114159
_cell_angle_alpha 90.000000
_cell_angle_beta 36.479230
_cell_angle_gamma 90.000000
_cell_volume 1295.232115
_symmetry_space_group_name_H-M "C C"
_symmetry_group_IT_number 9
_symmetry_cell_setting 'monoclinic'
loop_
_space_group_symop_operation_xyz
x,y,z
x,-y,1/2+z
1/2+x,1/2+y,z
1/2+x,1/2-y,1/2+z
loop_
_atom_site_type_symbol
_atom_site_label
_atom_site_fract_x
_atom_site_fract_y
_atom_site_fract_z
Si Si1 0.184850 0.258961 0.263450
Si Si2 0.414805 0.522828 0.631743
Si Si3 0.630305 0.314064 0.896969
Si Si4 0.620120 0.752544 0.092867
Si Si5 0.354352 0.021411 0.712094
Si Si6 0.125962 0.890861 0.379457
Si Si7 0.169140 0.779677 0.002887
O O1 0.359078 0.372875 0.192026
O O2 0.225133 0.243035 0.316358
O O3 0.875592 0.300775 0.331110
O O4 0.254848 0.118618 0.222550
O O5 0.479534 0.382054 0.632703
O O6 0.665160 0.584922 0.532394
O O7 0.142870 0.507770 0.667567
O O8 0.649912 0.465410 0.892517
O O9 0.775650 0.281372 0.914111
O O10 0.315785 0.271331 0.990174
O O11 0.420633 0.872080 0.150978
O O12 0.847038 0.752712 0.080603
O O13 0.151753 0.082350 0.809160
O O14 0.853873 0.830762 0.477033
#
# Coordination Sequence:
#
# PCOD9136249 Si02
#       7
#     4   4   4   4   4   4   4
#     4  10  22  40  67  93 122 165 211 256 309 367
#     4  10  21  40  61  93 127 163 208 258 310 364
#     4   9  22  40  62  92 125 159 207 256 311 358
#     4   9  21  42  63  87 127 165 202 253 311 364
#     4   9  21  41  56  91 128 163 201 261 308 363
#     4  10  21  40  65  89 126 161 203 259 310 365
#     4   9  22  39  64  89 127 160 204 257 311 365
#
# _framework density 21.617747000000001
#
# number of rings (size 3 to 8) (size 9 to 14) (size 15 to 20)
#    0.857    1.714    0.000    0.000    4.000    5.714 
#    2.571    7.143    0.000    0.000    0.000    0.000 
#    0.000    0.000    0.000    0.000    0.000    0.000 
#
# Total GULP energy -77955.913557 kJ/mol
# GULP energy per Si atom -5568.279540 kJ/mol
# Density = 2.156854 g / cm^3
# Si number density = 21.617747 Si / 1000 Ang^3
#
#
#
# Elastic Constant Matrix: (Units=GPa)
#
#
# Indices 1 2 3 4 5 6 
#
# 1 16.6900 40.4633 10.1934 -0.0021 5.3110 0.0004
# 2 40.4633 190.1750 56.9419 -0.0005 -7.6725 0.0002
# 3 10.1934 56.9419 50.2336 0.0024 -0.4845 -0.0017
# 4 -0.0021 -0.0005 0.0024 35.6713 0.0014 -2.9851
# 5 5.3110 -7.6725 -0.4845 0.0014 27.0273 -0.0012
# 6 0.0004 0.0002 -0.0017 -2.9851 -0.0012 8.8883
#
#
#
# Elastic Compliance Matrix: (Units=1/GPa)
#
#
# Indices 1 2 3 4 5 6 
#
# 1 0.163856 -0.040165 0.011861 0.000009 -0.043388 -0.000007
# 2 -0.040165 0.017926 -0.012047 -0.000002 0.012766 0.000000
# 3 0.011861 -0.012047 0.031106 -0.000001 -0.005193 0.000005
# 4 0.000009 -0.000002 -0.000001 0.028844 -0.000003 0.009687
# 5 -0.043388 0.012766 -0.005193 -0.000003 0.049056 0.000006
# 6 -0.000007 0.000000 0.000005 0.009687 0.000006 0.115761
#
#
# Mechanical properties :
#
#
# Convention : Reuss Voigt Hill
#
# Bulk Modulus (GPa) = 7.56511 52.47730 30.02120
# Shear Modulus (GPa) = 9.41063 24.28404 16.84733
#
# Velocity S-wave (km/s) = 2.08869 3.35526 2.79467
# Velocity P-wave (km/s) = 3.05351 6.27201 4.93265
#
# Compressibility (1/GPa) = 0.13218578
#
# Stress axis : x y z
#
# Youngs Moduli (GPa) = 6.10291 55.78404 32.14862
#
# Poissons Ratio (x) = 2.24059 -0.38131
# Poissons Ratio (y) = 0.24513 0.38728
# Poissons Ratio (z) = -0.07239 0.67201
#
# Static dielectric constant tensor:
#      x y z
#    x 1.825620 0.000000 0.050640 
#    y 0.000000 1.780790 0.000000 
#    z 0.050640 0.000000 1.848700 
# 
# From -- ./inp_files/28981.got.cif
#   From: 2010.05.17/outbox.cif.g08.bks.cpg/sg9_15_cif.got.tgz:28981.got - 2010.06.03 20:04:27.
