data_PCOD9136029
_publ_section_title
;
Structure prediction by ZEFSAII (Michael W. Deem and Ramdas Pophale) SiO2 
 PCOD9136029
Probable space group: C C
;
_chemical_formula_sum "Si O2"
_cell_formula_units_Z 28
_cell_length_a 10.891610
_cell_length_b 26.315095
_cell_length_c 5.120973
_cell_angle_alpha 90.000000
_cell_angle_beta 120.928169
_cell_angle_gamma 90.000000
_cell_volume 1259.046562
_symmetry_space_group_name_H-M "C C"
_symmetry_group_IT_number 9
_symmetry_cell_setting 'monoclinic'
loop_
_space_group_symop_operation_xyz
x,y,z
x,-y,1/2+z
1/2+x,1/2+y,z
1/2+x,1/2-y,1/2+z
loop_
_atom_site_type_symbol
_atom_site_label
_atom_site_fract_x
_atom_site_fract_y
_atom_site_fract_z
Si Si1 0.067860 0.843426 0.163810
Si Si2 0.921246 0.259762 0.562587
Si Si3 0.681050 0.810795 0.588225
Si Si4 0.171712 0.624779 0.575565
Si Si5 0.849210 0.354818 0.730389
Si Si6 0.845780 0.031064 0.007225
Si Si7 0.075282 0.104261 0.168392
O O1 0.239067 0.851852 0.364830
O O2 0.013970 0.884025 0.315253
O O3 0.019763 0.789482 0.221657
O O4 0.019111 0.855586 0.820935
O O5 0.784148 0.235980 0.270965
O O6 0.884770 0.294298 0.774288
O O7 0.019775 0.294776 0.486170
O O8 0.693671 0.829451 0.307473
O O9 0.715969 0.855305 0.837296
O O10 0.249970 0.577141 0.791601
O O11 0.999489 0.617106 0.374225
O O12 0.743272 0.383050 0.816099
O O13 0.818627 0.985845 0.772618
O O14 0.011009 0.050452 0.176178
#
# Coordination Sequence:
#
# PCOD9136029 Si02
#       7
#     4   4   4   4   4   4   4
#     4  10  21  38  63  91 131 171 211 250 293 362
#     4  11  21  39  57  96 129 177 223 249 284 354
#     4  11  24  38  61  91 133 174 216 254 301 363
#     4  11  25  42  63  93 128 168 203 265 331 370
#     4   9  24  40  62  92 131 175 207 256 300 372
#     4  12  25  46  72  97 118 153 211 272 332 400
#     4  10  22  43  64  90 124 166 207 258 323 367
#
# _framework density 22.239051
#
# number of rings (size 3 to 8) (size 9 to 14) (size 15 to 20)
#    0.857    0.571    1.429    3.429    4.000    5.714 
#    0.000    1.429    0.000    0.000    0.000    0.000 
#    0.000    0.000    0.000    0.000    0.000    0.000 
#
# Total GULP energy -78012.308232 kJ/mol
# GULP energy per Si atom -5572.307731 kJ/mol
# Density = 2.218843 g / cm^3
# Si number density = 22.239051 Si / 1000 Ang^3
#
#
#
# Elastic Constant Matrix: (Units=GPa)
#
#
# Indices 1 2 3 4 5 6 
#
# 1 65.6838 5.7780 32.9240 0.0000 26.5738 0.0000
# 2 5.7780 50.0535 5.1307 0.0000 10.3839 0.0000
# 3 32.9240 5.1307 77.3589 0.0000 7.6387 0.0000
# 4 0.0000 0.0000 0.0000 8.9466 0.0000 -10.9741
# 5 26.5738 10.3839 7.6387 0.0000 33.3698 0.0000
# 6 0.0000 0.0000 0.0000 -10.9741 0.0000 33.0387
#
#
#
# Elastic Compliance Matrix: (Units=1/GPa)
#
#
# Indices 1 2 3 4 5 6 
#
# 1 0.028788 0.002137 -0.010297 0.000000 -0.021233 0.000000
# 2 0.002137 0.021562 -0.001544 0.000000 -0.008058 0.000000
# 3 -0.010297 -0.001544 0.016937 0.000000 0.004804 0.000000
# 4 0.000000 0.000000 0.000000 0.188626 0.000000 0.062654
# 5 -0.021233 -0.008058 0.004804 0.000000 0.048284 0.000000
# 6 0.000000 0.000000 0.000000 0.062654 0.000000 0.051079
#
#
# Mechanical properties :
#
#
# Convention : Reuss Voigt Hill
#
# Bulk Modulus (GPa) = 20.88587 31.19574 26.04081
# Shear Modulus (GPa) = 12.79935 25.02192 18.91064
#
# Velocity S-wave (km/s) = 2.40163 3.35794 2.91921
# Velocity P-wave (km/s) = 4.13550 5.39373 4.80597
#
# Compressibility (1/GPa) = 0.04787926
#
# Stress axis : x y z
#
# Youngs Moduli (GPa) = 34.73622 46.37823 59.04076
#
# Poissons Ratio (x) = -0.09912 0.60797
# Poissons Ratio (y) = -0.07424 0.09116
# Poissons Ratio (z) = 0.35769 0.07161
#
# Static dielectric constant tensor:
#      x y z
#    x 1.898660 0.000000 0.065300 
#    y 0.000000 1.828100 0.000000 
#    z 0.065300 0.000000 1.853890 
# 
# From -- ./inp_files/1818.got.cif
#   From: 2010.05.17/outbox.cif.g08.bks.cpg/sg9_1_cif.got.tgz:1818.got - 2010.06.03 20:04:27.
