data_PCOD9136976
_publ_section_title
;
Structure prediction by ZEFSAII (Michael W. Deem and Ramdas Pophale) SiO2 
 PCOD9136976
Probable space group: C C
;
_chemical_formula_sum "Si O2"
_cell_formula_units_Z 24
_cell_length_a 9.099798
_cell_length_b 6.766757
_cell_length_c 16.247744
_cell_angle_alpha 90.000000
_cell_angle_beta 67.654188
_cell_angle_gamma 90.000000
_cell_volume 925.343560
_symmetry_space_group_name_H-M "C C"
_symmetry_group_IT_number 9
_symmetry_cell_setting 'monoclinic'
loop_
_space_group_symop_operation_xyz
x,y,z
x,-y,1/2+z
1/2+x,1/2+y,z
1/2+x,1/2-y,1/2+z
loop_
_atom_site_type_symbol
_atom_site_label
_atom_site_fract_x
_atom_site_fract_y
_atom_site_fract_z
Si Si1 0.778930 0.883955 0.222470
Si Si2 0.178961 0.438519 0.070381
Si Si3 0.845200 0.542376 0.661370
Si Si4 0.619343 0.467125 0.069756
Si Si5 0.508375 0.533243 0.420683
Si Si6 0.788951 0.785886 0.830569
O O1 0.675594 0.961395 0.169332
O O2 0.769582 0.648587 0.221249
O O3 0.955203 0.935720 0.152840
O O4 0.742295 0.990572 0.315145
O O5 0.008485 0.518299 0.082666
O O6 0.168272 0.201077 0.053950
O O7 0.337708 0.524141 0.997519
O O8 0.742069 0.620331 0.608341
O O9 0.860521 0.696397 0.731456
O O10 0.603217 0.386363 0.980733
O O11 0.627228 0.347973 0.374549
O O12 0.432910 0.680613 0.366446
#
# Coordination Sequence:
#
# PCOD9136976 Si02
#       6
#     4   4   4   4   4   4
#     4  10  24  43  76 107 149 204 274 323 403 498
#     4  10  22  46  75 110 146 212 273 324 405 506
#     4  11  25  44  83 109 148 212 286 327 404 504
#     4  10  21  48  75 107 151 214 265 332 396 510
#     4  11  25  46  79 112 169 209 268 345 430 478
#     4  12  25  47  78 117 165 213 264 359 416 478
#
# _framework density 25.936316000000001
#
# number of rings (size 3 to 8) (size 9 to 14) (size 15 to 20)
#    0.000    1.333    3.333    1.000    7.000    0.000 
#    0.000    8.333    0.000    0.000    0.000    0.000 
#    0.000    0.000    0.000    0.000    0.000    0.000 
#
# Total GULP energy -66909.382727 kJ/mol
# GULP energy per Si atom -5575.781894 kJ/mol
# Density = 2.587728 g / cm^3
# Si number density = 25.936316 Si / 1000 Ang^3
#
#
#
# Elastic Constant Matrix: (Units=GPa)
#
#
# Indices 1 2 3 4 5 6 
#
# 1 184.8706 29.8648 69.6325 0.0000 23.5198 0.0000
# 2 29.8648 139.0863 44.6323 0.0000 21.9541 0.0000
# 3 69.6325 44.6323 101.8341 0.0000 27.1186 0.0000
# 4 0.0000 0.0000 0.0000 40.0029 0.0000 -0.4882
# 5 23.5198 21.9541 27.1186 0.0000 49.1526 0.0000
# 6 0.0000 0.0000 0.0000 -0.4882 0.0000 34.2136
#
#
#
# Elastic Compliance Matrix: (Units=1/GPa)
#
#
# Indices 1 2 3 4 5 6 
#
# 1 0.007319 0.000116 -0.004816 0.000000 -0.000896 0.000000
# 2 0.000116 0.008541 -0.003273 0.000000 -0.002065 0.000000
# 3 -0.004816 -0.003273 0.015877 0.000000 -0.004994 0.000000
# 4 0.000000 0.000000 0.000000 0.025003 0.000000 0.000357
# 5 -0.000896 -0.002065 -0.004994 0.000000 0.024451 0.000000
# 6 0.000000 0.000000 0.000000 0.000357 0.000000 0.029233
#
#
# Mechanical properties :
#
#
# Convention : Reuss Voigt Hill
#
# Bulk Modulus (GPa) = 63.33017 79.33891 71.33454
# Shear Modulus (GPa) = 37.98415 43.45125 40.71770
#
# Velocity S-wave (km/s) = 3.83105 4.09749 3.96651
# Velocity P-wave (km/s) = 6.63625 7.28301 6.96714
#
# Compressibility (1/GPa) = 0.01579026
#
# Stress axis : x y z
#
# Youngs Moduli (GPa) = 136.63721 117.08208 62.98288
#
# Poissons Ratio (x) = -0.01353 0.30335
# Poissons Ratio (y) = -0.01579 0.20612
# Poissons Ratio (z) = 0.65809 0.38316
#
# Static dielectric constant tensor:
#      x y z
#    x 2.087340 0.000000 0.011800 
#    y 0.000000 2.196090 0.000000 
#    z 0.011800 0.000000 2.050350 
# 
# From -- ./inp_files/28910.got.cif
#   From: 2010.05.17/outbox.cif.g08.bks.cpg/sg9_15_cif.got.tgz:28910.got - 2010.06.03 20:04:27.
