data_PCOD9136258
_publ_section_title
;
Structure prediction by ZEFSAII (Michael W. Deem and Ramdas Pophale) SiO2 
 PCOD9136258
Probable space group: C C
;
_chemical_formula_sum "Si O2"
_cell_formula_units_Z 32
_cell_length_a 26.163742
_cell_length_b 4.861737
_cell_length_c 22.138145
_cell_angle_alpha 90.000000
_cell_angle_beta 156.017953
_cell_angle_gamma 90.000000
_cell_volume 1144.563980
_symmetry_space_group_name_H-M "C C"
_symmetry_group_IT_number 9
_symmetry_cell_setting 'monoclinic'
loop_
_space_group_symop_operation_xyz
x,y,z
x,-y,1/2+z
1/2+x,1/2+y,z
1/2+x,1/2-y,1/2+z
loop_
_atom_site_type_symbol
_atom_site_label
_atom_site_fract_x
_atom_site_fract_y
_atom_site_fract_z
Si Si1 0.477540 0.396677 0.747530
Si Si2 0.673732 0.060856 0.094273
Si Si3 0.989425 0.181267 0.016580
Si Si4 0.932987 0.896686 0.825805
Si Si5 0.421118 0.318788 0.056767
Si Si6 0.235808 0.943038 0.734558
Si Si7 0.736794 0.439148 0.979061
Si Si8 0.674729 0.943034 0.838784
O O1 0.455261 0.552875 0.786664
O O2 0.447305 0.542237 0.650870
O O3 0.625084 0.337720 0.901661
O O4 0.379825 0.142195 0.646778
O O5 0.701497 0.244488 0.184034
O O6 0.785445 0.162288 0.171680
O O7 0.701915 0.743146 0.138633
O O8 0.530702 0.142202 0.926556
O O9 0.140547 0.201518 0.178755
O O10 0.955268 0.000034 0.036671
O O11 0.884614 0.419952 0.905381
O O12 0.963230 0.042267 0.922472
O O13 0.525926 0.080096 0.167959
O O14 0.269997 0.298503 0.894596
O O15 0.708619 0.756858 0.934707
O O16 0.709024 0.255514 0.889296
#
# Coordination Sequence:
#
# PCOD9136258 Si02
#       8
#     4   4   4   4   4   4   4   4
#     4  10  21  40  62  92 127 168 212 262 316 376
#     4  10  21  41  65  92 127 167 211 262 315 375
#     4  10  23  42  67  96 130 168 212 262 316 376
#     4  10  21  40  62  92 127 168 212 262 316 376
#     4  10  23  42  67  96 130 168 212 262 316 376
#     4  10  22  43  64  94 126 167 212 262 316 375
#     4  10  21  41  65  92 127 167 211 262 315 375
#     4  10  22  43  64  94 126 167 212 262 316 375
#
# _framework density 27.958245999999999
#
# number of rings (size 3 to 8) (size 9 to 14) (size 15 to 20)
#    0.000    2.000    0.000    2.250    0.000    8.000 
#    0.000   52.500    0.000    0.000    0.000    0.000 
#    0.000    0.000    0.000    0.000    0.000    0.000 
#
# Total GULP energy -89438.627684 kJ/mol
# GULP energy per Si atom -5589.914230 kJ/mol
# Density = 2.789461 g / cm^3
# Si number density = 27.958246 Si / 1000 Ang^3
#
#
#
# Elastic Constant Matrix: (Units=GPa)
#
#
# Indices 1 2 3 4 5 6 
#
# 1 176.1800 25.3710 73.8315 0.0000 30.9621 0.0000
# 2 25.3710 103.1305 31.0726 -0.0331 -7.8887 -0.0092
# 3 73.8315 31.0726 140.3985 -0.0126 8.1244 -0.0018
# 4 0.0000 -0.0331 -0.0126 36.4125 -0.0032 3.8605
# 5 30.9621 -7.8887 8.1244 -0.0032 76.3075 -0.0015
# 6 0.0000 -0.0092 -0.0018 3.8605 -0.0015 16.7568
#
#
#
# Elastic Compliance Matrix: (Units=1/GPa)
#
#
# Indices 1 2 3 4 5 6 
#
# 1 0.007916 -0.001036 -0.003764 -0.000002 -0.002918 -0.000001
# 2 -0.001036 0.010660 -0.001914 0.000009 0.001726 0.000004
# 3 -0.003764 -0.001914 0.009507 0.000002 0.000317 0.000000
# 4 -0.000002 0.000009 0.000002 0.028151 0.000003 -0.006485
# 5 -0.002918 0.001726 0.000317 0.000003 0.014434 0.000002
# 6 -0.000001 0.000004 0.000000 -0.006485 0.000002 0.061171
#
#
# Mechanical properties :
#
#
# Convention : Reuss Voigt Hill
#
# Bulk Modulus (GPa) = 68.24339 75.58435 71.91387
# Shear Modulus (GPa) = 33.29934 45.19098 39.24516
#
# Velocity S-wave (km/s) = 3.45489 4.02478 3.75067
# Velocity P-wave (km/s) = 6.35429 6.97795 6.67341
#
# Compressibility (1/GPa) = 0.01465343
#
# Stress axis : x y z
#
# Youngs Moduli (GPa) = 126.33248 93.80690 105.18076
#
# Poissons Ratio (x) = 0.09722 0.39594
# Poissons Ratio (y) = 0.13092 0.20134
# Poissons Ratio (z) = 0.47556 0.17956
#
# Static dielectric constant tensor:
#      x y z
#    x 2.186320 0.000000 0.027040 
#    y 0.000000 2.160190 0.000000 
#    z 0.027040 0.000000 2.308370 
# 
# From -- ./inp_files/34458.got.cif
#   From: 2010.05.17/outbox.cif.g08.bks.cpg/sg9_18_cif.got.tgz:34458.got - 2010.06.03 20:04:27.
