data_PCOD9136405
_publ_section_title
;
Structure prediction by ZEFSAII (Michael W. Deem and Ramdas Pophale) SiO2 
 PCOD9136405
Probable space group: C C
;
_chemical_formula_sum "Si O2"
_cell_formula_units_Z 24
_cell_length_a 6.976979
_cell_length_b 12.515505
_cell_length_c 22.292533
_cell_angle_alpha 90.000000
_cell_angle_beta 147.510435
_cell_angle_gamma 90.000000
_cell_volume 1045.604769
_symmetry_space_group_name_H-M "C C"
_symmetry_group_IT_number 9
_symmetry_cell_setting 'monoclinic'
loop_
_space_group_symop_operation_xyz
x,y,z
x,-y,1/2+z
1/2+x,1/2+y,z
1/2+x,1/2-y,1/2+z
loop_
_atom_site_type_symbol
_atom_site_label
_atom_site_fract_x
_atom_site_fract_y
_atom_site_fract_z
Si Si1 0.723750 0.373893 0.449240
Si Si2 0.467396 0.347953 0.509694
Si Si3 0.872241 0.803650 0.906967
Si Si4 0.413270 0.563399 0.307893
Si Si5 0.237477 0.063753 0.608860
Si Si6 0.712352 0.225497 0.170473
O O1 0.460799 0.378309 0.437192
O O2 0.717473 0.486515 0.413908
O O3 0.622393 0.278169 0.377188
O O4 0.095719 0.337759 0.578749
O O5 0.152094 0.274287 0.447907
O O6 0.498040 0.458200 0.554157
O O7 0.844540 0.284670 0.611904
O O8 0.077623 0.875271 0.009686
O O9 0.733488 0.881361 0.818686
O O10 0.497535 0.656904 0.283064
O O11 0.126832 0.486135 0.200887
O O12 0.267229 0.152191 0.668262
#
# Coordination Sequence:
#
# PCOD9136405 Si02
#       6
#     4   4   4   4   4   4
#     4   9  21  41  57  88 117 154 197 234 296 348
#     4   9  20  40  61  82 116 156 194 241 286 347
#     4  11  22  39  65  84 118 161 192 240 299 342
#     4  11  20  36  63  87 121 153 194 249 287 344
#     4  10  21  41  60  85 123 153 194 246 290 347
#     4   8  20  37  62  86 117 157 193 240 290 342
#
# _framework density 22.953223999999999
#
# number of rings (size 3 to 8) (size 9 to 14) (size 15 to 20)
#    1.000    1.333    1.667    0.000    2.333    4.000 
#    0.000    3.333    3.667    0.000    0.000    0.000 
#    0.000    0.000    0.000    0.000    0.000    0.000 
#
# Total GULP energy -66881.725700 kJ/mol
# GULP energy per Si atom -5573.477142 kJ/mol
# Density = 2.290098 g / cm^3
# Si number density = 22.953224 Si / 1000 Ang^3
#
#
#
# Elastic Constant Matrix: (Units=GPa)
#
#
# Indices 1 2 3 4 5 6 
#
# 1 43.2365 25.5101 -5.6166 0.0004 5.2603 -0.0001
# 2 25.5101 135.6193 14.7049 0.0005 -3.4653 -0.0001
# 3 -5.6166 14.7049 39.3859 0.0008 -11.7292 -0.0001
# 4 0.0004 0.0005 0.0008 37.4894 -0.0002 -8.8367
# 5 5.2603 -3.4653 -11.7292 -0.0002 17.8337 -0.0003
# 6 -0.0001 -0.0001 -0.0001 -8.8367 -0.0003 38.2460
#
#
#
# Elastic Compliance Matrix: (Units=1/GPa)
#
#
# Indices 1 2 3 4 5 6 
#
# 1 0.027952 -0.005884 0.004212 0.000000 -0.006618 0.000000
# 2 -0.005884 0.008927 -0.003903 0.000000 0.000903 0.000000
# 3 0.004212 -0.003903 0.033392 -0.000001 0.019961 0.000000
# 4 0.000000 0.000000 -0.000001 0.028211 0.000000 0.006518
# 5 -0.006618 0.000903 0.019961 0.000000 0.071329 0.000001
# 6 0.000000 0.000000 0.000000 0.006518 0.000001 0.027653
#
#
# Mechanical properties :
#
#
# Convention : Reuss Voigt Hill
#
# Bulk Modulus (GPa) = 16.91424 31.93761 24.42593
# Shear Modulus (GPa) = 21.89913 30.95671 26.42792
#
# Velocity S-wave (km/s) = 3.09216 3.67643 3.39688
# Velocity P-wave (km/s) = 4.48705 5.65384 5.10390
#
# Compressibility (1/GPa) = 0.05912177
#
# Stress axis : x y z
#
# Youngs Moduli (GPa) = 35.77517 112.02524 29.94735
#
# Poissons Ratio (x) = 0.65912 -0.12614
# Poissons Ratio (y) = 0.21049 0.11688
# Poissons Ratio (z) = -0.15068 0.43722
#
# Static dielectric constant tensor:
#      x y z
#    x 1.867730 0.000000 -0.007710 
#    y 0.000000 1.855520 0.000000 
#    z -0.007710 0.000000 1.931050 
# 
# From -- ./inp_files/22365.got.cif
#   From: 2010.05.17/outbox.cif.g08.bks.cpg/sg9_12_cif.got.tgz:22365.got - 2010.06.03 20:04:27.
