data_PCOD9136672
_publ_section_title
;
Structure prediction by ZEFSAII (Michael W. Deem and Ramdas Pophale) SiO2 
 PCOD9136672
Probable space group: C C
;
_chemical_formula_sum "Si O2"
_cell_formula_units_Z 28
_cell_length_a 8.547036
_cell_length_b 19.008710
_cell_length_c 8.774658
_cell_angle_alpha 90.000000
_cell_angle_beta 51.273047
_cell_angle_gamma 90.000000
_cell_volume 1112.163927
_symmetry_space_group_name_H-M "C C"
_symmetry_group_IT_number 9
_symmetry_cell_setting 'monoclinic'
loop_
_space_group_symop_operation_xyz
x,y,z
x,-y,1/2+z
1/2+x,1/2+y,z
1/2+x,1/2-y,1/2+z
loop_
_atom_site_type_symbol
_atom_site_label
_atom_site_fract_x
_atom_site_fract_y
_atom_site_fract_z
Si Si1 0.667580 0.693151 0.738320
Si Si2 0.849226 0.689556 0.950796
Si Si3 0.235212 0.345186 0.636766
Si Si4 0.073610 0.438632 0.468173
Si Si5 0.717054 0.544737 0.642384
Si Si6 0.417509 0.656493 0.352434
Si Si7 0.446379 0.519800 0.540906
O O1 0.825304 0.695474 0.782399
O O2 0.633548 0.768540 0.684269
O O3 0.749832 0.627357 0.593636
O O4 0.453304 0.673149 0.936629
O O5 0.879161 0.771783 0.970243
O O6 0.003066 0.630059 0.913166
O O7 0.637487 0.665241 0.146787
O O8 0.131682 0.405269 0.597489
O O9 0.269195 0.356542 0.798175
O O10 0.252219 0.477593 0.267621
O O11 0.899322 0.496912 0.587082
O O12 0.635954 0.515435 0.535658
O O13 0.525223 0.536301 0.870987
O O14 0.423117 0.590799 0.459617
#
# Coordination Sequence:
#
# PCOD9136672 Si02
#       7
#     4   4   4   4   4   4   4
#     4  10  23  49  76 114 163 203 266 329 398 481
#     4  10  21  42  75 110 156 206 262 326 401 469
#     4  10  24  47  81 118 154 211 268 333 406 477
#     4  12  26  49  81 117 157 215 273 331 417 480
#     4  12  28  50  76 117 162 211 259 338 403 489
#     4  10  22  46  76 109 162 207 266 338 390 483
#     4  12  28  49  77 111 158 211 268 331 399 489
#
# _framework density 25.176145999999999
#
# number of rings (size 3 to 8) (size 9 to 14) (size 15 to 20)
#    0.000    1.143    2.857    1.714    4.000    5.714 
#    2.571    1.429    0.000    0.000    0.000    0.000 
#    0.000    0.000    0.000    0.000    0.000    0.000 
#
# Total GULP energy -78287.998603 kJ/mol
# GULP energy per Si atom -5591.999900 kJ/mol
# Density = 2.511884 g / cm^3
# Si number density = 25.176146 Si / 1000 Ang^3
#
#
#
# Elastic Constant Matrix: (Units=GPa)
#
#
# Indices 1 2 3 4 5 6 
#
# 1 87.2677 23.2851 30.7041 0.0000 -2.9827 0.0000
# 2 23.2851 136.9924 44.3398 0.0000 -12.7768 0.0000
# 3 30.7041 44.3398 96.4213 0.0000 -7.0061 0.0000
# 4 0.0000 0.0000 0.0000 28.4579 0.0000 -9.2232
# 5 -2.9827 -12.7768 -7.0061 0.0000 26.5907 0.0000
# 6 0.0000 0.0000 0.0000 -9.2232 0.0000 44.0050
#
#
#
# Elastic Compliance Matrix: (Units=1/GPa)
#
#
# Indices 1 2 3 4 5 6 
#
# 1 0.013026 -0.001024 -0.003677 0.000000 0.000000 0.000000
# 2 -0.001024 0.008922 -0.003541 0.000000 0.003239 0.000000
# 3 -0.003677 -0.003541 0.013271 0.000000 0.001383 0.000000
# 4 0.000000 0.000000 0.000000 0.037701 0.000000 0.007902
# 5 0.000000 0.003239 0.001383 0.000000 0.039528 0.000000
# 6 0.000000 0.000000 0.000000 0.007902 0.000000 0.024381
#
#
# Mechanical properties :
#
#
# Convention : Reuss Voigt Hill
#
# Bulk Modulus (GPa) = 53.37820 57.48216 55.43018
# Shear Modulus (GPa) = 31.33657 34.63421 32.98539
#
# Velocity S-wave (km/s) = 3.53185 3.71303 3.62357
# Velocity P-wave (km/s) = 6.15466 6.42368 6.29061
#
# Compressibility (1/GPa) = 0.01873424
#
# Stress axis : x y z
#
# Youngs Moduli (GPa) = 76.76987 112.08170 75.35186
#
# Poissons Ratio (x) = 0.11476 0.27707
# Poissons Ratio (y) = 0.07860 0.26685
# Poissons Ratio (z) = 0.28229 0.39693
#
# Static dielectric constant tensor:
#      x y z
#    x 1.990170 0.000000 -0.001760 
#    y 0.000000 2.065250 0.000000 
#    z -0.001760 0.000000 1.979240 
# 
# From -- ./inp_files/5880.got.cif
#   From: 2010.05.17/outbox.cif.g08.bks.cpg/sg9_3_cif.got.tgz:5880.got - 2010.06.03 20:04:27.
