data_PCOD9136117
_publ_section_title
;
Structure prediction by ZEFSAII (Michael W. Deem and Ramdas Pophale) SiO2 
 PCOD9136117
Probable space group: C C
;
_chemical_formula_sum "Si O2"
_cell_formula_units_Z 32
_cell_length_a 15.476429
_cell_length_b 20.389638
_cell_length_c 15.727197
_cell_angle_alpha 90.000000
_cell_angle_beta 160.559447
_cell_angle_gamma 90.000000
_cell_volume 1651.780368
_symmetry_space_group_name_H-M "C C"
_symmetry_group_IT_number 9
_symmetry_cell_setting 'monoclinic'
loop_
_space_group_symop_operation_xyz
x,y,z
x,-y,1/2+z
1/2+x,1/2+y,z
1/2+x,1/2-y,1/2+z
loop_
_atom_site_type_symbol
_atom_site_label
_atom_site_fract_x
_atom_site_fract_y
_atom_site_fract_z
Si Si1 0.132670 0.921516 0.594040
Si Si2 0.065649 0.560570 0.640211
Si Si3 0.661123 0.429189 0.079160
Si Si4 0.885141 0.288945 0.531308
Si Si5 0.270861 0.141118 0.504597
Si Si6 0.980714 0.231439 0.131030
Si Si7 0.593610 0.087522 0.123929
Si Si8 0.263733 0.790024 0.618427
O O1 0.182352 0.859164 0.581903
O O2 0.852032 0.917428 0.378297
O O3 0.139516 0.991579 0.551540
O O4 0.358911 0.923178 0.874427
O O5 0.071189 0.481860 0.651532
O O6 0.959341 0.594927 0.625682
O O7 0.698068 0.391952 0.024657
O O8 0.905866 0.416044 0.367520
O O9 0.392265 0.405790 0.872476
O O10 0.617485 0.264155 0.241397
O O11 0.827087 0.298989 0.577122
O O12 0.992546 0.354101 0.588054
O O13 0.026276 0.161982 0.217427
O O14 0.404906 0.213391 0.632079
O O15 0.257347 0.257621 0.356134
O O16 0.023016 0.739858 0.400309
#
# Coordination Sequence:
#
# PCOD9136117 Si02
#       8
#     4   4   4   4   4   4   4   4
#     4  10  22  42  55  94 113 154 186 255 275 352
#     4  10  23  38  64  81 126 142 206 227 295 337
#     4  10  23  38  64  81 126 142 206 227 295 337
#     4  10  21  39  62  87 118 150 197 237 290 353
#     4  10  22  40  60  86 110 170 174 248 276 350
#     4   8  20  36  52  80 120 132 200 226 264 332
#     4  10  22  42  55  94 113 154 186 255 275 352
#     4  10  21  39  62  87 118 150 197 237 290 353
#
# _framework density 19.373035999999999
#
# number of rings (size 3 to 8) (size 9 to 14) (size 15 to 20)
#    0.750    1.500    0.000    1.500    5.250    0.000 
#   13.500    0.000    0.000    0.000    0.000    0.000 
#    0.000    0.000    0.000    0.000    0.000    0.000 
#
# Total GULP energy -89234.619325 kJ/mol
# GULP energy per Si atom -5577.163708 kJ/mol
# Density = 1.932894 g / cm^3
# Si number density = 19.373036 Si / 1000 Ang^3
#
#
#
# Elastic Constant Matrix: (Units=GPa)
#
#
# Indices 1 2 3 4 5 6 
#
# 1 68.2231 61.6993 14.2913 0.0010 17.7101 -0.0019
# 2 61.6993 98.4359 7.5440 0.0044 14.6416 -0.0019
# 3 14.2913 7.5440 103.4147 0.0073 22.5146 0.0004
# 4 0.0010 0.0044 0.0073 21.6537 0.0038 9.5944
# 5 17.7101 14.6416 22.5146 0.0038 16.3150 -0.0003
# 6 -0.0019 -0.0019 0.0004 9.5944 -0.0003 25.0118
#
#
#
# Elastic Compliance Matrix: (Units=1/GPa)
#
#
# Indices 1 2 3 4 5 6 
#
# 1 0.041253 -0.021862 0.001961 0.000008 -0.027866 -0.000002
# 2 -0.021862 0.023623 0.001067 -0.000005 0.001059 0.000002
# 3 0.001961 0.001067 0.014285 -0.000001 -0.022799 0.000000
# 4 0.000008 -0.000005 -0.000001 0.055638 -0.000015 -0.021342
# 5 -0.027866 0.001059 -0.022799 -0.000015 0.122054 0.000006
# 6 -0.000002 0.000002 0.000000 -0.021342 0.000006 0.048168
#
#
# Mechanical properties :
#
#
# Convention : Reuss Voigt Hill
#
# Bulk Modulus (GPa) = 24.10124 48.57143 36.33633
# Shear Modulus (GPa) = 14.02447 25.03204 19.52826
#
# Velocity S-wave (km/s) = 2.69349 3.59849 3.17837
# Velocity P-wave (km/s) = 4.70540 6.51088 5.68033
#
# Compressibility (1/GPa) = 0.04149165
#
# Stress axis : x y z
#
# Youngs Moduli (GPa) = 24.24083 42.33173 70.00541
#
# Poissons Ratio (x) = 0.92548 -0.13726
# Poissons Ratio (y) = 0.52997 -0.07473
# Poissons Ratio (z) = -0.04753 -0.04519
#
# Static dielectric constant tensor:
#      x y z
#    x 1.623490 0.000000 0.010150 
#    y 0.000000 1.676650 0.000000 
#    z 0.010150 0.000000 1.755330 
# 
# From -- ./inp_files/26143.got.cif
#   From: 2010.05.17/outbox.cif.g08.bks.cpg/sg9_14_cif.got.tgz:26143.got - 2010.06.03 20:04:27.
