data_PCOD9136569
_publ_section_title
;
Structure prediction by ZEFSAII (Michael W. Deem and Ramdas Pophale) SiO2 
 PCOD9136569
Probable space group: C C
;
_chemical_formula_sum "Si O2"
_cell_formula_units_Z 28
_cell_length_a 5.167037
_cell_length_b 13.286316
_cell_length_c 17.463607
_cell_angle_alpha 90.000000
_cell_angle_beta 121.488969
_cell_angle_gamma 90.000000
_cell_volume 1022.344141
_symmetry_space_group_name_H-M "C C"
_symmetry_group_IT_number 9
_symmetry_cell_setting 'monoclinic'
loop_
_space_group_symop_operation_xyz
x,y,z
x,-y,1/2+z
1/2+x,1/2+y,z
1/2+x,1/2-y,1/2+z
loop_
_atom_site_type_symbol
_atom_site_label
_atom_site_fract_x
_atom_site_fract_y
_atom_site_fract_z
Si Si1 0.074680 0.714157 0.315670
Si Si2 0.773150 0.998283 0.573248
Si Si3 0.085857 0.064851 0.260115
Si Si4 0.141471 0.693341 0.652653
Si Si5 0.993158 0.167358 0.502691
Si Si6 0.651711 0.064836 0.800421
Si Si7 0.699525 0.635056 0.951525
O O1 0.365771 0.658169 0.396795
O O2 0.168721 0.824985 0.359161
O O3 0.789913 0.660717 0.315364
O O4 0.928519 0.731572 0.209574
O O5 0.735456 0.092051 0.624372
O O6 0.958358 0.058472 0.536579
O O7 0.453246 0.949195 0.500430
O O8 0.936386 0.917183 0.653187
O O9 0.349218 0.986302 0.281855
O O10 0.840714 0.018118 0.279467
O O11 0.069022 0.653979 0.728259
O O12 0.823456 0.714427 0.562854
O O13 0.781924 0.258605 0.504322
O O14 0.855649 0.098209 0.904548
#
# Coordination Sequence:
#
# PCOD9136569 Si02
#       7
#     4   4   4   4   4   4   4
#     4   9  22  42  65  96 137 177 232 295 354 427
#     4  11  22  40  70  96 137 189 236 295 361 428
#     4  11  22  43  70  97 136 185 232 287 360 421
#     4  10  21  43  60  96 137 179 235 289 350 428
#     4  10  21  42  64  95 137 180 237 292 354 426
#     4  10  22  43  67  95 138 184 231 288 352 427
#     4   9  22  41  64  99 136 178 239 290 355 425
#
# _framework density 27.388038999999999
#
# number of rings (size 3 to 8) (size 9 to 14) (size 15 to 20)
#    0.857    1.143    1.429    1.714    2.000    0.000 
#   10.286    1.429    0.000    0.000    0.000    0.000 
#    0.000    0.000    0.000    0.000    0.000    0.000 
#
# Total GULP energy -78026.039557 kJ/mol
# GULP energy per Si atom -5573.288540 kJ/mol
# Density = 2.732570 g / cm^3
# Si number density = 27.388039 Si / 1000 Ang^3
#
#
#
# Elastic Constant Matrix: (Units=GPa)
#
#
# Indices 1 2 3 4 5 6 
#
# 1 89.2104 26.5480 45.2651 0.0000 14.3581 0.0000
# 2 26.5480 56.3559 33.8208 0.0000 -4.5453 0.0000
# 3 45.2651 33.8208 194.3623 0.0000 51.7879 0.0000
# 4 0.0000 0.0000 0.0000 67.3320 0.0000 3.1405
# 5 14.3581 -4.5453 51.7879 0.0000 35.1665 0.0000
# 6 0.0000 0.0000 0.0000 3.1405 0.0000 18.1043
#
#
#
# Elastic Compliance Matrix: (Units=1/GPa)
#
#
# Indices 1 2 3 4 5 6 
#
# 1 0.014547 -0.006993 -0.000572 0.000000 -0.006001 0.000000
# 2 -0.006993 0.027246 -0.007919 0.000000 0.018038 0.000000
# 3 -0.000572 -0.007919 0.011301 0.000000 -0.017432 0.000000
# 4 0.000000 0.000000 0.000000 0.014973 0.000000 -0.002597
# 5 -0.006001 0.018038 -0.017432 0.000000 0.058889 0.000000
# 6 0.000000 0.000000 0.000000 -0.002597 0.000000 0.055686
#
#
# Mechanical properties :
#
#
# Convention : Reuss Voigt Hill
#
# Bulk Modulus (GPa) = 45.19642 61.24405 53.22024
# Shear Modulus (GPa) = 22.62603 39.74022 31.18313
#
# Velocity S-wave (km/s) = 2.87736 3.81334 3.37793
# Velocity P-wave (km/s) = 5.25138 6.46521 5.88965
#
# Compressibility (1/GPa) = 0.02212565
#
# Stress axis : x y z
#
# Youngs Moduli (GPa) = 68.74458 36.70294 88.48798
#
# Poissons Ratio (x) = 0.25668 0.05061
# Poissons Ratio (y) = 0.48075 0.70070
# Poissons Ratio (z) = 0.03932 0.29064
#
# Static dielectric constant tensor:
#      x y z
#    x 2.220640 0.000000 -0.040480 
#    y 0.000000 2.320180 0.000000 
#    z -0.040480 0.000000 2.181500 
# 
# From -- ./inp_files/32168.got.cif
#   From: 2010.05.17/outbox.cif.g08.bks.cpg/sg9_17_cif.got.tgz:32168.got - 2010.06.03 20:04:27.
