data_PCOD9136049
_publ_section_title
;
Structure prediction by ZEFSAII (Michael W. Deem and Ramdas Pophale) SiO2 
 PCOD9136049
Probable space group: C C
;
_chemical_formula_sum "Si O2"
_cell_formula_units_Z 28
_cell_length_a 28.546492
_cell_length_b 8.612735
_cell_length_c 9.456834
_cell_angle_alpha 90.000000
_cell_angle_beta 31.705708
_cell_angle_gamma 90.000000
_cell_volume 1221.965470
_symmetry_space_group_name_H-M "C C"
_symmetry_group_IT_number 9
_symmetry_cell_setting 'monoclinic'
loop_
_space_group_symop_operation_xyz
x,y,z
x,-y,1/2+z
1/2+x,1/2+y,z
1/2+x,1/2-y,1/2+z
loop_
_atom_site_type_symbol
_atom_site_label
_atom_site_fract_x
_atom_site_fract_y
_atom_site_fract_z
Si Si1 0.275530 0.414911 0.399470
Si Si2 0.859991 0.500652 0.763861
Si Si3 0.955621 0.006762 0.103724
Si Si4 0.397972 0.794311 0.426231
Si Si5 0.566874 0.395799 0.045311
Si Si6 0.718531 0.256208 0.514253
Si Si7 0.685240 0.679758 0.793399
O O1 0.363281 0.448253 0.271326
O O2 0.302268 0.282857 0.215980
O O3 0.250895 0.582474 0.404381
O O4 0.193632 0.345529 0.698482
O O5 0.920797 0.396368 0.505267
O O6 0.902603 0.589638 0.783935
O O7 0.803236 0.632304 0.825462
O O8 0.784539 0.389045 0.021633
O O9 0.944105 0.140281 0.251448
O O10 0.999887 0.873601 0.086192
O O11 0.014362 0.080609 0.826412
O O12 0.647725 0.273110 0.824209
O O13 0.620095 0.558496 0.887920
O O14 0.668834 0.312580 0.501235
#
# Coordination Sequence:
#
# PCOD9136049 Si02
#       7
#     4   4   4   4   4   4   4
#     4  11  24  39  77 101 135 173 242 288 334 406
#     4  10  21  38  65 101 128 177 228 289 326 403
#     4  12  23  45  69 103 134 185 223 289 344 415
#     4  11  22  41  67 101 139 173 232 285 346 396
#     4  11  25  44  70  93 145 185 220 272 368 418
#     4  11  21  40  67 101 132 179 229 282 340 417
#     4  10  22  41  67  98 133 180 228 279 342 417
#
# _framework density 22.913906000000001
#
# number of rings (size 3 to 8) (size 9 to 14) (size 15 to 20)
#    0.000    1.143    5.714    0.857    0.000    0.000 
#    0.000    1.429    0.000    0.000    0.000    0.000 
#    0.000    0.000    0.000    0.000    0.000    0.000 
#
# Total GULP energy -78103.508616 kJ/mol
# GULP energy per Si atom -5578.822044 kJ/mol
# Density = 2.286175 g / cm^3
# Si number density = 22.913906 Si / 1000 Ang^3
#
#
#
# Elastic Constant Matrix: (Units=GPa)
#
#
# Indices 1 2 3 4 5 6 
#
# 1 58.0902 -1.4506 2.3292 0.0000 9.4944 0.0000
# 2 -1.4506 78.0415 -0.1724 0.0000 11.6510 0.0000
# 3 2.3292 -0.1724 76.6126 0.0000 23.6212 0.0000
# 4 0.0000 0.0000 0.0000 37.1803 0.0000 18.1739
# 5 9.4944 11.6510 23.6212 0.0000 29.0449 0.0000
# 6 0.0000 0.0000 0.0000 18.1739 0.0000 19.2894
#
#
#
# Elastic Compliance Matrix: (Units=1/GPa)
#
#
# Indices 1 2 3 4 5 6 
#
# 1 0.018536 0.001593 0.002009 0.000000 -0.008332 0.000000
# 2 0.001593 0.014075 0.002515 0.000000 -0.008212 0.000000
# 3 0.002009 0.002515 0.018032 0.000000 -0.016331 0.000000
# 4 0.000000 0.000000 0.000000 0.049857 0.000000 -0.046974
# 5 -0.008332 -0.008212 -0.016331 0.000000 0.053728 0.000000
# 6 0.000000 0.000000 0.000000 -0.046974 0.000000 0.096099
#
#
# Mechanical properties :
#
#
# Convention : Reuss Voigt Hill
#
# Bulk Modulus (GPa) = 15.90413 23.79517 19.84965
# Shear Modulus (GPa) = 19.30111 31.23881 25.26996
#
# Velocity S-wave (km/s) = 2.90544 3.69631 3.32448
# Velocity P-wave (km/s) = 4.26748 5.35015 4.83919
#
# Compressibility (1/GPa) = 0.06287673
#
# Stress axis : x y z
#
# Youngs Moduli (GPa) = 53.95026 71.04859 55.45592
#
# Poissons Ratio (x) = -0.11317 -0.11141
# Poissons Ratio (y) = -0.08593 -0.13948
# Poissons Ratio (z) = -0.10838 -0.17870
#
# Static dielectric constant tensor:
#      x y z
#    x 1.839880 0.000000 0.014280 
#    y 0.000000 1.910720 0.000000 
#    z 0.014280 0.000000 1.904110 
# 
# From -- ./inp_files/10345.got.cif
#   From: 2010.05.17/outbox.cif.g08.bks.cpg/sg9_6_cif.got.tgz:10345.got - 2010.06.03 20:04:27.
