data_PCOD9136556
_publ_section_title
;
Structure prediction by ZEFSAII (Michael W. Deem and Ramdas Pophale) SiO2 
 PCOD9136556
Probable space group: C C
;
_chemical_formula_sum "Si O2"
_cell_formula_units_Z 28
_cell_length_a 10.803100
_cell_length_b 9.297106
_cell_length_c 12.772193
_cell_angle_alpha 90.000000
_cell_angle_beta 68.403733
_cell_angle_gamma 90.000000
_cell_volume 1192.755456
_symmetry_space_group_name_H-M "C C"
_symmetry_group_IT_number 9
_symmetry_cell_setting 'monoclinic'
loop_
_space_group_symop_operation_xyz
x,y,z
x,-y,1/2+z
1/2+x,1/2+y,z
1/2+x,1/2-y,1/2+z
loop_
_atom_site_type_symbol
_atom_site_label
_atom_site_fract_x
_atom_site_fract_y
_atom_site_fract_z
Si Si1 0.671240 0.702169 0.215400
Si Si2 0.125781 0.526877 0.193216
Si Si3 0.343274 0.366259 0.495448
Si Si4 0.917320 0.552694 0.084682
Si Si5 0.963815 0.151285 0.459103
Si Si6 0.613086 0.578771 0.005156
Si Si7 0.858736 0.408489 0.900141
O O1 0.806316 0.615702 0.197769
O O2 0.558449 0.655566 0.330124
O O3 0.634407 0.652894 0.109063
O O4 0.683302 0.874050 0.212271
O O5 0.244862 0.635484 0.126263
O O6 0.046274 0.510381 0.108317
O O7 0.006089 0.572827 0.307807
O O8 0.346827 0.538429 0.467978
O O9 0.500391 0.341551 0.472690
O O10 0.306820 0.256554 0.414294
O O11 0.866529 0.428814 0.024997
O O12 0.935899 0.688588 0.002254
O O13 0.038930 0.076488 0.534276
O O14 0.752550 0.535354 0.907893
#
# Coordination Sequence:
#
# PCOD9136556 Si02
#       7
#     4   4   4   4   4   4   4
#     4  11  21  43  68  99 132 181 223 271 346 402
#     4  12  24  41  71  98 133 182 226 273 348 405
#     4  10  24  44  61 100 138 167 228 279 331 407
#     4  11  23  40  67  95 133 169 224 282 319 408
#     4  10  21  42  62  95 133 169 220 277 331 391
#     4   9  22  42  65  93 138 170 216 281 331 394
#     4  11  23  44  68  98 133 176 225 275 344 401
#
# _framework density 23.475055000000001
#
# number of rings (size 3 to 8) (size 9 to 14) (size 15 to 20)
#    0.857    0.571    2.857    2.571    0.000    3.429 
#    5.143    0.000    0.000    0.000    0.000    0.000 
#    0.000    0.000    0.000    0.000    0.000    0.000 
#
# Total GULP energy -78016.778006 kJ/mol
# GULP energy per Si atom -5572.627000 kJ/mol
# Density = 2.342163 g / cm^3
# Si number density = 23.475055 Si / 1000 Ang^3
#
#
#
# Elastic Constant Matrix: (Units=GPa)
#
#
# Indices 1 2 3 4 5 6 
#
# 1 61.6082 10.3299 13.1229 0.0000 -18.0428 0.0000
# 2 10.3299 76.6264 29.2473 0.0000 -11.8274 0.0000
# 3 13.1229 29.2473 124.1176 0.0000 -44.3469 0.0000
# 4 0.0000 0.0000 0.0000 39.0272 0.0000 -2.9509
# 5 -18.0428 -11.8274 -44.3469 0.0000 40.8874 0.0000
# 6 0.0000 0.0000 0.0000 -2.9509 0.0000 37.7053
#
#
#
# Elastic Compliance Matrix: (Units=1/GPa)
#
#
# Indices 1 2 3 4 5 6 
#
# 1 0.019050 -0.001778 0.002000 0.000000 0.010061 0.000000
# 2 -0.001778 0.014522 -0.003287 0.000000 -0.000150 0.000000
# 3 0.002000 -0.003287 0.014034 0.000000 0.015153 0.000000
# 4 0.000000 0.000000 0.000000 0.025776 0.000000 0.002017
# 5 0.010061 -0.000150 0.015153 0.000000 0.045289 0.000000
# 6 0.000000 0.000000 0.000000 0.002017 0.000000 0.026679
#
#
# Mechanical properties :
#
#
# Convention : Reuss Voigt Hill
#
# Bulk Modulus (GPa) = 24.11148 40.86137 32.48642
# Shear Modulus (GPa) = 30.24665 37.50079 33.87372
#
# Velocity S-wave (km/s) = 3.59341 4.00118 3.80276
# Velocity P-wave (km/s) = 5.24501 6.22816 5.75761
#
# Compressibility (1/GPa) = 0.04147403
#
# Stress axis : x y z
#
# Youngs Moduli (GPa) = 52.49256 68.86236 71.25401
#
# Poissons Ratio (x) = 0.12247 -0.14248
# Poissons Ratio (y) = 0.09336 0.23424
# Poissons Ratio (z) = -0.10497 0.22637
#
# Static dielectric constant tensor:
#      x y z
#    x 1.956050 0.000000 0.003120 
#    y 0.000000 1.901970 0.000000 
#    z 0.003120 0.000000 1.907830 
# 
# From -- ./inp_files/20839.got.cif
#   From: 2010.05.17/outbox.cif.g08.bks.cpg/sg9_11_cif.got.tgz:20839.got - 2010.06.03 20:04:27.
