data_PCOD9136316
_publ_section_title
;
Structure prediction by ZEFSAII (Michael W. Deem and Ramdas Pophale) SiO2 
 PCOD9136316
Probable space group: C C
;
_chemical_formula_sum "Si O2"
_cell_formula_units_Z 28
_cell_length_a 8.526803
_cell_length_b 27.981191
_cell_length_c 9.429616
_cell_angle_alpha 90.000000
_cell_angle_beta 146.511079
_cell_angle_gamma 90.000000
_cell_volume 1241.392243
_symmetry_space_group_name_H-M "C C"
_symmetry_group_IT_number 9
_symmetry_cell_setting 'monoclinic'
loop_
_space_group_symop_operation_xyz
x,y,z
x,-y,1/2+z
1/2+x,1/2+y,z
1/2+x,1/2-y,1/2+z
loop_
_atom_site_type_symbol
_atom_site_label
_atom_site_fract_x
_atom_site_fract_y
_atom_site_fract_z
Si Si1 0.705610 0.121874 0.718730
Si Si2 0.423831 0.222049 0.255195
Si Si3 0.608861 0.333403 0.736284
Si Si4 0.094108 0.456196 0.333307
Si Si5 0.109337 0.447248 0.674511
Si Si6 0.611880 0.376932 0.032403
Si Si7 0.714883 0.361120 0.403437
O O1 0.379649 0.129424 0.425980
O O2 0.775207 0.071776 0.849518
O O3 0.906913 0.133922 0.740376
O O4 0.824765 0.157360 0.931015
O O5 0.737859 0.239068 0.529515
O O6 0.256351 0.212413 0.277163
O O7 0.391884 0.174299 0.137124
O O8 0.533941 0.342848 0.842802
O O9 0.176897 0.461442 0.561098
O O10 0.065167 0.507961 0.243062
O O11 0.837365 0.417642 0.153262
O O12 0.355412 0.409489 0.894476
O O13 0.833560 0.414662 0.481498
O O14 0.720499 0.345502 0.244595
#
# Coordination Sequence:
#
# PCOD9136316 Si02
#       7
#     4   4   4   4   4   4   4
#     4  10  21  40  66  93 131 181 217 271 321 392
#     4  11  24  44  72 102 127 165 226 281 339 414
#     4  10  21  43  69  93 132 172 217 269 338 398
#     4  10  24  39  58  97 131 183 235 272 312 385
#     4  11  24  39  62  91 138 181 228 273 327 385
#     4  10  23  42  62  94 137 181 223 269 335 396
#     4  10  25  41  65  98 130 179 218 277 350 394
#
# _framework density 22.555322
#
# number of rings (size 3 to 8) (size 9 to 14) (size 15 to 20)
#    0.000    1.714    1.429    1.714   10.000    3.429 
#    0.000    1.429    0.000    0.000    0.000    0.000 
#    0.000    0.000    0.000    0.000    0.000    0.000 
#
# Total GULP energy -77993.718331 kJ/mol
# GULP energy per Si atom -5570.979881 kJ/mol
# Density = 2.250399 g / cm^3
# Si number density = 22.555322 Si / 1000 Ang^3
#
#
#
# Elastic Constant Matrix: (Units=GPa)
#
#
# Indices 1 2 3 4 5 6 
#
# 1 66.5601 37.0005 37.3416 0.0000 -26.0748 0.0000
# 2 37.0005 67.4990 27.4239 0.0000 -27.1826 0.0000
# 3 37.3416 27.4239 85.5445 0.0000 -25.6593 0.0000
# 4 0.0000 0.0000 0.0000 14.3765 0.0000 2.2389
# 5 -26.0748 -27.1826 -25.6593 0.0000 35.5535 0.0000
# 6 0.0000 0.0000 0.0000 2.2389 0.0000 17.9511
#
#
#
# Elastic Compliance Matrix: (Units=1/GPa)
#
#
# Indices 1 2 3 4 5 6 
#
# 1 0.026691 -0.008686 -0.006365 0.000000 0.008340 0.000000
# 2 -0.008686 0.024657 -0.000471 0.000000 0.012141 0.000000
# 3 -0.006365 -0.000471 0.016733 0.000000 0.007049 0.000000
# 4 0.000000 0.000000 0.000000 0.070936 0.000000 -0.008847
# 5 0.008340 0.012141 0.007049 0.000000 0.048613 0.000000
# 6 0.000000 0.000000 0.000000 -0.008847 0.000000 0.056810
#
#
# Mechanical properties :
#
#
# Convention : Reuss Voigt Hill
#
# Bulk Modulus (GPa) = 26.99966 47.01507 37.00736
# Shear Modulus (GPa) = 17.37133 21.43206 19.40170
#
# Velocity S-wave (km/s) = 2.77820 3.08587 2.93607
# Velocity P-wave (km/s) = 4.72097 5.79538 5.28555
#
# Compressibility (1/GPa) = 0.03703750
#
# Stress axis : x y z
#
# Youngs Moduli (GPa) = 37.46635 40.55573 59.76085
#
# Poissons Ratio (x) = 0.35228 0.38035
# Poissons Ratio (y) = 0.32544 0.02816
# Poissons Ratio (z) = 0.23846 0.01911
#
# Static dielectric constant tensor:
#      x y z
#    x 1.945250 0.000000 -0.005330 
#    y 0.000000 1.836650 0.000000 
#    z -0.005330 0.000000 1.906200 
# 
# From -- ./inp_files/1028.got.cif
#   From: 2010.05.17/outbox.cif.g08.bks.cpg/sg9_1_cif.got.tgz:1028.got - 2010.06.03 20:04:27.
