data_PCOD9136888
_publ_section_title
;
Structure prediction by ZEFSAII (Michael W. Deem and Ramdas Pophale) SiO2 
 PCOD9136888
Probable space group: C C
;
_chemical_formula_sum "Si O2"
_cell_formula_units_Z 32
_cell_length_a 7.680960
_cell_length_b 11.018232
_cell_length_c 20.307746
_cell_angle_alpha 90.000000
_cell_angle_beta 131.422263
_cell_angle_gamma 90.000000
_cell_volume 1288.741701
_symmetry_space_group_name_H-M "C C"
_symmetry_group_IT_number 9
_symmetry_cell_setting 'monoclinic'
loop_
_space_group_symop_operation_xyz
x,y,z
x,-y,1/2+z
1/2+x,1/2+y,z
1/2+x,1/2-y,1/2+z
loop_
_atom_site_type_symbol
_atom_site_label
_atom_site_fract_x
_atom_site_fract_y
_atom_site_fract_z
Si Si1 0.255200 0.355105 0.177380
Si Si2 0.748470 0.648563 0.597404
Si Si3 0.050813 0.074387 0.415876
Si Si4 0.904141 0.803538 0.346136
Si Si5 0.541473 0.816896 0.355498
Si Si6 0.065980 0.636440 0.494526
Si Si7 0.347686 0.389527 0.549464
Si Si8 0.656696 0.532016 0.705916
O O1 0.392401 0.279196 0.266203
O O2 0.440068 0.456276 0.200976
O O3 0.014212 0.396875 0.151392
O O4 0.167307 0.300909 0.086008
O O5 0.589251 0.578180 0.504293
O O6 0.670363 0.635828 0.652646
O O7 0.746493 0.786281 0.571918
O O8 0.925979 0.198598 0.360161
O O9 0.307044 0.091086 0.447975
O O10 0.950374 0.946617 0.368068
O O11 0.650163 0.778506 0.313205
O O12 0.071161 0.720876 0.431852
O O13 0.382623 0.935389 0.305456
O O14 0.766815 0.846548 0.457003
O O15 0.212464 0.515617 0.521814
O O16 0.600273 0.419539 0.643784
#
# Coordination Sequence:
#
# PCOD9136888 Si02
#       8
#     4   4   4   4   4   4   4   4
#     4  10  23  42  64  99 131 176 233 274 343 420
#     4  10  21  45  67  93 142 174 225 296 343 414
#     4   9  21  40  69  96 132 182 224 287 354 409
#     4  11  21  43  70  94 140 179 229 289 348 412
#     4  10  22  42  65 103 137 177 236 284 346 422
#     4   9  22  41  64 100 137 174 230 283 346 416
#     4  10  23  42  68 100 139 180 228 288 352 413
#     4  11  23  43  67  99 140 180 233 283 352 414
#
# _framework density 24.830421000000001
#
# number of rings (size 3 to 8) (size 9 to 14) (size 15 to 20)
#    0.000    2.000    1.250    1.500    1.750    5.000 
#    9.000    5.000    0.000    0.000    0.000    0.000 
#    0.000    0.000    0.000    0.000    0.000    0.000 
#
# Total GULP energy -89271.929896 kJ/mol
# GULP energy per Si atom -5579.495618 kJ/mol
# Density = 2.477391 g / cm^3
# Si number density = 24.830421 Si / 1000 Ang^3
#
#
#
# Elastic Constant Matrix: (Units=GPa)
#
#
# Indices 1 2 3 4 5 6 
#
# 1 72.0746 4.1154 6.2451 0.0000 -0.9502 0.0000
# 2 4.1154 97.2152 45.4993 0.0000 5.3560 0.0000
# 3 6.2451 45.4993 127.9390 0.0000 -13.5245 0.0000
# 4 0.0000 0.0000 0.0000 39.8607 0.0000 0.5972
# 5 -0.9502 5.3560 -13.5245 0.0000 38.7939 0.0000
# 6 0.0000 0.0000 0.0000 0.5972 0.0000 19.5062
#
#
#
# Elastic Compliance Matrix: (Units=1/GPa)
#
#
# Indices 1 2 3 4 5 6 
#
# 1 0.013944 -0.000352 -0.000534 0.000000 0.000204 0.000000
# 2 -0.000352 0.012785 -0.004898 0.000000 -0.003481 0.000000
# 3 -0.000534 -0.004898 0.010024 0.000000 0.004158 0.000000
# 4 0.000000 0.000000 0.000000 0.025099 0.000000 -0.000768
# 5 0.000204 -0.003481 0.004158 0.000000 0.027712 0.000000
# 6 0.000000 0.000000 0.000000 -0.000768 0.000000 0.051289
#
#
# Mechanical properties :
#
#
# Convention : Reuss Voigt Hill
#
# Bulk Modulus (GPa) = 39.70487 45.43871 42.57179
# Shear Modulus (GPa) = 31.09159 35.72342 33.40751
#
# Velocity S-wave (km/s) = 3.54242 3.79713 3.67198
# Velocity P-wave (km/s) = 5.72336 6.12891 5.92960
#
# Compressibility (1/GPa) = 0.02518583
#
# Stress axis : x y z
#
# Youngs Moduli (GPa) = 71.71774 78.21401 99.76449
#
# Poissons Ratio (x) = 0.02750 0.05328
# Poissons Ratio (y) = 0.02521 0.48862
# Poissons Ratio (z) = 0.03830 0.38307
#
# Static dielectric constant tensor:
#      x y z
#    x 1.966440 0.000000 0.036570 
#    y 0.000000 2.024940 0.000000 
#    z 0.036570 0.000000 2.066890 
# 
# From -- ./inp_files/32603.got.cif
#   From: 2010.05.17/outbox.cif.g08.bks.cpg/sg9_17_cif.got.tgz:32603.got - 2010.06.03 20:04:27.
