data_PCOD9136780
_publ_section_title
;
Structure prediction by ZEFSAII (Michael W. Deem and Ramdas Pophale) SiO2 
 PCOD9136780
Probable space group: C C
;
_chemical_formula_sum "Si O2"
_cell_formula_units_Z 28
_cell_length_a 9.030260
_cell_length_b 26.386610
_cell_length_c 8.109465
_cell_angle_alpha 90.000000
_cell_angle_beta 147.847104
_cell_angle_gamma 90.000000
_cell_volume 1028.335791
_symmetry_space_group_name_H-M "C C"
_symmetry_group_IT_number 9
_symmetry_cell_setting 'monoclinic'
loop_
_space_group_symop_operation_xyz
x,y,z
x,-y,1/2+z
1/2+x,1/2+y,z
1/2+x,1/2-y,1/2+z
loop_
_atom_site_type_symbol
_atom_site_label
_atom_site_fract_x
_atom_site_fract_y
_atom_site_fract_z
Si Si1 0.764870 0.901115 0.150650
Si Si2 0.297476 0.869691 0.248975
Si Si3 0.050103 0.282430 0.705654
Si Si4 0.482244 0.287629 0.764247
Si Si5 0.644757 0.938142 0.364889
Si Si6 0.733472 0.334227 0.672209
Si Si7 0.555780 0.040618 0.139430
O O1 0.853001 0.925075 0.411305
O O2 0.987100 0.856996 0.326076
O O3 0.459659 0.878784 0.902134
O O4 0.718749 0.935493 0.947615
O O5 0.465093 0.831957 0.525462
O O6 0.477705 0.888064 0.261639
O O7 0.297393 0.922667 0.349227
O O8 0.047284 0.836925 0.939877
O O9 0.927937 0.292276 0.771185
O O10 0.361622 0.265153 0.977198
O O11 0.180992 0.261702 0.479365
O O12 0.576375 0.310088 0.677299
O O13 0.727477 0.957954 0.627246
O O14 0.475814 0.984628 0.122910
#
# Coordination Sequence:
#
# PCOD9136780 Si02
#       7
#     4   4   4   4   4   4   4
#     4  12  23  47  72 108 148 196 244 311 376 455
#     4  10  23  42  70 108 148 204 243 318 380 442
#     4  12  25  44  69 107 144 193 249 301 369 453
#     4  12  25  44  69 107 144 193 249 301 369 453
#     4  10  21  43  79 110 152 199 260 314 391 451
#     4  12  24  45  72 102 144 194 245 309 374 441
#     4  10  21  43  79 110 152 199 260 314 391 451
#
# _framework density 27.228459999999998
#
# number of rings (size 3 to 8) (size 9 to 14) (size 15 to 20)
#    0.857    0.000    4.286    3.429    0.000    0.000 
#    2.571    1.429    0.000    0.000    0.000    0.000 
#    0.000    0.000    0.000    0.000    0.000    0.000 
#
# Total GULP energy -78251.289484 kJ/mol
# GULP energy per Si atom -5589.377820 kJ/mol
# Density = 2.716649 g / cm^3
# Si number density = 27.228460 Si / 1000 Ang^3
#
#
#
# Elastic Constant Matrix: (Units=GPa)
#
#
# Indices 1 2 3 4 5 6 
#
# 1 136.6570 36.6203 49.5454 0.0000 -12.0691 0.0000
# 2 36.6203 135.8754 35.7956 0.0000 -3.0487 0.0000
# 3 49.5454 35.7956 68.6689 0.0000 -1.5940 0.0000
# 4 0.0000 0.0000 0.0000 34.3008 0.0000 -25.0688
# 5 -12.0691 -3.0487 -1.5940 0.0000 56.1638 0.0000
# 6 0.0000 0.0000 0.0000 -25.0688 0.0000 48.4429
#
#
#
# Elastic Compliance Matrix: (Units=1/GPa)
#
#
# Indices 1 2 3 4 5 6 
#
# 1 0.010218 -0.000904 -0.006856 0.000000 0.001952 0.000000
# 2 -0.000904 0.008618 -0.003836 0.000000 0.000165 0.000000
# 3 -0.006856 -0.003836 0.021484 0.000000 -0.001072 0.000000
# 4 0.000000 0.000000 0.000000 0.046887 0.000000 0.024264
# 5 0.001952 0.000165 -0.001072 0.000000 0.018203 0.000000
# 6 0.000000 0.000000 0.000000 0.024264 0.000000 0.033199
#
#
# Mechanical properties :
#
#
# Convention : Reuss Voigt Hill
#
# Bulk Modulus (GPa) = 58.38496 65.01378 61.69937
# Shear Modulus (GPa) = 29.84913 42.39752 36.12332
#
# Velocity S-wave (km/s) = 3.31455 3.95030 3.64631
# Velocity P-wave (km/s) = 6.01145 6.68845 6.35897
#
# Compressibility (1/GPa) = 0.01712770
#
# Stress axis : x y z
#
# Youngs Moduli (GPa) = 97.86859 116.04144 46.54641
#
# Poissons Ratio (x) = 0.10489 0.31911
# Poissons Ratio (y) = 0.08847 0.17856
# Poissons Ratio (z) = 0.67096 0.44515
#
# Static dielectric constant tensor:
#      x y z
#    x 2.191840 0.000000 -0.128220 
#    y 0.000000 2.133210 0.000000 
#    z -0.128220 0.000000 2.209230 
# 
# From -- ./inp_files/8585.got.cif
#   From: 2010.05.17/outbox.cif.g08.bks.cpg/sg9_5_cif.got.tgz:8585.got - 2010.06.03 20:04:27.
