data_PCOD9136587
_publ_section_title
;
Structure prediction by ZEFSAII (Michael W. Deem and Ramdas Pophale) SiO2 
 PCOD9136587
Probable space group: C C
;
_chemical_formula_sum "Si O2"
_cell_formula_units_Z 32
_cell_length_a 5.312959
_cell_length_b 23.257135
_cell_length_c 11.388144
_cell_angle_alpha 90.000000
_cell_angle_beta 105.454527
_cell_angle_gamma 90.000000
_cell_volume 1356.286958
_symmetry_space_group_name_H-M "C C"
_symmetry_group_IT_number 9
_symmetry_cell_setting 'monoclinic'
loop_
_space_group_symop_operation_xyz
x,y,z
x,-y,1/2+z
1/2+x,1/2+y,z
1/2+x,1/2-y,1/2+z
loop_
_atom_site_type_symbol
_atom_site_label
_atom_site_fract_x
_atom_site_fract_y
_atom_site_fract_z
Si Si1 0.115520 0.829070 0.859410
Si Si2 0.506994 0.810602 0.709982
Si Si3 0.531984 0.094067 0.473469
Si Si4 0.176201 0.481944 0.397677
Si Si5 0.918268 0.806118 0.083832
Si Si6 0.511314 0.606278 0.786000
Si Si7 0.765705 0.526783 0.647203
Si Si8 0.367594 0.082471 0.036925
O O1 0.316142 0.797530 0.796437
O O2 0.255229 0.892076 0.874959
O O3 0.817306 0.816593 0.779414
O O4 0.114023 0.815028 0.998246
O O5 0.430416 0.761618 0.607072
O O6 0.432593 0.871447 0.642342
O O7 0.672922 0.154883 0.512537
O O8 0.444512 0.064601 0.583458
O O9 0.723156 0.049620 0.428914
O O10 0.325648 0.433923 0.341236
O O11 0.918577 0.489635 0.284328
O O12 0.110724 0.452502 0.514028
O O13 0.966591 0.832575 0.220045
O O14 0.551860 0.568373 0.674093
O O15 0.749084 0.612160 0.906748
O O16 0.691487 0.469415 0.567713
#
# Coordination Sequence:
#
# PCOD9136587 Si02
#       8
#     4   4   4   4   4   4   4   4
#     4  12  28  52  80 115 148 216 265 328 394 472
#     4  12  31  51  81 115 156 211 272 331 385 476
#     4  11  23  46  74 114 155 206 263 327 400 477
#     4  10  23  41  71 110 157 201 254 319 401 477
#     4  12  28  49  82 114 160 207 269 323 402 473
#     4  11  24  42  76 111 155 204 255 329 396 474
#     4  10  21  42  66 107 154 199 254 316 396 465
#     4  10  26  45  66 112 153 202 254 325 390 468
#
# _framework density 23.593827999999998
#
# number of rings (size 3 to 8) (size 9 to 14) (size 15 to 20)
#    0.000    1.000    3.750    0.750    7.000    3.000 
#    0.000    0.000    0.000    0.000    0.000    0.000 
#    0.000    0.000    0.000    0.000    0.000    0.000 
#
# Total GULP energy -89084.718403 kJ/mol
# GULP energy per Si atom -5567.794900 kJ/mol
# Density = 2.354013 g / cm^3
# Si number density = 23.593828 Si / 1000 Ang^3
#
#
#
# Elastic Constant Matrix: (Units=GPa)
#
#
# Indices 1 2 3 4 5 6 
#
# 1 108.2320 37.7679 26.6075 0.0000 -22.1205 0.0000
# 2 37.7679 119.1152 35.8956 0.0000 -18.2059 0.0000
# 3 26.6075 35.8956 78.9375 0.0000 -17.2925 0.0000
# 4 0.0000 0.0000 0.0000 42.6564 0.0000 1.0420
# 5 -22.1205 -18.2059 -17.2925 0.0000 45.7047 0.0000
# 6 0.0000 0.0000 0.0000 1.0420 0.0000 17.6603
#
#
#
# Elastic Compliance Matrix: (Units=1/GPa)
#
#
# Indices 1 2 3 4 5 6 
#
# 1 0.011331 -0.002447 -0.001874 0.000000 0.003800 0.000000
# 2 -0.002447 0.010505 -0.003592 0.000000 0.001641 0.000000
# 3 -0.001874 -0.003592 0.015725 0.000000 0.003611 0.000000
# 4 0.000000 0.000000 0.000000 0.023477 0.000000 -0.001385
# 5 0.003800 0.001641 0.003611 0.000000 0.025739 0.000000
# 6 0.000000 0.000000 0.000000 -0.001385 0.000000 0.056706
#
#
# Mechanical properties :
#
#
# Convention : Reuss Voigt Hill
#
# Bulk Modulus (GPa) = 46.01344 56.31407 51.16375
# Shear Modulus (GPa) = 30.02048 34.93853 32.47950
#
# Velocity S-wave (km/s) = 3.57092 3.85233 3.71429
# Velocity P-wave (km/s) = 6.04538 6.61115 6.33458
#
# Compressibility (1/GPa) = 0.02173278
#
# Stress axis : x y z
#
# Youngs Moduli (GPa) = 88.25581 95.19714 63.59421
#
# Poissons Ratio (x) = 0.23295 0.11918
# Poissons Ratio (y) = 0.21597 0.22846
# Poissons Ratio (z) = 0.16539 0.34199
#
# Static dielectric constant tensor:
#      x y z
#    x 1.988840 0.000000 0.054310 
#    y 0.000000 1.948350 0.000000 
#    z 0.054310 0.000000 1.926170 
# 
# From -- ./inp_files/13661.got.cif
#   From: 2010.05.17/outbox.cif.g08.bks.cpg/sg9_7_cif.got.tgz:13661.got - 2010.06.03 20:04:27.
