data_PCOD9136524
_publ_section_title
;
Structure prediction by ZEFSAII (Michael W. Deem and Ramdas Pophale) SiO2 
 PCOD9136524
Probable space group: C C
;
_chemical_formula_sum "Si O2"
_cell_formula_units_Z 32
_cell_length_a 23.967372
_cell_length_b 8.848758
_cell_length_c 14.746223
_cell_angle_alpha 90.000000
_cell_angle_beta 150.811113
_cell_angle_gamma 90.000000
_cell_volume 1525.203119
_symmetry_space_group_name_H-M "C C"
_symmetry_group_IT_number 9
_symmetry_cell_setting 'monoclinic'
loop_
_space_group_symop_operation_xyz
x,y,z
x,-y,1/2+z
1/2+x,1/2+y,z
1/2+x,1/2-y,1/2+z
loop_
_atom_site_type_symbol
_atom_site_label
_atom_site_fract_x
_atom_site_fract_y
_atom_site_fract_z
Si Si1 0.247070 0.858339 0.434340
Si Si2 0.774338 0.853813 0.807144
Si Si3 0.449544 0.334662 0.318673
Si Si4 0.053148 0.491512 0.241703
Si Si5 0.521341 0.336352 0.231466
Si Si6 0.403791 0.137180 0.671351
Si Si7 0.805116 0.104971 0.150956
Si Si8 0.557542 0.961921 0.037257
O O1 0.231541 0.776435 0.315402
O O2 0.339562 0.755110 0.620257
O O3 0.130796 0.867921 0.325917
O O4 0.300854 0.023342 0.502585
O O5 0.779017 0.810491 0.708180
O O6 0.687298 0.992739 0.697161
O O7 0.903258 0.889677 0.019896
O O8 0.521654 0.393911 0.334764
O O9 0.396378 0.472198 0.298497
O O10 0.525637 0.212457 0.477935
O O11 0.016548 0.652619 0.231503
O O12 0.186567 0.465993 0.448822
O O13 0.032650 0.500764 0.105963
O O14 0.982979 0.362405 0.194656
O O15 0.355319 0.289815 0.643837
O O16 0.479999 0.060060 0.858883
#
# Coordination Sequence:
#
# PCOD9136524 Si02
#       8
#     4   4   4   4   4   4   4   4
#     4  10  21  41  70  98 125 183 230 277 338 411
#     4  11  21  38  74  99 130 178 233 279 346 407
#     4  10  22  42  66  97 132 179 225 274 347 409
#     4  12  21  44  69  96 140 178 231 291 339 409
#     4  11  19  41  72  95 128 180 233 276 336 419
#     4  11  25  44  66 103 137 176 233 285 349 406
#     4  12  25  42  65 103 141 179 224 290 347 411
#     4  11  22  44  70  97 129 181 231 280 344 410
#
# _framework density 20.980812
#
# number of rings (size 3 to 8) (size 9 to 14) (size 15 to 20)
#    0.000    1.000    7.500    1.500    0.000    1.000 
#    9.000    0.000    0.000    0.000    0.000    0.000 
#    0.000    0.000    0.000    0.000    0.000    0.000 
#
# Total GULP energy -89421.890552 kJ/mol
# GULP energy per Si atom -5588.868159 kJ/mol
# Density = 2.093306 g / cm^3
# Si number density = 20.980812 Si / 1000 Ang^3
#
#
#
# Elastic Constant Matrix: (Units=GPa)
#
#
# Indices 1 2 3 4 5 6 
#
# 1 122.9589 11.9253 38.8010 0.0000 21.4444 0.0000
# 2 11.9253 67.4710 27.5729 0.0000 21.8329 0.0000
# 3 38.8010 27.5729 72.9499 0.0000 19.6309 0.0000
# 4 0.0000 0.0000 0.0000 22.6245 0.0000 3.8274
# 5 21.4444 21.8329 19.6309 0.0000 42.6289 0.0000
# 6 0.0000 0.0000 0.0000 3.8274 0.0000 13.0229
#
#
#
# Elastic Compliance Matrix: (Units=1/GPa)
#
#
# Indices 1 2 3 4 5 6 
#
# 1 0.010190 0.001383 -0.004991 0.000000 -0.003536 0.000000
# 2 0.001383 0.019610 -0.006001 0.000000 -0.007976 0.000000
# 3 -0.004991 -0.006001 0.019551 0.000000 -0.003419 0.000000
# 4 0.000000 0.000000 0.000000 0.046512 0.000000 -0.013670
# 5 -0.003536 -0.007976 -0.003419 0.000000 0.030896 0.000000
# 6 0.000000 0.000000 0.000000 -0.013670 0.000000 0.080806
#
#
# Mechanical properties :
#
#
# Convention : Reuss Voigt Hill
#
# Bulk Modulus (GPa) = 33.18708 46.66424 39.92566
# Shear Modulus (GPa) = 21.11223 27.99397 24.55310
#
# Velocity S-wave (km/s) = 3.17561 3.65672 3.42462
# Velocity P-wave (km/s) = 5.41278 6.33392 5.89138
#
# Compressibility (1/GPa) = 0.03013221
#
# Stress axis : x y z
#
# Youngs Moduli (GPa) = 98.13130 50.99419 51.14786
#
# Poissons Ratio (x) = -0.07052 0.25529
# Poissons Ratio (y) = -0.13570 0.30695
# Poissons Ratio (z) = 0.48980 0.30603
#
# Static dielectric constant tensor:
#      x y z
#    x 1.763290 0.000000 -0.002290 
#    y 0.000000 1.761460 0.000000 
#    z -0.002290 0.000000 1.747210 
# 
# From -- ./inp_files/25683.got.cif
#   From: 2010.05.17/outbox.cif.g08.bks.cpg/sg9_13_cif.got.tgz:25683.got - 2010.06.03 20:04:27.
