data_PCOD9136579
_publ_section_title
;
Structure prediction by ZEFSAII (Michael W. Deem and Ramdas Pophale) SiO2 
 PCOD9136579
Probable space group: C C
;
_chemical_formula_sum "Si O2"
_cell_formula_units_Z 32
_cell_length_a 13.715006
_cell_length_b 8.771607
_cell_length_c 22.848847
_cell_angle_alpha 90.000000
_cell_angle_beta 149.170971
_cell_angle_gamma 90.000000
_cell_volume 1408.687553
_symmetry_space_group_name_H-M "C C"
_symmetry_group_IT_number 9
_symmetry_cell_setting 'monoclinic'
loop_
_space_group_symop_operation_xyz
x,y,z
x,-y,1/2+z
1/2+x,1/2+y,z
1/2+x,1/2-y,1/2+z
loop_
_atom_site_type_symbol
_atom_site_label
_atom_site_fract_x
_atom_site_fract_y
_atom_site_fract_z
Si Si1 0.047250 0.321711 0.139850
Si Si2 0.959148 0.939968 0.380755
Si Si3 0.157427 0.488268 0.469325
Si Si4 0.972952 0.037179 0.764521
Si Si5 0.077514 0.033554 0.688063
Si Si6 0.213289 0.173167 0.552317
Si Si7 0.862857 0.305562 0.251694
Si Si8 0.573467 0.813334 0.023687
O O1 0.238583 0.410555 0.255109
O O2 0.093667 0.141870 0.173716
O O3 0.977467 0.338264 0.036862
O O4 0.882883 0.379368 0.097704
O O5 0.037389 0.850221 0.477251
O O6 0.054490 0.894391 0.367362
O O7 0.016377 0.111119 0.426347
O O8 0.355425 0.571412 0.557767
O O9 0.215172 0.353248 0.543498
O O10 0.019391 0.587037 0.438846
O O11 0.052507 0.403781 0.362663
O O12 0.912269 0.867319 0.756314
O O13 0.093851 0.030849 0.767412
O O14 0.790212 0.139954 0.651730
O O15 0.219632 0.151694 0.730661
O O16 0.256602 0.129731 0.640076
#
# Coordination Sequence:
#
# PCOD9136579 Si02
#       8
#     4   4   4   4   4   4   4   4
#     4  10  22  41  67  96 138 183 231 283 357 422
#     4  11  23  40  68 100 133 180 226 288 359 416
#     4  10  22  43  66  98 136 181 234 289 350 422
#     4  10  22  45  67  98 142 178 235 293 345 431
#     4  10  22  43  71 101 134 190 233 287 358 418
#     4  11  23  41  67  98 131 181 234 288 337 427
#     4  12  21  41  73  95 143 184 233 291 353 420
#     4  10  21  42  65  94 141 171 224 295 341 416
#
# _framework density 22.716180000000001
#
# number of rings (size 3 to 8) (size 9 to 14) (size 15 to 20)
#    0.000    1.500    5.000    1.500    0.000    6.000 
#    9.000    2.500    2.750    0.000    0.000    0.000 
#    0.000    0.000    0.000    0.000    0.000    0.000 
#
# Total GULP energy -89192.286932 kJ/mol
# GULP energy per Si atom -5574.517933 kJ/mol
# Density = 2.266448 g / cm^3
# Si number density = 22.716180 Si / 1000 Ang^3
#
#
#
# Elastic Constant Matrix: (Units=GPa)
#
#
# Indices 1 2 3 4 5 6 
#
# 1 132.0699 31.5695 32.6632 0.0000 -4.1083 0.0000
# 2 31.5695 36.1494 21.8568 0.0000 10.6664 0.0000
# 3 32.6632 21.8568 90.5886 -0.0001 -16.3471 0.0000
# 4 0.0000 0.0000 -0.0001 38.2579 0.0000 -3.6260
# 5 -4.1083 10.6664 -16.3471 0.0000 31.3644 0.0000
# 6 0.0000 0.0000 0.0000 -3.6260 0.0000 32.0332
#
#
#
# Elastic Compliance Matrix: (Units=1/GPa)
#
#
# Indices 1 2 3 4 5 6 
#
# 1 0.010205 -0.009946 -0.000473 0.000000 0.004473 0.000000
# 2 -0.009946 0.052496 -0.013838 0.000000 -0.026368 0.000000
# 3 -0.000473 -0.013838 0.016984 0.000000 0.013496 0.000000
# 4 0.000000 0.000000 0.000000 0.026422 0.000000 0.002991
# 5 0.004473 -0.026368 0.013496 0.000000 0.048471 0.000000
# 6 0.000000 0.000000 0.000000 0.002991 0.000000 0.031556
#
#
# Mechanical properties :
#
#
# Convention : Reuss Voigt Hill
#
# Bulk Modulus (GPa) = 32.08111 47.88743 39.98427
# Shear Modulus (GPa) = 20.40496 31.84565 26.12531
#
# Velocity S-wave (km/s) = 3.00034 3.74825 3.39495
# Velocity P-wave (km/s) = 5.11429 6.31340 5.74522
#
# Compressibility (1/GPa) = 0.03117099
#
# Stress axis : x y z
#
# Youngs Moduli (GPa) = 97.98786 19.04894 58.88052
#
# Poissons Ratio (x) = 0.18947 0.02783
# Poissons Ratio (y) = 0.97462 0.81479
# Poissons Ratio (z) = 0.04632 0.26360
#
# Static dielectric constant tensor:
#      x y z
#    x 1.902680 0.000000 0.003700 
#    y 0.000000 1.927580 0.000000 
#    z 0.003700 0.000000 1.875700 
# 
# From -- ./inp_files/35604.got.cif
#   From: 2010.05.17/outbox.cif.g08.bks.cpg/sg9_18_cif.got.tgz:35604.got - 2010.06.03 20:04:27.
