data_PCOD9136351
_publ_section_title
;
Structure prediction by ZEFSAII (Michael W. Deem and Ramdas Pophale) SiO2 
 PCOD9136351
Probable space group: C C
;
_chemical_formula_sum "Si O2"
_cell_formula_units_Z 32
_cell_length_a 24.121485
_cell_length_b 14.741764
_cell_length_c 8.586640
_cell_angle_alpha 90.000000
_cell_angle_beta 150.378750
_cell_angle_gamma 90.000000
_cell_volume 1509.162499
_symmetry_space_group_name_H-M "C C"
_symmetry_group_IT_number 9
_symmetry_cell_setting 'monoclinic'
loop_
_space_group_symop_operation_xyz
x,y,z
x,-y,1/2+z
1/2+x,1/2+y,z
1/2+x,1/2-y,1/2+z
loop_
_atom_site_type_symbol
_atom_site_label
_atom_site_fract_x
_atom_site_fract_y
_atom_site_fract_z
Si Si1 0.843990 0.219170 0.761210
Si Si2 0.099550 0.325228 0.626392
Si Si3 0.604151 0.990348 0.431304
Si Si4 0.585062 0.298057 0.783944
Si Si5 0.887524 0.255778 0.230580
Si Si6 0.201441 0.634808 0.901519
Si Si7 0.777993 0.398994 0.408969
Si Si8 0.863166 0.446907 0.302040
O O1 0.729642 0.163140 0.483266
O O2 0.818721 0.309511 0.598803
O O3 0.865195 0.241796 0.993299
O O4 0.954669 0.175698 0.954351
O O5 0.064194 0.419786 0.465811
O O6 0.092554 0.259598 0.461087
O O7 0.021414 0.276987 0.564439
O O8 0.681800 0.932862 0.500831
O O9 0.662724 0.075839 0.658070
O O10 0.488535 0.020590 0.070187
O O11 0.627269 0.225736 0.757594
O O12 0.669282 0.378546 0.036247
O O13 0.836135 0.351297 0.157446
O O14 0.826152 0.176007 0.176263
O O15 0.864864 0.430290 0.490292
O O16 0.775523 0.477945 0.530234
#
# Coordination Sequence:
#
# PCOD9136351 Si02
#       8
#     4   4   4   4   4   4   4   4
#     4  10  21  40  68  90 130 175 220 268 338 402
#     4   9  20  39  65  91 125 177 216 272 323 400
#     4  11  23  40  68 100 132 171 232 278 330 391
#     4   9  19  40  62  94 134 171 216 268 339 397
#     4  11  23  38  62  98 132 168 222 269 336 394
#     4  11  23  41  64 101 137 169 219 285 335 394
#     4  11  21  38  66  97 133 171 220 282 329 387
#     4  12  22  38  65  97 131 170 225 276 320 397
#
# _framework density 21.203814000000001
#
# number of rings (size 3 to 8) (size 9 to 14) (size 15 to 20)
#    0.000    1.500    1.250    6.000    3.500    0.000 
#    0.000    0.000   11.000    0.000    0.000    0.000 
#    0.000    0.000    0.000    0.000    0.000    0.000 
#
# Total GULP energy -89165.621441 kJ/mol
# GULP energy per Si atom -5572.851340 kJ/mol
# Density = 2.115555 g / cm^3
# Si number density = 21.203814 Si / 1000 Ang^3
#
#
#
# Elastic Constant Matrix: (Units=GPa)
#
#
# Indices 1 2 3 4 5 6 
#
# 1 120.3293 39.2928 34.9727 0.0000 10.8136 0.0000
# 2 39.2928 79.2603 26.6704 0.0000 4.6003 0.0000
# 3 34.9727 26.6704 72.2775 0.0000 15.4930 0.0000
# 4 0.0000 0.0000 0.0000 28.8743 0.0000 -7.4920
# 5 10.8136 4.6003 15.4930 0.0000 28.0077 0.0000
# 6 0.0000 0.0000 0.0000 -7.4920 0.0000 39.5409
#
#
#
# Elastic Compliance Matrix: (Units=1/GPa)
#
#
# Indices 1 2 3 4 5 6 
#
# 1 0.010775 -0.004122 -0.003342 0.000000 -0.001634 0.000000
# 2 -0.004122 0.015993 -0.004181 0.000000 0.001277 0.000000
# 3 -0.003342 -0.004181 0.018801 0.000000 -0.008423 0.000000
# 4 0.000000 0.000000 0.000000 0.036423 0.000000 0.006901
# 5 -0.001634 0.001277 -0.008423 0.000000 0.040785 0.000000
# 6 0.000000 0.000000 0.000000 0.006901 0.000000 0.026598
#
#
# Mechanical properties :
#
#
# Convention : Reuss Voigt Hill
#
# Bulk Modulus (GPa) = 44.88587 52.63764 48.76176
# Shear Modulus (GPa) = 27.76378 30.68002 29.22190
#
# Velocity S-wave (km/s) = 3.62246 3.80795 3.71636
# Velocity P-wave (km/s) = 6.22182 6.64925 6.43908
#
# Compressibility (1/GPa) = 0.02227872
#
# Stress axis : x y z
#
# Youngs Moduli (GPa) = 92.80896 62.52833 53.18893
#
# Poissons Ratio (x) = 0.25775 0.17777
# Poissons Ratio (y) = 0.38257 0.22236
# Poissons Ratio (z) = 0.31019 0.26140
#
# Static dielectric constant tensor:
#      x y z
#    x 1.862750 0.000000 0.030650 
#    y 0.000000 1.774200 0.000000 
#    z 0.030650 0.000000 1.864070 
# 
# From -- ./inp_files/12248.got.cif
#   From: 2010.05.17/outbox.cif.g08.bks.cpg/sg9_7_cif.got.tgz:12248.got - 2010.06.03 20:04:27.
