data_PCOD9136207
_publ_section_title
;
Structure prediction by ZEFSAII (Michael W. Deem and Ramdas Pophale) SiO2 
 PCOD9136207
Probable space group: C C
;
_chemical_formula_sum "Si O2"
_cell_formula_units_Z 32
_cell_length_a 9.016559
_cell_length_b 21.636240
_cell_length_c 9.560831
_cell_angle_alpha 90.000000
_cell_angle_beta 60.832718
_cell_angle_gamma 90.000000
_cell_volume 1628.666812
_symmetry_space_group_name_H-M "C C"
_symmetry_group_IT_number 9
_symmetry_cell_setting 'monoclinic'
loop_
_space_group_symop_operation_xyz
x,y,z
x,-y,1/2+z
1/2+x,1/2+y,z
1/2+x,1/2-y,1/2+z
loop_
_atom_site_type_symbol
_atom_site_label
_atom_site_fract_x
_atom_site_fract_y
_atom_site_fract_z
Si Si1 0.087350 0.347855 0.100320
Si Si2 0.896748 0.974492 0.631618
Si Si3 0.418968 0.050200 0.504983
Si Si4 0.209163 0.015402 0.342592
Si Si5 0.183468 0.228634 0.179910
Si Si6 0.942741 0.114666 0.347672
Si Si7 0.712334 0.047846 0.928126
Si Si8 0.038483 0.329673 0.425500
O O1 0.122301 0.274112 0.081757
O O2 0.995762 0.358713 0.291599
O O3 0.985565 0.383313 0.027176
O O4 0.278537 0.374748 0.018889
O O5 0.869162 0.915444 0.741198
O O6 0.782167 0.971043 0.546989
O O7 0.858415 0.034310 0.745778
O O8 0.091135 0.972980 0.493719
O O9 0.345478 0.047008 0.382598
O O10 0.287365 0.023555 0.680483
O O11 0.570159 0.000793 0.446536
O O12 0.078658 0.066759 0.346290
O O13 0.167715 0.274924 0.320309
O O14 0.043598 0.176643 0.269001
O O15 0.367739 0.198869 0.069511
O O16 0.632330 0.115882 0.964414
#
# Coordination Sequence:
#
# PCOD9136207 Si02
#       8
#     4   4   4   4   4   4   4   4
#     4  10  21  41  66  87 128 173 216 258 320 391
#     4  12  24  41  65  96 135 169 216 265 344 395
#     4  12  23  38  62 100 132 166 209 271 334 382
#     4  12  24  39  62 101 133 163 213 274 329 397
#     4  10  22  41  67  93 125 183 218 260 324 393
#     4  12  22  44  67  91 130 176 218 262 329 397
#     4  12  23  41  65  98 130 173 212 271 331 396
#     4  10  21  39  68  94 125 173 222 263 321 391
#
# _framework density 19.647971999999999
#
# number of rings (size 3 to 8) (size 9 to 14) (size 15 to 20)
#    0.750    0.000    5.000    3.750    1.750    0.000 
#    0.000    1.250    0.000    0.000    0.000    0.000 
#    0.000    0.000    0.000    0.000    0.000    0.000 
#
# Total GULP energy -89245.137618 kJ/mol
# GULP energy per Si atom -5577.821101 kJ/mol
# Density = 1.960325 g / cm^3
# Si number density = 19.647972 Si / 1000 Ang^3
#
#
#
# Elastic Constant Matrix: (Units=GPa)
#
#
# Indices 1 2 3 4 5 6 
#
# 1 82.1131 26.0247 24.2959 0.0000 12.0892 0.0000
# 2 26.0247 103.1652 20.1354 0.0000 1.0643 0.0000
# 3 24.2959 20.1354 70.1416 0.0000 -4.5718 0.0000
# 4 0.0000 0.0000 0.0000 36.2407 0.0000 -3.5485
# 5 12.0892 1.0643 -4.5718 0.0000 35.3991 0.0000
# 6 0.0000 0.0000 0.0000 -3.5485 0.0000 38.2226
#
#
#
# Elastic Compliance Matrix: (Units=1/GPa)
#
#
# Indices 1 2 3 4 5 6 
#
# 1 0.015386 -0.002868 -0.004884 0.000000 -0.005799 0.000000
# 2 -0.002868 0.010820 -0.002088 0.000000 0.000385 0.000000
# 3 -0.004884 -0.002088 0.016802 0.000000 0.003901 0.000000
# 4 0.000000 0.000000 0.000000 0.027846 0.000000 0.002585
# 5 -0.005799 0.000385 0.003901 0.000000 0.030722 0.000000
# 6 0.000000 0.000000 0.000000 0.002585 0.000000 0.026403
#
#
# Mechanical properties :
#
#
# Convention : Reuss Voigt Hill
#
# Bulk Modulus (GPa) = 42.86558 44.03689 43.45123
# Shear Modulus (GPa) = 32.16759 34.30340 33.23549
#
# Velocity S-wave (km/s) = 4.05062 4.18293 4.11731
# Velocity P-wave (km/s) = 6.61369 6.76689 6.69073
#
# Compressibility (1/GPa) = 0.02332874
#
# Stress axis : x y z
#
# Youngs Moduli (GPa) = 64.99277 92.41955 59.51605
#
# Poissons Ratio (x) = 0.26509 0.29069
# Poissons Ratio (y) = 0.18642 0.12424
# Poissons Ratio (z) = 0.31744 0.19293
#
# Static dielectric constant tensor:
#      x y z
#    x 1.686000 0.000000 -0.034390 
#    y 0.000000 1.704420 0.000000 
#    z -0.034390 0.000000 1.779170 
# 
# From -- ./inp_files/6023.got.cif
#   From: 2010.05.17/outbox.cif.g08.bks.cpg/sg9_4_cif.got.tgz:6023.got - 2010.06.03 20:04:27.
