data_PCOD9136095
_publ_section_title
;
Structure prediction by ZEFSAII (Michael W. Deem and Ramdas Pophale) SiO2 
 PCOD9136095
Probable space group: C C
;
_chemical_formula_sum "Si O2"
_cell_formula_units_Z 32
_cell_length_a 9.305162
_cell_length_b 24.413507
_cell_length_c 9.305036
_cell_angle_alpha 90.000000
_cell_angle_beta 46.918640
_cell_angle_gamma 90.000000
_cell_volume 1543.916223
_symmetry_space_group_name_H-M "C C"
_symmetry_group_IT_number 9
_symmetry_cell_setting 'monoclinic'
loop_
_space_group_symop_operation_xyz
x,y,z
x,-y,1/2+z
1/2+x,1/2+y,z
1/2+x,1/2-y,1/2+z
loop_
_atom_site_type_symbol
_atom_site_label
_atom_site_fract_x
_atom_site_fract_y
_atom_site_fract_z
Si Si1 0.789340 0.816952 0.053780
Si Si2 0.913841 0.923494 0.109396
Si Si3 0.378627 0.526277 0.317763
Si Si4 0.362629 0.103434 0.230494
Si Si5 0.841896 0.535490 0.977589
Si Si6 0.024870 0.580427 0.387071
Si Si7 0.705521 0.308358 0.625412
Si Si8 0.894165 0.365242 0.239669
O O1 0.810058 0.864422 0.160189
O O2 0.761526 0.754225 0.117175
O O3 0.595087 0.831550 0.099086
O O4 0.982689 0.820061 0.823702
O O5 0.857057 0.963123 0.280161
O O6 0.868377 0.958929 0.994219
O O7 0.146122 0.908498 0.946542
O O8 0.606070 0.538716 0.122647
O O9 0.222672 0.563728 0.336873
O O10 0.397709 0.052747 0.100438
O O11 0.528638 0.113186 0.235714
O O12 0.336310 0.153795 0.139564
O O13 0.929360 0.476186 0.898979
O O14 0.923476 0.579543 0.811758
O O15 0.871328 0.611785 0.595887
O O16 0.745748 0.328234 0.434605
#
# Coordination Sequence:
#
# PCOD9136095 Si02
#       8
#     4   4   4   4   4   4   4   4
#     4  11  20  42  66  98 114 169 222 266 311 389
#     4  10  21  39  59  90 127 164 214 249 321 387
#     4  11  23  37  60  91 131 175 203 262 316 393
#     4   9  21  38  60  90 127 165 206 271 314 377
#     4  10  22  40  58  93 129 176 217 253 315 395
#     4  12  22  37  61  93 134 168 209 268 324 385
#     4  10  22  41  72  86 123 163 226 267 317 381
#     4  11  23  38  66  93 123 170 213 262 324 375
#
# _framework density 20.726514000000002
#
# number of rings (size 3 to 8) (size 9 to 14) (size 15 to 20)
#    0.000    1.500    3.750    2.250    3.500    0.000 
#    0.000    0.000    5.500    1.500    0.000    0.000 
#    0.000    0.000    0.000    0.000    0.000    0.000 
#
# Total GULP energy -89280.480101 kJ/mol
# GULP energy per Si atom -5580.030006 kJ/mol
# Density = 2.067934 g / cm^3
# Si number density = 20.726514 Si / 1000 Ang^3
#
#
#
# Elastic Constant Matrix: (Units=GPa)
#
#
# Indices 1 2 3 4 5 6 
#
# 1 79.9450 13.1285 29.5853 0.0000 9.1124 0.0000
# 2 13.1285 109.2062 23.6980 0.0000 6.1736 0.0000
# 3 29.5853 23.6980 60.9389 0.0000 -6.5170 0.0000
# 4 0.0000 0.0000 0.0000 29.8627 0.0000 -6.0774
# 5 9.1124 6.1736 -6.5170 0.0000 31.6853 0.0000
# 6 0.0000 0.0000 0.0000 -6.0774 0.0000 9.4826
#
#
#
# Elastic Compliance Matrix: (Units=1/GPa)
#
#
# Indices 1 2 3 4 5 6 
#
# 1 0.016479 0.000309 -0.008828 0.000000 -0.006615 0.000000
# 2 0.000309 0.010258 -0.004460 0.000000 -0.003005 0.000000
# 3 -0.008828 -0.004460 0.023307 0.000000 0.008202 0.000000
# 4 0.000000 0.000000 0.000000 0.038509 0.000000 0.024681
# 5 -0.006615 -0.003005 0.008202 0.000000 0.035735 0.000000
# 6 0.000000 0.000000 0.000000 0.024681 0.000000 0.121275
#
#
# Mechanical properties :
#
#
# Convention : Reuss Voigt Hill
#
# Bulk Modulus (GPa) = 41.51953 42.54595 42.03274
# Shear Modulus (GPa) = 17.88592 26.45136 22.16864
#
# Velocity S-wave (km/s) = 2.94079 3.57628 3.27399
# Velocity P-wave (km/s) = 5.62197 6.13392 5.88351
#
# Compressibility (1/GPa) = 0.02408505
#
# Stress axis : x y z
#
# Youngs Moduli (GPa) = 60.68409 97.48860 42.90523
#
# Poissons Ratio (x) = -0.03008 0.37875
# Poissons Ratio (y) = -0.01872 0.19136
# Poissons Ratio (z) = 0.53570 0.43481
#
# Static dielectric constant tensor:
#      x y z
#    x 1.784380 0.000000 -0.016710 
#    y 0.000000 1.775370 0.000000 
#    z -0.016710 0.000000 1.785110 
# 
# From -- ./inp_files/6376.got.cif
#   From: 2010.05.17/outbox.cif.g08.bks.cpg/sg9_4_cif.got.tgz:6376.got - 2010.06.03 20:04:27.
