data_PCOD9136061
_publ_section_title
;
Structure prediction by ZEFSAII (Michael W. Deem and Ramdas Pophale) SiO2 
 PCOD9136061
Probable space group: C C
;
_chemical_formula_sum "Si O2"
_cell_formula_units_Z 28
_cell_length_a 19.587018
_cell_length_b 9.334874
_cell_length_c 8.339851
_cell_angle_alpha 90.000000
_cell_angle_beta 121.036488
_cell_angle_gamma 90.000000
_cell_volume 1306.575069
_symmetry_space_group_name_H-M "C C"
_symmetry_group_IT_number 9
_symmetry_cell_setting 'monoclinic'
loop_
_space_group_symop_operation_xyz
x,y,z
x,-y,1/2+z
1/2+x,1/2+y,z
1/2+x,1/2-y,1/2+z
loop_
_atom_site_type_symbol
_atom_site_label
_atom_site_fract_x
_atom_site_fract_y
_atom_site_fract_z
Si Si1 0.970830 0.294692 0.426180
Si Si2 0.636932 0.843699 0.735464
Si Si3 0.793820 0.215662 0.571121
Si Si4 0.514827 0.316773 0.519775
Si Si5 0.155697 0.660545 0.623870
Si Si6 0.428954 0.080486 0.222954
Si Si7 0.431695 0.522584 0.210820
O O1 0.948065 0.415192 0.269809
O O2 0.950119 0.361088 0.573024
O O3 0.924452 0.149255 0.332817
O O4 0.066535 0.271966 0.549014
O O5 0.725920 0.780199 0.851547
O O6 0.645787 0.007386 0.692029
O O7 0.615161 0.843573 0.897863
O O8 0.746495 0.188583 0.680887
O O9 0.838966 0.365368 0.635833
O O10 0.855738 0.084175 0.615480
O O11 0.606737 0.279183 0.663120
O O12 0.475097 0.167727 0.417903
O O13 0.504002 0.421102 0.355036
O O14 0.462333 0.392891 0.592120
#
# Coordination Sequence:
#
# PCOD9136061 Si02
#       7
#     4   4   4   4   4   4   4
#     4  12  22  41  65  96 124 177 214 273 315 407
#     4  10  21  38  66  89 126 167 216 258 327 390
#     4   9  24  41  65  95 129 169 210 282 321 394
#     4  11  22  41  62  98 126 175 215 277 309 412
#     4  10  22  39  67  91 132 167 220 264 330 392
#     4  11  22  39  64  91 133 162 226 260 332 375
#     4  11  25  37  71  94 134 163 229 262 340 372
#
# _framework density 21.430074000000001
#
# number of rings (size 3 to 8) (size 9 to 14) (size 15 to 20)
#    0.857    0.571    2.857    2.571    8.000    0.000 
#    0.000    2.857    0.000    0.000    0.000    0.000 
#    0.000    0.000    0.000    0.000    0.000    0.000 
#
# Total GULP energy -78041.137355 kJ/mol
# GULP energy per Si atom -5574.366954 kJ/mol
# Density = 2.138130 g / cm^3
# Si number density = 21.430074 Si / 1000 Ang^3
#
#
#
# Elastic Constant Matrix: (Units=GPa)
#
#
# Indices 1 2 3 4 5 6 
#
# 1 100.5809 10.4213 28.6645 0.0000 12.0796 0.0000
# 2 10.4213 68.6770 21.2025 0.0000 11.8299 0.0000
# 3 28.6645 21.2025 49.0455 0.0000 3.4951 0.0000
# 4 0.0000 0.0000 0.0000 17.2205 0.0000 -2.7529
# 5 12.0796 11.8299 3.4951 0.0000 33.8900 0.0000
# 6 0.0000 0.0000 0.0000 -2.7529 0.0000 35.0857
#
#
#
# Elastic Compliance Matrix: (Units=1/GPa)
#
#
# Indices 1 2 3 4 5 6 
#
# 1 0.012441 0.001115 -0.007464 0.000000 -0.004054 0.000000
# 2 0.001115 0.017847 -0.007953 0.000000 -0.005807 0.000000
# 3 -0.007464 -0.007953 0.028008 0.000000 0.002548 0.000000
# 4 0.000000 0.000000 0.000000 0.058808 0.000000 0.004614
# 5 -0.004054 -0.005807 0.002548 0.000000 0.032716 0.000000
# 6 0.000000 0.000000 0.000000 0.004614 0.000000 0.028864
#
#
# Mechanical properties :
#
#
# Convention : Reuss Voigt Hill
#
# Bulk Modulus (GPa) = 33.67968 37.65334 35.66651
# Shear Modulus (GPa) = 23.02171 27.77358 25.39764
#
# Velocity S-wave (km/s) = 3.28116 3.60392 3.44632
# Velocity P-wave (km/s) = 5.48679 5.90983 5.70224
#
# Compressibility (1/GPa) = 0.02969149
#
# Stress axis : x y z
#
# Youngs Moduli (GPa) = 80.38097 56.03058 35.70393
#
# Poissons Ratio (x) = -0.06246 0.26649
# Poissons Ratio (y) = -0.08961 0.28396
# Poissons Ratio (z) = 0.59996 0.44562
#
# Static dielectric constant tensor:
#      x y z
#    x 1.867240 0.000000 -0.010780 
#    y 0.000000 1.752990 0.000000 
#    z -0.010780 0.000000 1.855440 
# 
# From -- ./inp_files/11197.got.cif
#   From: 2010.05.17/outbox.cif.g08.bks.cpg/sg9_6_cif.got.tgz:11197.got - 2010.06.03 20:04:27.
