data_PCOD9136201
_publ_section_title
;
Structure prediction by ZEFSAII (Michael W. Deem and Ramdas Pophale) SiO2 
 PCOD9136201
Probable space group: C C
;
_chemical_formula_sum "Si O2"
_cell_formula_units_Z 32
_cell_length_a 14.833880
_cell_length_b 11.618979
_cell_length_c 8.198191
_cell_angle_alpha 90.000000
_cell_angle_beta 110.985105
_cell_angle_gamma 90.000000
_cell_volume 1319.276481
_symmetry_space_group_name_H-M "C C"
_symmetry_group_IT_number 9
_symmetry_cell_setting 'monoclinic'
loop_
_space_group_symop_operation_xyz
x,y,z
x,-y,1/2+z
1/2+x,1/2+y,z
1/2+x,1/2-y,1/2+z
loop_
_atom_site_type_symbol
_atom_site_label
_atom_site_fract_x
_atom_site_fract_y
_atom_site_fract_z
Si Si1 0.539440 0.704299 0.735710
Si Si2 0.623239 0.914729 0.398942
Si Si3 0.812593 0.454170 0.101679
Si Si4 0.255333 0.582794 0.270504
Si Si5 0.443043 0.888643 0.447791
Si Si6 0.129333 0.257629 0.111011
Si Si7 0.329910 0.359112 0.153960
Si Si8 0.162471 0.028720 0.252756
O O1 0.501223 0.781388 0.560924
O O2 0.438608 0.674627 0.757648
O O3 0.605061 0.591034 0.738718
O O4 0.597301 0.778614 0.905513
O O5 0.693231 0.861413 0.584452
O O6 0.530504 0.964870 0.431522
O O7 0.589298 0.828429 0.236607
O O8 0.683044 0.008217 0.336923
O O9 0.875185 0.363989 0.246498
O O10 0.759295 0.523262 0.208587
O O11 0.881290 0.540223 0.041995
O O12 0.713888 0.418541 0.945891
O O13 0.318007 0.488420 0.213910
O O14 0.313364 0.650680 0.446641
O O15 0.244460 0.285717 0.181649
O O16 0.100774 0.126145 0.127506
#
# Coordination Sequence:
#
# PCOD9136201 Si02
#       8
#     4   4   4   4   4   4   4   4
#     4  12  27  42  72 105 146 190 254 303 368 451
#     4  10  21  39  68 103 138 181 245 306 369 440
#     4  10  24  45  74  98 147 194 241 309 370 438
#     4   9  20  42  67  99 139 185 228 312 377 421
#     4  11  24  42  71 110 136 188 253 307 364 448
#     4  11  25  44  67 101 148 193 237 309 378 437
#     4  10  23  42  69 100 144 186 241 300 369 447
#     4  11  24  46  70  96 148 195 241 300 379 438
#
# _framework density 24.255721999999999
#
# number of rings (size 3 to 8) (size 9 to 14) (size 15 to 20)
#    0.000    1.500    1.250    2.250    5.250    6.000 
#    0.000    0.000    0.000    0.000    0.000    0.000 
#    0.000    0.000    0.000    0.000    0.000    0.000 
#
# Total GULP energy -89188.182628 kJ/mol
# GULP energy per Si atom -5574.261414 kJ/mol
# Density = 2.420051 g / cm^3
# Si number density = 24.255722 Si / 1000 Ang^3
#
#
#
# Elastic Constant Matrix: (Units=GPa)
#
#
# Indices 1 2 3 4 5 6 
#
# 1 119.9479 28.2270 12.8925 0.0000 5.1414 0.0000
# 2 28.2270 75.0445 41.2401 0.0000 -0.1425 0.0000
# 3 12.8925 41.2401 139.2225 0.0000 7.6527 0.0000
# 4 0.0000 0.0000 0.0000 18.1247 0.0000 -2.7507
# 5 5.1414 -0.1425 7.6527 0.0000 34.0097 0.0000
# 6 0.0000 0.0000 0.0000 -2.7507 0.0000 30.4332
#
#
#
# Elastic Compliance Matrix: (Units=1/GPa)
#
#
# Indices 1 2 3 4 5 6 
#
# 1 0.009224 -0.003640 0.000305 0.000000 -0.001478 0.000000
# 2 -0.003640 0.017397 -0.004911 0.000000 0.001728 0.000000
# 3 0.000305 -0.004911 0.008721 0.000000 -0.002029 0.000000
# 4 0.000000 0.000000 0.000000 0.055941 0.000000 0.005056
# 5 -0.001478 0.001728 -0.002029 0.000000 0.030091 0.000000
# 6 0.000000 0.000000 0.000000 0.005056 0.000000 0.033316
#
#
# Mechanical properties :
#
#
# Convention : Reuss Voigt Hill
#
# Bulk Modulus (GPa) = 53.05092 55.43712 54.24402
# Shear Modulus (GPa) = 28.17475 33.30387 30.73931
#
# Velocity S-wave (km/s) = 3.41188 3.70946 3.56378
# Velocity P-wave (km/s) = 6.11884 6.42275 6.27264
#
# Compressibility (1/GPa) = 0.01884981
#
# Stress axis : x y z
#
# Youngs Moduli (GPa) = 108.41130 57.48191 114.66886
#
# Poissons Ratio (x) = 0.20924 -0.03501
# Poissons Ratio (y) = 0.39463 0.56315
# Poissons Ratio (z) = -0.03310 0.28230
#
# Static dielectric constant tensor:
#      x y z
#    x 1.950530 0.000000 -0.010130 
#    y 0.000000 1.976300 0.000000 
#    z -0.010130 0.000000 2.236140 
# 
# From -- ./inp_files/9319.got.cif
#   From: 2010.05.17/outbox.cif.g08.bks.cpg/sg9_5_cif.got.tgz:9319.got - 2010.06.03 20:04:27.
