data_PCOD9136282
_publ_section_title
;
Structure prediction by ZEFSAII (Michael W. Deem and Ramdas Pophale) SiO2 
 PCOD9136282
Probable space group: C C
;
_chemical_formula_sum "Si O2"
_cell_formula_units_Z 32
_cell_length_a 14.686891
_cell_length_b 22.409440
_cell_length_c 12.195195
_cell_angle_alpha 90.000000
_cell_angle_beta 159.700404
_cell_angle_gamma 90.000000
_cell_volume 1392.484203
_symmetry_space_group_name_H-M "C C"
_symmetry_group_IT_number 9
_symmetry_cell_setting 'monoclinic'
loop_
_space_group_symop_operation_xyz
x,y,z
x,-y,1/2+z
1/2+x,1/2+y,z
1/2+x,1/2-y,1/2+z
loop_
_atom_site_type_symbol
_atom_site_label
_atom_site_fract_x
_atom_site_fract_y
_atom_site_fract_z
Si Si1 0.239420 0.707967 0.887020
Si Si2 0.023883 0.155729 0.830423
Si Si3 0.084503 0.983144 0.400771
Si Si4 0.024020 0.541651 0.258492
Si Si5 0.335276 0.353366 0.724861
Si Si6 0.088040 0.344765 0.990704
Si Si7 0.998580 0.218983 0.594788
Si Si8 0.393633 0.919063 0.370977
O O1 0.186768 0.663616 0.725101
O O2 0.989904 0.750580 0.636120
O O3 0.286954 0.666268 0.046490
O O4 0.302903 0.183725 0.168405
O O5 0.050655 0.086407 0.890892
O O6 0.971632 0.162144 0.643133
O O7 0.798019 0.183827 0.646871
O O8 0.243500 0.988369 0.466400
O O9 0.273233 0.017680 0.696470
O O10 0.778318 0.001418 0.048835
O O11 0.049295 0.590630 0.385865
O O12 0.007449 0.573603 0.121989
O O13 0.111082 0.393194 0.532031
O O14 0.356609 0.293464 0.820774
O O15 0.628681 0.379831 0.069483
O O16 0.804972 0.267146 0.430369
#
# Coordination Sequence:
#
# PCOD9136282 Si02
#       8
#     4   4   4   4   4   4   4   4
#     4  12  26  45  67  93 137 188 235 293 354 428
#     4  10  21  40  64  98 137 166 224 293 341 420
#     4  10  22  42  65 103 135 186 220 277 360 414
#     4  10  21  43  68  99 138 171 231 294 339 409
#     4  12  25  45  66  99 140 180 245 291 348 424
#     4  10  21  40  64  90 128 179 217 284 351 398
#     4  12  24  40  69 102 134 179 226 292 367 417
#     4  12  24  45  73 102 139 191 232 294 356 416
#
# _framework density 22.980512000000001
#
# number of rings (size 3 to 8) (size 9 to 14) (size 15 to 20)
#    0.000    1.000    0.000    8.250    0.000    3.000 
#   13.500    0.000    0.000    0.000    0.000    0.000 
#    0.000    0.000    0.000    0.000    0.000    0.000 
#
# Total GULP energy -89259.946286 kJ/mol
# GULP energy per Si atom -5578.746643 kJ/mol
# Density = 2.292821 g / cm^3
# Si number density = 22.980512 Si / 1000 Ang^3
#
#
#
# Elastic Constant Matrix: (Units=GPa)
#
#
# Indices 1 2 3 4 5 6 
#
# 1 100.8207 0.8540 37.6327 -0.0008 4.1332 -0.0028
# 2 0.8540 49.4998 -4.1458 -0.0019 -1.1015 -0.0004
# 3 37.6327 -4.1458 96.6855 -0.0009 27.2156 0.0098
# 4 -0.0008 -0.0019 -0.0009 -5.4677 0.0003 13.5628
# 5 4.1332 -1.1015 27.2156 0.0003 73.0143 0.0025
# 6 -0.0028 -0.0004 0.0098 13.5628 0.0025 45.3174
#
#
#
# Elastic Compliance Matrix: (Units=1/GPa)
#
#
# Indices 1 2 3 4 5 6 
#
# 1 0.011708 -0.000587 -0.004908 0.000002 0.001158 0.000001
# 2 -0.000587 0.020304 0.001121 -0.000004 -0.000078 0.000001
# 3 -0.004908 0.001121 0.013651 -0.000006 -0.004793 -0.000001
# 4 0.000002 -0.000004 -0.000006 -0.104966 0.000001 0.031415
# 5 0.001158 -0.000078 -0.004793 0.000001 0.015416 0.000000
# 6 0.000001 0.000001 -0.000001 0.031415 0.000000 0.012665
#
#
# Mechanical properties :
#
#
# Convention : Reuss Voigt Hill
#
# Bulk Modulus (GPa) = 27.08956 35.07646 31.08301
# Shear Modulus (GPa) = -491.68781 36.75046 -227.46868
#
# Velocity S-wave (km/s) = -14.64319 4.00334 -9.95983
# Velocity P-wave (km/s) = 16.55548 6.05522 10.89537
#
# Compressibility (1/GPa) = 0.03691458
#
# Stress axis : x y z
#
# Youngs Moduli (GPa) = 85.41036 49.25045 73.25685
#
# Poissons Ratio (x) = 0.02893 0.35956
# Poissons Ratio (y) = 0.05016 -0.08214
# Poissons Ratio (z) = 0.41922 -0.05522
#
# Static dielectric constant tensor:
#      x y z
#    x 1.910660 -0.000010 0.040150 
#    y -0.000010 1.772210 -0.000040 
#    z 0.040150 -0.000040 1.959680 
# 
# From -- ./inp_files/18688.got.cif
#   From: 2010.05.17/outbox.cif.g08.bks.cpg/sg9_10_cif.got.tgz:18688.got - 2010.06.03 20:04:27.
