data_PCOD9136540
_publ_section_title
;
Structure prediction by ZEFSAII (Michael W. Deem and Ramdas Pophale) SiO2 
 PCOD9136540
Probable space group: C C
;
_chemical_formula_sum "Si O2"
_cell_formula_units_Z 32
_cell_length_a 5.652528
_cell_length_b 27.003666
_cell_length_c 8.308973
_cell_angle_alpha 90.000000
_cell_angle_beta 102.451964
_cell_angle_gamma 90.000000
_cell_volume 1238.439716
_symmetry_space_group_name_H-M "C C"
_symmetry_group_IT_number 9
_symmetry_cell_setting 'monoclinic'
loop_
_space_group_symop_operation_xyz
x,y,z
x,-y,1/2+z
1/2+x,1/2+y,z
1/2+x,1/2-y,1/2+z
loop_
_atom_site_type_symbol
_atom_site_label
_atom_site_fract_x
_atom_site_fract_y
_atom_site_fract_z
Si Si1 0.807700 0.924183 0.107580
Si Si2 0.881303 0.383790 0.728065
Si Si3 0.789262 0.593886 0.558909
Si Si4 0.810762 0.524471 0.026448
Si Si5 0.077801 0.811870 0.509450
Si Si6 0.770789 0.990192 0.388777
Si Si7 0.444615 0.725396 0.651788
Si Si8 0.311757 0.311290 0.794101
O O1 0.792771 0.975417 0.206337
O O2 0.573026 0.893263 0.128711
O O3 0.067579 0.897759 0.147797
O O4 0.791132 0.951612 0.932424
O O5 0.732670 0.384694 0.873887
O O6 0.900340 0.440450 0.680449
O O7 0.779326 0.354903 0.555761
O O8 0.117770 0.352927 0.810069
O O9 0.801603 0.534298 0.549046
O O10 0.523586 0.536685 0.976215
O O11 0.015729 0.531142 0.918466
O O12 0.942017 0.804871 0.320239
O O13 0.915809 0.826348 0.637234
O O14 0.211872 0.761143 0.589059
O O15 0.466390 0.700027 0.478735
O O16 0.670827 0.760889 0.724379
#
# Coordination Sequence:
#
# PCOD9136540 Si02
#       8
#     4   4   4   4   4   4   4   4
#     4  10  22  38  64  90 117 166 234 302 358 425
#     4  11  26  42  64 100 138 190 244 306 366 421
#     4  10  24  39  66  87 130 180 245 290 355 422
#     4  10  24  39  66  87 130 180 245 290 355 422
#     4  10  21  41  73 107 146 186 226 294 359 447
#     4  10  22  38  64  90 117 166 234 302 358 425
#     4   9  20  42  72 112 142 184 232 270 370 461
#     4  10  21  41  73 107 146 186 226 294 359 447
#
# _framework density 25.838965999999999
#
# number of rings (size 3 to 8) (size 9 to 14) (size 15 to 20)
#    0.000    2.000    0.000    1.500   17.500    0.000 
#    2.250    2.500    0.000    0.000    0.000    0.000 
#    0.000    0.000    0.000    0.000    0.000    0.000 
#
# Total GULP energy -89184.698379 kJ/mol
# GULP energy per Si atom -5574.043649 kJ/mol
# Density = 2.578016 g / cm^3
# Si number density = 25.838966 Si / 1000 Ang^3
#
#
#
# Elastic Constant Matrix: (Units=GPa)
#
#
# Indices 1 2 3 4 5 6 
#
# 1 168.3695 14.2752 43.8359 0.0000 -8.8491 0.0000
# 2 14.2752 77.8428 52.2057 0.0000 0.3023 0.0000
# 3 43.8359 52.2057 155.9261 0.0000 16.1128 0.0000
# 4 0.0000 0.0000 0.0000 43.5642 0.0000 -11.0196
# 5 -8.8491 0.3023 16.1128 0.0000 33.8930 0.0000
# 6 0.0000 0.0000 0.0000 -11.0196 0.0000 27.2818
#
#
#
# Elastic Compliance Matrix: (Units=1/GPa)
#
#
# Indices 1 2 3 4 5 6 
#
# 1 0.006650 0.000281 -0.002253 0.000000 0.002805 0.000000
# 2 0.000281 0.016802 -0.005991 0.000000 0.002772 0.000000
# 3 -0.002253 -0.005991 0.009578 0.000000 -0.005088 0.000000
# 4 0.000000 0.000000 0.000000 0.025567 0.000000 0.010327
# 5 0.002805 0.002772 -0.005088 0.000000 0.032631 0.000000
# 6 0.000000 0.000000 0.000000 0.010327 0.000000 0.040826
#
#
# Mechanical properties :
#
#
# Convention : Reuss Voigt Hill
#
# Bulk Modulus (GPa) = 58.46801 69.19689 63.83245
# Shear Modulus (GPa) = 32.53490 40.40259 36.46874
#
# Velocity S-wave (km/s) = 3.55229 3.95857 3.76092
# Velocity P-wave (km/s) = 6.28506 6.90882 6.60431
#
# Compressibility (1/GPa) = 0.01710337
#
# Stress axis : x y z
#
# Youngs Moduli (GPa) = 150.38558 59.51709 104.40189
#
# Poissons Ratio (x) = -0.01672 0.23525
# Poissons Ratio (y) = -0.04224 0.62545
# Poissons Ratio (z) = 0.33886 0.35656
#
# Static dielectric constant tensor:
#      x y z
#    x 2.172230 0.000000 0.084960 
#    y 0.000000 2.005670 0.000000 
#    z 0.084960 0.000000 2.158780 
# 
# From -- ./inp_files/4401.got.cif
#   From: 2010.05.17/outbox.cif.g08.bks.cpg/sg9_3_cif.got.tgz:4401.got - 2010.06.03 20:04:27.
