data_PCOD9136481
_publ_section_title
;
Structure prediction by ZEFSAII (Michael W. Deem and Ramdas Pophale) SiO2 
 PCOD9136481
Probable space group: C C
;
_chemical_formula_sum "Si O2"
_cell_formula_units_Z 32
_cell_length_a 10.010131
_cell_length_b 17.879589
_cell_length_c 9.572317
_cell_angle_alpha 90.000000
_cell_angle_beta 62.120125
_cell_angle_gamma 90.000000
_cell_volume 1514.370729
_symmetry_space_group_name_H-M "C C"
_symmetry_group_IT_number 9
_symmetry_cell_setting 'monoclinic'
loop_
_space_group_symop_operation_xyz
x,y,z
x,-y,1/2+z
1/2+x,1/2+y,z
1/2+x,1/2-y,1/2+z
loop_
_atom_site_type_symbol
_atom_site_label
_atom_site_fract_x
_atom_site_fract_y
_atom_site_fract_z
Si Si1 0.307920 0.045856 0.862380
Si Si2 0.331185 0.348331 0.607283
Si Si3 0.495012 0.105629 0.234146
Si Si4 0.056298 0.096570 0.770886
Si Si5 0.271929 0.801564 0.010380
Si Si6 0.126278 0.801380 0.801882
Si Si7 0.394004 0.181522 0.989255
Si Si8 0.038291 0.939746 0.713070
O O1 0.204440 0.069371 0.783377
O O2 0.411551 0.974595 0.779774
O O3 0.402554 0.116160 0.871394
O O4 0.182931 0.037777 0.047122
O O5 0.445272 0.356783 0.421769
O O6 0.290869 0.260354 0.620476
O O7 0.424343 0.385053 0.687892
O O8 0.174709 0.392689 0.663404
O O9 0.419837 0.150780 0.400620
O O10 0.456903 0.147328 0.105462
O O11 0.127469 0.147188 0.616801
O O12 0.969138 0.020132 0.778259
O O13 0.226905 0.770170 0.880056
O O14 0.222571 0.795484 0.612656
O O15 0.093601 0.890791 0.818245
O O16 0.978301 0.752853 0.888522
#
# Coordination Sequence:
#
# PCOD9136481 Si02
#       8
#     4   4   4   4   4   4   4   4
#     4  10  21  41  67  91 124 176 220 260 319 403
#     4  11  25  40  63 101 131 158 223 281 317 387
#     4  11  22  41  65  94 130 166 220 266 325 390
#     4  11  23  42  67  90 130 178 216 259 336 393
#     4  11  22  41  68  89 129 177 212 262 334 399
#     4  10  22  41  65  90 127 170 219 261 323 393
#     4  10  22  40  65  93 126 169 216 266 321 386
#     4  10  23  44  64  94 129 176 218 263 327 395
#
# _framework density 21.130889
#
# number of rings (size 3 to 8) (size 9 to 14) (size 15 to 20)
#    0.000    1.500    2.500    3.000    5.250    1.000 
#    4.500    0.000    0.000    0.000    0.000    0.000 
#    0.000    0.000    0.000    0.000    0.000    0.000 
#
# Total GULP energy -89240.037422 kJ/mol
# GULP energy per Si atom -5577.502339 kJ/mol
# Density = 2.108279 g / cm^3
# Si number density = 21.130889 Si / 1000 Ang^3
#
#
#
# Elastic Constant Matrix: (Units=GPa)
#
#
# Indices 1 2 3 4 5 6 
#
# 1 63.5922 14.6498 25.2621 0.0000 -12.9464 0.0000
# 2 14.6498 99.1632 31.2281 0.0000 -6.9834 0.0000
# 3 25.2621 31.2281 65.3111 0.0000 -11.8054 0.0000
# 4 0.0000 0.0000 0.0000 40.6714 0.0000 -1.8378
# 5 -12.9464 -6.9834 -11.8054 0.0000 31.0894 0.0000
# 6 0.0000 0.0000 0.0000 -1.8378 0.0000 21.7359
#
#
#
# Elastic Compliance Matrix: (Units=1/GPa)
#
#
# Indices 1 2 3 4 5 6 
#
# 1 0.019478 -0.000505 -0.006278 0.000000 0.005614 0.000000
# 2 -0.000505 0.011894 -0.005419 0.000000 0.000404 0.000000
# 3 -0.006278 -0.005419 0.021085 0.000000 0.004175 0.000000
# 4 0.000000 0.000000 0.000000 0.024682 0.000000 0.002087
# 5 0.005614 0.000404 0.004175 0.000000 0.036179 0.000000
# 6 0.000000 0.000000 0.000000 0.002087 0.000000 0.046183
#
#
# Mechanical properties :
#
#
# Convention : Reuss Voigt Hill
#
# Bulk Modulus (GPa) = 35.64551 41.14962 38.39756
# Shear Modulus (GPa) = 25.87242 29.16112 27.51677
#
# Velocity S-wave (km/s) = 3.50292 3.71890 3.61252
# Velocity P-wave (km/s) = 5.76768 6.16086 5.96751
#
# Compressibility (1/GPa) = 0.02805403
#
# Stress axis : x y z
#
# Youngs Moduli (GPa) = 51.33895 84.07707 47.42687
#
# Poissons Ratio (x) = 0.04248 0.29774
# Poissons Ratio (y) = 0.02594 0.25699
# Poissons Ratio (z) = 0.32230 0.45558
#
# Static dielectric constant tensor:
#      x y z
#    x 1.799480 0.000000 0.022090 
#    y 0.000000 1.840890 0.000000 
#    z 0.022090 0.000000 1.767230 
# 
# From -- ./inp_files/16867.got.cif
#   From: 2010.05.17/outbox.cif.g08.bks.cpg/sg9_9_cif.got.tgz:16867.got - 2010.06.03 20:04:27.
