data_PCOD9136562
_publ_section_title
;
Structure prediction by ZEFSAII (Michael W. Deem and Ramdas Pophale) SiO2 
 PCOD9136562
Probable space group: C C
;
_chemical_formula_sum "Si O2"
_cell_formula_units_Z 28
_cell_length_a 9.332386
_cell_length_b 12.441257
_cell_length_c 14.334119
_cell_angle_alpha 90.000000
_cell_angle_beta 57.220153
_cell_angle_gamma 90.000000
_cell_volume 1399.260256
_symmetry_space_group_name_H-M "C C"
_symmetry_group_IT_number 9
_symmetry_cell_setting 'monoclinic'
loop_
_space_group_symop_operation_xyz
x,y,z
x,-y,1/2+z
1/2+x,1/2+y,z
1/2+x,1/2-y,1/2+z
loop_
_atom_site_type_symbol
_atom_site_label
_atom_site_fract_x
_atom_site_fract_y
_atom_site_fract_z
Si Si1 0.421470 0.326614 0.542860
Si Si2 0.132327 0.153258 0.601969
Si Si3 0.755272 0.796189 0.253849
Si Si4 0.533347 0.807735 0.167216
Si Si5 0.303394 0.896753 0.861627
Si Si6 0.668093 0.593603 0.797926
Si Si7 0.167932 0.508026 0.213552
O O1 0.266632 0.249327 0.567989
O O2 0.543965 0.258265 0.568357
O O3 0.519957 0.366368 0.417629
O O4 0.332760 0.423487 0.630695
O O5 0.210788 0.082209 0.491980
O O6 0.120241 0.096207 0.706444
O O7 0.945396 0.197464 0.644723
O O8 0.624472 0.750931 0.222516
O O9 0.763677 0.723172 0.341305
O O10 0.698522 0.920395 0.284225
O O11 0.332841 0.828985 0.252879
O O12 0.618589 0.927100 0.144799
O O13 0.228754 0.977975 0.811843
O O14 0.505708 0.918282 0.793790
#
# Coordination Sequence:
#
# PCOD9136562 Si02
#       7
#     4   4   4   4   4   4   4
#     4  11  20  41  71  89 136 174 210 277 321 388
#     4  11  23  40  68  97 127 175 223 266 330 389
#     4  10  21  42  63  98 131 165 222 265 320 394
#     4   8  22  40  62  97 131 160 225 261 316 395
#     4  11  22  43  65  94 138 168 218 280 315 390
#     4  10  23  42  63  95 130 174 220 262 336 384
#     4   9  21  42  64  98 131 166 218 263 324 386
#
# _framework density 20.010573000000001
#
# number of rings (size 3 to 8) (size 9 to 14) (size 15 to 20)
#    0.857    1.143    1.429    1.714    2.000    3.429 
#    2.571    2.857    0.000    0.000    0.000    0.000 
#    0.000    0.000    0.000    0.000    0.000    0.000 
#
# Total GULP energy -78038.009229 kJ/mol
# GULP energy per Si atom -5574.143516 kJ/mol
# Density = 1.996503 g / cm^3
# Si number density = 20.010573 Si / 1000 Ang^3
#
#
#
# Elastic Constant Matrix: (Units=GPa)
#
#
# Indices 1 2 3 4 5 6 
#
# 1 86.1443 19.2802 26.9011 0.0000 5.1538 0.0000
# 2 19.2802 58.9671 28.6865 0.0000 13.9420 0.0000
# 3 26.9011 28.6865 103.9784 0.0000 11.1219 0.0000
# 4 0.0000 0.0000 0.0000 18.2368 0.0000 6.6926
# 5 5.1538 13.9420 11.1219 0.0000 15.7274 0.0000
# 6 0.0000 0.0000 0.0000 6.6926 0.0000 26.7015
#
#
#
# Elastic Compliance Matrix: (Units=1/GPa)
#
#
# Indices 1 2 3 4 5 6 
#
# 1 0.013085 -0.003096 -0.002560 0.000000 0.000267 0.000000
# 2 -0.003096 0.024032 -0.003958 0.000000 -0.017490 0.000000
# 3 -0.002560 -0.003958 0.011799 0.000000 -0.003996 0.000000
# 4 0.000000 0.000000 0.000000 0.060389 0.000000 -0.015136
# 5 0.000267 -0.017490 -0.003996 0.000000 0.081826 0.000000
# 6 0.000000 0.000000 0.000000 -0.015136 0.000000 0.041245
#
#
# Mechanical properties :
#
#
# Convention : Reuss Voigt Hill
#
# Bulk Modulus (GPa) = 33.68415 44.31394 38.99904
# Shear Modulus (GPa) = 19.12048 23.74795 21.43422
#
# Velocity S-wave (km/s) = 3.09450 3.44869 3.27639
# Velocity P-wave (km/s) = 5.44405 6.16857 5.81760
#
# Compressibility (1/GPa) = 0.02968755
#
# Stress axis : x y z
#
# Youngs Moduli (GPa) = 76.42497 41.61141 84.75226
#
# Poissons Ratio (x) = 0.12884 0.21693
# Poissons Ratio (y) = 0.23662 0.33547
# Poissons Ratio (z) = 0.19562 0.16471
#
# Static dielectric constant tensor:
#      x y z
#    x 1.728300 0.000000 0.020760 
#    y 0.000000 1.739750 0.000000 
#    z 0.020760 0.000000 1.681190 
# 
# From -- ./inp_files/14526.got.cif
#   From: 2010.05.17/outbox.cif.g08.bks.cpg/sg9_8_cif.got.tgz:14526.got - 2010.06.03 20:04:27.
