data_PCOD9136879
_publ_section_title
;
Structure prediction by ZEFSAII (Michael W. Deem and Ramdas Pophale) SiO2 
 PCOD9136879
Probable space group: C C
;
_chemical_formula_sum "Si O2"
_cell_formula_units_Z 16
_cell_length_a 7.970400
_cell_length_b 12.974288
_cell_length_c 9.125986
_cell_angle_alpha 90.000000
_cell_angle_beta 72.199051
_cell_angle_gamma 90.000000
_cell_volume 898.539373
_symmetry_space_group_name_H-M "C C"
_symmetry_group_IT_number 9
_symmetry_cell_setting 'monoclinic'
loop_
_space_group_symop_operation_xyz
x,y,z
x,-y,1/2+z
1/2+x,1/2+y,z
1/2+x,1/2-y,1/2+z
loop_
_atom_site_type_symbol
_atom_site_label
_atom_site_fract_x
_atom_site_fract_y
_atom_site_fract_z
Si Si1 0.491330 0.036072 0.658560
Si Si2 0.624158 0.126593 0.317113
Si Si3 0.431823 0.760109 0.361850
Si Si4 0.813340 0.328080 0.712440
O O1 0.549098 0.077161 0.486084
O O2 0.447475 0.130848 0.775017
O O3 0.642771 0.966143 0.694914
O O4 0.333671 0.952318 0.690195
O O5 0.798145 0.188634 0.307268
O O6 0.469669 0.196231 0.286270
O O7 0.624242 0.709017 0.315329
O O8 0.357237 0.778199 0.544236
#
# Coordination Sequence:
#
# PCOD9136879 Si02
#       4
#     4   4   4   4
#     4  10  21  45  58  93 133 157 212 264 297 383
#     4  10  23  42  65  91 130 166 208 263 309 376
#     4  12  22  44  65  93 129 171 207 257 323 368
#     4  10  24  41  66  93 126 168 211 256 315 375
#
# _framework density 17.806676
#
# number of rings (size 3 to 8) (size 9 to 14) (size 15 to 20)
#    1.500    0.000    5.000    0.000    3.500    0.000 
#   13.500    0.000    0.000    0.000    0.000    0.000 
#    0.000    0.000    0.000    0.000    0.000    0.000 
#
# Total GULP energy -44557.677139 kJ/mol
# GULP energy per Si atom -5569.709642 kJ/mol
# Density = 1.776615 g / cm^3
# Si number density = 17.806676 Si / 1000 Ang^3
#
#
#
# Elastic Constant Matrix: (Units=GPa)
#
#
# Indices 1 2 3 4 5 6 
#
# 1 91.3740 27.9681 32.9129 0.0000 9.0502 0.0000
# 2 27.9681 72.3496 12.7867 0.0000 3.3672 0.0000
# 3 32.9129 12.7867 48.3581 0.0000 26.4086 0.0000
# 4 0.0000 0.0000 0.0000 1.6565 0.0000 14.8045
# 5 9.0502 3.3672 26.4086 0.0000 25.0044 0.0000
# 6 0.0000 0.0000 0.0000 14.8045 0.0000 33.0338
#
#
#
# Elastic Compliance Matrix: (Units=1/GPa)
#
#
# Indices 1 2 3 4 5 6 
#
# 1 0.017371 -0.004159 -0.017947 0.000000 0.013227 0.000000
# 2 -0.004159 0.015760 -0.002362 0.000000 0.001877 0.000000
# 3 -0.017947 -0.002362 0.070405 0.000000 -0.067545 0.000000
# 4 0.000000 0.000000 0.000000 -0.200872 0.000000 0.090023
# 5 0.013227 0.001877 -0.067545 0.000000 0.106291 0.000000
# 6 0.000000 0.000000 0.000000 0.090023 0.000000 -0.010073
#
#
# Mechanical properties :
#
#
# Convention : Reuss Voigt Hill
#
# Bulk Modulus (GPa) = 18.31479 39.93523 29.12501
# Shear Modulus (GPa) = 75.73811 21.16654 48.45233
#
# Velocity S-wave (km/s) = 6.52885 3.45147 5.22200
# Velocity P-wave (km/s) = 8.19403 6.19349 7.26297
#
# Compressibility (1/GPa) = 0.05460067
#
# Stress axis : x y z
#
# Youngs Moduli (GPa) = 57.56577 63.45365 14.20354
#
# Poissons Ratio (x) = 0.26391 0.25491
# Poissons Ratio (y) = 0.23942 0.03354
# Poissons Ratio (z) = 1.03313 0.14985
#
# Static dielectric constant tensor:
#      x y z
#    x 1.586640 0.000000 0.028100 
#    y 0.000000 1.617640 0.000000 
#    z 0.028100 0.000000 1.595570 
# 
# From -- ./inp_files/3511.got.cif
#   From: 2010.05.17/outbox.cif.g08.bks.cpg/sg9_2_cif.got.tgz:3511.got - 2010.06.03 20:04:27.
