data_PCOD9136963
_publ_section_title
;
Structure prediction by ZEFSAII (Michael W. Deem and Ramdas Pophale) SiO2 
 PCOD9136963
Probable space group: C C
;
_chemical_formula_sum "Si O2"
_cell_formula_units_Z 24
_cell_length_a 7.179563
_cell_length_b 19.128403
_cell_length_c 12.841229
_cell_angle_alpha 90.000000
_cell_angle_beta 33.763908
_cell_angle_gamma 90.000000
_cell_volume 980.121724
_symmetry_space_group_name_H-M "C C"
_symmetry_group_IT_number 9
_symmetry_cell_setting 'monoclinic'
loop_
_space_group_symop_operation_xyz
x,y,z
x,-y,1/2+z
1/2+x,1/2+y,z
1/2+x,1/2-y,1/2+z
loop_
_atom_site_type_symbol
_atom_site_label
_atom_site_fract_x
_atom_site_fract_y
_atom_site_fract_z
Si Si1 0.059030 0.786926 0.084470
Si Si2 0.077264 0.172003 0.210447
Si Si3 0.236053 0.410310 0.047582
Si Si4 0.703780 0.180271 0.173251
Si Si5 0.595513 0.904596 0.332882
Si Si6 0.472037 0.033064 0.253565
O O1 0.285051 0.737755 0.051766
O O2 0.775619 0.734940 0.172253
O O3 0.922984 0.856657 0.204975
O O4 0.307461 0.808533 0.877881
O O5 0.823043 0.136438 0.409588
O O6 0.900894 0.193334 0.186327
O O7 0.343226 0.115267 0.041525
O O8 0.590325 0.441319 0.926999
O O9 0.050622 0.374901 0.233298
O O10 0.024898 0.480942 0.131668
O O11 0.717818 0.099264 0.134713
O O12 0.562087 0.986229 0.314850
#
# Coordination Sequence:
#
# PCOD9136963 Si02
#       6
#     4   4   4   4   4   4
#     4  12  24  48  71 108 154 191 254 315 367 457
#     4  12  26  46  75 106 147 206 245 308 384 436
#     4  10  23  46  71 107 151 189 248 314 367 446
#     4  12  26  45  76 111 146 198 257 304 383 455
#     4  10  24  44  76 101 148 196 244 315 370 447
#     4  10  21  47  71 105 152 186 252 316 361 463
#
# _framework density 24.486754000000001
#
# number of rings (size 3 to 8) (size 9 to 14) (size 15 to 20)
#    1.000    0.000    5.000    1.000    2.333    1.333 
#    0.000    3.333    0.000    0.000    0.000    0.000 
#    0.000    0.000    0.000    0.000    0.000    0.000 
#
# Total GULP energy -66881.599292 kJ/mol
# GULP energy per Si atom -5573.466608 kJ/mol
# Density = 2.443102 g / cm^3
# Si number density = 24.486754 Si / 1000 Ang^3
#
#
#
# Elastic Constant Matrix: (Units=GPa)
#
#
# Indices 1 2 3 4 5 6 
#
# 1 64.5217 33.3194 -23.6827 0.0001 6.2860 0.0000
# 2 33.3194 118.2679 0.8683 -0.0001 9.4111 0.0000
# 3 -23.6827 0.8683 42.2385 -0.0010 16.1679 0.0007
# 4 0.0001 -0.0001 -0.0010 35.7315 0.0001 10.7544
# 5 6.2860 9.4111 16.1679 0.0001 28.2666 -0.0002
# 6 0.0000 0.0000 0.0007 10.7544 -0.0002 27.3328
#
#
#
# Elastic Compliance Matrix: (Units=1/GPa)
#
#
# Indices 1 2 3 4 5 6 
#
# 1 0.029439 -0.007068 0.023374 0.000001 -0.017563 -0.000001
# 2 -0.007068 0.010429 -0.004417 0.000000 0.000626 0.000000
# 3 0.023374 -0.004417 0.049034 0.000002 -0.031774 -0.000002
# 4 0.000001 0.000000 0.000002 0.031746 -0.000002 -0.012491
# 5 -0.017563 0.000626 -0.031774 -0.000002 0.057249 0.000002
# 6 -0.000001 0.000000 -0.000002 -0.012491 0.000002 0.041501
#
#
# Mechanical properties :
#
#
# Convention : Reuss Voigt Hill
#
# Bulk Modulus (GPa) = 8.87454 27.33758 18.10606
# Shear Modulus (GPa) = 21.44271 32.56772 27.00522
#
# Velocity S-wave (km/s) = 2.96241 3.65089 3.32452
# Velocity P-wave (km/s) = 3.91577 5.38149 4.70605
#
# Compressibility (1/GPa) = 0.11268188
#
# Stress axis : x y z
#
# Youngs Moduli (GPa) = 33.96832 95.88431 20.39399
#
# Poissons Ratio (x) = 0.67770 -0.47670
# Poissons Ratio (y) = 0.24008 0.09008
# Poissons Ratio (z) = -0.79399 0.42350
#
# Static dielectric constant tensor:
#      x y z
#    x 1.975370 0.000000 -0.053010 
#    y 0.000000 2.115380 0.000000 
#    z -0.053010 0.000000 1.986900 
# 
# From -- ./inp_files/23630.got.cif
#   From: 2010.05.17/outbox.cif.g08.bks.cpg/sg9_12_cif.got.tgz:23630.got - 2010.06.03 20:04:27.
