data_PCOD9136471
_publ_section_title
;
Structure prediction by ZEFSAII (Michael W. Deem and Ramdas Pophale) SiO2 
 PCOD9136471
Probable space group: C C
;
_chemical_formula_sum "Si O2"
_cell_formula_units_Z 32
_cell_length_a 14.989114
_cell_length_b 15.886690
_cell_length_c 9.439680
_cell_angle_alpha 90.000000
_cell_angle_beta 141.796275
_cell_angle_gamma 90.000000
_cell_volume 1390.202006
_symmetry_space_group_name_H-M "C C"
_symmetry_group_IT_number 9
_symmetry_cell_setting 'monoclinic'
loop_
_space_group_symop_operation_xyz
x,y,z
x,-y,1/2+z
1/2+x,1/2+y,z
1/2+x,1/2-y,1/2+z
loop_
_atom_site_type_symbol
_atom_site_label
_atom_site_fract_x
_atom_site_fract_y
_atom_site_fract_z
Si Si1 0.190130 0.876094 0.422080
Si Si2 0.493649 0.834664 0.901826
Si Si3 0.632155 0.190335 0.274355
Si Si4 0.590385 0.445106 0.830691
Si Si5 0.997441 0.150524 0.963535
Si Si6 0.306043 0.461718 0.072696
Si Si7 0.883926 0.407908 0.319194
Si Si8 0.515771 0.948187 0.183314
O O1 0.356264 0.884111 0.671898
O O2 0.173522 0.789112 0.312650
O O3 0.098366 0.863161 0.452214
O O4 0.141354 0.968867 0.314825
O O5 0.595770 0.822585 0.895217
O O6 0.437438 0.743471 0.877933
O O7 0.555212 0.877195 0.118062
O O8 0.756797 0.117839 0.407869
O O9 0.485291 0.168070 0.005466
O O10 0.580977 0.369155 0.709198
O O11 0.431821 0.473767 0.684228
O O12 0.710214 0.416368 0.094555
O O13 0.871583 0.083039 0.791391
O O14 0.161086 0.510696 0.922006
O O15 0.928458 0.417937 0.210233
O O16 0.935474 0.482690 0.486999
#
# Coordination Sequence:
#
# PCOD9136471 Si02
#       8
#     4   4   4   4   4   4   4   4
#     4  10  21  41  66  97 127 182 224 274 331 410
#     4  11  21  41  71  96 132 179 230 270 334 409
#     4  10  23  42  69 100 132 180 230 279 338 406
#     4  11  24  39  66 100 133 174 220 286 330 401
#     4  10  23  40  63  97 135 174 226 271 341 405
#     4  10  23  38  64  96 131 172 223 281 332 397
#     4  11  24  42  67  99 134 171 228 281 337 400
#     4  11  23  41  68  99 130 180 225 280 333 404
#
# _framework density 23.018238
#
# number of rings (size 3 to 8) (size 9 to 14) (size 15 to 20)
#    0.000    1.500    2.500    2.250    7.000    0.000 
#    0.000    5.000    0.000    0.000    0.000    0.000 
#    0.000    0.000    0.000    0.000    0.000    0.000 
#
# Total GULP energy -89314.267769 kJ/mol
# GULP energy per Si atom -5582.141736 kJ/mol
# Density = 2.296585 g / cm^3
# Si number density = 23.018238 Si / 1000 Ang^3
#
#
#
# Elastic Constant Matrix: (Units=GPa)
#
#
# Indices 1 2 3 4 5 6 
#
# 1 54.6453 8.1030 28.7916 0.0000 -2.3926 0.0000
# 2 8.1030 42.3399 6.2776 0.0000 -5.5425 0.0000
# 3 28.7916 6.2776 102.0365 0.0000 9.5369 0.0000
# 4 0.0000 0.0000 0.0000 18.3282 0.0000 0.8846
# 5 -2.3926 -5.5425 9.5369 0.0000 38.3469 0.0000
# 6 0.0000 0.0000 0.0000 0.8846 0.0000 20.4609
#
#
#
# Elastic Compliance Matrix: (Units=1/GPa)
#
#
# Indices 1 2 3 4 5 6 
#
# 1 0.022177 -0.002978 -0.006310 0.000000 0.002523 0.000000
# 2 -0.002978 0.024820 -0.001028 0.000000 0.003657 0.000000
# 3 -0.006310 -0.001028 0.011973 0.000000 -0.003520 0.000000
# 4 0.000000 0.000000 0.000000 0.054675 0.000000 -0.002364
# 5 0.002523 0.003657 -0.003520 0.000000 0.027639 0.000000
# 6 0.000000 0.000000 0.000000 -0.002364 0.000000 0.048976
#
#
# Mechanical properties :
#
#
# Convention : Reuss Voigt Hill
#
# Bulk Modulus (GPa) = 26.08536 31.70735 28.89635
# Shear Modulus (GPa) = 22.35421 25.81716 24.08569
#
# Velocity S-wave (km/s) = 3.11971 3.35266 3.23828
# Velocity P-wave (km/s) = 4.93294 5.36581 5.15392
#
# Compressibility (1/GPa) = 0.03833568
#
# Stress axis : x y z
#
# Youngs Moduli (GPa) = 45.09259 40.29076 83.51977
#
# Poissons Ratio (x) = 0.12000 0.52702
# Poissons Ratio (y) = 0.13430 0.08589
# Poissons Ratio (z) = 0.28454 0.04144
#
# Static dielectric constant tensor:
#      x y z
#    x 1.907480 0.000000 0.033480 
#    y 0.000000 1.913360 0.000000 
#    z 0.033480 0.000000 1.844500 
# 
# From -- ./inp_files/9972.got.cif
#   From: 2010.05.17/outbox.cif.g08.bks.cpg/sg9_5_cif.got.tgz:9972.got - 2010.06.03 20:04:27.
