data_PCOD9136658
_publ_section_title
;
Structure prediction by ZEFSAII (Michael W. Deem and Ramdas Pophale) SiO2 
 PCOD9136658
Probable space group: C C
;
_chemical_formula_sum "Si O2"
_cell_formula_units_Z 20
_cell_length_a 9.570896
_cell_length_b 10.822121
_cell_length_c 9.826497
_cell_angle_alpha 90.000000
_cell_angle_beta 130.403436
_cell_angle_gamma 90.000000
_cell_volume 775.056381
_symmetry_space_group_name_H-M "C C"
_symmetry_group_IT_number 9
_symmetry_cell_setting 'monoclinic'
loop_
_space_group_symop_operation_xyz
x,y,z
x,-y,1/2+z
1/2+x,1/2+y,z
1/2+x,1/2-y,1/2+z
loop_
_atom_site_type_symbol
_atom_site_label
_atom_site_fract_x
_atom_site_fract_y
_atom_site_fract_z
Si Si1 0.247070 0.116512 0.808340
Si Si2 0.508109 0.622826 0.169387
Si Si3 0.295497 0.685153 0.778880
Si Si4 0.128725 0.337976 0.901646
Si Si5 0.146370 0.352648 0.612397
O O1 0.227560 0.207680 0.925472
O O2 0.142926 0.201830 0.631286
O O3 0.463952 0.103927 0.919624
O O4 0.144517 0.990852 0.773676
O O5 0.621689 0.750660 0.240020
O O6 0.341917 0.628439 0.168646
O O7 0.416631 0.612052 0.962466
O O8 0.231129 0.617004 0.601098
O O9 0.425385 0.799065 0.814770
O O10 0.135232 0.405264 0.760644
#
# Coordination Sequence:
#
# PCOD9136658 Si02
#       5
#     4   4   4   4   4
#     4  10  22  46  77 108 147 202 254 310 391 451
#     4  11  24  45  76 112 156 194 255 324 386 447
#     4  10  21  42  71 108 151 189 243 324 374 453
#     4   9  18  43  73  94 148 196 239 304 380 446
#     4  10  21  46  77 106 150 197 257 316 369 475
#
# _framework density 25.804573999999999
#
# number of rings (size 3 to 8) (size 9 to 14) (size 15 to 20)
#    1.200    0.800    2.000    1.200    0.000    0.000 
#   25.200    0.000    0.000    0.000    0.000    0.000 
#    0.000    0.000    0.000    0.000    0.000    0.000 
#
# Total GULP energy -55946.377761 kJ/mol
# GULP energy per Si atom -5594.637776 kJ/mol
# Density = 2.574584 g / cm^3
# Si number density = 25.804574 Si / 1000 Ang^3
#
#
#
# Elastic Constant Matrix: (Units=GPa)
#
#
# Indices 1 2 3 4 5 6 
#
# 1 170.4979 10.2098 28.2043 0.0000 21.4768 0.0000
# 2 10.2098 59.4638 -4.2700 0.0000 8.2214 0.0000
# 3 28.2043 -4.2700 113.0530 0.0000 6.3309 0.0000
# 4 0.0000 0.0000 0.0000 38.9837 0.0000 20.2345
# 5 21.4768 8.2214 6.3309 0.0000 42.7213 0.0000
# 6 0.0000 0.0000 0.0000 20.2345 0.0000 20.4711
#
#
#
# Elastic Compliance Matrix: (Units=1/GPa)
#
#
# Indices 1 2 3 4 5 6 
#
# 1 0.006528 -0.000827 -0.001497 0.000000 -0.002901 0.000000
# 2 -0.000827 0.017462 0.001039 0.000000 -0.003099 0.000000
# 3 -0.001497 0.001039 0.009304 0.000000 -0.000826 0.000000
# 4 0.000000 0.000000 0.000000 0.052679 0.000000 -0.052070
# 5 -0.002901 -0.003099 -0.000826 0.000000 0.025584 0.000000
# 6 0.000000 0.000000 0.000000 -0.052070 0.000000 0.100318
#
#
# Mechanical properties :
#
#
# Convention : Reuss Voigt Hill
#
# Bulk Modulus (GPa) = 32.54793 45.70031 39.12412
# Shear Modulus (GPa) = 22.25317 41.02659 31.63988
#
# Velocity S-wave (km/s) = 2.93980 3.99168 3.50542
# Velocity P-wave (km/s) = 4.91568 6.24446 5.61948
#
# Compressibility (1/GPa) = 0.03072392
#
# Stress axis : x y z
#
# Youngs Moduli (GPa) = 153.19145 57.26701 107.47502
#
# Poissons Ratio (x) = 0.04738 0.16093
# Poissons Ratio (y) = 0.12673 -0.11171
# Poissons Ratio (z) = 0.22938 -0.05953
#
# Static dielectric constant tensor:
#      x y z
#    x 2.028170 0.000000 -0.031100 
#    y 0.000000 2.060530 0.000000 
#    z -0.031100 0.000000 2.009230 
# 
# From -- ./inp_files/6817.got.cif
#   From: 2010.05.17/outbox.cif.g08.bks.cpg/sg9_4_cif.got.tgz:6817.got - 2010.06.03 20:04:27.
