data_PCOD9136668
_publ_section_title
;
Structure prediction by ZEFSAII (Michael W. Deem and Ramdas Pophale) SiO2 
 PCOD9136668
Probable space group: C C
;
_chemical_formula_sum "Si O2"
_cell_formula_units_Z 28
_cell_length_a 19.454784
_cell_length_b 5.290860
_cell_length_c 10.364495
_cell_angle_alpha 90.000000
_cell_angle_beta 89.943366
_cell_angle_gamma 90.000000
_cell_volume 1066.843259
_symmetry_space_group_name_H-M "C C"
_symmetry_group_IT_number 9
_symmetry_cell_setting 'monoclinic'
loop_
_space_group_symop_operation_xyz
x,y,z
x,-y,1/2+z
1/2+x,1/2+y,z
1/2+x,1/2-y,1/2+z
loop_
_atom_site_type_symbol
_atom_site_label
_atom_site_fract_x
_atom_site_fract_y
_atom_site_fract_z
Si Si1 0.875000 0.469669 0.146620
Si Si2 0.578686 0.095445 0.038991
Si Si3 0.209249 0.305669 0.081048
Si Si4 0.010895 0.331244 0.284747
Si Si5 0.842254 0.018098 0.518392
Si Si6 0.756674 0.706975 0.823693
Si Si7 0.120588 0.959511 0.222341
O O1 0.884147 0.743776 0.078572
O O2 0.804188 0.461236 0.229790
O O3 0.932738 0.368894 0.245407
O O4 0.875457 0.252385 0.036639
O O5 0.650499 0.964777 0.010824
O O6 0.527371 0.057643 0.923379
O O7 0.548420 0.982730 0.170442
O O8 0.595843 0.381131 0.079449
O O9 0.238049 0.108907 0.972089
O O10 0.273610 0.483257 0.107825
O O11 0.172250 0.192843 0.204026
O O12 0.050946 0.059537 0.288500
O O13 0.809055 0.075404 0.378738
O O14 0.678686 0.737837 0.769206
#
# Coordination Sequence:
#
# PCOD9136668 Si02
#       7
#     4   4   4   4   4   4   4
#     4  12  26  49  68 109 146 205 249 307 386 461
#     4  11  24  47  71 110 149 197 255 316 389 467
#     4   9  21  39  69 105 137 186 243 318 376 437
#     4  11  29  43  76 104 156 207 253 320 387 478
#     4  10  26  44  71 104 145 188 250 308 376 451
#     4  10  21  42  74 103 145 191 244 324 372 454
#     4  11  21  44  71 107 144 188 256 313 390 448
#
# _framework density 26.245656
#
# number of rings (size 3 to 8) (size 9 to 14) (size 15 to 20)
#    0.857    0.571    1.429    2.571    4.000    3.429 
#    5.143    0.000    0.000    0.000    0.000    0.000 
#    0.000    0.000    0.000    0.000    0.000    0.000 
#
# Total GULP energy -78015.891659 kJ/mol
# GULP energy per Si atom -5572.563690 kJ/mol
# Density = 2.618592 g / cm^3
# Si number density = 26.245656 Si / 1000 Ang^3
#
#
#
# Elastic Constant Matrix: (Units=GPa)
#
#
# Indices 1 2 3 4 5 6 
#
# 1 134.5834 25.7860 34.3979 0.0000 29.9846 0.0000
# 2 25.7860 85.6189 3.2252 0.0000 3.3083 0.0000
# 3 34.3979 3.2252 92.5415 0.0000 31.0412 0.0000
# 4 0.0000 0.0000 0.0000 13.0646 0.0000 1.6876
# 5 29.9846 3.3083 31.0412 0.0000 48.8743 0.0000
# 6 0.0000 0.0000 0.0000 1.6876 0.0000 25.9256
#
#
#
# Elastic Compliance Matrix: (Units=1/GPa)
#
#
# Indices 1 2 3 4 5 6 
#
# 1 0.009392 -0.002587 -0.001940 0.000000 -0.004355 0.000000
# 2 -0.002587 0.012425 0.000354 0.000000 0.000522 0.000000
# 3 -0.001940 0.000354 0.014135 0.000000 -0.007811 0.000000
# 4 0.000000 0.000000 0.000000 0.077192 0.000000 -0.005025
# 5 -0.004355 0.000522 -0.007811 0.000000 0.028058 0.000000
# 6 0.000000 0.000000 0.000000 -0.005025 0.000000 0.038899
#
#
# Mechanical properties :
#
#
# Convention : Reuss Voigt Hill
#
# Bulk Modulus (GPa) = 36.22552 48.84019 42.53286
# Shear Modulus (GPa) = 25.29720 34.19521 29.74621
#
# Velocity S-wave (km/s) = 3.10798 3.61347 3.37022
# Velocity P-wave (km/s) = 5.16835 6.00490 5.60226
#
# Compressibility (1/GPa) = 0.02760485
#
# Stress axis : x y z
#
# Youngs Moduli (GPa) = 106.47171 80.48023 70.74705
#
# Poissons Ratio (x) = 0.20823 0.13726
# Poissons Ratio (y) = 0.27547 -0.02502
# Poissons Ratio (z) = 0.20658 -0.02847
#
# Static dielectric constant tensor:
#      x y z
#    x 2.119740 0.000000 0.001840 
#    y 0.000000 2.220190 0.000000 
#    z 0.001840 0.000000 2.175220 
# 
# From -- ./inp_files/19609.got.cif
#   From: 2010.05.17/outbox.cif.g08.bks.cpg/sg9_10_cif.got.tgz:19609.got - 2010.06.03 20:04:27.
