data_PCOD9136695
_publ_section_title
;
Structure prediction by ZEFSAII (Michael W. Deem and Ramdas Pophale) SiO2 
 PCOD9136695
Probable space group: C C
;
_chemical_formula_sum "Si O2"
_cell_formula_units_Z 24
_cell_length_a 12.312022
_cell_length_b 5.137775
_cell_length_c 23.901340
_cell_angle_alpha 90.000000
_cell_angle_beta 46.091787
_cell_angle_gamma 90.000000
_cell_volume 1089.260086
_symmetry_space_group_name_H-M "C C"
_symmetry_group_IT_number 9
_symmetry_cell_setting 'monoclinic'
loop_
_space_group_symop_operation_xyz
x,y,z
x,-y,1/2+z
1/2+x,1/2+y,z
1/2+x,1/2-y,1/2+z
loop_
_atom_site_type_symbol
_atom_site_label
_atom_site_fract_x
_atom_site_fract_y
_atom_site_fract_z
Si Si1 0.484070 0.016586 0.114020
Si Si2 0.216418 0.347531 0.720564
Si Si3 0.168654 0.033205 0.032085
Si Si4 0.346277 0.584939 0.295783
Si Si5 0.357442 0.101237 0.359801
Si Si6 0.650169 0.762234 0.152558
O O1 0.311429 0.916463 0.172844
O O2 0.580386 0.796472 0.046467
O O3 0.539642 0.961261 0.157693
O O4 0.548606 0.298361 0.077313
O O5 0.240062 0.553764 0.662019
O O6 0.037552 0.357037 0.795360
O O7 0.287202 0.442351 0.754016
O O8 0.226369 0.103051 0.074510
O O9 0.296668 0.956455 0.943138
O O10 0.289922 0.358360 0.356002
O O11 0.528456 0.579655 0.226093
O O12 0.312843 0.860082 0.336330
#
# Coordination Sequence:
#
# PCOD9136695 Si02
#       6
#     4   4   4   4   4   4
#     4   9  21  39  64  95 128 174 221 274 335 401
#     4  10  22  43  70  99 127 182 233 270 331 411
#     4  10  21  43  64  94 143 169 216 292 344 375
#     4  10  23  40  65  97 131 175 221 274 334 402
#     4  11  24  43  66  94 138 174 219 282 335 395
#     4   8  21  38  67  95 129 172 226 278 325 402
#
# _framework density 22.033304999999999
#
# number of rings (size 3 to 8) (size 9 to 14) (size 15 to 20)
#    1.000    1.333    0.000    1.000    7.000    5.333 
#    3.000    1.667    0.000    0.000    0.000    0.000 
#    0.000    0.000    0.000    0.000    0.000    0.000 
#
# Total GULP energy -66912.725392 kJ/mol
# GULP energy per Si atom -5576.060449 kJ/mol
# Density = 2.198316 g / cm^3
# Si number density = 22.033305 Si / 1000 Ang^3
#
#
#
# Elastic Constant Matrix: (Units=GPa)
#
#
# Indices 1 2 3 4 5 6 
#
# 1 105.0184 63.7218 35.2181 0.0073 -0.7642 -0.0056
# 2 63.7218 123.1519 36.0693 -0.0142 6.0560 0.0745
# 3 35.2181 36.0693 97.2035 -0.0019 14.9568 0.0090
# 4 0.0073 -0.0142 -0.0019 25.7663 0.0005 3.0981
# 5 -0.7642 6.0560 14.9568 0.0005 32.5129 -0.0072
# 6 -0.0056 0.0745 0.0090 3.0981 -0.0072 26.4437
#
#
#
# Elastic Compliance Matrix: (Units=1/GPa)
#
#
# Indices 1 2 3 4 5 6 
#
# 1 0.014810 -0.006849 -0.003309 -0.000011 0.003146 0.000026
# 2 -0.006849 0.012278 -0.001827 0.000013 -0.001607 -0.000037
# 3 -0.003309 -0.001827 0.013048 0.000001 -0.005740 -0.000002
# 4 -0.000011 0.000013 0.000001 0.039365 -0.000005 -0.004612
# 5 0.003146 -0.001607 -0.005740 -0.000005 0.033771 0.000017
# 6 0.000026 -0.000037 -0.000002 -0.004612 0.000017 0.038357
#
#
# Mechanical properties :
#
#
# Convention : Reuss Voigt Hill
#
# Bulk Modulus (GPa) = 61.85618 66.15469 64.00544
# Shear Modulus (GPa) = 27.62636 29.63556 28.63096
#
# Velocity S-wave (km/s) = 3.54481 3.67145 3.60869
# Velocity P-wave (km/s) = 6.69993 6.93273 6.81733
#
# Compressibility (1/GPa) = 0.01616653
#
# Stress axis : x y z
#
# Youngs Moduli (GPa) = 67.52078 81.44604 76.64211
#
# Poissons Ratio (x) = 0.55781 0.25358
# Poissons Ratio (y) = 0.46244 0.14004
# Poissons Ratio (z) = 0.22340 0.14882
#
# Static dielectric constant tensor:
#      x y z
#    x 1.843170 0.000000 -0.020350 
#    y 0.000000 1.862170 0.000000 
#    z -0.020350 0.000000 1.804420 
# 
# From -- ./inp_files/37341.got.cif
#   From: 2010.05.17/outbox.cif.g08.bks.cpg/sg9_19_cif.got.tgz:37341.got - 2010.06.03 20:04:27.
