data_PCOD9136989
_publ_section_title
;
Structure prediction by ZEFSAII (Michael W. Deem and Ramdas Pophale) SiO2 
 PCOD9136989
Probable space group: C C
;
_chemical_formula_sum "Si O2"
_cell_formula_units_Z 28
_cell_length_a 14.433339
_cell_length_b 5.567803
_cell_length_c 13.437906
_cell_angle_alpha 90.000000
_cell_angle_beta 84.656649
_cell_angle_gamma 90.000000
_cell_volume 1075.204177
_symmetry_space_group_name_H-M "C C"
_symmetry_group_IT_number 9
_symmetry_cell_setting 'monoclinic'
loop_
_space_group_symop_operation_xyz
x,y,z
x,-y,1/2+z
1/2+x,1/2+y,z
1/2+x,1/2-y,1/2+z
loop_
_atom_site_type_symbol
_atom_site_label
_atom_site_fract_x
_atom_site_fract_y
_atom_site_fract_z
Si Si1 0.868900 0.321038 0.160450
Si Si2 0.458061 0.313569 0.463814
Si Si3 0.648610 0.122920 0.509235
Si Si4 0.148874 0.858696 0.221281
Si Si5 0.889747 0.176646 0.749820
Si Si6 0.171455 0.637791 0.745588
Si Si7 0.619498 0.379381 0.990401
O O1 0.760915 0.342994 0.202321
O O2 0.909524 0.585028 0.181577
O O3 0.917346 0.090876 0.208737
O O4 0.872807 0.237276 0.045529
O O5 0.537594 0.144608 0.504423
O O6 0.429648 0.277605 0.354429
O O7 0.513607 0.566433 0.467877
O O8 0.673637 0.127560 0.623212
O O9 0.680230 0.379819 0.462726
O O10 0.669424 0.868084 0.458282
O O11 0.121471 0.611262 0.276766
O O12 0.124567 0.108863 0.275777
O O13 0.112754 0.867268 0.112054
O O14 0.778286 0.152168 0.765179
#
# Coordination Sequence:
#
# PCOD9136989 Si02
#       7
#     4   4   4   4   4   4   4
#     4  10  22  35  56  84 111 146 187 231 278 338
#     4  10  22  34  60  81 115 147 185 234 288 327
#     4   8  16  28  52  75 100 145 176 212 278 328
#     4   8  14  30  49  74  97 140 177 216 267 328
#     4  10  22  35  56  81 114 142 190 233 280 331
#     4   8  14  30  49  72 100 140 178 214 269 326
#     4   8  16  28  52  75  99 142 179 212 280 324
#
# _framework density 26.041566
#
# number of rings (size 3 to 8) (size 9 to 14) (size 15 to 20)
#    0.857    2.286    0.000    0.000    4.000    0.000 
#    0.000    0.000    3.143    0.000    0.000    0.000 
#    0.000    0.000    0.000    0.000    0.000    0.000 
#
# Total GULP energy -78166.404029 kJ/mol
# GULP energy per Si atom -5583.314573 kJ/mol
# Density = 2.598229 g / cm^3
# Si number density = 26.041566 Si / 1000 Ang^3
#
#
#
# Elastic Constant Matrix: (Units=GPa)
#
#
# Indices 1 2 3 4 5 6 
#
# 1 91.1585 32.1712 43.7827 0.0000 21.7312 0.0000
# 2 32.1712 244.1888 45.5730 0.0000 -10.7317 0.0000
# 3 43.7827 45.5730 88.0983 0.0000 15.4714 0.0000
# 4 0.0000 0.0000 0.0000 37.8219 0.0000 4.1541
# 5 21.7312 -10.7317 15.4714 0.0000 40.1764 0.0000
# 6 0.0000 0.0000 0.0000 4.1541 0.0000 12.1788
#
#
#
# Elastic Compliance Matrix: (Units=1/GPa)
#
#
# Indices 1 2 3 4 5 6 
#
# 1 0.015914 -0.001246 -0.006107 0.000000 -0.006589 0.000000
# 2 -0.001246 0.004831 -0.002386 0.000000 0.002884 0.000000
# 3 -0.006107 -0.002386 0.016251 0.000000 -0.003592 0.000000
# 4 0.000000 0.000000 0.000000 0.027469 0.000000 -0.009369
# 5 -0.006589 0.002884 -0.003592 0.000000 0.030608 0.000000
# 6 0.000000 0.000000 0.000000 -0.009369 0.000000 0.085306
#
#
# Mechanical properties :
#
#
# Convention : Reuss Voigt Hill
#
# Bulk Modulus (GPa) = 57.08665 74.05550 65.57107
# Shear Modulus (GPa) = 24.30763 38.16332 31.23548
#
# Velocity S-wave (km/s) = 3.05850 3.83231 3.46706
# Velocity P-wave (km/s) = 5.86869 6.93407 6.42350
#
# Compressibility (1/GPa) = 0.01751723
#
# Stress axis : x y z
#
# Youngs Moduli (GPa) = 62.83965 206.97546 61.53408
#
# Poissons Ratio (x) = 0.25798 0.37577
# Poissons Ratio (y) = 0.07832 0.14684
# Poissons Ratio (z) = 0.38375 0.49390
#
# Static dielectric constant tensor:
#      x y z
#    x 1.967430 0.000000 0.015760 
#    y 0.000000 2.212050 0.000000 
#    z 0.015760 0.000000 2.067380 
# 
# From -- ./inp_files/19560.got.cif
#   From: 2010.05.17/outbox.cif.g08.bks.cpg/sg9_10_cif.got.tgz:19560.got - 2010.06.03 20:04:27.
