data_PCOD9136043
_publ_section_title
;
Structure prediction by ZEFSAII (Michael W. Deem and Ramdas Pophale) SiO2 
 PCOD9136043
Probable space group: C C
;
_chemical_formula_sum "Si O2"
_cell_formula_units_Z 28
_cell_length_a 9.477581
_cell_length_b 5.505961
_cell_length_c 23.537139
_cell_angle_alpha 90.000000
_cell_angle_beta 58.560024
_cell_angle_gamma 90.000000
_cell_volume 1047.921076
_symmetry_space_group_name_H-M "C C"
_symmetry_group_IT_number 9
_symmetry_cell_setting 'monoclinic'
loop_
_space_group_symop_operation_xyz
x,y,z
x,-y,1/2+z
1/2+x,1/2+y,z
1/2+x,1/2-y,1/2+z
loop_
_atom_site_type_symbol
_atom_site_label
_atom_site_fract_x
_atom_site_fract_y
_atom_site_fract_z
Si Si1 0.200400 0.091585 0.057560
Si Si2 0.526031 0.038774 0.530159
Si Si3 0.111713 0.217569 0.900387
Si Si4 0.780481 0.660396 0.428245
Si Si5 0.401147 0.543896 0.281413
Si Si6 0.030888 0.456550 0.719995
Si Si7 0.366489 0.361366 0.168465
O O1 0.338847 0.048307 0.076180
O O2 0.120645 0.351410 0.063277
O O3 0.294557 0.032838 0.978039
O O4 0.042908 0.924140 0.103433
O O5 0.532102 0.245555 0.479732
O O6 0.635509 0.830465 0.480144
O O7 0.239967 0.426965 0.854863
O O8 0.956508 0.207472 0.891429
O O9 0.219575 0.976262 0.885133
O O10 0.512536 0.299838 0.257888
O O11 0.341873 0.534578 0.228686
O O12 0.492177 0.803083 0.265578
O O13 0.215382 0.536728 0.662442
O O14 0.902746 0.393593 0.694789
#
# Coordination Sequence:
#
# PCOD9136043 Si02
#       7
#     4   4   4   4   4   4   4
#     4  10  21  40  62  95 130 168 228 274 350 415
#     4  10  21  38  64  95 128 175 218 285 346 417
#     4  10  23  40  62  95 133 176 230 284 351 422
#     4  10  22  39  63  96 129 175 222 284 349 414
#     4  10  26  42  67  98 133 183 228 292 350 425
#     4  10  25  43  66  99 134 178 235 281 356 413
#     4  10  24  42  66  98 137 183 231 290 350 420
#
# _framework density 26.719573
#
# number of rings (size 3 to 8) (size 9 to 14) (size 15 to 20)
#    0.857    1.143    0.000    1.714    6.000    2.286 
#    0.000    0.000    0.000    0.000    0.000    0.000 
#    0.000    0.000    0.000    0.000    0.000    0.000 
#
# Total GULP energy -78083.043847 kJ/mol
# GULP energy per Si atom -5577.360275 kJ/mol
# Density = 2.665876 g / cm^3
# Si number density = 26.719573 Si / 1000 Ang^3
#
#
#
# Elastic Constant Matrix: (Units=GPa)
#
#
# Indices 1 2 3 4 5 6 
#
# 1 181.5230 42.6659 32.9233 0.0000 -39.0501 0.0000
# 2 42.6659 131.2203 25.5959 0.0000 -17.5918 -0.0001
# 3 32.9233 25.5959 82.4142 0.0000 -2.3644 0.0000
# 4 0.0000 0.0000 0.0000 43.2037 0.0000 -0.4422
# 5 -39.0501 -17.5918 -2.3644 0.0000 31.3372 0.0000
# 6 0.0000 -0.0001 0.0000 -0.4422 0.0000 41.5565
#
#
#
# Elastic Compliance Matrix: (Units=1/GPa)
#
#
# Indices 1 2 3 4 5 6 
#
# 1 0.008285 -0.000863 -0.002765 0.000000 0.009631 0.000000
# 2 -0.000863 0.008848 -0.002296 0.000000 0.003718 0.000000
# 3 -0.002765 -0.002296 0.013846 0.000000 -0.003691 0.000000
# 4 0.000000 0.000000 0.000000 0.023149 0.000000 0.000246
# 5 0.009631 0.003718 -0.003691 0.000000 0.045721 0.000000
# 6 0.000000 0.000000 0.000000 0.000246 0.000000 0.024066
#
#
# Mechanical properties :
#
#
# Convention : Reuss Voigt Hill
#
# Bulk Modulus (GPa) = 52.27720 66.39199 59.33459
# Shear Modulus (GPa) = 35.17609 42.81764 38.99687
#
# Velocity S-wave (km/s) = 3.63229 4.00744 3.82447
# Velocity P-wave (km/s) = 6.09909 6.80547 6.46194
#
# Compressibility (1/GPa) = 0.01912880
#
# Stress axis : x y z
#
# Youngs Moduli (GPa) = 120.69462 113.02197 72.22352
#
# Poissons Ratio (x) = 0.09758 0.19973
# Poissons Ratio (y) = 0.10420 0.16585
# Poissons Ratio (z) = 0.33377 0.25954
#
# Static dielectric constant tensor:
#      x y z
#    x 2.163500 0.000000 0.005750 
#    y 0.000000 2.143910 0.000000 
#    z 0.005750 0.000000 2.142150 
# 
# From -- ./inp_files/34861.got.cif
#   From: 2010.05.17/outbox.cif.g08.bks.cpg/sg9_18_cif.got.tgz:34861.got - 2010.06.03 20:04:27.
