data_PCOD9136716
_publ_section_title
;
Structure prediction by ZEFSAII (Michael W. Deem and Ramdas Pophale) SiO2 
 PCOD9136716
Probable space group: C C
;
_chemical_formula_sum "Si O2"
_cell_formula_units_Z 28
_cell_length_a 12.599097
_cell_length_b 7.516453
_cell_length_c 12.057206
_cell_angle_alpha 90.000000
_cell_angle_beta 73.084112
_cell_angle_gamma 90.000000
_cell_volume 1092.420325
_symmetry_space_group_name_H-M "C C"
_symmetry_group_IT_number 9
_symmetry_cell_setting 'monoclinic'
loop_
_space_group_symop_operation_xyz
x,y,z
x,-y,1/2+z
1/2+x,1/2+y,z
1/2+x,1/2-y,1/2+z
loop_
_atom_site_type_symbol
_atom_site_label
_atom_site_fract_x
_atom_site_fract_y
_atom_site_fract_z
Si Si1 0.707820 0.741677 0.449370
Si Si2 0.714283 0.360684 0.699883
Si Si3 0.645151 0.278789 0.309395
Si Si4 0.469477 0.743373 0.224106
Si Si5 0.410829 0.606622 0.823598
Si Si6 0.526321 0.892752 0.657644
Si Si7 0.797670 0.656713 0.952365
O O1 0.700359 0.740926 0.319262
O O2 0.810244 0.874589 0.438578
O O3 0.594783 0.796299 0.541496
O O4 0.751425 0.545514 0.466405
O O5 0.723012 0.571802 0.726839
O O6 0.593068 0.333051 0.683698
O O7 0.797734 0.293898 0.580549
O O8 0.527366 0.384628 0.356267
O O9 0.614429 0.119027 0.235245
O O10 0.705723 0.240529 0.405597
O O11 0.400700 0.560850 0.244716
O O12 0.415307 0.825400 0.354213
O O13 0.480225 0.914316 0.142800
O O14 0.427402 0.778416 0.740619
#
# Coordination Sequence:
#
# PCOD9136716 Si02
#       7
#     4   4   4   4   4   4   4
#     4  11  21  42  72  93 143 181 217 290 344 395
#     4  10  23  40  62 101 135 176 224 279 339 401
#     4   8  19  41  64  89 134 170 222 278 326 395
#     4  11  23  41  65  98 131 174 231 270 346 397
#     4   9  21  43  63 102 130 170 228 274 339 402
#     4  10  21  43  66  95 135 170 227 277 336 401
#     4  11  20  42  68  96 136 179 225 282 332 415
#
# _framework density 25.631159
#
# number of rings (size 3 to 8) (size 9 to 14) (size 15 to 20)
#    0.857    1.143    2.857    0.000    2.000    2.286 
#    2.571    1.429    0.000    0.000    0.000    0.000 
#    0.000    0.000    0.000    0.000    0.000    0.000 
#
# Total GULP energy -78063.888603 kJ/mol
# GULP energy per Si atom -5575.992043 kJ/mol
# Density = 2.557282 g / cm^3
# Si number density = 25.631159 Si / 1000 Ang^3
#
#
#
# Elastic Constant Matrix: (Units=GPa)
#
#
# Indices 1 2 3 4 5 6 
#
# 1 55.3580 -1.0118 11.4502 0.0000 7.1598 0.0000
# 2 -1.0118 92.8101 -14.6372 0.0000 -3.9337 0.0000
# 3 11.4502 -14.6372 100.2970 0.0000 -5.8796 0.0000
# 4 0.0000 0.0000 0.0000 26.7133 0.0000 -10.0504
# 5 7.1598 -3.9337 -5.8796 0.0000 45.8528 0.0000
# 6 0.0000 0.0000 0.0000 -10.0504 0.0000 14.4991
#
#
#
# Elastic Compliance Matrix: (Units=1/GPa)
#
#
# Indices 1 2 3 4 5 6 
#
# 1 0.018983 -0.000312 -0.002406 0.000000 -0.003299 0.000000
# 2 -0.000312 0.011095 0.001727 0.000000 0.001222 0.000000
# 3 -0.002406 0.001727 0.010607 0.000000 0.001884 0.000000
# 4 0.000000 0.000000 0.000000 0.050642 0.000000 0.035104
# 5 -0.003299 0.001222 0.001884 0.000000 0.022671 0.000000
# 6 0.000000 0.000000 0.000000 0.035104 0.000000 0.093303
#
#
# Mechanical properties :
#
#
# Convention : Reuss Voigt Hill
#
# Bulk Modulus (GPa) = 25.83858 26.67418 26.25638
# Shear Modulus (GPa) = 22.50371 34.25729 28.38050
#
# Velocity S-wave (km/s) = 2.96629 3.65985 3.33117
# Velocity P-wave (km/s) = 4.67276 5.31873 5.00617
#
# Compressibility (1/GPa) = 0.03870182
#
# Stress axis : x y z
#
# Youngs Moduli (GPa) = 52.67881 90.12764 94.27296
#
# Poissons Ratio (x) = 0.02815 0.22684
# Poissons Ratio (y) = 0.01646 -0.16277
# Poissons Ratio (z) = 0.12675 -0.15561
#
# Static dielectric constant tensor:
#      x y z
#    x 2.118710 0.000000 0.037680 
#    y 0.000000 2.072940 0.000000 
#    z 0.037680 0.000000 2.003560 
# 
# From -- ./inp_files/25646.got.cif
#   From: 2010.05.17/outbox.cif.g08.bks.cpg/sg9_13_cif.got.tgz:25646.got - 2010.06.03 20:04:27.
