data_PCOD9136364
_publ_section_title
;
Structure prediction by ZEFSAII (Michael W. Deem and Ramdas Pophale) SiO2 
 PCOD9136364
Probable space group: C C
;
_chemical_formula_sum "Si O2"
_cell_formula_units_Z 32
_cell_length_a 9.627510
_cell_length_b 20.734913
_cell_length_c 11.648955
_cell_angle_alpha 90.000000
_cell_angle_beta 139.301896
_cell_angle_gamma 90.000000
_cell_volume 1516.350475
_symmetry_space_group_name_H-M "C C"
_symmetry_group_IT_number 9
_symmetry_cell_setting 'monoclinic'
loop_
_space_group_symop_operation_xyz
x,y,z
x,-y,1/2+z
1/2+x,1/2+y,z
1/2+x,1/2-y,1/2+z
loop_
_atom_site_type_symbol
_atom_site_label
_atom_site_fract_x
_atom_site_fract_y
_atom_site_fract_z
Si Si1 0.347210 0.561112 0.619490
Si Si2 0.910286 0.468221 0.710818
Si Si3 0.360503 0.102586 0.563524
Si Si4 0.322139 0.631109 0.849717
Si Si5 0.024589 0.846694 0.034684
Si Si6 0.586677 0.555357 0.197020
Si Si7 0.157822 0.258696 0.780668
Si Si8 0.757759 0.327121 0.551401
O O1 0.322447 0.592877 0.728167
O O2 0.470991 0.608406 0.609874
O O3 0.479928 0.495519 0.714996
O O4 0.126301 0.545446 0.416414
O O5 0.930892 0.528970 0.639272
O O6 0.729000 0.481498 0.692136
O O7 0.829063 0.401771 0.601241
O O8 0.572396 0.146425 0.706591
O O9 0.181107 0.122615 0.541812
O O10 0.246690 0.100996 0.368097
O O11 0.401321 0.589994 0.008818
O O12 0.524910 0.678668 0.961959
O O13 0.119823 0.779865 0.141096
O O14 0.798485 0.821693 0.845553
O O15 0.950856 0.284442 0.720740
O O16 0.250280 0.203410 0.920983
#
# Coordination Sequence:
#
# PCOD9136364 Si02
#       8
#     4   4   4   4   4   4   4   4
#     4  12  21  41  66  99 136 180 231 273 341 414
#     4  11  22  38  65 102 139 176 222 284 349 408
#     4  12  25  43  66 102 149 179 219 283 358 421
#     4  11  24  42  64 100 139 176 228 275 345 414
#     4  11  24  44  70  99 129 183 229 292 340 396
#     4  11  23  40  63  98 142 182 219 272 344 417
#     4  10  22  44  70  95 131 173 252 283 322 408
#     4  10  21  40  68  99 125 177 232 290 333 388
#
# _framework density 21.103300999999998
#
# number of rings (size 3 to 8) (size 9 to 14) (size 15 to 20)
#    0.000    1.000    6.250    1.500    0.000    0.000 
#    4.500    1.250    0.000    0.000    0.000    0.000 
#    0.000    0.000    0.000    0.000    0.000    0.000 
#
# Total GULP energy -89194.941719 kJ/mol
# GULP energy per Si atom -5574.683857 kJ/mol
# Density = 2.105527 g / cm^3
# Si number density = 21.103301 Si / 1000 Ang^3
#
#
#
# Elastic Constant Matrix: (Units=GPa)
#
#
# Indices 1 2 3 4 5 6 
#
# 1 70.5948 12.4940 24.8596 0.0000 7.5390 0.0000
# 2 12.4940 52.7156 22.2202 0.0000 4.2098 0.0000
# 3 24.8596 22.2202 109.7258 0.0000 18.6189 0.0000
# 4 0.0000 0.0000 0.0000 16.0021 0.0000 6.0307
# 5 7.5390 4.2098 18.6189 0.0000 31.0443 0.0000
# 6 0.0000 0.0000 0.0000 6.0307 0.0000 25.6508
#
#
#
# Elastic Compliance Matrix: (Units=1/GPa)
#
#
# Indices 1 2 3 4 5 6 
#
# 1 0.015766 -0.002422 -0.002769 0.000000 -0.001839 0.000000
# 2 -0.002422 0.021115 -0.003720 0.000000 -0.000044 0.000000
# 3 -0.002769 -0.003720 0.011461 0.000000 -0.005697 0.000000
# 4 0.000000 0.000000 0.000000 0.068567 0.000000 -0.016121
# 5 -0.001839 -0.000044 -0.005697 0.000000 0.036081 0.000000
# 6 0.000000 0.000000 0.000000 -0.016121 0.000000 0.042775
#
#
# Mechanical properties :
#
#
# Convention : Reuss Voigt Hill
#
# Bulk Modulus (GPa) = 32.76619 39.13153 35.94886
# Shear Modulus (GPa) = 22.34524 26.10359 24.22441
#
# Velocity S-wave (km/s) = 3.25753 3.52084 3.39174
# Velocity P-wave (km/s) = 5.45059 5.92549 5.69300
#
# Compressibility (1/GPa) = 0.03051927
#
# Stress axis : x y z
#
# Youngs Moduli (GPa) = 63.42893 47.35912 87.25278
#
# Poissons Ratio (x) = 0.11472 0.24162
# Poissons Ratio (y) = 0.15365 0.32455
# Poissons Ratio (z) = 0.17565 0.17616
#
# Static dielectric constant tensor:
#      x y z
#    x 1.732600 0.000000 0.057300 
#    y 0.000000 1.765130 0.000000 
#    z 0.057300 0.000000 1.879360 
# 
# From -- ./inp_files/5778.got.cif
#   From: 2010.05.17/outbox.cif.g08.bks.cpg/sg9_3_cif.got.tgz:5778.got - 2010.06.03 20:04:27.
