data_PCOD9136744
_publ_section_title
;
Structure prediction by ZEFSAII (Michael W. Deem and Ramdas Pophale) SiO2 
 PCOD9136744
Probable space group: C C
;
_chemical_formula_sum "Si O2"
_cell_formula_units_Z 32
_cell_length_a 22.171961
_cell_length_b 5.152480
_cell_length_c 22.833963
_cell_angle_alpha 90.000000
_cell_angle_beta 153.439059
_cell_angle_gamma 90.000000
_cell_volume 1166.418493
_symmetry_space_group_name_H-M "C C"
_symmetry_group_IT_number 9
_symmetry_cell_setting 'monoclinic'
loop_
_space_group_symop_operation_xyz
x,y,z
x,-y,1/2+z
1/2+x,1/2+y,z
1/2+x,1/2-y,1/2+z
loop_
_atom_site_type_symbol
_atom_site_label
_atom_site_fract_x
_atom_site_fract_y
_atom_site_fract_z
Si Si1 0.570180 0.232455 0.509330
Si Si2 0.418613 0.759505 0.063480
Si Si3 0.660503 0.730083 0.646417
Si Si4 0.797388 0.769263 0.107609
Si Si5 0.687160 0.021919 0.293651
Si Si6 0.700536 0.384793 0.403317
Si Si7 0.981980 0.260594 0.253886
Si Si8 0.417296 0.394751 0.801558
O O1 0.597484 0.450728 0.581890
O O2 0.695545 0.250996 0.573275
O O3 0.448569 0.352197 0.365951
O O4 0.564434 0.951339 0.533620
O O5 0.328106 0.588657 0.940852
O O6 0.340628 0.035903 0.994808
O O7 0.414450 0.687319 0.128158
O O8 0.575092 0.801816 0.184453
O O9 0.697641 0.814124 0.743642
O O10 0.797114 0.747617 0.726890
O O11 0.905391 0.538783 0.195557
O O12 0.882465 0.025915 0.201966
O O13 0.719083 0.768278 0.979482
O O14 0.627269 0.203816 0.292996
O O15 0.625994 0.647245 0.356941
O O16 0.038054 0.267658 0.380645
#
# Coordination Sequence:
#
# PCOD9136744 Si02
#       8
#     4   4   4   4   4   4   4   4
#     4  11  24  47  71 109 144 201 247 320 382 461
#     4  12  27  46  77 108 157 199 267 318 407 464
#     4  11  29  47  74 106 150 200 265 306 387 457
#     4   9  19  40  69 104 147 182 246 311 389 459
#     4  12  29  49  74 111 152 211 259 329 384 480
#     4  12  23  45  73 109 151 195 254 320 396 470
#     4  10  21  43  69 114 142 196 242 324 393 471
#     4   9  22  43  71 103 147 190 250 316 386 456
#
# _framework density 27.434407
#
# number of rings (size 3 to 8) (size 9 to 14) (size 15 to 20)
#    0.750    0.500    3.750    0.750    5.250    3.000 
#    4.500    0.000    0.000    0.000    0.000    0.000 
#    0.000    0.000    0.000    0.000    0.000    0.000 
#
# Total GULP energy -89474.902761 kJ/mol
# GULP energy per Si atom -5592.181423 kJ/mol
# Density = 2.737196 g / cm^3
# Si number density = 27.434407 Si / 1000 Ang^3
#
#
#
# Elastic Constant Matrix: (Units=GPa)
#
#
# Indices 1 2 3 4 5 6 
#
# 1 98.8294 42.1136 50.3919 0.0010 -38.2704 0.0003
# 2 42.1136 101.1258 30.8408 0.0017 -7.4387 0.0074
# 3 50.3919 30.8408 130.1276 -0.0007 -23.5318 0.0001
# 4 0.0010 0.0017 -0.0007 43.1508 0.0002 -9.8583
# 5 -38.2704 -7.4387 -23.5318 0.0002 54.8947 0.0005
# 6 0.0003 0.0074 0.0001 -9.8583 0.0005 36.3160
#
#
#
# Elastic Compliance Matrix: (Units=1/GPa)
#
#
# Indices 1 2 3 4 5 6 
#
# 1 0.018694 -0.005802 -0.003956 0.000000 0.010550 0.000001
# 2 -0.005802 0.012468 -0.001229 -0.000001 -0.002883 -0.000003
# 3 -0.003956 -0.001229 0.009734 0.000000 0.001248 0.000000
# 4 0.000000 -0.000001 0.000000 0.024707 0.000000 0.006707
# 5 0.010550 -0.002883 0.001248 0.000000 0.025716 0.000000
# 6 0.000001 -0.000003 0.000000 0.006707 0.000000 0.029357
#
#
# Mechanical properties :
#
#
# Convention : Reuss Voigt Hill
#
# Bulk Modulus (GPa) = 52.85419 64.08616 58.47018
# Shear Modulus (GPa) = 33.56673 40.65473 37.11073
#
# Velocity S-wave (km/s) = 3.50169 3.85371 3.68191
# Velocity P-wave (km/s) = 5.97131 6.57358 6.27967
#
# Compressibility (1/GPa) = 0.01891998
#
# Stress axis : x y z
#
# Youngs Moduli (GPa) = 53.49432 80.20601 102.73515
#
# Poissons Ratio (x) = 0.46538 0.40642
# Poissons Ratio (y) = 0.31039 0.12629
# Poissons Ratio (z) = 0.21163 0.09859
#
# Static dielectric constant tensor:
#      x y z
#    x 2.125680 0.000000 -0.108800 
#    y 0.000000 2.228190 0.000000 
#    z -0.108800 0.000000 2.349940 
# 
# From -- ./inp_files/20678.got.cif
#   From: 2010.05.17/outbox.cif.g08.bks.cpg/sg9_11_cif.got.tgz:20678.got - 2010.06.03 20:04:27.
