data_PCOD9136057
_publ_section_title
;
Structure prediction by ZEFSAII (Michael W. Deem and Ramdas Pophale) SiO2 
 PCOD9136057
Probable space group: C C
;
_chemical_formula_sum "Si O2"
_cell_formula_units_Z 28
_cell_length_a 7.972583
_cell_length_b 7.197595
_cell_length_c 19.037693
_cell_angle_alpha 90.000000
_cell_angle_beta 73.028845
_cell_angle_gamma 90.000000
_cell_volume 1044.873885
_symmetry_space_group_name_H-M "C C"
_symmetry_group_IT_number 9
_symmetry_cell_setting 'monoclinic'
loop_
_space_group_symop_operation_xyz
x,y,z
x,-y,1/2+z
1/2+x,1/2+y,z
1/2+x,1/2-y,1/2+z
loop_
_atom_site_type_symbol
_atom_site_label
_atom_site_fract_x
_atom_site_fract_y
_atom_site_fract_z
Si Si1 0.684270 0.578718 0.265780
Si Si2 0.140362 0.489803 0.314385
Si Si3 0.234275 0.408051 0.448959
Si Si4 0.184777 0.739552 0.540701
Si Si5 0.857377 0.070285 0.073971
Si Si6 0.077974 0.731058 0.197472
Si Si7 0.760063 0.487331 0.909844
O O1 0.602781 0.780831 0.291598
O O2 0.591584 0.441464 0.222690
O O3 0.690382 0.472140 0.340382
O O4 0.885666 0.637088 0.220591
O O5 0.267794 0.476074 0.365891
O O6 0.187553 0.613152 0.242553
O O7 0.960951 0.568392 0.368536
O O8 0.116905 0.556898 0.505857
O O9 0.392773 0.403387 0.485728
O O10 0.167828 0.199674 0.448923
O O11 0.304961 0.644897 0.585009
O O12 0.026830 0.855463 0.591067
O O13 0.271025 0.860763 0.469165
O O14 0.690984 0.194472 0.114496
#
# Coordination Sequence:
#
# PCOD9136057 Si02
#       7
#     4   4   4   4   4   4   4
#     4  10  24  40  70  95 134 184 235 293 364 433
#     4  10  22  40  65  99 131 178 234 294 362 431
#     4   9  21  37  65  92 129 173 229 280 361 410
#     4  10  22  39  62  95 134 178 234 296 357 430
#     4  10  23  42  63  92 139 186 233 302 355 437
#     4  11  23  46  62  96 142 185 235 295 363 435
#     4  10  21  38  65  99 131 172 228 298 358 426
#
# _framework density 26.797492999999999
#
# number of rings (size 3 to 8) (size 9 to 14) (size 15 to 20)
#    0.857    1.143    0.000    2.571    4.000    8.000 
#    5.143    0.000    0.000    0.000    0.000    0.000 
#    0.000    0.000    0.000    0.000    0.000    0.000 
#
# Total GULP energy -78241.939674 kJ/mol
# GULP energy per Si atom -5588.709977 kJ/mol
# Density = 2.673650 g / cm^3
# Si number density = 26.797493 Si / 1000 Ang^3
#
#
#
# Elastic Constant Matrix: (Units=GPa)
#
#
# Indices 1 2 3 4 5 6 
#
# 1 68.6052 37.6968 17.0387 0.0000 -27.2708 0.0000
# 2 37.6968 119.2218 45.4074 0.0000 8.3060 0.0000
# 3 17.0387 45.4074 90.0656 0.0000 -6.2602 0.0000
# 4 0.0000 0.0000 0.0000 31.6122 0.0000 1.7712
# 5 -27.2708 8.3060 -6.2602 0.0000 21.6164 0.0000
# 6 0.0000 0.0000 0.0000 1.7712 0.0000 46.9746
#
#
#
# Elastic Compliance Matrix: (Units=1/GPa)
#
#
# Indices 1 2 3 4 5 6 
#
# 1 0.079841 -0.038290 0.012475 0.000000 0.119051 0.000000
# 2 -0.038290 0.029459 -0.011994 0.000000 -0.063099 0.000000
# 3 0.012475 -0.011994 0.016537 0.000000 0.025136 0.000000
# 4 0.000000 0.000000 0.000000 0.031700 0.000000 -0.001195
# 5 0.119051 -0.063099 0.025136 0.000000 0.227979 0.000000
# 6 0.000000 0.000000 0.000000 -0.001195 0.000000 0.021333
#
#
# Mechanical properties :
#
#
# Convention : Reuss Voigt Hill
#
# Bulk Modulus (GPa) = 19.91321 53.13095 36.52208
# Shear Modulus (GPa) = 10.01588 31.89061 20.95325
#
# Velocity S-wave (km/s) = 1.93539 3.45347 2.79930
# Velocity P-wave (km/s) = 3.52724 5.98095 4.90985
#
# Compressibility (1/GPa) = 0.05021792
#
# Stress axis : x y z
#
# Youngs Moduli (GPa) = 12.52496 33.94561 60.47026
#
# Poissons Ratio (x) = 1.29979 -0.75437
# Poissons Ratio (y) = 0.47958 0.72528
# Poissons Ratio (z) = -0.15625 0.40715
#
# Static dielectric constant tensor:
#      x y z
#    x 2.177830 0.000000 0.022040 
#    y 0.000000 2.087740 0.000000 
#    z 0.022040 0.000000 2.047390 
# 
# From -- ./inp_files/28998.got.cif
#   From: 2010.05.17/outbox.cif.g08.bks.cpg/sg9_15_cif.got.tgz:28998.got - 2010.06.03 20:04:27.
