data_PCOD9136347
_publ_section_title
;
Structure prediction by ZEFSAII (Michael W. Deem and Ramdas Pophale) SiO2 
 PCOD9136347
Probable space group: C C
;
_chemical_formula_sum "Si O2"
_cell_formula_units_Z 32
_cell_length_a 25.956597
_cell_length_b 7.808866
_cell_length_c 8.948990
_cell_angle_alpha 90.000000
_cell_angle_beta 121.558445
_cell_angle_gamma 90.000000
_cell_volume 1545.623631
_symmetry_space_group_name_H-M "C C"
_symmetry_group_IT_number 9
_symmetry_cell_setting 'monoclinic'
loop_
_space_group_symop_operation_xyz
x,y,z
x,-y,1/2+z
1/2+x,1/2+y,z
1/2+x,1/2-y,1/2+z
loop_
_atom_site_type_symbol
_atom_site_label
_atom_site_fract_x
_atom_site_fract_y
_atom_site_fract_z
Si Si1 0.135870 0.984534 0.229300
Si Si2 0.720315 0.467933 0.608603
Si Si3 0.293330 0.655954 0.586843
Si Si4 0.050087 0.303772 0.126135
Si Si5 0.551871 0.179688 0.987292
Si Si6 0.923601 0.303331 0.795509
Si Si7 0.425022 0.174278 0.941459
Si Si8 0.793414 0.805753 0.732727
O O1 0.155234 0.958697 0.429494
O O2 0.097238 0.156387 0.158041
O O3 0.200596 0.012471 0.249386
O O4 0.101088 0.818428 0.114974
O O5 0.757998 0.302422 0.622330
O O6 0.758519 0.636619 0.629126
O O7 0.364763 0.686465 0.723778
O O8 0.272897 0.472268 0.613624
O O9 0.283348 0.672455 0.394723
O O10 0.048853 0.326907 0.303299
O O11 0.063093 0.488411 0.069754
O O12 0.984951 0.241673 0.966219
O O13 0.486473 0.233192 0.954960
O O14 0.911638 0.485385 0.856655
O O15 0.933956 0.331299 0.634017
O O16 0.365225 0.282443 0.818641
#
# Coordination Sequence:
#
# PCOD9136347 Si02
#       8
#     4   4   4   4   4   4   4   4
#     4  12  28  46  72  97 137 186 230 277 330 412
#     4  12  26  50  68  99 137 184 230 277 337 400
#     4  11  26  44  69 102 136 179 227 281 338 404
#     4  11  25  44  69 102 136 180 224 283 339 397
#     4  11  25  44  69 103 135 179 227 280 340 399
#     4  10  21  40  68 101 138 177 220 281 343 397
#     4  10  21  40  68 101 139 174 224 279 341 402
#     4  11  26  44  69 103 134 181 226 280 342 399
#
# _framework density 20.703616
#
# number of rings (size 3 to 8) (size 9 to 14) (size 15 to 20)
#    0.000    1.000    3.750    3.000    7.000    4.000 
#    0.000    0.000    0.000    0.000    0.000    0.000 
#    0.000    0.000    0.000    0.000    0.000    0.000 
#
# Total GULP energy -89444.465172 kJ/mol
# GULP energy per Si atom -5590.279073 kJ/mol
# Density = 2.065649 g / cm^3
# Si number density = 20.703616 Si / 1000 Ang^3
#
#
#
# Elastic Constant Matrix: (Units=GPa)
#
#
# Indices 1 2 3 4 5 6 
#
# 1 72.9565 35.2136 15.3559 0.0000 1.4586 0.0000
# 2 35.2136 81.4743 32.8196 0.0000 11.1139 0.0000
# 3 15.3559 32.8196 102.5795 0.0000 6.6365 0.0000
# 4 0.0000 0.0000 0.0000 -1.0502 0.0000 -13.6976
# 5 1.4586 11.1139 6.6365 0.0000 18.8688 0.0000
# 6 0.0000 0.0000 0.0000 -13.6976 0.0000 23.5717
#
#
#
# Elastic Compliance Matrix: (Units=1/GPa)
#
#
# Indices 1 2 3 4 5 6 
#
# 1 0.017524 -0.007914 -0.000312 0.000000 0.003417 0.000000
# 2 -0.007914 0.018591 -0.004190 0.000000 -0.008865 0.000000
# 3 -0.000312 -0.004190 0.011230 0.000000 -0.001458 0.000000
# 4 0.000000 0.000000 0.000000 -0.110989 0.000000 -0.064496
# 5 0.003417 -0.008865 -0.001458 0.000000 0.058468 0.000000
# 6 0.000000 0.000000 0.000000 -0.064496 0.000000 0.004945
#
#
# Mechanical properties :
#
#
# Convention : Reuss Voigt Hill
#
# Bulk Modulus (GPa) = 44.41919 47.08760 45.75340
# Shear Modulus (GPa) = 155.73161 19.85281 87.79221
#
# Velocity S-wave (km/s) = 8.68233 3.09998 6.51892
# Velocity P-wave (km/s) = 11.04590 5.96709 8.87744
#
# Compressibility (1/GPa) = 0.02251279
#
# Stress axis : x y z
#
# Youngs Moduli (GPa) = 57.06399 53.78803 89.04613
#
# Poissons Ratio (x) = 0.42570 0.02781
# Poissons Ratio (y) = 0.45162 0.37310
# Poissons Ratio (z) = 0.01782 0.22537
#
# Static dielectric constant tensor:
#      x y z
#    x 1.740560 0.000000 0.015250 
#    y 0.000000 1.708800 0.000000 
#    z 0.015250 0.000000 1.714700 
# 
# From -- ./inp_files/12069.got.cif
#   From: 2010.05.17/outbox.cif.g08.bks.cpg/sg9_7_cif.got.tgz:12069.got - 2010.06.03 20:04:27.
