data_PCOD9136850
_publ_section_title
;
Structure prediction by ZEFSAII (Michael W. Deem and Ramdas Pophale) SiO2 
 PCOD9136850
Probable space group: C C
;
_chemical_formula_sum "Si O2"
_cell_formula_units_Z 28
_cell_length_a 6.388346
_cell_length_b 21.778782
_cell_length_c 12.810234
_cell_angle_alpha 90.000000
_cell_angle_beta 42.382763
_cell_angle_gamma 90.000000
_cell_volume 1201.408362
_symmetry_space_group_name_H-M "C C"
_symmetry_group_IT_number 9
_symmetry_cell_setting 'monoclinic'
loop_
_space_group_symop_operation_xyz
x,y,z
x,-y,1/2+z
1/2+x,1/2+y,z
1/2+x,1/2-y,1/2+z
loop_
_atom_site_type_symbol
_atom_site_label
_atom_site_fract_x
_atom_site_fract_y
_atom_site_fract_z
Si Si1 0.565810 0.288671 0.041810
Si Si2 0.696282 0.522519 0.937141
Si Si3 0.883092 0.079995 0.655166
Si Si4 0.654246 0.382819 0.618830
Si Si5 0.532090 0.713573 0.985382
Si Si6 0.896953 0.106281 0.878788
Si Si7 0.610765 0.299582 0.796363
O O1 0.353913 0.348382 0.135713
O O2 0.351375 0.228850 0.125558
O O3 0.730344 0.298948 0.870330
O O4 0.796108 0.269551 0.049420
O O5 0.480660 0.552379 0.928304
O O6 0.048745 0.545193 0.782846
O O7 0.617621 0.452082 0.987709
O O8 0.591037 0.552959 0.086239
O O9 0.024436 0.086223 0.719337
O O10 0.508388 0.333544 0.590729
O O11 0.524889 0.365164 0.779913
O O12 0.029396 0.385142 0.493903
O O13 0.520829 0.668802 0.887854
O O14 0.841742 0.750506 0.891469
#
# Coordination Sequence:
#
# PCOD9136850 Si02
#       7
#     4   4   4   4   4   4   4
#     4  12  26  41  68 102 147 182 232 295 359 429
#     4  10  25  46  71  98 141 190 242 295 358 411
#     4  11  26  45  69 105 138 188 243 293 351 435
#     4  10  22  42  65  98 136 182 235 287 352 421
#     4  11  22  40  68  98 140 187 224 290 354 418
#     4  10  21  44  70  93 140 182 231 292 356 410
#     4  12  24  40  63 106 140 181 235 288 354 436
#
# _framework density 23.305980999999999
#
# number of rings (size 3 to 8) (size 9 to 14) (size 15 to 20)
#    0.000    1.143    2.857    3.429    4.000    6.857 
#    0.000    0.000    0.000    0.000    0.000    0.000 
#    0.000    0.000    0.000    0.000    0.000    0.000 
#
# Total GULP energy -78038.746004 kJ/mol
# GULP energy per Si atom -5574.196143 kJ/mol
# Density = 2.325294 g / cm^3
# Si number density = 23.305981 Si / 1000 Ang^3
#
#
#
# Elastic Constant Matrix: (Units=GPa)
#
#
# Indices 1 2 3 4 5 6 
#
# 1 96.6832 20.4155 25.3455 0.0000 8.0467 0.0000
# 2 20.4155 60.1596 15.1784 0.0000 -8.8194 0.0000
# 3 25.3455 15.1784 50.4318 0.0000 14.6612 0.0000
# 4 0.0000 0.0000 0.0000 39.5860 0.0000 4.3841
# 5 8.0467 -8.8194 14.6612 0.0000 28.4292 0.0000
# 6 0.0000 0.0000 0.0000 4.3841 0.0000 26.7480
#
#
#
# Elastic Compliance Matrix: (Units=1/GPa)
#
#
# Indices 1 2 3 4 5 6 
#
# 1 0.012446 -0.003388 -0.004595 0.000000 -0.002204 0.000000
# 2 -0.003388 0.021606 -0.008267 0.000000 0.011925 0.000000
# 3 -0.004595 -0.008267 0.029402 0.000000 -0.016427 0.000000
# 4 0.000000 0.000000 0.000000 0.025729 0.000000 -0.004217
# 5 -0.002204 0.011925 -0.016427 0.000000 0.047970 0.000000
# 6 0.000000 0.000000 0.000000 -0.004217 0.000000 0.038077
#
#
# Mechanical properties :
#
#
# Convention : Reuss Voigt Hill
#
# Bulk Modulus (GPa) = 32.30478 36.57259 34.43869
# Shear Modulus (GPa) = 22.93089 28.70830 25.81959
#
# Velocity S-wave (km/s) = 3.14013 3.51351 3.33205
# Velocity P-wave (km/s) = 5.19985 5.67328 5.44172
#
# Compressibility (1/GPa) = 0.03095517
#
# Stress axis : x y z
#
# Youngs Moduli (GPa) = 80.34480 46.28342 34.01185
#
# Poissons Ratio (x) = 0.15679 0.15628
# Poissons Ratio (y) = 0.27218 0.28117
# Poissons Ratio (z) = 0.36917 0.38262
#
# Static dielectric constant tensor:
#      x y z
#    x 1.891650 0.000000 -0.021400 
#    y 0.000000 1.856360 0.000000 
#    z -0.021400 0.000000 1.933560 
# 
# From -- ./inp_files/13705.got.cif
#   From: 2010.05.17/outbox.cif.g08.bks.cpg/sg9_7_cif.got.tgz:13705.got - 2010.06.03 20:04:27.
