data_PCOD9136857
_publ_section_title
;
Structure prediction by ZEFSAII (Michael W. Deem and Ramdas Pophale) SiO2 
 PCOD9136857
Probable space group: C C
;
_chemical_formula_sum "Si O2"
_cell_formula_units_Z 28
_cell_length_a 10.974951
_cell_length_b 11.938265
_cell_length_c 16.223525
_cell_angle_alpha 90.000000
_cell_angle_beta 144.433512
_cell_angle_gamma 90.000000
_cell_volume 1236.370795
_symmetry_space_group_name_H-M "C C"
_symmetry_group_IT_number 9
_symmetry_cell_setting 'monoclinic'
loop_
_space_group_symop_operation_xyz
x,y,z
x,-y,1/2+z
1/2+x,1/2+y,z
1/2+x,1/2-y,1/2+z
loop_
_atom_site_type_symbol
_atom_site_label
_atom_site_fract_x
_atom_site_fract_y
_atom_site_fract_z
Si Si1 0.240990 0.403149 0.267940
Si Si2 0.994479 0.793059 0.285816
Si Si3 0.142188 0.846432 0.758283
Si Si4 0.094527 0.380310 0.969587
Si Si5 0.865769 0.003351 0.507299
Si Si6 0.411923 0.733106 0.442372
Si Si7 0.796332 0.122762 0.205014
O O1 0.465507 0.370141 0.350620
O O2 0.127211 0.282868 0.217682
O O3 0.258694 0.451528 0.368472
O O4 0.190398 0.505250 0.177483
O O5 0.012869 0.672431 0.338025
O O6 0.208585 0.807040 0.354913
O O7 0.786220 0.812413 0.117508
O O8 0.386045 0.873119 0.908505
O O9 0.058549 0.927871 0.640888
O O10 0.000360 0.875339 0.759066
O O11 0.207379 0.491059 0.997949
O O12 0.930184 0.128809 0.516440
O O13 0.619603 0.804048 0.564269
O O14 0.368139 0.681358 0.329433
#
# Coordination Sequence:
#
# PCOD9136857 Si02
#       7
#     4   4   4   4   4   4   4
#     4  10  25  45  70 107 148 187 250 305 375 455
#     4  10  21  44  71 105 136 188 244 290 382 436
#     4  11  26  45  75 103 153 192 250 314 373 453
#     4  10  23  42  75 102 141 191 239 310 365 454
#     4  10  23  48  68 109 142 193 250 299 388 437
#     4  10  23  47  76 101 149 193 248 317 360 466
#     4  11  25  47  71 113 147 198 255 305 389 441
#
# _framework density 22.646927000000002
#
# number of rings (size 3 to 8) (size 9 to 14) (size 15 to 20)
#    0.000    1.714    0.000    2.571   10.000    1.143 
#   18.000    0.000    0.000    0.000    0.000    0.000 
#    0.000    0.000    0.000    0.000    0.000    0.000 
#
# Total GULP energy -78092.743824 kJ/mol
# GULP energy per Si atom -5578.053130 kJ/mol
# Density = 2.259538 g / cm^3
# Si number density = 22.646927 Si / 1000 Ang^3
#
#
#
# Elastic Constant Matrix: (Units=GPa)
#
#
# Indices 1 2 3 4 5 6 
#
# 1 129.6025 25.5383 54.9783 0.0000 10.5934 0.0000
# 2 25.5383 106.6940 53.9859 0.0001 5.5169 0.0000
# 3 54.9783 53.9859 119.3763 0.0004 18.9084 0.0001
# 4 0.0000 0.0001 0.0004 42.1492 0.0001 -2.7618
# 5 10.5934 5.5169 18.9084 0.0001 30.5549 0.0000
# 6 0.0000 0.0000 0.0001 -2.7618 0.0000 39.5131
#
#
#
# Elastic Compliance Matrix: (Units=1/GPa)
#
#
# Indices 1 2 3 4 5 6 
#
# 1 0.009602 -0.000103 -0.004270 0.000000 -0.000668 0.000000
# 2 -0.000103 0.012204 -0.005685 0.000000 0.001351 0.000000
# 3 -0.004270 -0.005685 0.013878 0.000000 -0.006081 0.000000
# 4 0.000000 0.000000 0.000000 0.023834 0.000000 0.001666
# 5 -0.000668 0.001351 -0.006081 0.000000 0.036479 0.000000
# 6 0.000000 0.000000 0.000000 0.001666 0.000000 0.025425
#
#
# Mechanical properties :
#
#
# Convention : Reuss Voigt Hill
#
# Bulk Modulus (GPa) = 64.23869 69.40864 66.82367
# Shear Modulus (GPa) = 34.07669 37.18812 35.63241
#
# Velocity S-wave (km/s) = 3.88325 4.05666 3.97090
# Velocity P-wave (km/s) = 6.96656 7.25649 7.11300
#
# Compressibility (1/GPa) = 0.01556694
#
# Stress axis : x y z
#
# Youngs Moduli (GPa) = 104.14398 81.93828 72.05868
#
# Poissons Ratio (x) = 0.00848 0.30766
# Poissons Ratio (y) = 0.01077 0.40969
# Poissons Ratio (z) = 0.44465 0.46586
#
# Static dielectric constant tensor:
#      x y z
#    x 1.895410 0.000000 -0.018080 
#    y 0.000000 1.940330 0.000000 
#    z -0.018080 0.000000 1.822430 
# 
# From -- ./inp_files/16530.got.cif
#   From: 2010.05.17/outbox.cif.g08.bks.cpg/sg9_9_cif.got.tgz:16530.got - 2010.06.03 20:04:27.
