data_PCOD9136003
_publ_section_title
;
Structure prediction by ZEFSAII (Michael W. Deem and Ramdas Pophale) SiO2 
 PCOD9136003
Probable space group: C C
;
_chemical_formula_sum "Si O2"
_cell_formula_units_Z 32
_cell_length_a 9.114574
_cell_length_b 20.919898
_cell_length_c 13.039543
_cell_angle_alpha 90.000000
_cell_angle_beta 34.682998
_cell_angle_gamma 90.000000
_cell_volume 1414.808618
_symmetry_space_group_name_H-M "C C"
_symmetry_group_IT_number 9
_symmetry_cell_setting 'monoclinic'
loop_
_space_group_symop_operation_xyz
x,y,z
x,-y,1/2+z
1/2+x,1/2+y,z
1/2+x,1/2-y,1/2+z
loop_
_atom_site_type_symbol
_atom_site_label
_atom_site_fract_x
_atom_site_fract_y
_atom_site_fract_z
Si Si1 0.780990 0.480132 0.667070
Si Si2 0.739441 0.782067 0.279993
Si Si3 0.759545 0.642659 0.454725
Si Si4 0.022087 0.618308 0.517915
Si Si5 0.392153 0.463199 0.066993
Si Si6 0.450155 0.860729 0.279686
Si Si7 0.495909 0.426601 0.642768
Si Si8 0.983269 0.656033 0.121878
O O1 0.684589 0.466603 0.608088
O O2 0.928964 0.415750 0.616026
O O3 0.940420 0.544718 0.586733
O O4 0.531998 0.485806 0.883432
O O5 0.541576 0.810779 0.311968
O O6 0.742450 0.705874 0.259352
O O7 0.677055 0.813572 0.427021
O O8 0.030012 0.805219 0.088050
O O9 0.605263 0.580156 0.503435
O O10 0.998142 0.653278 0.237825
O O11 0.863705 0.638274 0.509251
O O12 0.319989 0.616593 0.315803
O O13 0.971608 0.658393 0.649085
O O14 0.326922 0.523198 0.175584
O O15 0.149929 0.419461 0.181116
O O16 0.167888 0.885597 0.467815
#
# Coordination Sequence:
#
# PCOD9136003 Si02
#       8
#     4   4   4   4   4   4   4   4
#     4  11  22  39  62 100 134 169 217 275 333 396
#     4  11  23  44  75  93 125 172 236 279 320 380
#     4  10  24  41  65  96 129 173 216 275 330 391
#     4  12  25  40  65 102 142 171 211 273 348 410
#     4  10  21  38  60  92 131 172 221 258 326 400
#     4  11  24  41  64  99 131 178 220 275 333 393
#     4  12  22  37  62  93 138 177 213 264 336 401
#     4  11  23  42  73  97 124 174 234 277 318 385
#
# _framework density 22.617899000000001
#
# number of rings (size 3 to 8) (size 9 to 14) (size 15 to 20)
#    0.000    1.000    6.250    0.750    1.750    1.000 
#    0.000    0.000    5.500    0.000    0.000    0.000 
#    0.000    0.000    0.000    0.000    0.000    0.000 
#
# Total GULP energy -89372.097060 kJ/mol
# GULP energy per Si atom -5585.756066 kJ/mol
# Density = 2.256642 g / cm^3
# Si number density = 22.617899 Si / 1000 Ang^3
#
#
#
# Elastic Constant Matrix: (Units=GPa)
#
#
# Indices 1 2 3 4 5 6 
#
# 1 72.4646 -4.0544 -0.0767 -0.0004 17.8335 0.0002
# 2 -4.0544 34.0728 -14.0571 0.0000 6.0139 0.0000
# 3 -0.0767 -14.0571 105.9396 -0.0007 19.0358 0.0004
# 4 -0.0004 0.0000 -0.0007 14.7655 0.0003 5.8900
# 5 17.8335 6.0139 19.0358 0.0003 35.2103 -0.0002
# 6 0.0002 0.0000 0.0004 5.8900 -0.0002 7.7997
#
#
#
# Elastic Compliance Matrix: (Units=1/GPa)
#
#
# Indices 1 2 3 4 5 6 
#
# 1 0.016716 0.004951 0.002594 0.000002 -0.010715 -0.000002
# 2 0.004951 0.034896 0.006818 0.000001 -0.012153 -0.000002
# 3 0.002594 0.006818 0.011952 0.000002 -0.008940 -0.000002
# 4 0.000002 0.000001 0.000002 0.096921 -0.000003 -0.073190
# 5 -0.010715 -0.012153 -0.008940 -0.000003 0.040737 0.000004
# 6 -0.000002 -0.000002 -0.000002 -0.073190 0.000004 0.183480
#
#
# Mechanical properties :
#
#
# Convention : Reuss Voigt Hill
#
# Bulk Modulus (GPa) = 10.83547 19.56677 15.20112
# Shear Modulus (GPa) = 12.92858 26.93278 19.93068
#
# Velocity S-wave (km/s) = 2.39343 3.45450 2.97171
# Velocity P-wave (km/s) = 3.52690 4.95795 4.30234
#
# Compressibility (1/GPa) = 0.09228951
#
# Stress axis : x y z
#
# Youngs Moduli (GPa) = 59.82130 28.65678 83.66609
#
# Poissons Ratio (x) = -0.14187 -0.21705
# Poissons Ratio (y) = -0.29615 -0.57041
# Poissons Ratio (z) = -0.15519 -0.19537
#
# Static dielectric constant tensor:
#      x y z
#    x 1.838820 0.000000 0.045150 
#    y 0.000000 1.866700 0.000000 
#    z 0.045150 0.000000 1.875050 
# 
# From -- ./inp_files/15637.got.cif
#   From: 2010.05.17/outbox.cif.g08.bks.cpg/sg9_8_cif.got.tgz:15637.got - 2010.06.03 20:04:27.
