data_PCOD9136172
_publ_section_title
;
Structure prediction by ZEFSAII (Michael W. Deem and Ramdas Pophale) SiO2 
 PCOD9136172
Probable space group: C C
;
_chemical_formula_sum "Si O2"
_cell_formula_units_Z 24
_cell_length_a 9.942711
_cell_length_b 22.868848
_cell_length_c 4.970349
_cell_angle_alpha 90.000000
_cell_angle_beta 65.568005
_cell_angle_gamma 90.000000
_cell_volume 1028.948031
_symmetry_space_group_name_H-M "C C"
_symmetry_group_IT_number 9
_symmetry_cell_setting 'monoclinic'
loop_
_space_group_symop_operation_xyz
x,y,z
x,-y,1/2+z
1/2+x,1/2+y,z
1/2+x,1/2-y,1/2+z
loop_
_atom_site_type_symbol
_atom_site_label
_atom_site_fract_x
_atom_site_fract_y
_atom_site_fract_z
Si Si1 0.715760 0.535370 0.613370
Si Si2 0.291661 0.778791 0.141555
Si Si3 0.048959 0.457691 0.696684
Si Si4 0.517164 0.362404 0.327224
Si Si5 0.603654 0.170442 0.274867
Si Si6 0.834886 0.820587 0.973143
O O1 0.709660 0.477540 0.435342
O O2 0.577397 0.576075 0.673772
O O3 0.875790 0.558680 0.390480
O O4 0.165327 0.826578 0.277943
O O5 0.203671 0.723997 0.077929
O O6 0.347789 0.747032 0.367569
O O7 0.436561 0.807143 0.896025
O O8 0.078655 0.494934 0.405918
O O9 0.125634 0.394577 0.642184
O O10 0.418099 0.359126 0.673963
O O11 0.425016 0.334036 0.163341
O O12 0.662918 0.166708 0.538075
#
# Coordination Sequence:
#
# PCOD9136172 Si02
#       6
#     4   4   4   4   4   4
#     4  10  21  39  65  97 128 177 227 276 333 403
#     4  10  21  43  67  99 132 174 217 278 340 402
#     4  10  22  42  67  97 133 180 230 277 333 406
#     4  12  22  45  65  98 133 172 222 283 335 411
#     4  10  21  47  65 106 132 184 223 288 337 416
#     4  10  25  40  65  97 134 171 219 270 350 400
#
# _framework density 23.324793
#
# number of rings (size 3 to 8) (size 9 to 14) (size 15 to 20)
#    1.000    0.667    3.333    1.000    0.000    4.000 
#    3.000    5.000    0.000    0.000    0.000    0.000 
#    0.000    0.000    0.000    0.000    0.000    0.000 
#
# Total GULP energy -66883.106095 kJ/mol
# GULP energy per Si atom -5573.592175 kJ/mol
# Density = 2.327171 g / cm^3
# Si number density = 23.324793 Si / 1000 Ang^3
#
#
#
# Elastic Constant Matrix: (Units=GPa)
#
#
# Indices 1 2 3 4 5 6 
#
# 1 81.2810 29.6235 19.9345 0.0000 -19.7534 0.0000
# 2 29.6235 73.6420 -0.0660 0.0000 -13.8904 0.0000
# 3 19.9345 -0.0660 49.1861 0.0000 3.3220 0.0000
# 4 0.0000 0.0000 0.0000 8.0816 0.0000 -3.8628
# 5 -19.7534 -13.8904 3.3220 0.0000 34.7499 0.0000
# 6 0.0000 0.0000 0.0000 -3.8628 0.0000 50.4312
#
#
#
# Elastic Compliance Matrix: (Units=1/GPa)
#
#
# Indices 1 2 3 4 5 6 
#
# 1 0.018613 -0.005788 -0.008162 0.000000 0.009047 0.000000
# 2 -0.005788 0.016494 0.002159 0.000000 0.003096 0.000000
# 3 -0.008162 0.002159 0.024052 0.000000 -0.006076 0.000000
# 4 0.000000 0.000000 0.000000 0.128440 0.000000 0.009838
# 5 0.009047 0.003096 -0.006076 0.000000 0.035738 0.000000
# 6 0.000000 0.000000 0.000000 0.009838 0.000000 0.020583
#
#
# Mechanical properties :
#
#
# Convention : Reuss Voigt Hill
#
# Bulk Modulus (GPa) = 28.10925 33.67702 30.89314
# Shear Modulus (GPa) = 17.89795 28.96036 23.42916
#
# Velocity S-wave (km/s) = 2.77309 3.52748 3.17278
# Velocity P-wave (km/s) = 4.72554 5.57319 5.16678
#
# Compressibility (1/GPa) = 0.03557548
#
# Stress axis : x y z
#
# Youngs Moduli (GPa) = 53.72556 60.62977 41.57592
#
# Poissons Ratio (x) = 0.35094 0.33936
# Poissons Ratio (y) = 0.31097 -0.08976
# Poissons Ratio (z) = 0.43853 -0.13089
#
# Static dielectric constant tensor:
#      x y z
#    x 1.896770 0.000000 0.004530 
#    y 0.000000 1.912660 0.000000 
#    z 0.004530 0.000000 1.950370 
# 
# From -- ./inp_files/824.got.cif
#   From: 2010.05.17/outbox.cif.g08.bks.cpg/sg9_1_cif.got.tgz:824.got - 2010.06.03 20:04:27.
