data_PCOD9136298
_publ_section_title
;
Structure prediction by ZEFSAII (Michael W. Deem and Ramdas Pophale) SiO2 
 PCOD9136298
Probable space group: C C
;
_chemical_formula_sum "Si O2"
_cell_formula_units_Z 32
_cell_length_a 7.635429
_cell_length_b 18.411243
_cell_length_c 16.409211
_cell_angle_alpha 90.000000
_cell_angle_beta 146.323514
_cell_angle_gamma 90.000000
_cell_volume 1279.110645
_symmetry_space_group_name_H-M "C C"
_symmetry_group_IT_number 9
_symmetry_cell_setting 'monoclinic'
loop_
_space_group_symop_operation_xyz
x,y,z
x,-y,1/2+z
1/2+x,1/2+y,z
1/2+x,1/2-y,1/2+z
loop_
_atom_site_type_symbol
_atom_site_label
_atom_site_fract_x
_atom_site_fract_y
_atom_site_fract_z
Si Si1 0.285910 0.824217 0.356290
Si Si2 0.724904 0.722502 0.421286
Si Si3 0.852482 0.404256 0.101287
Si Si4 0.348749 0.798909 0.672910
Si Si5 0.218260 0.370895 0.665249
Si Si6 0.447157 0.424907 0.103927
Si Si7 0.859861 0.001588 0.332419
Si Si8 0.864008 0.437685 0.775935
O O1 0.522349 0.787461 0.382585
O O2 0.489712 0.867187 0.500657
O O3 0.042862 0.876094 0.216374
O O4 0.084621 0.755840 0.310588
O O5 0.789709 0.662150 0.516726
O O6 0.518641 0.682336 0.273238
O O7 0.055822 0.755234 0.523997
O O8 0.647320 0.394036 0.103800
O O9 0.219075 0.421999 0.261108
O O10 0.699206 0.477699 0.001159
O O11 0.536574 0.835259 0.671613
O O12 0.246015 0.863114 0.692255
O O13 0.328121 0.448805 0.740132
O O14 0.584711 0.504974 0.172293
O O15 0.079865 0.427132 0.939022
O O16 0.617150 0.029930 0.308394
#
# Coordination Sequence:
#
# PCOD9136298 Si02
#       8
#     4   4   4   4   4   4   4   4
#     4  11  24  40  63  93 133 172 208 273 335 376
#     4  10  23  39  65  95 125 168 218 269 325 395
#     4   9  18  36  62  93 120 161 216 266 316 388
#     4  10  23  41  66  95 128 170 218 265 328 396
#     4   9  21  42  61  88 129 168 211 267 326 389
#     4  10  21  40  65  92 129 172 216 270 328 390
#     4   8  16  35  61  85 117 159 206 260 312 376
#     4   9  20  39  65  93 123 166 221 264 316 396
#
# _framework density 25.017382000000001
#
# number of rings (size 3 to 8) (size 9 to 14) (size 15 to 20)
#    0.000    2.500    0.000    2.250    8.750    2.000 
#    2.250    3.750    0.000    0.000    0.000    0.000 
#    0.000    0.000    0.000    0.000    0.000    0.000 
#
# Total GULP energy -89610.749864 kJ/mol
# GULP energy per Si atom -5600.671867 kJ/mol
# Density = 2.496044 g / cm^3
# Si number density = 25.017382 Si / 1000 Ang^3
#
#
#
# Elastic Constant Matrix: (Units=GPa)
#
#
# Indices 1 2 3 4 5 6 
#
# 1 62.7711 20.5598 11.2226 0.0001 -1.0949 0.0006
# 2 20.5598 54.2770 32.3556 0.0000 -2.8135 0.0009
# 3 11.2226 32.3556 117.8175 0.0033 -13.0230 0.0006
# 4 0.0001 0.0000 0.0033 44.3785 0.0007 8.5749
# 5 -1.0949 -2.8135 -13.0230 0.0007 39.6121 0.0000
# 6 0.0006 0.0009 0.0006 8.5749 0.0000 16.6278
#
#
#
# Elastic Compliance Matrix: (Units=1/GPa)
#
#
# Indices 1 2 3 4 5 6 
#
# 1 0.018191 -0.007006 0.000199 0.000000 0.000071 0.000000
# 2 -0.007006 0.024736 -0.006178 0.000001 -0.000468 -0.000001
# 3 0.000199 -0.006178 0.010499 -0.000001 0.003018 0.000000
# 4 0.000000 0.000001 -0.000001 0.025027 -0.000001 -0.012907
# 5 0.000071 -0.000468 0.003018 -0.000001 0.026206 0.000000
# 6 0.000000 -0.000001 0.000000 -0.012907 0.000000 0.066796
#
#
# Mechanical properties :
#
#
# Convention : Reuss Voigt Hill
#
# Bulk Modulus (GPa) = 36.41972 40.34908 38.38440
# Shear Modulus (GPa) = 24.20413 31.50553 27.85483
#
# Velocity S-wave (km/s) = 3.11383 3.55258 3.34041
# Velocity P-wave (km/s) = 5.24569 5.74379 5.50038
#
# Compressibility (1/GPa) = 0.02745766
#
# Stress axis : x y z
#
# Youngs Moduli (GPa) = 54.97174 40.42693 95.24823
#
# Poissons Ratio (x) = 0.28322 -0.01895
# Poissons Ratio (y) = 0.38511 0.58840
# Poissons Ratio (z) = -0.01094 0.24974
#
# Static dielectric constant tensor:
#      x y z
#    x 1.983140 0.000000 0.011410 
#    y 0.000000 1.947210 0.000000 
#    z 0.011410 0.000000 1.936920 
# 
# From -- ./inp_files/11036.got.cif
#   From: 2010.05.17/outbox.cif.g08.bks.cpg/sg9_6_cif.got.tgz:11036.got - 2010.06.03 20:04:27.
