data_PCOD9136460
_publ_section_title
;
Structure prediction by ZEFSAII (Michael W. Deem and Ramdas Pophale) SiO2 
 PCOD9136460
Probable space group: C C
;
_chemical_formula_sum "Si O2"
_cell_formula_units_Z 32
_cell_length_a 15.276895
_cell_length_b 9.867250
_cell_length_c 10.475510
_cell_angle_alpha 90.000000
_cell_angle_beta 67.440535
_cell_angle_gamma 90.000000
_cell_volume 1458.259357
_symmetry_space_group_name_H-M "C C"
_symmetry_group_IT_number 9
_symmetry_cell_setting 'monoclinic'
loop_
_space_group_symop_operation_xyz
x,y,z
x,-y,1/2+z
1/2+x,1/2+y,z
1/2+x,1/2-y,1/2+z
loop_
_atom_site_type_symbol
_atom_site_label
_atom_site_fract_x
_atom_site_fract_y
_atom_site_fract_z
Si Si1 0.239230 0.654550 0.889110
Si Si2 0.700324 0.150770 0.381483
Si Si3 0.845080 0.497481 0.181694
Si Si4 0.543562 0.344645 0.350334
Si Si5 0.355153 0.703475 0.085550
Si Si6 0.228435 0.082883 0.002696
Si Si7 0.431716 0.276497 0.158414
Si Si8 0.595099 0.398292 0.934052
O O1 0.191084 0.506638 0.921850
O O2 0.327953 0.661712 0.741724
O O3 0.165402 0.770782 0.891222
O O4 0.287395 0.690843 0.998995
O O5 0.615679 0.225803 0.351538
O O6 0.793588 0.155107 0.239585
O O7 0.713753 0.256458 0.490362
O O8 0.881114 0.358212 0.102624
O O9 0.795709 0.465090 0.345323
O O10 0.920324 0.615589 0.157089
O O11 0.775582 0.552216 0.110302
O O12 0.455749 0.362091 0.497810
O O13 0.495944 0.308399 0.244605
O O14 0.593594 0.490315 0.323947
O O15 0.135273 0.994122 0.025565
O O16 0.490532 0.337780 0.009783
#
# Coordination Sequence:
#
# PCOD9136460 Si02
#       8
#     4   4   4   4   4   4   4   4
#     4  11  22  42  62  96 126 175 212 274 324 391
#     4  10  23  39  66  96 131 167 221 273 328 382
#     4  11  21  43  69  99 127 180 221 268 328 395
#     4  10  23  42  62  97 129 170 217 271 330 388
#     4  10  21  41  66  87 137 166 218 266 331 386
#     4  10  22  41  71  96 130 176 221 269 325 395
#     4  11  24  38  69  89 131 171 219 269 326 392
#     4  11  22  40  65  96 125 173 215 270 324 393
#
# _framework density 21.943971999999999
#
# number of rings (size 3 to 8) (size 9 to 14) (size 15 to 20)
#    0.000    1.500    2.500    2.250    5.250    3.000 
#    0.000    0.000    0.000    0.000    0.000    0.000 
#    0.000    0.000    0.000    0.000    0.000    0.000 
#
# Total GULP energy -89362.681323 kJ/mol
# GULP energy per Si atom -5585.167583 kJ/mol
# Density = 2.189403 g / cm^3
# Si number density = 21.943972 Si / 1000 Ang^3
#
#
#
# Elastic Constant Matrix: (Units=GPa)
#
#
# Indices 1 2 3 4 5 6 
#
# 1 60.2215 59.2312 29.1702 0.0000 -4.3511 0.0000
# 2 59.2312 206.3423 26.8873 0.0000 -3.1723 0.0000
# 3 29.1702 26.8873 59.7005 0.0000 -8.8999 0.0000
# 4 0.0000 0.0000 0.0000 3.4513 0.0000 -0.9748
# 5 -4.3511 -3.1723 -8.8999 0.0000 23.9448 0.0000
# 6 0.0000 0.0000 0.0000 -0.9748 0.0000 38.7264
#
#
#
# Elastic Compliance Matrix: (Units=1/GPa)
#
#
# Indices 1 2 3 4 5 6 
#
# 1 0.028548 -0.006776 -0.010859 0.000000 0.000254 0.000000
# 2 -0.006776 0.006758 0.000230 0.000000 -0.000251 0.000000
# 3 -0.010859 0.000230 0.022934 0.000000 0.006581 0.000000
# 4 0.000000 0.000000 0.000000 0.291822 0.000000 0.007346
# 5 0.000254 -0.000251 0.006581 0.000000 0.044222 0.000000
# 6 0.000000 0.000000 0.000000 0.007346 0.000000 0.026007
#
#
# Mechanical properties :
#
#
# Convention : Reuss Voigt Hill
#
# Bulk Modulus (GPa) = 42.68222 61.87128 52.27675
# Shear Modulus (GPa) = 10.80121 27.28952 19.04537
#
# Velocity S-wave (km/s) = 2.22100 3.53030 2.94923
# Velocity P-wave (km/s) = 5.10587 6.69878 5.95582
#
# Compressibility (1/GPa) = 0.02342896
#
# Stress axis : x y z
#
# Youngs Moduli (GPa) = 35.02827 147.98267 43.60371
#
# Poissons Ratio (x) = 1.00273 0.47351
# Poissons Ratio (y) = 0.23735 -0.01003
# Poissons Ratio (z) = 0.38039 -0.03404
#
# Static dielectric constant tensor:
#      x y z
#    x 1.792510 0.000000 -0.028210 
#    y 0.000000 1.817770 0.000000 
#    z -0.028210 0.000000 1.859770 
# 
# From -- ./inp_files/17911.got.cif
#   From: 2010.05.17/outbox.cif.g08.bks.cpg/sg9_9_cif.got.tgz:17911.got - 2010.06.03 20:04:27.
