data_PCOD9136039
_publ_section_title
;
Structure prediction by ZEFSAII (Michael W. Deem and Ramdas Pophale) SiO2 
 PCOD9136039
Probable space group: C C
;
_chemical_formula_sum "Si O2"
_cell_formula_units_Z 28
_cell_length_a 12.812604
_cell_length_b 14.499296
_cell_length_c 9.201430
_cell_angle_alpha 90.000000
_cell_angle_beta 127.811050
_cell_angle_gamma 90.000000
_cell_volume 1350.476289
_symmetry_space_group_name_H-M "C C"
_symmetry_group_IT_number 9
_symmetry_cell_setting 'monoclinic'
loop_
_space_group_symop_operation_xyz
x,y,z
x,-y,1/2+z
1/2+x,1/2+y,z
1/2+x,1/2-y,1/2+z
loop_
_atom_site_type_symbol
_atom_site_label
_atom_site_fract_x
_atom_site_fract_y
_atom_site_fract_z
Si Si1 0.003960 0.905088 0.635770
Si Si2 0.922076 0.417812 0.797487
Si Si3 0.416937 0.425496 0.878268
Si Si4 0.775153 0.492762 0.922046
Si Si5 0.698109 0.873160 0.902603
Si Si6 0.407190 0.299374 0.300854
Si Si7 0.614691 0.673753 0.733725
O O1 0.918415 0.923880 0.706809
O O2 0.948105 0.817388 0.502005
O O3 0.156870 0.917664 0.812800
O O4 0.986970 0.984107 0.500353
O O5 0.900152 0.454435 0.940527
O O6 0.820436 0.479970 0.620483
O O7 0.886057 0.309397 0.759189
O O8 0.065322 0.420658 0.845582
O O9 0.280981 0.425899 0.851097
O O10 0.506924 0.340844 0.014645
O O11 0.719230 0.590986 0.814829
O O12 0.671675 0.775407 0.799456
O O13 0.784241 0.851339 0.121154
O O14 0.530427 0.334923 0.310054
#
# Coordination Sequence:
#
# PCOD9136039 Si02
#       7
#     4   4   4   4   4   4   4
#     4  11  22  40  68  94 125 173 235 269 324 401
#     4  11  24  39  64  98 132 176 209 281 342 395
#     4  10  21  38  64  92 122 174 223 275 323 403
#     4  11  21  40  64  96 130 171 221 268 332 402
#     4  10  21  40  65  91 135 171 222 273 345 396
#     4  10  21  41  67  93 126 179 231 272 330 401
#     4   9  18  38  64  90 126 178 221 268 326 404
#
# _framework density 20.733425
#
# number of rings (size 3 to 8) (size 9 to 14) (size 15 to 20)
#    0.000    1.714    1.429    5.143    2.000    2.286 
#    5.143    0.000    0.000    0.000    0.000    0.000 
#    0.000    0.000    0.000    0.000    0.000    0.000 
#
# Total GULP energy -78075.800013 kJ/mol
# GULP energy per Si atom -5576.842858 kJ/mol
# Density = 2.068623 g / cm^3
# Si number density = 20.733425 Si / 1000 Ang^3
#
#
#
# Elastic Constant Matrix: (Units=GPa)
#
#
# Indices 1 2 3 4 5 6 
#
# 1 65.4374 18.7644 18.5005 0.0000 -9.6857 0.0000
# 2 18.7644 37.7231 18.3541 0.0000 -6.0015 0.0000
# 3 18.5005 18.3541 78.9850 0.0000 -21.6281 0.0000
# 4 0.0000 0.0000 0.0000 25.4666 0.0000 -4.4129
# 5 -9.6857 -6.0015 -21.6281 0.0000 33.8258 0.0000
# 6 0.0000 0.0000 0.0000 -4.4129 0.0000 28.4526
#
#
#
# Elastic Compliance Matrix: (Units=1/GPa)
#
#
# Indices 1 2 3 4 5 6 
#
# 1 0.018444 -0.007893 -0.001725 0.000000 0.002778 0.000000
# 2 -0.007893 0.033297 -0.005928 0.000000 -0.000143 0.000000
# 3 -0.001725 -0.005928 0.016994 0.000000 0.009320 0.000000
# 4 0.000000 0.000000 0.000000 0.040352 0.000000 0.006258
# 5 0.002778 -0.000143 0.009320 0.000000 0.036293 0.000000
# 6 0.000000 0.000000 0.000000 0.006258 0.000000 0.036117
#
#
# Mechanical properties :
#
#
# Convention : Reuss Voigt Hill
#
# Bulk Modulus (GPa) = 26.56542 32.59815 29.58178
# Shear Modulus (GPa) = 22.20883 25.98411 24.09647
#
# Velocity S-wave (km/s) = 3.27641 3.54396 3.41281
# Velocity P-wave (km/s) = 5.21093 5.70113 5.46153
#
# Compressibility (1/GPa) = 0.03764292
#
# Stress axis : x y z
#
# Youngs Moduli (GPa) = 54.21791 30.03316 58.84320
#
# Poissons Ratio (x) = 0.23706 0.10153
# Poissons Ratio (y) = 0.42795 0.34879
# Poissons Ratio (z) = 0.09355 0.17802
#
# Static dielectric constant tensor:
#      x y z
#    x 1.741290 0.000000 0.035040 
#    y 0.000000 1.790270 0.000000 
#    z 0.035040 0.000000 1.796110 
# 
# From -- ./inp_files/7301.got.cif
#   From: 2010.05.17/outbox.cif.g08.bks.cpg/sg9_4_cif.got.tgz:7301.got - 2010.06.03 20:04:27.
