data_PCOD9136362
_publ_section_title
;
Structure prediction by ZEFSAII (Michael W. Deem and Ramdas Pophale) SiO2 
 PCOD9136362
Probable space group: C C
;
_chemical_formula_sum "Si O2"
_cell_formula_units_Z 32
_cell_length_a 9.846323
_cell_length_b 12.081449
_cell_length_c 15.484505
_cell_angle_alpha 90.000000
_cell_angle_beta 46.517543
_cell_angle_gamma 90.000000
_cell_volume 1336.530228
_symmetry_space_group_name_H-M "C C"
_symmetry_group_IT_number 9
_symmetry_cell_setting 'monoclinic'
loop_
_space_group_symop_operation_xyz
x,y,z
x,-y,1/2+z
1/2+x,1/2+y,z
1/2+x,1/2-y,1/2+z
loop_
_atom_site_type_symbol
_atom_site_label
_atom_site_fract_x
_atom_site_fract_y
_atom_site_fract_z
Si Si1 0.170940 0.146288 0.958850
Si Si2 0.204924 0.832324 0.056198
Si Si3 0.316930 0.616957 0.341032
Si Si4 0.759835 0.825787 0.662657
Si Si5 0.233561 0.144673 0.134220
Si Si6 0.650247 0.121011 0.962412
Si Si7 0.453406 0.972104 0.820586
Si Si8 0.773300 0.855918 0.225579
O O1 0.227802 0.273912 0.921984
O O2 0.300942 0.058405 0.851835
O O3 0.212458 0.128523 0.041708
O O4 0.952058 0.127646 0.038356
O O5 0.249957 0.801337 0.135343
O O6 0.994159 0.879375 0.139691
O O7 0.214103 0.713115 0.003183
O O8 0.353095 0.909924 0.944028
O O9 0.284156 0.650055 0.253980
O O10 0.538862 0.607711 0.259817
O O11 0.240083 0.499656 0.408141
O O12 0.559977 0.877042 0.721424
O O13 0.253556 0.271116 0.156099
O O14 0.432088 0.095481 0.073117
O O15 0.691700 0.184401 0.853104
O O16 0.632842 0.045467 0.766511
#
# Coordination Sequence:
#
# PCOD9136362 Si02
#       8
#     4   4   4   4   4   4   4   4
#     4  11  23  42  72 102 133 180 224 289 342 411
#     4  11  27  44  68 101 140 184 230 282 346 416
#     4  11  22  43  70 100 138 174 227 286 346 406
#     4  11  24  42  67 100 137 179 223 281 347 405
#     4  10  21  40  68  98 128 178 227 270 346 408
#     4  11  23  44  66  98 136 179 225 283 347 406
#     4  12  22  45  68 100 135 179 228 283 347 399
#     4  11  22  42  71  95 135 181 224 282 341 405
#
# _framework density 23.942595000000001
#
# number of rings (size 3 to 8) (size 9 to 14) (size 15 to 20)
#    0.000    1.000    3.750    2.250    1.750    1.000 
#    2.250    3.750    2.750    0.000    0.000    0.000 
#    0.000    0.000    0.000    0.000    0.000    0.000 
#
# Total GULP energy -89317.301573 kJ/mol
# GULP energy per Si atom -5582.331348 kJ/mol
# Density = 2.388810 g / cm^3
# Si number density = 23.942595 Si / 1000 Ang^3
#
#
#
# Elastic Constant Matrix: (Units=GPa)
#
#
# Indices 1 2 3 4 5 6 
#
# 1 54.1271 27.9373 33.3706 0.0000 -31.8697 0.0000
# 2 27.9373 123.5352 64.4510 0.0000 -22.2708 0.0000
# 3 33.3706 64.4510 113.4382 -0.0001 -44.5840 0.0000
# 4 0.0000 0.0000 -0.0001 52.7123 0.0000 -4.0498
# 5 -31.8697 -22.2708 -44.5840 0.0000 51.3541 0.0000
# 6 0.0000 0.0000 0.0000 -4.0498 0.0000 17.2879
#
#
#
# Elastic Compliance Matrix: (Units=1/GPa)
#
#
# Indices 1 2 3 4 5 6 
#
# 1 0.030676 -0.003779 -0.000059 0.000000 0.017347 0.000000
# 2 -0.003779 0.012008 -0.006961 0.000000 -0.003181 0.000000
# 3 -0.000059 -0.006961 0.017588 0.000000 0.012214 0.000000
# 4 0.000000 0.000000 0.000000 0.019319 0.000000 0.004526
# 5 0.017347 -0.003181 0.012214 0.000000 0.039462 0.000000
# 6 0.000000 0.000000 0.000000 0.004526 0.000000 0.058904
#
#
# Mechanical properties :
#
#
# Convention : Reuss Voigt Hill
#
# Bulk Modulus (GPa) = 25.85772 60.29093 43.07433
# Shear Modulus (GPa) = 23.53549 35.29363 29.41456
#
# Velocity S-wave (km/s) = 3.13868 3.84356 3.50886
# Velocity P-wave (km/s) = 4.89473 6.70324 5.86906
#
# Compressibility (1/GPa) = 0.03867316
#
# Stress axis : x y z
#
# Youngs Moduli (GPa) = 32.59907 83.28059 56.85712
#
# Poissons Ratio (x) = 0.31473 0.00336
# Poissons Ratio (y) = 0.12320 0.39577
# Poissons Ratio (z) = 0.00193 0.57969
#
# Static dielectric constant tensor:
#      x y z
#    x 1.952790 0.000000 0.024480 
#    y 0.000000 2.011510 0.000000 
#    z 0.024480 0.000000 1.940760 
# 
# From -- ./inp_files/30055.got.cif
#   From: 2010.05.17/outbox.cif.g08.bks.cpg/sg9_16_cif.got.tgz:30055.got - 2010.06.03 20:04:27.
