data_PCOD9136901
_publ_section_title
;
Structure prediction by ZEFSAII (Michael W. Deem and Ramdas Pophale) SiO2 
 PCOD9136901
Probable space group: C C
;
_chemical_formula_sum "Si O2"
_cell_formula_units_Z 28
_cell_length_a 7.187407
_cell_length_b 21.980155
_cell_length_c 8.453140
_cell_angle_alpha 90.000000
_cell_angle_beta 79.756251
_cell_angle_gamma 90.000000
_cell_volume 1314.143152
_symmetry_space_group_name_H-M "C C"
_symmetry_group_IT_number 9
_symmetry_cell_setting 'monoclinic'
loop_
_space_group_symop_operation_xyz
x,y,z
x,-y,1/2+z
1/2+x,1/2+y,z
1/2+x,1/2-y,1/2+z
loop_
_atom_site_type_symbol
_atom_site_label
_atom_site_fract_x
_atom_site_fract_y
_atom_site_fract_z
Si Si1 0.485880 0.600865 0.216210
Si Si2 0.699306 0.312741 0.930347
Si Si3 0.818922 0.234727 0.620451
Si Si4 0.802832 0.641764 0.967611
Si Si5 0.620147 0.911697 0.621091
Si Si6 0.013708 0.630073 0.609076
Si Si7 0.194753 0.479116 0.897368
O O1 0.584778 0.640419 0.334888
O O2 0.288132 0.626554 0.176253
O O3 0.404717 0.538921 0.304269
O O4 0.626725 0.600514 0.047232
O O5 0.778871 0.261797 0.799626
O O6 0.536410 0.284382 0.065533
O O7 0.867724 0.345498 0.998451
O O8 0.764277 0.286761 0.499058
O O9 0.678725 0.178777 0.613830
O O10 0.890907 0.625283 0.787148
O O11 0.956352 0.628989 0.081035
O O12 0.566838 0.960518 0.765366
O O13 0.687959 0.953736 0.465729
O O14 0.119524 0.568776 0.538498
#
# Coordination Sequence:
#
# PCOD9136901 Si02
#       7
#     4   4   4   4   4   4   4
#     4   9  23  44  65  96 130 173 219 275 329 397
#     4  11  24  42  66  94 136 174 222 269 337 392
#     4  11  23  42  63  99 131 178 218 275 329 396
#     4  11  24  44  67  99 132 176 224 269 338 394
#     4  10  22  45  71  94 132 174 217 283 323 398
#     4  12  25  42  67 100 135 177 222 275 333 403
#     4  10  21  45  69  94 136 168 222 276 335 384
#
# _framework density 21.306657999999999
#
# number of rings (size 3 to 8) (size 9 to 14) (size 15 to 20)
#    0.857    0.571    2.857    2.571    2.000    3.429 
#   10.286    0.000    0.000    0.000    0.000    0.000 
#    0.000    0.000    0.000    0.000    0.000    0.000 
#
# Total GULP energy -78091.877223 kJ/mol
# GULP energy per Si atom -5577.991230 kJ/mol
# Density = 2.125816 g / cm^3
# Si number density = 21.306658 Si / 1000 Ang^3
#
#
#
# Elastic Constant Matrix: (Units=GPa)
#
#
# Indices 1 2 3 4 5 6 
#
# 1 79.9964 22.9729 11.9721 0.0000 -8.4534 0.0000
# 2 22.9729 53.6049 11.6140 0.0000 -8.9691 0.0000
# 3 11.9721 11.6140 64.0586 0.0000 -9.5493 0.0000
# 4 0.0000 0.0000 0.0000 19.4928 0.0000 -9.3210
# 5 -8.4534 -8.9691 -9.5493 0.0000 49.6429 0.0000
# 6 0.0000 0.0000 0.0000 -9.3210 0.0000 13.4709
#
#
#
# Elastic Compliance Matrix: (Units=1/GPa)
#
#
# Indices 1 2 3 4 5 6 
#
# 1 0.014480 -0.005688 -0.001504 0.000000 0.001149 0.000000
# 2 -0.005688 0.022070 -0.002562 0.000000 0.002526 0.000000
# 3 -0.001504 -0.002562 0.016729 0.000000 0.002499 0.000000
# 4 0.000000 0.000000 0.000000 0.076667 0.000000 0.053049
# 5 0.001149 0.002526 0.002499 0.000000 0.021277 0.000000
# 6 0.000000 0.000000 0.000000 0.053049 0.000000 0.110940
#
#
# Mechanical properties :
#
#
# Convention : Reuss Voigt Hill
#
# Bulk Modulus (GPa) = 29.60966 32.30864 30.95915
# Shear Modulus (GPa) = 17.06905 26.59473 21.83189
#
# Velocity S-wave (km/s) = 2.83347 3.53680 3.20449
# Velocity P-wave (km/s) = 4.96304 5.64581 5.31540
#
# Compressibility (1/GPa) = 0.03377276
#
# Stress axis : x y z
#
# Youngs Moduli (GPa) = 69.05898 45.30987 59.77729
#
# Poissons Ratio (x) = 0.25771 0.08989
# Poissons Ratio (y) = 0.39278 0.15314
# Poissons Ratio (z) = 0.10385 0.11608
#
# Static dielectric constant tensor:
#      x y z
#    x 1.765200 0.000000 -0.030220 
#    y 0.000000 1.765520 0.000000 
#    z -0.030220 0.000000 1.823240 
# 
# From -- ./inp_files/4089.got.cif
#   From: 2010.05.17/outbox.cif.g08.bks.cpg/sg9_3_cif.got.tgz:4089.got - 2010.06.03 20:04:27.
