data_PCOD9136080
_publ_section_title
;
Structure prediction by ZEFSAII (Michael W. Deem and Ramdas Pophale) SiO2 
 PCOD9136080
Probable space group: C C
;
_chemical_formula_sum "Si O2"
_cell_formula_units_Z 32
_cell_length_a 17.588830
_cell_length_b 10.716758
_cell_length_c 11.660980
_cell_angle_alpha 90.000000
_cell_angle_beta 142.066242
_cell_angle_gamma 90.000000
_cell_volume 1351.244602
_symmetry_space_group_name_H-M "C C"
_symmetry_group_IT_number 9
_symmetry_cell_setting 'monoclinic'
loop_
_space_group_symop_operation_xyz
x,y,z
x,-y,1/2+z
1/2+x,1/2+y,z
1/2+x,1/2-y,1/2+z
loop_
_atom_site_type_symbol
_atom_site_label
_atom_site_fract_x
_atom_site_fract_y
_atom_site_fract_z
Si Si1 0.237850 0.243465 0.882180
Si Si2 0.606343 0.913777 0.071922
Si Si3 0.425180 0.095817 0.537527
Si Si4 0.231167 0.964528 0.185259
Si Si5 0.010337 0.327164 0.730051
Si Si6 0.452494 0.851259 0.320829
Si Si7 0.954220 0.063039 0.349836
Si Si8 0.838295 0.014246 0.957440
O O1 0.235564 0.159565 0.767129
O O2 0.099162 0.231881 0.768189
O O3 0.264072 0.385696 0.885331
O O4 0.370287 0.208753 0.100104
O O5 0.730722 0.892962 0.289270
O O6 0.498832 0.852298 0.018672
O O7 0.564192 0.057963 0.992318
O O8 0.601257 0.854826 0.942404
O O9 0.450559 0.167715 0.682736
O O10 0.286451 0.071504 0.332461
O O11 0.484148 0.956828 0.631286
O O12 0.330582 0.933539 0.205119
O O13 0.091972 0.984118 0.985316
O O14 0.450395 0.712832 0.368240
O O15 0.914536 0.003262 0.426795
O O16 0.886297 0.041627 0.144670
#
# Coordination Sequence:
#
# PCOD9136080 Si02
#       8
#     4   4   4   4   4   4   4   4
#     4  11  20  41  67  98 129 176 222 265 328 410
#     4  10  21  43  68  94 126 173 223 268 320 402
#     4   9  20  39  69  94 121 167 223 275 314 389
#     4  10  22  40  68  95 128 166 220 272 331 396
#     4  10  21  38  68  98 130 167 221 275 328 390
#     4  10  22  42  71  92 122 178 226 265 322 401
#     4  12  27  43  66  99 133 176 217 277 335 396
#     4  12  25  42  67  96 135 175 220 271 334 392
#
# _framework density 23.681871999999998
#
# number of rings (size 3 to 8) (size 9 to 14) (size 15 to 20)
#    0.000    1.500    2.500    2.250    5.250    0.000 
#    9.000    0.000    0.000    0.000    0.000    0.000 
#    0.000    0.000    0.000    0.000    0.000    0.000 
#
# Total GULP energy -89152.940710 kJ/mol
# GULP energy per Si atom -5572.058794 kJ/mol
# Density = 2.362797 g / cm^3
# Si number density = 23.681872 Si / 1000 Ang^3
#
#
#
# Elastic Constant Matrix: (Units=GPa)
#
#
# Indices 1 2 3 4 5 6 
#
# 1 66.2957 15.9366 38.4141 0.0000 -7.8706 0.0000
# 2 15.9366 30.6928 -2.4111 0.0000 -0.3184 0.0000
# 3 38.4141 -2.4111 158.5140 0.0000 -0.0216 0.0000
# 4 0.0000 0.0000 0.0000 -1.0983 0.0000 -1.9917
# 5 -7.8706 -0.3184 -0.0216 0.0000 42.8901 0.0000
# 6 0.0000 0.0000 0.0000 -1.9917 0.0000 10.7325
#
#
#
# Elastic Compliance Matrix: (Units=1/GPa)
#
#
# Indices 1 2 3 4 5 6 
#
# 1 0.021412 -0.011499 -0.005363 0.000000 0.003841 0.000000
# 2 -0.011499 0.038798 0.003377 0.000000 -0.001820 0.000000
# 3 -0.005363 0.003377 0.007660 0.000000 -0.000955 0.000000
# 4 0.000000 0.000000 0.000000 -0.681251 0.000000 -0.126425
# 5 0.003841 -0.001820 -0.000955 0.000000 0.024006 0.000000
# 6 0.000000 0.000000 0.000000 -0.126425 0.000000 0.069713
#
#
# Mechanical properties :
#
#
# Convention : Reuss Voigt Hill
#
# Bulk Modulus (GPa) = 24.45129 39.93133 32.19131
# Shear Modulus (GPa) = -10.43716 24.07571 6.81927
#
# Velocity S-wave (km/s) = -2.10162 3.19192 1.69876
# Velocity P-wave (km/s) = 2.11145 5.52111 4.17977
#
# Compressibility (1/GPa) = 0.04089764
#
# Stress axis : x y z
#
# Youngs Moduli (GPa) = 46.70298 25.77452 130.55579
#
# Poissons Ratio (x) = 0.29639 0.70021
# Poissons Ratio (y) = 0.53705 -0.44083
# Poissons Ratio (z) = 0.25048 -0.08703
#
# Static dielectric constant tensor:
#      x y z
#    x 1.931270 0.000000 0.016150 
#    y 0.000000 1.947190 0.000000 
#    z 0.016150 0.000000 1.935430 
# 
# From -- ./inp_files/18281.got.cif
#   From: 2010.05.17/outbox.cif.g08.bks.cpg/sg9_10_cif.got.tgz:18281.got - 2010.06.03 20:04:27.
