data_PCOD9136518
_publ_section_title
;
Structure prediction by ZEFSAII (Michael W. Deem and Ramdas Pophale) SiO2 
 PCOD9136518
Probable space group: C C
;
_chemical_formula_sum "Si O2"
_cell_formula_units_Z 32
_cell_length_a 11.687413
_cell_length_b 16.333259
_cell_length_c 7.746202
_cell_angle_alpha 90.000000
_cell_angle_beta 90.112740
_cell_angle_gamma 90.000000
_cell_volume 1478.697086
_symmetry_space_group_name_H-M "C C"
_symmetry_group_IT_number 9
_symmetry_cell_setting 'monoclinic'
loop_
_space_group_symop_operation_xyz
x,y,z
x,-y,1/2+z
1/2+x,1/2+y,z
1/2+x,1/2-y,1/2+z
loop_
_atom_site_type_symbol
_atom_site_label
_atom_site_fract_x
_atom_site_fract_y
_atom_site_fract_z
Si Si1 0.114420 0.388221 0.030350
Si Si2 0.941287 0.304359 0.600870
Si Si3 0.769792 0.451084 0.240425
Si Si4 0.647926 0.706105 0.587957
Si Si5 0.731976 0.612325 0.117174
Si Si6 0.517087 0.032021 0.191006
Si Si7 0.549419 0.721224 0.202521
Si Si8 0.315627 0.304905 0.821324
O O1 0.117182 0.467532 0.153227
O O2 0.051046 0.313196 0.127786
O O3 0.039393 0.423266 0.872128
O O4 0.235212 0.358297 0.947915
O O5 0.834970 0.338558 0.710432
O O6 0.873937 0.266302 0.438516
O O7 0.025176 0.234300 0.670535
O O8 0.010800 0.388469 0.564878
O O9 0.705533 0.380812 0.131850
O O10 0.697490 0.534659 0.228515
O O11 0.774585 0.423411 0.436841
O O12 0.898145 0.480657 0.188901
O O13 0.616581 0.718396 0.386748
O O14 0.735128 0.769973 0.672331
O O15 0.630191 0.672110 0.074221
O O16 0.432942 0.670017 0.227307
#
# Coordination Sequence:
#
# PCOD9136518 Si02
#       8
#     4   4   4   4   4   4   4   4
#     4  12  25  44  70 106 149 187 243 303 362 429
#     4  10  21  41  70 100 139 180 240 292 356 426
#     4  11  22  41  70 105 143 177 245 302 355 418
#     4  11  22  42  69  99 141 188 232 300 359 426
#     4  11  22  42  66 106 136 186 238 299 350 429
#     4  11  25  41  73 110 141 186 240 306 357 419
#     4  11  26  43  72 103 146 194 247 289 369 442
#     4  11  23  46  68 101 145 188 235 301 360 441
#
# _framework density 21.640674000000001
#
# number of rings (size 3 to 8) (size 9 to 14) (size 15 to 20)
#    0.000    1.000    3.750    3.000    5.250    3.000 
#    0.000    3.750    0.000    0.000    0.000    0.000 
#    0.000    0.000    0.000    0.000    0.000    0.000 
#
# Total GULP energy -89113.345752 kJ/mol
# GULP energy per Si atom -5569.584110 kJ/mol
# Density = 2.159142 g / cm^3
# Si number density = 21.640674 Si / 1000 Ang^3
#
#
#
# Elastic Constant Matrix: (Units=GPa)
#
#
# Indices 1 2 3 4 5 6 
#
# 1 117.7819 51.2168 40.4275 0.0000 2.5354 0.0000
# 2 51.2168 111.6691 28.0313 0.0000 -3.2526 0.0000
# 3 40.4275 28.0313 76.2447 0.0000 16.0759 0.0000
# 4 0.0000 0.0000 0.0000 39.2608 0.0000 7.9982
# 5 2.5354 -3.2526 16.0759 0.0000 32.5975 0.0000
# 6 0.0000 0.0000 0.0000 7.9982 0.0000 39.7547
#
#
#
# Elastic Compliance Matrix: (Units=1/GPa)
#
#
# Indices 1 2 3 4 5 6 
#
# 1 0.012041 -0.004215 -0.005077 0.000000 0.001147 0.000000
# 2 -0.004215 0.011629 -0.002627 0.000000 0.002784 0.000000
# 3 -0.005077 -0.002627 0.018689 0.000000 -0.009084 0.000000
# 4 0.000000 0.000000 0.000000 0.026559 0.000000 -0.005343
# 5 0.001147 0.002784 -0.009084 0.000000 0.035346 0.000000
# 6 0.000000 0.000000 0.000000 -0.005343 0.000000 0.026229
#
#
# Mechanical properties :
#
#
# Convention : Reuss Voigt Hill
#
# Bulk Modulus (GPa) = 53.99390 60.56079 57.27735
# Shear Modulus (GPa) = 31.15185 34.72393 32.93789
#
# Velocity S-wave (km/s) = 3.79820 4.01005 3.90556
# Velocity P-wave (km/s) = 6.65127 7.03464 6.84564
#
# Compressibility (1/GPa) = 0.01852061
#
# Stress axis : x y z
#
# Youngs Moduli (GPa) = 83.05041 85.99361 53.50798
#
# Poissons Ratio (x) = 0.36244 0.27164
# Poissons Ratio (y) = 0.35004 0.14059
# Poissons Ratio (z) = 0.42162 0.22595
#
# Static dielectric constant tensor:
#      x y z
#    x 1.904570 0.000000 -0.085560 
#    y 0.000000 1.877370 0.000000 
#    z -0.085560 0.000000 1.908610 
# 
# From -- ./inp_files/7603.got.cif
#   From: 2010.05.17/outbox.cif.g08.bks.cpg/sg9_4_cif.got.tgz:7603.got - 2010.06.03 20:04:27.
