data_PCOD9136179
_publ_section_title
;
Structure prediction by ZEFSAII (Michael W. Deem and Ramdas Pophale) SiO2 
 PCOD9136179
Probable space group: C C
;
_chemical_formula_sum "Si O2"
_cell_formula_units_Z 24
_cell_length_a 9.368737
_cell_length_b 12.327937
_cell_length_c 8.704032
_cell_angle_alpha 90.000000
_cell_angle_beta 85.002151
_cell_angle_gamma 90.000000
_cell_volume 1001.469172
_symmetry_space_group_name_H-M "C C"
_symmetry_group_IT_number 9
_symmetry_cell_setting 'monoclinic'
loop_
_space_group_symop_operation_xyz
x,y,z
x,-y,1/2+z
1/2+x,1/2+y,z
1/2+x,1/2-y,1/2+z
loop_
_atom_site_type_symbol
_atom_site_label
_atom_site_fract_x
_atom_site_fract_y
_atom_site_fract_z
Si Si1 0.932030 0.931706 0.423960
Si Si2 0.344521 0.643160 0.622670
Si Si3 0.547596 0.249203 0.642979
Si Si4 0.462857 0.134553 0.159481
Si Si5 0.670733 0.579945 0.320632
Si Si6 0.937183 0.564929 0.494495
O O1 0.825379 0.890186 0.303253
O O2 0.979363 0.836610 0.533511
O O3 0.881211 0.036392 0.523890
O O4 0.071249 0.976053 0.319831
O O5 0.199931 0.699232 0.577977
O O6 0.462245 0.739550 0.620199
O O7 0.573418 0.314433 0.797568
O O8 0.449897 0.143103 0.640846
O O9 0.295061 0.096686 0.183414
O O10 0.510164 0.112741 0.330956
O O11 0.514392 0.047504 0.031391
O O12 0.770201 0.569426 0.460199
#
# Coordination Sequence:
#
# PCOD9136179 Si02
#       6
#     4   4   4   4   4   4
#     4  12  22  44  68  94 128 178 218 270 331 390
#     4  11  25  42  66  98 129 172 222 267 331 389
#     4  11  21  42  65  90 141 163 216 283 313 393
#     4   9  21  41  62  95 126 159 222 263 316 395
#     4   9  20  38  65  93 120 172 215 266 326 384
#     4  10  21  39  66  92 128 174 209 269 335 379
#
# _framework density 23.964791999999999
#
# number of rings (size 3 to 8) (size 9 to 14) (size 15 to 20)
#    1.000    0.667    3.333    2.000    0.000    2.667 
#    0.000    3.333    0.000    0.000    0.000    0.000 
#    0.000    0.000    0.000    0.000    0.000    0.000 
#
# Total GULP energy -66863.573810 kJ/mol
# GULP energy per Si atom -5571.964484 kJ/mol
# Density = 2.391025 g / cm^3
# Si number density = 23.964792 Si / 1000 Ang^3
#
#
#
# Elastic Constant Matrix: (Units=GPa)
#
#
# Indices 1 2 3 4 5 6 
#
# 1 13.4875 3.3260 8.8403 0.0000 6.7587 0.0000
# 2 3.3260 162.6795 54.4677 0.0000 17.4991 0.0000
# 3 8.8403 54.4677 101.3458 0.0000 17.8334 0.0000
# 4 0.0000 0.0000 0.0000 45.5897 0.0000 3.7652
# 5 6.7587 17.4991 17.8334 0.0000 27.4284 0.0000
# 6 0.0000 0.0000 0.0000 3.7652 0.0000 32.3897
#
#
#
# Elastic Compliance Matrix: (Units=1/GPa)
#
#
# Indices 1 2 3 4 5 6 
#
# 1 0.086750 0.002069 -0.005291 0.000000 -0.019256 0.000000
# 2 0.002069 0.007693 -0.003796 0.000000 -0.002950 0.000000
# 3 -0.005291 -0.003796 0.013227 0.000000 -0.004874 0.000000
# 4 0.000000 0.000000 0.000000 0.022147 0.000000 -0.002575
# 5 -0.019256 -0.002950 -0.004874 0.000000 0.046255 0.000000
# 6 0.000000 0.000000 0.000000 -0.002575 0.000000 0.031173
#
#
# Mechanical properties :
#
#
# Convention : Reuss Voigt Hill
#
# Bulk Modulus (GPa) = 10.67988 45.64232 28.16110
# Shear Modulus (GPa) = 19.80269 35.14012 27.47141
#
# Velocity S-wave (km/s) = 2.87770 3.83341 3.38941
# Velocity P-wave (km/s) = 3.93799 6.21935 5.20519
#
# Compressibility (1/GPa) = 0.09363405
#
# Stress axis : x y z
#
# Youngs Moduli (GPa) = 11.52743 129.98792 75.60562
#
# Poissons Ratio (x) = -0.26897 0.40001
# Poissons Ratio (y) = -0.02385 0.28700
# Poissons Ratio (z) = 0.06099 0.49343
#
# Static dielectric constant tensor:
#      x y z
#    x 2.033430 0.000000 -0.025560 
#    y 0.000000 1.978410 0.000000 
#    z -0.025560 0.000000 1.904820 
# 
# From -- ./inp_files/6962.got.cif
#   From: 2010.05.17/outbox.cif.g08.bks.cpg/sg9_4_cif.got.tgz:6962.got - 2010.06.03 20:04:27.
