data_PCOD9136322
_publ_section_title
;
Structure prediction by ZEFSAII (Michael W. Deem and Ramdas Pophale) SiO2 
 PCOD9136322
Probable space group: C C
;
_chemical_formula_sum "Si O2"
_cell_formula_units_Z 32
_cell_length_a 16.676600
_cell_length_b 9.020610
_cell_length_c 17.380170
_cell_angle_alpha 90.000000
_cell_angle_beta 144.079487
_cell_angle_gamma 90.000000
_cell_volume 1533.859715
_symmetry_space_group_name_H-M "C C"
_symmetry_group_IT_number 9
_symmetry_cell_setting 'monoclinic'
loop_
_space_group_symop_operation_xyz
x,y,z
x,-y,1/2+z
1/2+x,1/2+y,z
1/2+x,1/2-y,1/2+z
loop_
_atom_site_type_symbol
_atom_site_label
_atom_site_fract_x
_atom_site_fract_y
_atom_site_fract_z
Si Si1 0.539700 0.322345 0.504630
Si Si2 0.489225 0.066562 0.551393
Si Si3 0.466139 0.039900 0.374295
Si Si4 0.198769 0.500433 0.946751
Si Si5 0.529909 0.821846 0.703347
Si Si6 0.707738 0.324304 0.897135
Si Si7 0.776452 0.458251 0.588272
Si Si8 0.503729 0.501252 0.128810
O O1 0.594657 0.187800 0.601537
O O2 0.443229 0.216603 0.375602
O O3 0.650225 0.385839 0.533300
O O4 0.492385 0.444154 0.530988
O O5 0.440397 0.974327 0.438485
O O6 0.361584 0.161783 0.483387
O O7 0.545037 0.956518 0.656357
O O8 0.372132 0.983663 0.232435
O O9 0.621571 0.011558 0.467961
O O10 0.158851 0.658940 0.878006
O O11 0.138063 0.359608 0.853645
O O12 0.360339 0.505437 0.063011
O O13 0.378624 0.846209 0.622558
O O14 0.550011 0.668233 0.676107
O O15 0.608907 0.398145 0.758132
O O16 0.720763 0.420801 0.985260
#
# Coordination Sequence:
#
# PCOD9136322 Si02
#       8
#     4   4   4   4   4   4   4   4
#     4  10  21  40  66  96 124 175 216 268 335 392
#     4   9  20  42  66  93 129 176 214 269 339 384
#     4   9  21  38  68  88 130 169 212 271 325 391
#     4  11  23  43  65  98 133 173 225 268 339 392
#     4  10  24  40  68  94 133 171 220 280 325 398
#     4  11  24  41  69  96 132 177 223 276 325 403
#     4  10  22  41  67  94 131 168 225 268 336 388
#     4  12  25  39  69  99 132 173 229 272 330 400
#
# _framework density 20.862404000000002
#
# number of rings (size 3 to 8) (size 9 to 14) (size 15 to 20)
#    0.750    1.000    1.250    2.250   10.500    2.000 
#    0.000    0.000    0.000    0.000    0.000    0.000 
#    0.000    0.000    0.000    0.000    0.000    0.000 
#
# Total GULP energy -89096.965861 kJ/mol
# GULP energy per Si atom -5568.560366 kJ/mol
# Density = 2.081492 g / cm^3
# Si number density = 20.862404 Si / 1000 Ang^3
#
#
#
# Elastic Constant Matrix: (Units=GPa)
#
#
# Indices 1 2 3 4 5 6 
#
# 1 73.8685 21.5413 12.2471 0.0000 -23.8520 0.0000
# 2 21.5413 84.6653 10.9970 0.0000 -7.2384 0.0000
# 3 12.2471 10.9970 54.6817 0.0000 -6.3336 0.0000
# 4 0.0000 0.0000 0.0000 27.0877 0.0000 -3.1125
# 5 -23.8520 -7.2384 -6.3336 0.0000 27.8650 0.0000
# 6 0.0000 0.0000 0.0000 -3.1125 0.0000 28.3465
#
#
#
# Elastic Compliance Matrix: (Units=1/GPa)
#
#
# Indices 1 2 3 4 5 6 
#
# 1 0.019956 -0.003479 -0.001947 0.000000 0.015736 0.000000
# 2 -0.003479 0.012931 -0.001825 0.000000 -0.000034 0.000000
# 3 -0.001947 -0.001825 0.019352 0.000000 0.002258 0.000000
# 4 0.000000 0.000000 0.000000 0.037389 0.000000 0.004105
# 5 0.015736 -0.000034 0.002258 0.000000 0.049861 0.000000
# 6 0.000000 0.000000 0.000000 0.004105 0.000000 0.035728
#
#
# Mechanical properties :
#
#
# Convention : Reuss Voigt Hill
#
# Bulk Modulus (GPa) = 26.50002 33.64291 30.07146
# Shear Modulus (GPa) = 24.71587 27.88852 26.30219
#
# Velocity S-wave (km/s) = 3.44569 3.66017 3.55455
# Velocity P-wave (km/s) = 5.34418 5.83297 5.59392
#
# Compressibility (1/GPa) = 0.03773583
#
# Stress axis : x y z
#
# Youngs Moduli (GPa) = 50.11020 77.33610 51.67331
#
# Poissons Ratio (x) = 0.26906 0.10062
# Poissons Ratio (y) = 0.17434 0.09431
# Poissons Ratio (z) = 0.09758 0.14115
#
# Static dielectric constant tensor:
#      x y z
#    x 1.765940 0.000000 -0.012940 
#    y 0.000000 1.766090 0.000000 
#    z -0.012940 0.000000 1.804180 
# 
# From -- ./inp_files/30952.got.cif
#   From: 2010.05.17/outbox.cif.g08.bks.cpg/sg9_16_cif.got.tgz:30952.got - 2010.06.03 20:04:27.
