data_PCOD9136427
_publ_section_title
;
Structure prediction by ZEFSAII (Michael W. Deem and Ramdas Pophale) SiO2 
 PCOD9136427
Probable space group: C C
;
_chemical_formula_sum "Si O2"
_cell_formula_units_Z 32
_cell_length_a 5.782242
_cell_length_b 23.288641
_cell_length_c 10.617924
_cell_angle_alpha 90.000000
_cell_angle_beta 69.683310
_cell_angle_gamma 90.000000
_cell_volume 1340.863648
_symmetry_space_group_name_H-M "C C"
_symmetry_group_IT_number 9
_symmetry_cell_setting 'monoclinic'
loop_
_space_group_symop_operation_xyz
x,y,z
x,-y,1/2+z
1/2+x,1/2+y,z
1/2+x,1/2-y,1/2+z
loop_
_atom_site_type_symbol
_atom_site_label
_atom_site_fract_x
_atom_site_fract_y
_atom_site_fract_z
Si Si1 0.619440 0.536148 0.407520
Si Si2 0.217445 0.102799 0.608665
Si Si3 0.583359 0.077690 0.214524
Si Si4 0.488603 0.129310 0.812210
Si Si5 0.344162 0.833932 0.596052
Si Si6 0.357254 0.645573 0.357686
Si Si7 0.396326 0.297079 0.100369
Si Si8 0.295642 0.470732 0.307118
O O1 0.782866 0.551865 0.498265
O O2 0.440189 0.590888 0.426056
O O3 0.435132 0.485048 0.411053
O O4 0.825615 0.542649 0.261417
O O5 0.144123 0.164919 0.567943
O O6 0.967397 0.074841 0.706770
O O7 0.388686 0.113099 0.693985
O O8 0.550537 0.119909 0.102756
O O9 0.628802 0.125188 0.316608
O O10 0.771212 0.027579 0.224377
O O11 0.700520 0.176300 0.737304
O O12 0.549199 0.066009 0.858523
O O13 0.316062 0.157317 0.951417
O O14 0.432494 0.770040 0.611431
O O15 0.088224 0.842520 0.721147
O O16 0.308342 0.693096 0.472221
#
# Coordination Sequence:
#
# PCOD9136427 Si02
#       8
#     4   4   4   4   4   4   4   4
#     4   9  19  39  63  88 122 170 224 264 331 406
#     4  10  22  41  64  91 128 174 222 276 333 395
#     4  10  21  41  63  93 126 177 217 274 344 404
#     4  11  24  42  65 103 135 174 225 283 342 389
#     4  11  24  39  64 100 135 170 225 282 338 401
#     4   9  20  40  63  90 126 175 222 269 332 400
#     4  10  22  42  65  92 133 180 228 273 329 409
#     4  10  22  40  61  97 129 172 219 281 333 414
#
# _framework density 23.865214000000002
#
# number of rings (size 3 to 8) (size 9 to 14) (size 15 to 20)
#    0.000    2.000    0.000    2.250    1.750    5.000 
#   13.500    0.000    0.000    0.000    0.000    0.000 
#    0.000    0.000    0.000    0.000    0.000    0.000 
#
# Total GULP energy -89090.545996 kJ/mol
# GULP energy per Si atom -5568.159125 kJ/mol
# Density = 2.381090 g / cm^3
# Si number density = 23.865214 Si / 1000 Ang^3
#
#
#
# Elastic Constant Matrix: (Units=GPa)
#
#
# Indices 1 2 3 4 5 6 
#
# 1 70.9414 31.1838 15.1077 0.0000 23.3359 0.0000
# 2 31.1838 140.3196 33.7718 0.0000 10.9144 0.0000
# 3 15.1077 33.7718 101.2570 0.0000 16.6928 0.0000
# 4 0.0000 0.0000 0.0000 24.5205 0.0000 3.1096
# 5 23.3359 10.9144 16.6928 0.0000 31.4324 0.0000
# 6 0.0000 0.0000 0.0000 3.1096 0.0000 23.3921
#
#
#
# Elastic Compliance Matrix: (Units=1/GPa)
#
#
# Indices 1 2 3 4 5 6 
#
# 1 0.020134 -0.003500 0.000468 0.000000 -0.013981 0.000000
# 2 -0.003500 0.008417 -0.002446 0.000000 0.000974 0.000000
# 3 0.000468 -0.002446 0.011550 0.000000 -0.005632 0.000000
# 4 0.000000 0.000000 0.000000 0.041481 0.000000 -0.005514
# 5 -0.013981 0.000974 -0.005632 0.000000 0.044847 0.000000
# 6 0.000000 0.000000 0.000000 -0.005514 0.000000 0.043483
#
#
# Mechanical properties :
#
#
# Convention : Reuss Voigt Hill
#
# Bulk Modulus (GPa) = 34.30943 52.51606 43.41274
# Shear Modulus (GPa) = 26.23541 31.36599 28.80070
#
# Velocity S-wave (km/s) = 3.31919 3.62926 3.47768
# Velocity P-wave (km/s) = 5.39416 6.29405 5.86140
#
# Compressibility (1/GPa) = 0.02914651
#
# Stress axis : x y z
#
# Youngs Moduli (GPa) = 49.66783 118.80453 86.57800
#
# Poissons Ratio (x) = 0.41577 -0.04052
# Poissons Ratio (y) = 0.17382 0.21175
# Poissons Ratio (z) = -0.02325 0.29058
#
# Static dielectric constant tensor:
#      x y z
#    x 2.003620 0.000000 -0.006590 
#    y 0.000000 1.908540 0.000000 
#    z -0.006590 0.000000 2.133790 
# 
# From -- ./inp_files/13663.got.cif
#   From: 2010.05.17/outbox.cif.g08.bks.cpg/sg9_7_cif.got.tgz:13663.got - 2010.06.03 20:04:27.
