data_PCOD9136958
_publ_section_title
;
Structure prediction by ZEFSAII (Michael W. Deem and Ramdas Pophale) SiO2 
 PCOD9136958
Probable space group: C C
;
_chemical_formula_sum "Si O2"
_cell_formula_units_Z 28
_cell_length_a 11.899934
_cell_length_b 8.164355
_cell_length_c 24.916061
_cell_angle_alpha 90.000000
_cell_angle_beta 148.659626
_cell_angle_gamma 90.000000
_cell_volume 1259.071166
_symmetry_space_group_name_H-M "C C"
_symmetry_group_IT_number 9
_symmetry_cell_setting 'monoclinic'
loop_
_space_group_symop_operation_xyz
x,y,z
x,-y,1/2+z
1/2+x,1/2+y,z
1/2+x,1/2-y,1/2+z
loop_
_atom_site_type_symbol
_atom_site_label
_atom_site_fract_x
_atom_site_fract_y
_atom_site_fract_z
Si Si1 0.223370 0.752710 0.892450
Si Si2 0.938324 0.444971 0.427229
Si Si3 0.161833 0.573291 0.123200
Si Si4 0.639608 0.686652 0.123514
Si Si5 0.404631 0.359734 0.626280
Si Si6 0.822785 0.186342 0.294213
Si Si7 0.494698 0.967190 0.216138
O O1 0.069444 0.627896 0.799330
O O2 0.067401 0.838614 0.872799
O O3 0.334602 0.879574 0.896380
O O4 0.419075 0.660075 0.000910
O O5 0.819210 0.333738 0.335354
O O6 0.976848 0.378433 0.504545
O O7 0.190731 0.439893 0.512674
O O8 0.143890 0.383601 0.131166
O O9 0.381985 0.573486 0.177390
O O10 0.180815 0.691022 0.181583
O O11 0.605464 0.615483 0.169314
O O12 0.833702 0.609634 0.169203
O O13 0.386226 0.164179 0.631243
O O14 0.713361 0.035457 0.279710
#
# Coordination Sequence:
#
# PCOD9136958 Si02
#       7
#     4   4   4   4   4   4   4
#     4  11  24  48  66 103 145 185 245 291 352 441
#     4   9  23  42  74  97 138 191 240 282 360 422
#     4   9  21  44  66 100 141 185 228 292 356 417
#     4  11  24  46  71 100 147 188 229 303 362 422
#     4  10  21  47  64 100 141 179 235 298 342 430
#     4  12  23  44  73 102 144 189 232 304 351 424
#     4  12  28  39  72 110 138 183 247 292 365 426
#
# _framework density 22.238617999999999
#
# number of rings (size 3 to 8) (size 9 to 14) (size 15 to 20)
#    0.857    0.571    4.286    0.000    4.000    2.286 
#    0.000    1.429    0.000    0.000    0.000    0.000 
#    0.000    0.000    0.000    0.000    0.000    0.000 
#
# Total GULP energy -77944.749040 kJ/mol
# GULP energy per Si atom -5567.482074 kJ/mol
# Density = 2.218800 g / cm^3
# Si number density = 22.238618 Si / 1000 Ang^3
#
#
#
# Elastic Constant Matrix: (Units=GPa)
#
#
# Indices 1 2 3 4 5 6 
#
# 1 91.0809 38.6762 22.3354 0.0000 6.4716 0.0000
# 2 38.6762 58.6728 29.1959 0.0000 -0.1925 0.0000
# 3 22.3354 29.1959 77.3353 -0.0001 -9.7039 0.0000
# 4 0.0000 0.0000 -0.0001 32.0642 0.0000 2.6607
# 5 6.4716 -0.1925 -9.7039 0.0000 35.2002 0.0000
# 6 0.0000 0.0000 0.0000 2.6607 0.0000 36.3853
#
#
#
# Elastic Compliance Matrix: (Units=1/GPa)
#
#
# Indices 1 2 3 4 5 6 
#
# 1 0.015637 -0.009686 -0.001271 0.000000 -0.003278 0.000000
# 2 -0.009686 0.027143 -0.007466 0.000000 -0.000129 0.000000
# 3 -0.001271 -0.007466 0.016719 0.000000 0.004802 0.000000
# 4 0.000000 0.000000 0.000000 0.031378 0.000000 -0.002295
# 5 -0.003278 -0.000129 0.004802 0.000000 0.030335 0.000000
# 6 0.000000 0.000000 0.000000 -0.002295 0.000000 0.027651
#
#
# Mechanical properties :
#
#
# Convention : Reuss Voigt Hill
#
# Bulk Modulus (GPa) = 44.14335 45.27821 44.71078
# Shear Modulus (GPa) = 25.87198 29.85536 27.86367
#
# Velocity S-wave (km/s) = 3.41454 3.66799 3.54353
# Velocity P-wave (km/s) = 5.95301 6.19219 6.07378
#
# Compressibility (1/GPa) = 0.02265347
#
# Stress axis : x y z
#
# Youngs Moduli (GPa) = 63.95174 36.84166 59.81288
#
# Poissons Ratio (x) = 0.35685 0.07601
# Poissons Ratio (y) = 0.61943 0.44656
# Poissons Ratio (z) = 0.08127 0.27506
#
# Static dielectric constant tensor:
#      x y z
#    x 1.843970 0.000000 -0.041040 
#    y 0.000000 1.809070 0.000000 
#    z -0.041040 0.000000 1.888940 
# 
# From -- ./inp_files/36527.got.cif
#   From: 2010.05.17/outbox.cif.g08.bks.cpg/sg9_19_cif.got.tgz:36527.got - 2010.06.03 20:04:27.
