data_PCOD9136599
_publ_section_title
;
Structure prediction by ZEFSAII (Michael W. Deem and Ramdas Pophale) SiO2 
 PCOD9136599
Probable space group: C C
;
_chemical_formula_sum "Si O2"
_cell_formula_units_Z 28
_cell_length_a 5.226518
_cell_length_b 17.472774
_cell_length_c 13.650437
_cell_angle_alpha 90.000000
_cell_angle_beta 104.379896
_cell_angle_gamma 90.000000
_cell_volume 1207.527074
_symmetry_space_group_name_H-M "C C"
_symmetry_group_IT_number 9
_symmetry_cell_setting 'monoclinic'
loop_
_space_group_symop_operation_xyz
x,y,z
x,-y,1/2+z
1/2+x,1/2+y,z
1/2+x,1/2-y,1/2+z
loop_
_atom_site_type_symbol
_atom_site_label
_atom_site_fract_x
_atom_site_fract_y
_atom_site_fract_z
Si Si1 0.690810 0.342093 0.544100
Si Si2 0.846529 0.097977 0.290501
Si Si3 0.351333 0.700490 0.850507
Si Si4 0.023525 0.130562 0.659692
Si Si5 0.398844 0.742603 0.187534
Si Si6 0.805856 0.531006 0.201658
Si Si7 0.767470 0.191908 0.466853
O O1 0.435411 0.352578 0.449352
O O2 0.598130 0.291294 0.627562
O O3 0.788902 0.420726 0.598659
O O4 0.862838 0.280441 0.498320
O O5 0.609871 0.036227 0.265657
O O6 0.897244 0.136162 0.399974
O O7 0.744376 0.169722 0.214749
O O8 0.111627 0.069437 0.263549
O O9 0.465792 0.661441 0.762997
O O10 0.054769 0.719451 0.793009
O O11 0.488037 0.781610 0.892459
O O12 0.219091 0.191612 0.628744
O O13 0.769108 0.141391 0.566103
O O14 0.174252 0.051150 0.674767
#
# Coordination Sequence:
#
# PCOD9136599 Si02
#       7
#     4   4   4   4   4   4   4
#     4   9  21  40  72  97 139 174 245 281 355 404
#     4  11  24  46  73  96 143 187 239 282 361 414
#     4  10  21  42  67 103 131 186 236 307 332 422
#     4  12  25  41  69 104 145 180 237 293 366 424
#     4  11  21  40  73  98 135 184 250 293 342 423
#     4  11  27  47  66 108 148 187 217 304 365 436
#     4  10  21  42  74  96 133 182 250 284 335 425
#
# _framework density 23.187885999999999
#
# number of rings (size 3 to 8) (size 9 to 14) (size 15 to 20)
#    0.857    0.571    2.857    2.571    4.000    1.143 
#    2.571    0.000    0.000    0.000    0.000    0.000 
#    0.000    0.000    0.000    0.000    0.000    0.000 
#
# Total GULP energy -78030.202350 kJ/mol
# GULP energy per Si atom -5573.585882 kJ/mol
# Density = 2.313511 g / cm^3
# Si number density = 23.187886 Si / 1000 Ang^3
#
#
#
# Elastic Constant Matrix: (Units=GPa)
#
#
# Indices 1 2 3 4 5 6 
#
# 1 61.4556 9.4335 17.0231 0.0000 7.2481 0.0000
# 2 9.4335 88.5300 20.0164 0.0000 3.1652 0.0000
# 3 17.0231 20.0164 107.1334 0.0000 -0.7131 0.0000
# 4 0.0000 0.0000 0.0000 21.8649 0.0000 2.1675
# 5 7.2481 3.1652 -0.7131 0.0000 17.4693 0.0000
# 6 0.0000 0.0000 0.0000 2.1675 0.0000 31.0292
#
#
#
# Elastic Compliance Matrix: (Units=1/GPa)
#
#
# Indices 1 2 3 4 5 6 
#
# 1 0.018061 -0.001043 -0.002724 0.000000 -0.007416 0.000000
# 2 -0.001043 0.011941 -0.002077 0.000000 -0.001815 0.000000
# 3 -0.002724 -0.002077 0.010168 0.000000 0.001922 0.000000
# 4 0.000000 0.000000 0.000000 0.046054 0.000000 -0.003217
# 5 -0.007416 -0.001815 0.001922 0.000000 0.060728 0.000000
# 6 0.000000 0.000000 0.000000 -0.003217 0.000000 0.032452
#
#
# Mechanical properties :
#
#
# Convention : Reuss Voigt Hill
#
# Bulk Modulus (GPa) = 35.11183 38.89613 37.00398
# Shear Modulus (GPa) = 24.92663 28.11575 26.52119
#
# Velocity S-wave (km/s) = 3.28225 3.48590 3.38561
# Velocity P-wave (km/s) = 5.43502 5.74567 5.59250
#
# Compressibility (1/GPa) = 0.02848043
#
# Stress axis : x y z
#
# Youngs Moduli (GPa) = 55.36689 83.74236 98.34822
#
# Poissons Ratio (x) = 0.08738 0.26793
# Poissons Ratio (y) = 0.05777 0.20430
# Poissons Ratio (z) = 0.15084 0.17396
#
# Static dielectric constant tensor:
#      x y z
#    x 1.933490 0.000000 0.020730 
#    y 0.000000 1.861560 0.000000 
#    z 0.020730 0.000000 1.955580 
# 
# From -- ./inp_files/21876.got.cif
#   From: 2010.05.17/outbox.cif.g08.bks.cpg/sg9_11_cif.got.tgz:21876.got - 2010.06.03 20:04:27.
