data_PCOD9136625
_publ_section_title
;
Structure prediction by ZEFSAII (Michael W. Deem and Ramdas Pophale) SiO2 
 PCOD9136625
Probable space group: C C
;
_chemical_formula_sum "Si O2"
_cell_formula_units_Z 32
_cell_length_a 12.160200
_cell_length_b 8.899448
_cell_length_c 15.778342
_cell_angle_alpha 90.000000
_cell_angle_beta 56.376047
_cell_angle_gamma 90.000000
_cell_volume 1421.832402
_symmetry_space_group_name_H-M "C C"
_symmetry_group_IT_number 9
_symmetry_cell_setting 'monoclinic'
loop_
_space_group_symop_operation_xyz
x,y,z
x,-y,1/2+z
1/2+x,1/2+y,z
1/2+x,1/2-y,1/2+z
loop_
_atom_site_type_symbol
_atom_site_label
_atom_site_fract_x
_atom_site_fract_y
_atom_site_fract_z
Si Si1 0.674120 0.339993 0.491330
Si Si2 0.425586 0.854090 0.045990
Si Si3 0.568351 0.866308 0.521462
Si Si4 0.781748 0.243095 0.796587
Si Si5 0.445526 0.314062 0.371952
Si Si6 0.738974 0.422915 0.277994
Si Si7 0.788244 0.053764 0.511826
Si Si8 0.942103 0.939594 0.119342
O O1 0.564619 0.226582 0.501461
O O2 0.751459 0.400269 0.375109
O O3 0.761530 0.230785 0.512393
O O4 0.574450 0.461472 0.576831
O O5 0.339892 0.846386 0.168494
O O6 0.379564 0.778428 0.978319
O O7 0.463877 0.026756 0.019717
O O8 0.663332 0.793930 0.411084
O O9 0.494162 0.729496 0.594663
O O10 0.651536 0.962922 0.555085
O O11 0.745591 0.395918 0.762658
O O12 0.906669 0.272658 0.804508
O O13 0.818714 0.086614 0.734171
O O14 0.598423 0.349159 0.316216
O O15 0.378236 0.479228 0.400506
O O16 0.873496 0.020657 0.559371
#
# Coordination Sequence:
#
# PCOD9136625 Si02
#       8
#     4   4   4   4   4   4   4   4
#     4  10  23  42  70  99 137 177 224 291 333 409
#     4  10  21  42  68  98 137 180 223 281 343 405
#     4  10  22  43  65  96 139 170 227 281 331 409
#     4  11  24  40  68  99 135 179 224 285 337 408
#     4  10  23  43  66  99 137 180 227 285 341 409
#     4  11  21  44  68  98 137 176 228 278 343 408
#     4  10  22  44  66  96 138 176 218 281 344 396
#     4  12  22  44  67  99 138 176 223 282 338 400
#
# _framework density 22.506169
#
# number of rings (size 3 to 8) (size 9 to 14) (size 15 to 20)
#    0.000    1.500    5.000    0.000    0.000    8.000 
#    2.250    3.750    0.000    0.000    0.000    0.000 
#    0.000    0.000    0.000    0.000    0.000    0.000 
#
# Total GULP energy -89120.931489 kJ/mol
# GULP energy per Si atom -5570.058218 kJ/mol
# Density = 2.245494 g / cm^3
# Si number density = 22.506169 Si / 1000 Ang^3
#
#
#
# Elastic Constant Matrix: (Units=GPa)
#
#
# Indices 1 2 3 4 5 6 
#
# 1 49.4508 20.9991 15.3061 0.0000 -6.0369 0.0000
# 2 20.9991 86.4628 6.0449 0.0000 2.4213 0.0000
# 3 15.3061 6.0449 83.8002 0.0000 5.7656 0.0000
# 4 0.0000 0.0000 0.0000 27.4145 0.0000 -2.6122
# 5 -6.0369 2.4213 5.7656 0.0000 8.3122 0.0000
# 6 0.0000 0.0000 0.0000 -2.6122 0.0000 35.2671
#
#
#
# Elastic Compliance Matrix: (Units=1/GPa)
#
#
# Indices 1 2 3 4 5 6 
#
# 1 0.028733 -0.007288 -0.006620 0.000000 0.027583 0.000000
# 2 -0.007288 0.013542 0.001040 0.000000 -0.009959 0.000000
# 3 -0.006620 0.001040 0.014091 0.000000 -0.014885 0.000000
# 4 0.000000 0.000000 0.000000 0.036736 0.000000 0.002721
# 5 0.027583 -0.009959 -0.014885 0.000000 0.153564 0.000000
# 6 0.000000 0.000000 0.000000 0.002721 0.000000 0.028557
#
#
# Mechanical properties :
#
#
# Convention : Reuss Voigt Hill
#
# Bulk Modulus (GPa) = 32.64848 33.82377 33.23613
# Shear Modulus (GPa) = 16.06831 26.02300 21.04566
#
# Velocity S-wave (km/s) = 2.67489 3.40407 3.06127
# Velocity P-wave (km/s) = 4.90693 5.52373 5.22444
#
# Compressibility (1/GPa) = 0.03062930
#
# Stress axis : x y z
#
# Youngs Moduli (GPa) = 34.80265 73.84472 70.96485
#
# Poissons Ratio (x) = 0.53819 0.46980
# Poissons Ratio (y) = 0.25364 -0.07377
# Poissons Ratio (z) = 0.23040 -0.07676
#
# Static dielectric constant tensor:
#      x y z
#    x 1.868980 0.000000 0.020910 
#    y 0.000000 1.893820 0.000000 
#    z 0.020910 0.000000 1.885920 
# 
# From -- ./inp_files/25659.got.cif
#   From: 2010.05.17/outbox.cif.g08.bks.cpg/sg9_13_cif.got.tgz:25659.got - 2010.06.03 20:04:27.
