data_PCOD9136954
_publ_section_title
;
Structure prediction by ZEFSAII (Michael W. Deem and Ramdas Pophale) SiO2 
 PCOD9136954
Probable space group: C C
;
_chemical_formula_sum "Si O2"
_cell_formula_units_Z 24
_cell_length_a 5.036474
_cell_length_b 13.449133
_cell_length_c 14.066654
_cell_angle_alpha 90.000000
_cell_angle_beta 101.042551
_cell_angle_gamma 90.000000
_cell_volume 935.180513
_symmetry_space_group_name_H-M "C C"
_symmetry_group_IT_number 9
_symmetry_cell_setting 'monoclinic'
loop_
_space_group_symop_operation_xyz
x,y,z
x,-y,1/2+z
1/2+x,1/2+y,z
1/2+x,1/2-y,1/2+z
loop_
_atom_site_type_symbol
_atom_site_label
_atom_site_fract_x
_atom_site_fract_y
_atom_site_fract_z
Si Si1 0.805920 0.071813 0.782070
Si Si2 0.595935 0.585284 0.172959
Si Si3 0.042693 0.159447 0.441798
Si Si4 0.972811 0.274054 0.818989
Si Si5 0.778731 0.026243 0.982014
Si Si6 0.407541 0.903902 0.101032
O O1 0.029182 0.157179 0.809569
O O2 0.658158 0.061820 0.873997
O O3 0.618234 0.129772 0.693969
O O4 0.912761 0.968692 0.742538
O O5 0.818947 0.664172 0.224538
O O6 0.769019 0.494147 0.145796
O O7 0.399183 0.603135 0.067790
O O8 0.252768 0.207408 0.385599
O O9 0.183276 0.176252 0.554309
O O10 0.751063 0.186021 0.382283
O O11 0.025104 0.039293 0.454084
O O12 0.590303 0.950172 0.028022
#
# Coordination Sequence:
#
# PCOD9136954 Si02
#       6
#     4   4   4   4   4   4
#     4  11  25  45  76 111 145 199 251 300 382 446
#     4  10  24  44  72 104 150 194 245 305 370 440
#     4  11  23  46  72 100 146 191 237 304 367 433
#     4  12  26  45  74 111 150 192 247 314 364 448
#     4  10  21  46  74 103 140 196 243 299 373 446
#     4  10  23  44  76 105 147 194 247 302 368 447
#
# _framework density 25.663492999999999
#
# number of rings (size 3 to 8) (size 9 to 14) (size 15 to 20)
#    0.000    1.333    3.333    1.000    4.667    1.333 
#    0.000    0.000    0.000    0.000    0.000    0.000 
#    0.000    0.000    0.000    0.000    0.000    0.000 
#
# Total GULP energy -66822.259569 kJ/mol
# GULP energy per Si atom -5568.521631 kJ/mol
# Density = 2.560508 g / cm^3
# Si number density = 25.663493 Si / 1000 Ang^3
#
#
#
# Elastic Constant Matrix: (Units=GPa)
#
#
# Indices 1 2 3 4 5 6 
#
# 1 114.6949 20.4258 55.5152 0.0000 20.1449 0.0000
# 2 20.4258 82.3197 34.5661 0.0000 9.7574 0.0000
# 3 55.5152 34.5661 182.9721 0.0000 5.6189 0.0000
# 4 0.0000 0.0000 0.0000 -6.6195 0.0000 3.3117
# 5 20.1449 9.7574 5.6189 0.0000 38.4256 0.0000
# 6 0.0000 0.0000 0.0000 3.3117 0.0000 18.1182
#
#
#
# Elastic Compliance Matrix: (Units=1/GPa)
#
#
# Indices 1 2 3 4 5 6 
#
# 1 0.011298 -0.000880 -0.003101 0.000000 -0.005246 0.000000
# 2 -0.000880 0.013616 -0.002223 0.000000 -0.002671 0.000000
# 3 -0.003101 -0.002223 0.006789 0.000000 0.001197 0.000000
# 4 0.000000 0.000000 0.000000 -0.138411 0.000000 0.025299
# 5 -0.005246 -0.002671 0.001197 0.000000 0.029278 0.000000
# 6 0.000000 0.000000 0.000000 0.025299 0.000000 0.050569
#
#
# Mechanical properties :
#
#
# Convention : Reuss Voigt Hill
#
# Bulk Modulus (GPa) = 51.82361 66.77789 59.30075
# Shear Modulus (GPa) = -623.27997 27.95015 -297.66491
#
# Velocity S-wave (km/s) = -15.60108 3.30373 -10.78144
# Velocity P-wave (km/s) = 17.44384 6.37416 11.48167
#
# Compressibility (1/GPa) = 0.01929623
#
# Stress axis : x y z
#
# Youngs Moduli (GPa) = 88.51458 73.44169 147.29041
#
# Poissons Ratio (x) = 0.06459 0.45668
# Poissons Ratio (y) = 0.07785 0.32749
# Poissons Ratio (z) = 0.27444 0.16329
#
# Static dielectric constant tensor:
#      x y z
#    x 2.128780 0.000000 0.153060 
#    y 0.000000 2.045130 0.000000 
#    z 0.153060 0.000000 2.300140 
# 
# From -- ./inp_files/13047.got.cif
#   From: 2010.05.17/outbox.cif.g08.bks.cpg/sg9_7_cif.got.tgz:13047.got - 2010.06.03 20:04:27.
