data_PCOD9136386
_publ_section_title
;
Structure prediction by ZEFSAII (Michael W. Deem and Ramdas Pophale) SiO2 
 PCOD9136386
Probable space group: C C
;
_chemical_formula_sum "Si O2"
_cell_formula_units_Z 32
_cell_length_a 5.311247
_cell_length_b 22.412932
_cell_length_c 9.658602
_cell_angle_alpha 90.000000
_cell_angle_beta 90.740098
_cell_angle_gamma 90.000000
_cell_volume 1149.670030
_symmetry_space_group_name_H-M "C C"
_symmetry_group_IT_number 9
_symmetry_cell_setting 'monoclinic'
loop_
_space_group_symop_operation_xyz
x,y,z
x,-y,1/2+z
1/2+x,1/2+y,z
1/2+x,1/2-y,1/2+z
loop_
_atom_site_type_symbol
_atom_site_label
_atom_site_fract_x
_atom_site_fract_y
_atom_site_fract_z
Si Si1 0.276940 0.848057 0.737870
Si Si2 0.552374 0.762881 0.366852
Si Si3 0.505488 0.497705 0.366058
Si Si4 0.982600 0.632470 0.535285
Si Si5 0.763939 0.086225 0.176452
Si Si6 0.861218 0.504558 0.621172
Si Si7 0.170807 0.228696 0.668180
Si Si8 0.830721 0.871224 0.252544
O O1 0.249299 0.778305 0.779185
O O2 0.533458 0.867461 0.665171
O O3 0.026914 0.876136 0.663185
O O4 0.341790 0.874134 0.890366
O O5 0.300807 0.736033 0.294205
O O6 0.534580 0.753190 0.530839
O O7 0.626776 0.831588 0.336175
O O8 0.318486 0.551706 0.323503
O O9 0.635387 0.490523 0.514242
O O10 0.745930 0.510173 0.268457
O O11 0.381628 0.435388 0.316548
O O12 0.271028 0.627560 0.586382
O O13 0.891702 0.575173 0.620387
O O14 0.905998 0.697525 0.588374
O O15 0.621571 0.030775 0.094358
O O16 0.063711 0.172744 0.752427
#
# Coordination Sequence:
#
# PCOD9136386 Si02
#       8
#     4   4   4   4   4   4   4   4
#     4  11  26  45  75 110 149 199 259 316 374 472
#     4  10  26  47  70 112 144 203 259 318 385 458
#     4  12  27  45  78 112 158 199 261 312 393 466
#     4  10  21  40  71 105 143 198 255 296 383 466
#     4  12  25  46  71 114 149 200 254 320 382 454
#     4  12  24  47  68 114 153 208 245 321 389 467
#     4  10  23  45  73 103 148 199 253 319 381 465
#     4  11  24  45  76 110 150 202 254 320 385 460
#
# _framework density 27.834074999999999
#
# number of rings (size 3 to 8) (size 9 to 14) (size 15 to 20)
#    0.000    1.000    5.000    0.000    7.000    4.000 
#    2.250    0.000    0.000    0.000    0.000    0.000 
#    0.000    0.000    0.000    0.000    0.000    0.000 
#
# Total GULP energy -89218.678721 kJ/mol
# GULP energy per Si atom -5576.167420 kJ/mol
# Density = 2.777072 g / cm^3
# Si number density = 27.834075 Si / 1000 Ang^3
#
#
#
# Elastic Constant Matrix: (Units=GPa)
#
#
# Indices 1 2 3 4 5 6 
#
# 1 125.0248 22.4255 15.7729 0.0000 33.3498 0.0000
# 2 22.4255 134.8741 23.9681 0.0000 12.5479 0.0000
# 3 15.7729 23.9681 96.4328 0.0000 13.1979 0.0000
# 4 0.0000 0.0000 0.0000 42.1437 0.0000 4.6071
# 5 33.3498 12.5479 13.1979 0.0000 39.8818 0.0000
# 6 0.0000 0.0000 0.0000 4.6071 0.0000 48.1021
#
#
#
# Elastic Compliance Matrix: (Units=1/GPa)
#
#
# Indices 1 2 3 4 5 6 
#
# 1 0.010422 -0.000898 -0.000343 0.000000 -0.008319 0.000000
# 2 -0.000898 0.007972 -0.001670 0.000000 -0.001205 0.000000
# 3 -0.000343 -0.001670 0.011239 0.000000 -0.002907 0.000000
# 4 0.000000 0.000000 0.000000 0.023979 0.000000 -0.002297
# 5 -0.008319 -0.001205 -0.002907 0.000000 0.033372 0.000000
# 6 0.000000 0.000000 0.000000 -0.002297 0.000000 0.021009
#
#
# Mechanical properties :
#
#
# Convention : Reuss Voigt Hill
#
# Bulk Modulus (GPa) = 41.99586 53.40718 47.70152
# Shear Modulus (GPa) = 41.06717 45.63652 43.35185
#
# Velocity S-wave (km/s) = 3.84530 4.05358 3.95081
# Velocity P-wave (km/s) = 5.90218 6.41389 6.16335
#
# Compressibility (1/GPa) = 0.02381187
#
# Stress axis : x y z
#
# Youngs Moduli (GPa) = 95.95315 125.43199 88.97678
#
# Poissons Ratio (x) = 0.11263 0.03051
# Poissons Ratio (y) = 0.08616 0.14857
# Poissons Ratio (z) = 0.03290 0.20944
#
# Static dielectric constant tensor:
#      x y z
#    x 2.456160 0.000000 -0.035220 
#    y 0.000000 2.315390 0.000000 
#    z -0.035220 0.000000 2.218790 
# 
# From -- ./inp_files/13784.got.cif
#   From: 2010.05.17/outbox.cif.g08.bks.cpg/sg9_7_cif.got.tgz:13784.got - 2010.06.03 20:04:27.
