data_PCOD9136021
_publ_section_title
;
Structure prediction by ZEFSAII (Michael W. Deem and Ramdas Pophale) SiO2 
 PCOD9136021
Probable space group: C C
;
_chemical_formula_sum "Si O2"
_cell_formula_units_Z 20
_cell_length_a 12.320522
_cell_length_b 8.428394
_cell_length_c 15.276582
_cell_angle_alpha 90.000000
_cell_angle_beta 152.793605
_cell_angle_gamma 90.000000
_cell_volume 725.276642
_symmetry_space_group_name_H-M "C C"
_symmetry_group_IT_number 9
_symmetry_cell_setting 'monoclinic'
loop_
_space_group_symop_operation_xyz
x,y,z
x,-y,1/2+z
1/2+x,1/2+y,z
1/2+x,1/2-y,1/2+z
loop_
_atom_site_type_symbol
_atom_site_label
_atom_site_fract_x
_atom_site_fract_y
_atom_site_fract_z
Si Si1 0.739730 0.547328 0.501460
Si Si2 0.205857 0.482695 0.064874
Si Si3 0.719569 0.570570 0.694599
Si Si4 0.217253 0.567929 0.367135
Si Si5 0.618390 0.783109 0.173630
O O1 0.476911 0.528843 0.277129
O O2 0.727277 0.568689 0.595758
O O3 0.942279 0.408880 0.638437
O O4 0.863786 0.690570 0.537895
O O5 0.156195 0.348848 0.102565
O O6 0.190892 0.436899 0.952697
O O7 0.989652 0.609841 0.917407
O O8 0.470441 0.653423 0.537652
O O9 0.692934 0.398796 0.723405
O O10 0.262620 0.409758 0.338022
#
# Coordination Sequence:
#
# PCOD9136021 Si02
#       5
#     4   4   4   4   4
#     4   9  20  38  54  93 131 161 208 274 322 387
#     4  11  20  35  61  90 130 169 206 270 332 375
#     4  11  20  38  63  96 122 165 219 269 319 395
#     4   9  21  35  56  89 128 163 213 260 326 389
#     4  10  21  38  62  94 129 160 220 269 319 394
#
# _framework density 27.575685
#
# number of rings (size 3 to 8) (size 9 to 14) (size 15 to 20)
#    1.200    0.800    2.000    2.400    0.000    0.000 
#    3.600    0.000    0.000    2.400   20.800    0.000 
#    0.000    0.000    0.000    0.000    0.000    0.000 
#
# Total GULP energy -55704.975879 kJ/mol
# GULP energy per Si atom -5570.497588 kJ/mol
# Density = 2.751292 g / cm^3
# Si number density = 27.575685 Si / 1000 Ang^3
#
#
#
# Elastic Constant Matrix: (Units=GPa)
#
#
# Indices 1 2 3 4 5 6 
#
# 1 220.8854 82.2712 54.0966 0.0011 3.1562 0.0005
# 2 82.2712 93.3472 26.8238 0.0024 -13.9558 0.0007
# 3 54.0966 26.8238 264.5361 0.0037 53.8561 0.0013
# 4 0.0011 0.0024 0.0037 -29.9593 0.0020 -25.4410
# 5 3.1562 -13.9558 53.8561 0.0020 72.2947 0.0004
# 6 0.0005 0.0007 0.0013 -25.4410 0.0004 30.6913
#
#
#
# Elastic Compliance Matrix: (Units=1/GPa)
#
#
# Indices 1 2 3 4 5 6 
#
# 1 0.006970 -0.006130 -0.000590 0.000000 -0.001048 0.000000
# 2 -0.006130 0.017228 -0.001444 0.000001 0.004669 0.000000
# 3 -0.000590 -0.001444 0.004832 0.000000 -0.003852 0.000000
# 4 0.000000 0.000001 0.000000 -0.019589 0.000001 -0.016238
# 5 -0.001048 0.004669 -0.003852 0.000001 0.017649 0.000000
# 6 0.000000 0.000000 0.000000 -0.016238 0.000000 0.019122
#
#
# Mechanical properties :
#
#
# Convention : Reuss Voigt Hill
#
# Bulk Modulus (GPa) = 78.73262 100.57241 89.65251
# Shear Modulus (GPa) = 74.87932 42.31049 58.59491
#
# Velocity S-wave (km/s) = 5.21661 3.92132 4.61464
# Velocity P-wave (km/s) = 8.05590 7.55334 7.80866
#
# Compressibility (1/GPa) = 0.01270122
#
# Stress axis : x y z
#
# Youngs Moduli (GPa) = 143.47263 58.04421 206.96898
#
# Poissons Ratio (x) = 0.35581 0.12220
# Poissons Ratio (y) = 0.87948 0.29885
# Poissons Ratio (z) = 0.08471 0.08381
#
# Static dielectric constant tensor:
#      x y z
#    x 2.066160 0.000000 0.100760 
#    y 0.000000 2.308760 0.000000 
#    z 0.100760 0.000000 2.340580 
# 
# From -- ./inp_files/16762.got.cif
#   From: 2010.05.17/outbox.cif.g08.bks.cpg/sg9_9_cif.got.tgz:16762.got - 2010.06.03 20:04:27.
