data_PCOD9136661
_publ_section_title
;
Structure prediction by ZEFSAII (Michael W. Deem and Ramdas Pophale) SiO2 
 PCOD9136661
Probable space group: C C
;
_chemical_formula_sum "Si O2"
_cell_formula_units_Z 32
_cell_length_a 14.845995
_cell_length_b 14.417151
_cell_length_c 11.488613
_cell_angle_alpha 90.000000
_cell_angle_beta 145.355077
_cell_angle_gamma 90.000000
_cell_volume 1397.907349
_symmetry_space_group_name_H-M "C C"
_symmetry_group_IT_number 9
_symmetry_cell_setting 'monoclinic'
loop_
_space_group_symop_operation_xyz
x,y,z
x,-y,1/2+z
1/2+x,1/2+y,z
1/2+x,1/2-y,1/2+z
loop_
_atom_site_type_symbol
_atom_site_label
_atom_site_fract_x
_atom_site_fract_y
_atom_site_fract_z
Si Si1 0.315630 0.440244 0.958210
Si Si2 0.298775 0.063750 0.227848
Si Si3 0.309374 0.645116 0.980424
Si Si4 0.324610 0.138089 0.812250
Si Si5 0.017393 0.808955 0.341380
Si Si6 0.500336 0.113203 0.228760
Si Si7 0.981322 0.293917 0.041241
Si Si8 0.182742 0.333416 0.604151
O O1 0.379109 0.544752 0.022225
O O2 0.137002 0.447663 0.817954
O O3 0.291558 0.393485 0.807716
O O4 0.407608 0.371958 0.143020
O O5 0.438302 0.068513 0.280739
O O6 0.369854 0.115821 0.416070
O O7 0.249736 0.958993 0.195322
O O8 0.160416 0.126678 0.031598
O O9 0.161898 0.673116 0.740518
O O10 0.437514 0.726140 0.099860
O O11 0.237081 0.644281 0.032156
O O12 0.219943 0.226252 0.671338
O O13 0.360692 0.129112 0.987948
O O14 0.498504 0.147712 0.937276
O O15 0.066606 0.716336 0.324424
O O16 0.949397 0.765876 0.389570
#
# Coordination Sequence:
#
# PCOD9136661 Si02
#       8
#     4   4   4   4   4   4   4   4
#     4  11  25  43  71 104 134 181 232 283 345 413
#     4  11  24  43  70 101 136 180 230 280 343 407
#     4  12  26  45  71  97 144 184 227 286 344 414
#     4  11  24  43  68 100 139 178 229 280 340 409
#     4  11  23  43  71 102 136 173 234 290 333 406
#     4  10  21  42  71  97 133 180 224 286 337 401
#     4  11  24  46  68 103 137 181 229 284 345 403
#     4  11  25  45  68 100 141 183 227 283 351 405
#
# _framework density 22.891361
#
# number of rings (size 3 to 8) (size 9 to 14) (size 15 to 20)
#    0.000    1.000    2.500    4.500    5.250    3.000 
#    2.250    0.000    0.000    0.000    0.000    0.000 
#    0.000    0.000    0.000    0.000    0.000    0.000 
#
# Total GULP energy -89576.214207 kJ/mol
# GULP energy per Si atom -5598.513388 kJ/mol
# Density = 2.283926 g / cm^3
# Si number density = 22.891361 Si / 1000 Ang^3
#
#
#
# Elastic Constant Matrix: (Units=GPa)
#
#
# Indices 1 2 3 4 5 6 
#
# 1 45.8787 16.4220 -0.8399 0.0000 -17.3275 0.0000
# 2 16.4220 133.7096 13.1817 0.0000 -13.2215 0.0000
# 3 -0.8399 13.1817 61.3487 0.0000 -8.1342 0.0000
# 4 0.0000 0.0000 0.0000 25.5401 0.0000 0.4742
# 5 -17.3275 -13.2215 -8.1342 0.0000 25.4014 0.0000
# 6 0.0000 0.0000 0.0000 0.4742 0.0000 17.1588
#
#
#
# Elastic Compliance Matrix: (Units=1/GPa)
#
#
# Indices 1 2 3 4 5 6 
#
# 1 0.030483 -0.002035 0.003625 0.000000 0.020896 0.000000
# 2 -0.002035 0.008106 -0.001456 0.000000 0.002365 0.000000
# 3 0.003625 -0.001456 0.017639 0.000000 0.007363 0.000000
# 4 0.000000 0.000000 0.000000 0.039174 0.000000 -0.001083
# 5 0.020896 0.002365 0.007363 0.000000 0.057211 0.000000
# 6 0.000000 0.000000 0.000000 -0.001083 0.000000 0.058309
#
#
# Mechanical properties :
#
#
# Convention : Reuss Voigt Hill
#
# Bulk Modulus (GPa) = 17.70020 33.16273 25.43146
# Shear Modulus (GPa) = 21.78777 27.76496 24.77636
#
# Velocity S-wave (km/s) = 3.08846 3.48645 3.29347
# Velocity P-wave (km/s) = 4.52406 5.54307 5.05928
#
# Compressibility (1/GPa) = 0.05649655
#
# Stress axis : x y z
#
# Youngs Moduli (GPa) = 32.80491 123.36208 56.69230
#
# Poissons Ratio (x) = 0.25105 -0.20552
# Poissons Ratio (y) = 0.06676 0.08255
# Poissons Ratio (z) = -0.11892 0.17962
#
# Static dielectric constant tensor:
#      x y z
#    x 1.864960 0.000000 -0.008700 
#    y 0.000000 1.838100 0.000000 
#    z -0.008700 0.000000 1.855460 
# 
# From -- ./inp_files/7659.got.cif
#   From: 2010.05.17/outbox.cif.g08.bks.cpg/sg9_4_cif.got.tgz:7659.got - 2010.06.03 20:04:27.
