data_PCOD9136474
_publ_section_title
;
Structure prediction by ZEFSAII (Michael W. Deem and Ramdas Pophale) SiO2 
 PCOD9136474
Probable space group: C C
;
_chemical_formula_sum "Si O2"
_cell_formula_units_Z 28
_cell_length_a 9.191756
_cell_length_b 16.336558
_cell_length_c 7.275181
_cell_angle_alpha 90.000000
_cell_angle_beta 84.982831
_cell_angle_gamma 90.000000
_cell_volume 1088.267525
_symmetry_space_group_name_H-M "C C"
_symmetry_group_IT_number 9
_symmetry_cell_setting 'monoclinic'
loop_
_space_group_symop_operation_xyz
x,y,z
x,-y,1/2+z
1/2+x,1/2+y,z
1/2+x,1/2-y,1/2+z
loop_
_atom_site_type_symbol
_atom_site_label
_atom_site_fract_x
_atom_site_fract_y
_atom_site_fract_z
Si Si1 0.254370 0.114776 0.699030
Si Si2 0.265653 0.577517 0.473855
Si Si3 0.532961 0.195249 0.611309
Si Si4 0.034103 0.886449 0.681954
Si Si5 0.433206 0.610272 0.827849
Si Si6 0.633984 0.104147 0.970475
Si Si7 0.829972 0.570081 0.109844
O O1 0.364843 0.176850 0.591804
O O2 0.083431 0.140310 0.713555
O O3 0.309980 0.027481 0.613649
O O4 0.290163 0.106426 0.913678
O O5 0.153555 0.653343 0.468831
O O6 0.398546 0.592081 0.322243
O O7 0.341008 0.578480 0.665732
O O8 0.178472 0.492632 0.457234
O O9 0.547763 0.291486 0.628543
O O10 0.568331 0.147076 0.797044
O O11 0.006362 0.936345 0.493622
O O12 0.192124 0.905090 0.749905
O O13 0.294012 0.647025 0.960223
O O14 0.495342 0.100457 0.125337
#
# Coordination Sequence:
#
# PCOD9136474 Si02
#       7
#     4   4   4   4   4   4   4
#     4  10  21  41  66  98 137 177 243 295 349 437
#     4  11  24  45  74  99 146 191 241 300 363 434
#     4  10  24  46  71 104 144 185 246 300 368 442
#     4  11  26  45  73 104 145 195 229 309 377 428
#     4  10  25  42  67 105 141 179 248 291 358 438
#     4  10  22  44  70 103 138 190 250 303 348 440
#     4  10  22  39  67  99 137 183 239 296 361 427
#
# _framework density 25.728967999999998
#
# number of rings (size 3 to 8) (size 9 to 14) (size 15 to 20)
#    0.000    1.714    1.429    0.857   16.000    0.000 
#    5.143    0.000    0.000    0.000    0.000    0.000 
#    0.000    0.000    0.000    0.000    0.000    0.000 
#
# Total GULP energy -77935.391856 kJ/mol
# GULP energy per Si atom -5566.813704 kJ/mol
# Density = 2.567041 g / cm^3
# Si number density = 25.728968 Si / 1000 Ang^3
#
#
#
# Elastic Constant Matrix: (Units=GPa)
#
#
# Indices 1 2 3 4 5 6 
#
# 1 210.3135 48.9644 47.1644 0.0000 -55.9885 0.0000
# 2 48.9644 141.4244 12.8284 0.0000 -9.3086 0.0000
# 3 47.1644 12.8284 94.8966 0.0000 -9.8314 0.0000
# 4 0.0000 0.0000 0.0000 -27.9803 0.0000 -8.0315
# 5 -55.9885 -9.3086 -9.8314 0.0000 62.2927 0.0000
# 6 0.0000 0.0000 0.0000 -8.0315 0.0000 25.5400
#
#
#
# Elastic Compliance Matrix: (Units=1/GPa)
#
#
# Indices 1 2 3 4 5 6 
#
# 1 0.007411 -0.001921 -0.002809 0.000000 0.005930 0.000000
# 2 -0.001921 0.007710 -0.000150 0.000000 -0.000598 0.000000
# 3 -0.002809 -0.000150 0.011885 0.000000 -0.000672 0.000000
# 4 0.000000 0.000000 0.000000 -0.032781 0.000000 -0.010308
# 5 0.005930 -0.000598 -0.000672 0.000000 0.021188 0.000000
# 6 0.000000 0.000000 0.000000 -0.010308 0.000000 0.035913
#
#
# Mechanical properties :
#
#
# Convention : Reuss Voigt Hill
#
# Bulk Modulus (GPa) = 57.98237 73.83878 65.91058
# Shear Modulus (GPa) = 74.81317 34.48230 54.64774
#
# Velocity S-wave (km/s) = 5.39820 3.66486 4.61366
# Velocity P-wave (km/s) = 7.83829 6.83149 7.35215
#
# Compressibility (1/GPa) = 0.01724662
#
# Stress axis : x y z
#
# Youngs Moduli (GPa) = 134.94079 129.69995 84.14242
#
# Poissons Ratio (x) = 0.24910 0.23637
# Poissons Ratio (y) = 0.25917 0.01259
# Poissons Ratio (z) = 0.37907 0.01941
#
# Static dielectric constant tensor:
#      x y z
#    x 2.140670 0.000000 -0.028490 
#    y 0.000000 2.057390 0.000000 
#    z -0.028490 0.000000 2.131480 
# 
# From -- ./inp_files/5340.got.cif
#   From: 2010.05.17/outbox.cif.g08.bks.cpg/sg9_3_cif.got.tgz:5340.got - 2010.06.03 20:04:27.
