data_PCOD9136209
_publ_section_title
;
Structure prediction by ZEFSAII (Michael W. Deem and Ramdas Pophale) SiO2 
 PCOD9136209
Probable space group: C C
;
_chemical_formula_sum "Si O2"
_cell_formula_units_Z 32
_cell_length_a 14.289364
_cell_length_b 9.900144
_cell_length_c 14.376005
_cell_angle_alpha 90.000000
_cell_angle_beta 41.376504
_cell_angle_gamma 90.000000
_cell_volume 1344.302006
_symmetry_space_group_name_H-M "C C"
_symmetry_group_IT_number 9
_symmetry_cell_setting 'monoclinic'
loop_
_space_group_symop_operation_xyz
x,y,z
x,-y,1/2+z
1/2+x,1/2+y,z
1/2+x,1/2-y,1/2+z
loop_
_atom_site_type_symbol
_atom_site_label
_atom_site_fract_x
_atom_site_fract_y
_atom_site_fract_z
Si Si1 0.897370 0.544525 0.177210
Si Si2 0.493796 0.749809 0.036779
Si Si3 0.151225 0.085377 0.217665
Si Si4 0.301977 0.691626 0.341546
Si Si5 0.865513 0.449665 0.406902
Si Si6 0.870886 0.911262 0.461714
Si Si7 0.668362 0.895556 0.232604
Si Si8 0.702503 0.107812 0.920466
O O1 0.948151 0.400520 0.098258
O O2 0.752546 0.575531 0.232503
O O3 0.874769 0.528369 0.303577
O O4 0.035754 0.637848 0.057761
O O5 0.427408 0.669211 0.174109
O O6 0.424915 0.698412 0.994703
O O7 0.662592 0.738142 0.901395
O O8 0.147655 0.246968 0.204823
O O9 0.235219 0.018876 0.069840
O O10 0.003007 0.009653 0.339218
O O11 0.349118 0.793076 0.386317
O O12 0.239939 0.548516 0.417472
O O13 0.011578 0.459197 0.354469
O O14 0.802193 0.831705 0.425506
O O15 0.760297 0.005058 0.601061
O O16 0.731249 0.879156 0.289495
#
# Coordination Sequence:
#
# PCOD9136209 Si02
#       8
#     4   4   4   4   4   4   4   4
#     4  10  23  45  70  95 129 177 224 271 325 398
#     4  10  22  42  68  96 126 168 223 277 317 379
#     4  12  26  43  66 103 137 171 220 277 336 386
#     4  10  21  39  68  96 127 165 228 271 315 383
#     4  11  23  42  70  95 129 178 225 270 328 391
#     4  12  25  42  68 100 135 172 224 275 329 389
#     4  12  24  44  66  99 138 177 215 274 331 405
#     4  11  22  41  66  96 129 180 213 265 337 395
#
# _framework density 23.804175000000001
#
# number of rings (size 3 to 8) (size 9 to 14) (size 15 to 20)
#    0.000    1.000    3.750    3.750    5.250    1.000 
#    2.250    1.250    0.000    0.000    0.000    0.000 
#    0.000    0.000    0.000    0.000    0.000    0.000 
#
# Total GULP energy -89493.915597 kJ/mol
# GULP energy per Si atom -5593.369725 kJ/mol
# Density = 2.375000 g / cm^3
# Si number density = 23.804175 Si / 1000 Ang^3
#
#
#
# Elastic Constant Matrix: (Units=GPa)
#
#
# Indices 1 2 3 4 5 6 
#
# 1 148.3173 9.8170 48.3928 0.0000 5.6026 0.0000
# 2 9.8170 44.9952 13.0409 0.0000 -4.5016 0.0000
# 3 48.3928 13.0409 120.1631 0.0000 4.5002 0.0000
# 4 0.0000 0.0000 0.0000 20.5177 0.0000 2.2058
# 5 5.6026 -4.5016 4.5002 0.0000 48.6424 0.0000
# 6 0.0000 0.0000 0.0000 2.2058 0.0000 24.2188
#
#
#
# Elastic Compliance Matrix: (Units=1/GPa)
#
#
# Indices 1 2 3 4 5 6 
#
# 1 0.007815 -0.000899 -0.003023 0.000000 -0.000704 0.000000
# 2 -0.000899 0.023324 -0.002262 0.000000 0.002471 0.000000
# 3 -0.003023 -0.002262 0.009814 0.000000 -0.000769 0.000000
# 4 0.000000 0.000000 0.000000 0.049220 0.000000 -0.004483
# 5 -0.000704 0.002471 -0.000769 0.000000 0.020939 0.000000
# 6 0.000000 0.000000 0.000000 -0.004483 0.000000 0.041699
#
#
# Mechanical properties :
#
#
# Convention : Reuss Voigt Hill
#
# Bulk Modulus (GPa) = 34.98469 50.66409 42.82439
# Shear Modulus (GPa) = 28.61943 34.82410 31.72177
#
# Velocity S-wave (km/s) = 3.47116 3.82899 3.65446
# Velocity P-wave (km/s) = 5.54924 6.39360 5.98633
#
# Compressibility (1/GPa) = 0.02858393
#
# Stress axis : x y z
#
# Youngs Moduli (GPa) = 127.96178 42.87517 101.89696
#
# Poissons Ratio (x) = 0.03855 0.30807
# Poissons Ratio (y) = 0.11506 0.23046
# Poissons Ratio (z) = 0.38687 0.09697
#
# Static dielectric constant tensor:
#      x y z
#    x 1.946780 0.000000 -0.015430 
#    y 0.000000 1.942850 0.000000 
#    z -0.015430 0.000000 1.883080 
# 
# From -- ./inp_files/25862.got.cif
#   From: 2010.05.17/outbox.cif.g08.bks.cpg/sg9_13_cif.got.tgz:25862.got - 2010.06.03 20:04:27.
