data_PCOD9136600
_publ_section_title
;
Structure prediction by ZEFSAII (Michael W. Deem and Ramdas Pophale) SiO2 
 PCOD9136600
Probable space group: C C
;
_chemical_formula_sum "Si O2"
_cell_formula_units_Z 28
_cell_length_a 15.712223
_cell_length_b 13.994886
_cell_length_c 9.317479
_cell_angle_alpha 90.000000
_cell_angle_beta 34.447100
_cell_angle_gamma 90.000000
_cell_volume 1158.909303
_symmetry_space_group_name_H-M "C C"
_symmetry_group_IT_number 9
_symmetry_cell_setting 'monoclinic'
loop_
_space_group_symop_operation_xyz
x,y,z
x,-y,1/2+z
1/2+x,1/2+y,z
1/2+x,1/2-y,1/2+z
loop_
_atom_site_type_symbol
_atom_site_label
_atom_site_fract_x
_atom_site_fract_y
_atom_site_fract_z
Si Si1 0.339730 0.306734 0.439860
Si Si2 0.823881 0.010797 0.165926
Si Si3 0.124510 0.539250 0.714183
Si Si4 0.876517 0.347158 0.413174
Si Si5 0.168866 0.801872 0.954089
Si Si6 0.878342 0.631015 0.596161
Si Si7 0.173158 0.032209 0.682271
O O1 0.304717 0.390863 0.600274
O O2 0.209851 0.282789 0.507950
O O3 0.380850 0.213597 0.475175
O O4 0.498965 0.319782 0.139607
O O5 0.714047 0.939119 0.234362
O O6 0.754239 0.016105 0.419466
O O7 0.002008 0.997312 0.919825
O O8 0.030733 0.625748 0.777011
O O9 0.004381 0.452746 0.907944
O O10 0.775461 0.293837 0.669009
O O11 0.896148 0.314330 0.223007
O O12 0.788660 0.446365 0.505505
O O13 0.199021 0.894541 0.014513
O O14 0.719698 0.581229 0.769591
#
# Coordination Sequence:
#
# PCOD9136600 Si02
#       7
#     4   4   4   4   4   4   4
#     4  10  23  45  62  90 129 174 210 268 329 395
#     4  11  24  40  65  99 128 165 219 273 326 372
#     4  11  23  40  66  97 128 167 219 278 312 392
#     4  11  22  40  63  96 120 171 216 263 323 397
#     4  10  22  41  66  86 127 169 212 263 331 389
#     4  10  21  42  67  88 130 174 212 259 334 402
#     4   9  21  38  65  92 126 162 212 266 323 381
#
# _framework density 24.160647999999998
#
# number of rings (size 3 to 8) (size 9 to 14) (size 15 to 20)
#    0.000    1.714    1.429    2.571   10.000    0.000 
#    2.571    0.000    0.000    0.000    0.000    0.000 
#    0.000    0.000    0.000    0.000    0.000    0.000 
#
# Total GULP energy -78231.280600 kJ/mol
# GULP energy per Si atom -5587.948614 kJ/mol
# Density = 2.410566 g / cm^3
# Si number density = 24.160648 Si / 1000 Ang^3
#
#
#
# Elastic Constant Matrix: (Units=GPa)
#
#
# Indices 1 2 3 4 5 6 
#
# 1 100.2873 17.0177 22.3215 0.0000 -15.8286 0.0000
# 2 17.0177 39.6878 -0.2382 0.0000 -0.8860 0.0000
# 3 22.3215 -0.2382 70.6765 0.0000 4.4542 0.0000
# 4 0.0000 0.0000 0.0000 17.2513 0.0000 2.1278
# 5 -15.8286 -0.8860 4.4542 0.0000 51.1621 0.0000
# 6 0.0000 0.0000 0.0000 2.1278 0.0000 12.4676
#
#
#
# Elastic Compliance Matrix: (Units=1/GPa)
#
#
# Indices 1 2 3 4 5 6 
#
# 1 0.012455 -0.005274 -0.004212 0.000000 0.004129 0.000000
# 2 -0.005274 0.027440 0.001841 0.000000 -0.001317 0.000000
# 3 -0.004212 0.001841 0.015651 0.000000 -0.002634 0.000000
# 4 0.000000 0.000000 0.000000 0.059213 0.000000 -0.010106
# 5 0.004129 -0.001317 -0.002634 0.000000 0.021030 0.000000
# 6 0.000000 0.000000 0.000000 -0.010106 0.000000 0.081933
#
#
# Mechanical properties :
#
#
# Convention : Reuss Voigt Hill
#
# Bulk Modulus (GPa) = 24.84014 32.09486 28.46750
# Shear Modulus (GPa) = 20.28976 27.61292 23.95134
#
# Velocity S-wave (km/s) = 2.90105 3.38433 3.15197
# Velocity P-wave (km/s) = 4.63950 5.34644 5.00547
#
# Compressibility (1/GPa) = 0.04025742
#
# Stress axis : x y z
#
# Youngs Moduli (GPa) = 80.28688 36.44359 63.89235
#
# Poissons Ratio (x) = 0.19220 0.26910
# Poissons Ratio (y) = 0.42342 -0.11763
# Poissons Ratio (z) = 0.33814 -0.06710
#
# Static dielectric constant tensor:
#      x y z
#    x 1.927150 0.000000 0.010380 
#    y 0.000000 2.000110 0.000000 
#    z 0.010380 0.000000 1.914140 
# 
# From -- ./inp_files/7728.got.cif
#   From: 2010.05.17/outbox.cif.g08.bks.cpg/sg9_4_cif.got.tgz:7728.got - 2010.06.03 20:04:27.
