data_PCOD9136400
_publ_section_title
;
Structure prediction by ZEFSAII (Michael W. Deem and Ramdas Pophale) SiO2 
 PCOD9136400
Probable space group: C C
;
_chemical_formula_sum "Si O2"
_cell_formula_units_Z 32
_cell_length_a 15.092737
_cell_length_b 21.065083
_cell_length_c 8.190446
_cell_angle_alpha 90.000000
_cell_angle_beta 144.915745
_cell_angle_gamma 90.000000
_cell_volume 1496.720411
_symmetry_space_group_name_H-M "C C"
_symmetry_group_IT_number 9
_symmetry_cell_setting 'monoclinic'
loop_
_space_group_symop_operation_xyz
x,y,z
x,-y,1/2+z
1/2+x,1/2+y,z
1/2+x,1/2-y,1/2+z
loop_
_atom_site_type_symbol
_atom_site_label
_atom_site_fract_x
_atom_site_fract_y
_atom_site_fract_z
Si Si1 0.863370 0.141317 0.939490
Si Si2 0.860667 0.666971 0.738219
Si Si3 0.461035 0.422128 0.922016
Si Si4 0.058815 0.254037 0.312891
Si Si5 0.347466 0.052212 0.464141
Si Si6 0.498138 0.561293 0.850487
Si Si7 0.549117 0.872207 0.068679
Si Si8 0.322237 0.092112 0.989371
O O1 0.685658 0.123709 0.645477
O O2 0.961390 0.108072 0.944923
O O3 0.889557 0.118772 0.167477
O O4 0.917255 0.213743 0.025053
O O5 0.707802 0.708811 0.544176
O O6 0.829807 0.613886 0.552751
O O7 0.900808 0.623359 0.951299
O O8 0.995158 0.714413 0.882757
O O9 0.438319 0.493615 0.824081
O O10 0.428084 0.419698 0.067797
O O11 0.641213 0.404673 0.188543
O O12 0.089030 0.312758 0.239852
O O13 0.508478 0.066128 0.614708
O O14 0.358982 0.982844 0.562119
O O15 0.184740 0.051339 0.118870
O O16 0.385789 0.865963 0.732596
#
# Coordination Sequence:
#
# PCOD9136400 Si02
#       8
#     4   4   4   4   4   4   4   4
#     4  12  24  44  65  95 140 174 223 281 337 405
#     4  11  22  43  70  93 136 182 226 282 339 408
#     4  11  22  40  72  99 132 176 229 278 338 410
#     4  11  23  44  63  90 133 188 218 273 344 394
#     4  10  21  40  73  98 130 171 223 288 340 396
#     4  11  21  40  69 100 129 178 226 275 342 404
#     4  11  25  43  63  96 138 170 218 283 347 393
#     4  11  22  42  69 105 124 171 239 280 333 412
#
# _framework density 21.380077
#
# number of rings (size 3 to 8) (size 9 to 14) (size 15 to 20)
#    0.000    1.000    6.250    0.750    3.500    1.000 
#    9.000    0.000    0.000    0.000    0.000    0.000 
#    0.000    0.000    0.000    0.000    0.000    0.000 
#
# Total GULP energy -89161.363931 kJ/mol
# GULP energy per Si atom -5572.585246 kJ/mol
# Density = 2.133141 g / cm^3
# Si number density = 21.380077 Si / 1000 Ang^3
#
#
#
# Elastic Constant Matrix: (Units=GPa)
#
#
# Indices 1 2 3 4 5 6 
#
# 1 106.6819 40.2726 21.0515 0.0000 1.8088 0.0000
# 2 40.2726 87.0694 19.8916 0.0000 2.9542 0.0000
# 3 21.0515 19.8916 47.9375 0.0000 -8.3712 0.0000
# 4 0.0000 0.0000 0.0000 -0.5727 0.0000 11.7571
# 5 1.8088 2.9542 -8.3712 0.0000 36.0918 0.0000
# 6 0.0000 0.0000 0.0000 11.7571 0.0000 28.0247
#
#
#
# Elastic Compliance Matrix: (Units=1/GPa)
#
#
# Indices 1 2 3 4 5 6 
#
# 1 0.011825 -0.004649 -0.003440 0.000000 -0.001010 0.000000
# 2 -0.004649 0.014711 -0.004411 0.000000 -0.001994 0.000000
# 3 -0.003440 -0.004411 0.025320 0.000000 0.006406 0.000000
# 4 0.000000 0.000000 0.000000 -0.181649 0.000000 0.076206
# 5 -0.001010 -0.001994 0.006406 0.000000 0.029407 0.000000
# 6 0.000000 0.000000 0.000000 0.076206 0.000000 0.003712
#
#
# Mechanical properties :
#
#
# Convention : Reuss Voigt Hill
#
# Bulk Modulus (GPa) = 37.23597 44.90223 41.06910
# Shear Modulus (GPa) = -79.71600 23.40697 -28.15451
#
# Velocity S-wave (km/s) = -6.11278 3.31237 -3.63279
# Velocity P-wave (km/s) = 5.68924 5.97299 1.28629
#
# Compressibility (1/GPa) = 0.02685575
#
# Stress axis : x y z
#
# Youngs Moduli (GPa) = 84.56907 67.97708 39.49434
#
# Poissons Ratio (x) = 0.31604 0.13586
# Poissons Ratio (y) = 0.39318 0.17420
# Poissons Ratio (z) = 0.29091 0.29983
#
# Static dielectric constant tensor:
#      x y z
#    x 1.879340 0.000000 -0.045440 
#    y 0.000000 1.752740 0.000000 
#    z -0.045440 0.000000 1.799220 
# 
# From -- ./inp_files/10027.got.cif
#   From: 2010.05.17/outbox.cif.g08.bks.cpg/sg9_6_cif.got.tgz:10027.got - 2010.06.03 20:04:27.
