data_PCOD9136146
_publ_section_title
;
Structure prediction by ZEFSAII (Michael W. Deem and Ramdas Pophale) SiO2 
 PCOD9136146
Probable space group: C C
;
_chemical_formula_sum "Si O2"
_cell_formula_units_Z 32
_cell_length_a 23.708459
_cell_length_b 5.224264
_cell_length_c 21.516059
_cell_angle_alpha 90.000000
_cell_angle_beta 150.277676
_cell_angle_gamma 90.000000
_cell_volume 1321.280809
_symmetry_space_group_name_H-M "C C"
_symmetry_group_IT_number 9
_symmetry_cell_setting 'monoclinic'
loop_
_space_group_symop_operation_xyz
x,y,z
x,-y,1/2+z
1/2+x,1/2+y,z
1/2+x,1/2-y,1/2+z
loop_
_atom_site_type_symbol
_atom_site_label
_atom_site_fract_x
_atom_site_fract_y
_atom_site_fract_z
Si Si1 0.895350 0.055001 0.740170
Si Si2 0.881768 0.804699 0.931225
Si Si3 0.725275 0.988501 0.170990
Si Si4 0.535677 0.804316 0.077185
Si Si5 0.024882 0.423176 0.774270
Si Si6 0.618936 0.327940 0.963382
Si Si7 0.193847 0.496093 0.839544
Si Si8 0.792429 0.663763 0.541266
O O1 0.811127 0.173277 0.709856
O O2 0.974513 0.230912 0.775042
O O3 0.831533 0.882232 0.628161
O O4 0.995502 0.905164 0.871387
O O5 0.796989 0.839098 0.908621
O O6 0.799706 0.875580 0.795100
O O7 0.940003 0.527593 0.982033
O O8 0.977553 0.027485 0.026410
O O9 0.621248 0.833208 0.100646
O O10 0.679679 0.200519 0.079766
O O11 0.616152 0.873047 0.212677
O O12 0.909853 0.532281 0.634056
O O13 0.085230 0.632254 0.875587
O O14 0.110145 0.330232 0.803034
O O15 0.707561 0.497390 0.005971
O O16 0.241527 0.713261 0.930975
#
# Coordination Sequence:
#
# PCOD9136146 Si02
#       8
#     4   4   4   4   4   4   4   4
#     4  10  21  39  63  99 133 177 222 282 347 416
#     4  11  26  49  71 104 138 186 241 294 350 411
#     4  10  23  43  69  98 138 186 231 294 352 421
#     4  11  26  49  71 104 138 186 241 294 350 411
#     4  10  21  39  63  99 133 177 222 282 347 416
#     4   9  20  40  60  94 135 176 223 276 344 417
#     4  10  23  43  69  98 138 186 231 294 352 421
#     4   9  20  40  60  94 135 176 223 276 344 417
#
# _framework density 24.218927000000001
#
# number of rings (size 3 to 8) (size 9 to 14) (size 15 to 20)
#    0.000    2.000    0.000    1.500    3.500    7.000 
#   18.000    0.000    0.000    0.000    0.000    0.000 
#    0.000    0.000    0.000    0.000    0.000    0.000 
#
# Total GULP energy -89410.076882 kJ/mol
# GULP energy per Si atom -5588.129805 kJ/mol
# Density = 2.416380 g / cm^3
# Si number density = 24.218927 Si / 1000 Ang^3
#
#
#
# Elastic Constant Matrix: (Units=GPa)
#
#
# Indices 1 2 3 4 5 6 
#
# 1 197.7933 4.1249 24.1438 0.0009 38.0991 -0.0003
# 2 4.1249 15.3221 -9.2275 0.0061 8.1976 0.0059
# 3 24.1438 -9.2275 103.2502 0.0003 -0.0911 0.0002
# 4 0.0009 0.0061 0.0003 10.4831 0.0008 -19.9407
# 5 38.0991 8.1976 -0.0911 0.0008 42.2488 0.0011
# 6 -0.0003 0.0059 0.0002 -19.9407 0.0011 1.8096
#
#
#
# Elastic Compliance Matrix: (Units=1/GPa)
#
#
# Indices 1 2 3 4 5 6 
#
# 1 0.006343 0.000544 -0.001440 0.000000 -0.005828 0.000000
# 2 0.000544 0.077506 0.006786 0.000025 -0.015514 0.000037
# 3 -0.001440 0.006786 0.010628 0.000002 0.000005 0.000003
# 4 0.000000 0.000025 0.000002 -0.004779 -0.000003 -0.052661
# 5 -0.005828 -0.015514 0.000005 -0.000003 0.031935 -0.000005
# 6 0.000000 0.000037 0.000003 -0.052661 -0.000005 -0.027685
#
#
# Mechanical properties :
#
#
# Convention : Reuss Voigt Hill
#
# Bulk Modulus (GPa) = 9.41116 39.38312 24.39714
# Shear Modulus (GPa) = 42.52116 30.72993 36.62555
#
# Velocity S-wave (km/s) = 4.19465 3.56594 3.89301
# Velocity P-wave (km/s) = 5.23015 5.76638 5.50480
#
# Compressibility (1/GPa) = 0.10625681
#
# Stress axis : x y z
#
# Youngs Moduli (GPa) = 157.65726 12.90223 94.08797
#
# Poissons Ratio (x) = -0.00701 0.13546
# Poissons Ratio (y) = -0.08571 -0.63847
# Poissons Ratio (z) = 0.22699 -0.08755
#
# Static dielectric constant tensor:
#      x y z
#    x 2.041670 -0.000010 0.213370 
#    y -0.000010 2.213350 -0.000030 
#    z 0.213370 -0.000030 2.381580 
# 
# From -- ./inp_files/20554.got.cif
#   From: 2010.05.17/outbox.cif.g08.bks.cpg/sg9_11_cif.got.tgz:20554.got - 2010.06.03 20:04:27.
