data_PCOD9136774
_publ_section_title
;
Structure prediction by ZEFSAII (Michael W. Deem and Ramdas Pophale) SiO2 
 PCOD9136774
Probable space group: C C
;
_chemical_formula_sum "Si O2"
_cell_formula_units_Z 28
_cell_length_a 12.754714
_cell_length_b 7.200959
_cell_length_c 20.612456
_cell_angle_alpha 90.000000
_cell_angle_beta 33.505963
_cell_angle_gamma 90.000000
_cell_volume 1045.077703
_symmetry_space_group_name_H-M "C C"
_symmetry_group_IT_number 9
_symmetry_cell_setting 'monoclinic'
loop_
_space_group_symop_operation_xyz
x,y,z
x,-y,1/2+z
1/2+x,1/2+y,z
1/2+x,1/2-y,1/2+z
loop_
_atom_site_type_symbol
_atom_site_label
_atom_site_fract_x
_atom_site_fract_y
_atom_site_fract_z
Si Si1 0.652240 0.916566 0.691660
Si Si2 0.286630 0.401810 0.002151
Si Si3 0.985250 0.738938 0.558990
Si Si4 0.753470 0.732924 0.810501
Si Si5 0.806493 0.305536 0.937343
Si Si6 0.503288 0.421224 0.188091
Si Si7 0.664224 0.311656 0.873335
O O1 0.642977 0.050444 0.635105
O O2 0.870872 0.926794 0.599778
O O3 0.490436 0.930592 0.828049
O O4 0.601269 0.706567 0.692507
O O5 0.355033 0.608833 0.945561
O O6 0.466527 0.298574 0.939131
O O7 0.172427 0.305670 0.003576
O O8 0.819914 0.690208 0.700353
O O9 0.060884 0.679812 0.446536
O O10 0.730068 0.524499 0.847482
O O11 0.912500 0.881825 0.750567
O O12 0.690448 0.240931 0.933141
O O13 0.664980 0.427624 0.051900
O O14 0.328554 0.299138 0.251190
#
# Coordination Sequence:
#
# PCOD9136774 Si02
#       7
#     4   4   4   4   4   4   4
#     4  10  22  43  74 104 153 206 247 327 392 447
#     4  11  24  47  74 112 153 205 255 321 396 453
#     4  12  25  45  75 112 155 199 261 314 388 469
#     4  12  25  46  75 114 155 199 261 317 383 469
#     4  10  21  43  74 104 152 201 251 315 394 450
#     4  10  24  44  72 115 148 203 261 316 390 467
#     4  11  23  48  74 105 158 201 248 330 387 453
#
# _framework density 26.792266999999999
#
# number of rings (size 3 to 8) (size 9 to 14) (size 15 to 20)
#    0.000    1.143    1.429    6.000    2.000    0.000 
#    7.714    4.286    0.000    0.000    0.000    0.000 
#    0.000    0.000    0.000    0.000    0.000    0.000 
#
# Total GULP energy -77978.272382 kJ/mol
# GULP energy per Si atom -5569.876599 kJ/mol
# Density = 2.673129 g / cm^3
# Si number density = 26.792267 Si / 1000 Ang^3
#
#
#
# Elastic Constant Matrix: (Units=GPa)
#
#
# Indices 1 2 3 4 5 6 
#
# 1 141.5588 31.5955 61.3235 0.0000 -28.8744 0.0000
# 2 31.5955 104.5918 25.7631 0.0000 -0.8530 0.0000
# 3 61.3235 25.7631 247.6312 0.0000 4.6778 0.0000
# 4 0.0000 0.0000 0.0000 29.7870 0.0000 -12.4954
# 5 -28.8744 -0.8530 4.6778 0.0000 44.3394 0.0000
# 6 0.0000 0.0000 0.0000 -12.4954 0.0000 33.0894
#
#
#
# Elastic Compliance Matrix: (Units=1/GPa)
#
#
# Indices 1 2 3 4 5 6 
#
# 1 0.009981 -0.002381 -0.002351 0.000000 0.006702 0.000000
# 2 -0.002381 0.010385 -0.000466 0.000000 -0.001302 0.000000
# 3 -0.002351 -0.000466 0.004707 0.000000 -0.002036 0.000000
# 4 0.000000 0.000000 0.000000 0.039891 0.000000 0.015064
# 5 0.006702 -0.001302 -0.002036 0.000000 0.027107 0.000000
# 6 0.000000 0.000000 0.000000 0.015064 0.000000 0.035910
#
#
# Mechanical properties :
#
#
# Convention : Reuss Voigt Hill
#
# Bulk Modulus (GPa) = 68.13486 81.23846 74.68666
# Shear Modulus (GPa) = 34.89936 46.44982 40.67459
#
# Velocity S-wave (km/s) = 3.61306 4.16829 3.90057
# Velocity P-wave (km/s) = 6.54917 7.31804 6.94425
#
# Compressibility (1/GPa) = 0.01467677
#
# Stress axis : x y z
#
# Youngs Moduli (GPa) = 100.19015 96.29681 212.43579
#
# Poissons Ratio (x) = 0.22933 0.49934
# Poissons Ratio (y) = 0.23860 0.09901
# Poissons Ratio (z) = 0.23550 0.04488
#
# Static dielectric constant tensor:
#      x y z
#    x 2.283550 0.000000 0.057930 
#    y 0.000000 2.069570 0.000000 
#    z 0.057930 0.000000 2.206760 
# 
# From -- ./inp_files/35550.got.cif
#   From: 2010.05.17/outbox.cif.g08.bks.cpg/sg9_18_cif.got.tgz:35550.got - 2010.06.03 20:04:27.
