data_PCOD9136881
_publ_section_title
;
Structure prediction by ZEFSAII (Michael W. Deem and Ramdas Pophale) SiO2 
 PCOD9136881
Probable space group: C C
;
_chemical_formula_sum "Si O2"
_cell_formula_units_Z 28
_cell_length_a 26.707253
_cell_length_b 5.305108
_cell_length_c 13.698235
_cell_angle_alpha 90.000000
_cell_angle_beta 143.065590
_cell_angle_gamma 90.000000
_cell_volume 1166.247008
_symmetry_space_group_name_H-M "C C"
_symmetry_group_IT_number 9
_symmetry_cell_setting 'monoclinic'
loop_
_space_group_symop_operation_xyz
x,y,z
x,-y,1/2+z
1/2+x,1/2+y,z
1/2+x,1/2-y,1/2+z
loop_
_atom_site_type_symbol
_atom_site_label
_atom_site_fract_x
_atom_site_fract_y
_atom_site_fract_z
Si Si1 0.623250 0.606970 0.175050
Si Si2 0.444965 0.371883 0.896058
Si Si3 0.294108 0.432278 0.281831
Si Si4 0.612838 0.163766 0.458388
Si Si5 0.296852 0.072317 0.916736
Si Si6 0.461875 0.851460 0.231420
Si Si7 0.531493 0.991172 0.149239
O O1 0.710460 0.480163 0.339446
O O2 0.623699 0.624533 0.057134
O O3 0.606857 0.871160 0.205169
O O4 0.535964 0.477864 0.059504
O O5 0.369301 0.514625 0.826543
O O6 0.435392 0.361776 0.764727
O O7 0.457742 0.098160 0.966924
O O8 0.204837 0.444473 0.089169
O O9 0.300777 0.165280 0.347401
O O10 0.293534 0.659274 0.359291
O O11 0.546553 0.973962 0.405250
O O12 0.569175 0.195159 0.285778
O O13 0.384213 0.042408 0.108733
O O14 0.490121 0.799140 0.164488
#
# Coordination Sequence:
#
# PCOD9136881 Si02
#       7
#     4   4   4   4   4   4   4
#     4  11  24  42  71  99 136 185 229 288 348 415
#     4  12  24  41  73  97 139 183 236 281 353 411
#     4  11  24  47  70 103 139 184 228 294 343 420
#     4   9  22  43  70  95 141 175 232 281 351 406
#     4  11  25  45  71 102 143 178 235 287 350 411
#     4  10  22  41  69  98 136 181 229 283 343 411
#     4  10  21  45  64  98 134 180 225 286 340 414
#
# _framework density 24.008637
#
# number of rings (size 3 to 8) (size 9 to 14) (size 15 to 20)
#    0.857    0.571    2.857    1.714    4.000    3.429 
#    2.571    1.429    0.000    0.000    0.000    0.000 
#    0.000    0.000    0.000    0.000    0.000    0.000 
#
# Total GULP energy -78068.703168 kJ/mol
# GULP energy per Si atom -5576.335941 kJ/mol
# Density = 2.395399 g / cm^3
# Si number density = 24.008637 Si / 1000 Ang^3
#
#
#
# Elastic Constant Matrix: (Units=GPa)
#
#
# Indices 1 2 3 4 5 6 
#
# 1 130.1918 22.8942 59.1588 0.0000 26.8561 0.0000
# 2 22.8942 44.5434 7.8673 0.0002 -4.4346 0.0000
# 3 59.1588 7.8673 88.8738 0.0000 18.7347 0.0000
# 4 0.0000 0.0002 0.0000 21.7716 0.0000 10.4150
# 5 26.8561 -4.4346 18.7347 0.0000 51.8885 0.0000
# 6 0.0000 0.0000 0.0000 10.4150 0.0000 26.7624
#
#
#
# Elastic Compliance Matrix: (Units=1/GPa)
#
#
# Indices 1 2 3 4 5 6 
#
# 1 0.012873 -0.005824 -0.007083 0.000000 -0.004603 0.000000
# 2 -0.005824 0.025851 0.000527 0.000000 0.005033 0.000000
# 3 -0.007083 0.000527 0.016385 0.000000 -0.002205 0.000000
# 4 0.000000 0.000000 0.000000 0.056438 0.000000 -0.021964
# 5 -0.004603 0.005033 -0.002205 0.000000 0.022881 0.000000
# 6 0.000000 0.000000 0.000000 -0.021964 0.000000 0.045913
#
#
# Mechanical properties :
#
#
# Convention : Reuss Voigt Hill
#
# Bulk Modulus (GPa) = 32.94912 49.27219 41.11065
# Shear Modulus (GPa) = 23.23225 31.66374 27.44800
#
# Velocity S-wave (km/s) = 3.11410 3.63553 3.38487
# Velocity P-wave (km/s) = 5.16564 6.17981 5.69534
#
# Compressibility (1/GPa) = 0.03034983
#
# Stress axis : x y z
#
# Youngs Moduli (GPa) = 77.68092 38.68289 61.03176
#
# Poissons Ratio (x) = 0.22528 0.43230
# Poissons Ratio (y) = 0.45239 -0.03217
# Poissons Ratio (z) = 0.55023 -0.02039
#
# Static dielectric constant tensor:
#      x y z
#    x 1.924300 0.000000 0.011880 
#    y 0.000000 2.149950 0.000000 
#    z 0.011880 0.000000 1.936280 
# 
# From -- ./inp_files/26242.got.cif
#   From: 2010.05.17/outbox.cif.g08.bks.cpg/sg9_14_cif.got.tgz:26242.got - 2010.06.03 20:04:27.
