data_PCOD9136746
_publ_section_title
;
Structure prediction by ZEFSAII (Michael W. Deem and Ramdas Pophale) SiO2 
 PCOD9136746
Probable space group: C C
;
_chemical_formula_sum "Si O2"
_cell_formula_units_Z 32
_cell_length_a 16.481952
_cell_length_b 11.081761
_cell_length_c 8.775011
_cell_angle_alpha 90.000000
_cell_angle_beta 57.262442
_cell_angle_gamma 90.000000
_cell_volume 1348.161382
_symmetry_space_group_name_H-M "C C"
_symmetry_group_IT_number 9
_symmetry_cell_setting 'monoclinic'
loop_
_space_group_symop_operation_xyz
x,y,z
x,-y,1/2+z
1/2+x,1/2+y,z
1/2+x,1/2-y,1/2+z
loop_
_atom_site_type_symbol
_atom_site_label
_atom_site_fract_x
_atom_site_fract_y
_atom_site_fract_z
Si Si1 0.552000 0.368465 0.002770
Si Si2 0.727966 0.334615 0.186848
Si Si3 0.464695 0.133624 0.199742
Si Si4 0.940014 0.981079 0.403690
Si Si5 0.512687 0.737317 0.965609
Si Si6 0.233342 0.442535 0.666836
Si Si7 0.263980 0.965775 0.858616
Si Si8 0.601455 0.082063 0.582059
O O1 0.532559 0.228213 0.044289
O O2 0.482762 0.425262 0.205838
O O3 0.509433 0.414609 0.888452
O O4 0.662468 0.409077 0.905632
O O5 0.612769 0.321572 0.304826
O O6 0.753196 0.199373 0.100750
O O7 0.766179 0.393527 0.305672
O O8 0.757395 0.443487 0.046003
O O9 0.471286 0.174341 0.373554
O O10 0.359366 0.115251 0.232159
O O11 0.515089 0.007141 0.131570
O O12 0.828635 0.013811 0.523357
O O13 0.943010 0.875918 0.531973
O O14 0.548405 0.793911 0.087748
O O15 0.145715 0.520928 0.686509
O O16 0.194500 0.424379 0.876469
#
# Coordination Sequence:
#
# PCOD9136746 Si02
#       8
#     4   4   4   4   4   4   4   4
#     4  11  22  44  63  97 134 176 222 280 328 406
#     4  11  22  44  65  97 136 177 219 281 333 394
#     4  11  24  40  70  96 135 176 224 271 347 392
#     4  11  22  42  69  94 130 179 226 270 337 396
#     4  10  21  43  69  92 134 178 218 276 335 391
#     4  11  24  43  72  96 135 180 225 276 344 398
#     4  12  23  40  70  97 132 181 223 274 341 398
#     4  11  22  44  64  99 132 173 219 280 331 399
#
# _framework density 23.736031000000001
#
# number of rings (size 3 to 8) (size 9 to 14) (size 15 to 20)
#    0.000    1.000    6.250    2.250    3.500    1.000 
#    2.250    7.500    0.000    0.000    0.000    0.000 
#    0.000    0.000    0.000    0.000    0.000    0.000 
#
# Total GULP energy -89080.139436 kJ/mol
# GULP energy per Si atom -5567.508715 kJ/mol
# Density = 2.368201 g / cm^3
# Si number density = 23.736031 Si / 1000 Ang^3
#
#
#
# Elastic Constant Matrix: (Units=GPa)
#
#
# Indices 1 2 3 4 5 6 
#
# 1 119.6644 21.9710 4.7637 0.0000 -14.7902 0.0000
# 2 21.9710 60.8187 15.4251 0.0000 18.5154 0.0000
# 3 4.7637 15.4251 20.3292 0.0000 -0.1636 0.0000
# 4 0.0000 0.0000 0.0000 33.0803 0.0000 8.0697
# 5 -14.7902 18.5154 -0.1636 0.0000 30.8864 0.0000
# 6 0.0000 0.0000 0.0000 8.0697 0.0000 33.5212
#
#
#
# Elastic Compliance Matrix: (Units=1/GPa)
#
#
# Indices 1 2 3 4 5 6 
#
# 1 0.010884 -0.007835 0.003475 0.000000 0.009927 0.000000
# 2 -0.007835 0.032050 -0.022668 0.000000 -0.023085 0.000000
# 3 0.003475 -0.022668 0.065702 0.000000 0.015601 0.000000
# 4 0.000000 0.000000 0.000000 0.032115 0.000000 -0.007731
# 5 0.009927 -0.023085 0.015601 0.000000 0.051052 0.000000
# 6 0.000000 0.000000 0.000000 -0.007731 0.000000 0.031693
#
#
# Mechanical properties :
#
#
# Convention : Reuss Voigt Hill
#
# Bulk Modulus (GPa) = 18.32247 31.68132 25.00190
# Shear Modulus (GPa) = 16.90637 30.07442 23.49039
#
# Velocity S-wave (km/s) = 2.67173 3.56341 3.14929
# Velocity P-wave (km/s) = 4.15374 5.50516 4.87649
#
# Compressibility (1/GPa) = 0.05457778
#
# Stress axis : x y z
#
# Youngs Moduli (GPa) = 91.87786 31.20120 15.22035
#
# Poissons Ratio (x) = 0.24448 -0.05289
# Poissons Ratio (y) = 0.71990 0.34502
# Poissons Ratio (z) = -0.31925 0.70727
#
# Static dielectric constant tensor:
#      x y z
#    x 1.945980 0.000000 0.044320 
#    y 0.000000 1.968140 0.000000 
#    z 0.044320 0.000000 1.990260 
# 
# From -- ./inp_files/9265.got.cif
#   From: 2010.05.17/outbox.cif.g08.bks.cpg/sg9_5_cif.got.tgz:9265.got - 2010.06.03 20:04:27.
