data_PCOD9136032
_publ_section_title
;
Structure prediction by ZEFSAII (Michael W. Deem and Ramdas Pophale) SiO2 
 PCOD9136032
Probable space group: C C
;
_chemical_formula_sum "Si O2"
_cell_formula_units_Z 32
_cell_length_a 17.180222
_cell_length_b 11.931360
_cell_length_c 13.898122
_cell_angle_alpha 90.000000
_cell_angle_beta 32.376002
_cell_angle_gamma 90.000000
_cell_volume 1525.501027
_symmetry_space_group_name_H-M "C C"
_symmetry_group_IT_number 9
_symmetry_cell_setting 'monoclinic'
loop_
_space_group_symop_operation_xyz
x,y,z
x,-y,1/2+z
1/2+x,1/2+y,z
1/2+x,1/2-y,1/2+z
loop_
_atom_site_type_symbol
_atom_site_label
_atom_site_fract_x
_atom_site_fract_y
_atom_site_fract_z
Si Si1 0.702010 0.510849 0.529050
Si Si2 0.969500 0.136400 0.638769
Si Si3 0.867141 0.102654 0.016789
Si Si4 0.817813 0.392147 0.235554
Si Si5 0.708289 0.979818 0.501002
Si Si6 0.629280 0.543399 0.303592
Si Si7 0.437849 0.820212 0.819198
Si Si8 0.143737 0.332635 0.914620
O O1 0.570005 0.556373 0.601981
O O2 0.815171 0.454738 0.339773
O O3 0.662114 0.430347 0.658656
O O4 0.783859 0.618101 0.486606
O O5 0.958217 0.258434 0.695994
O O6 0.807358 0.086858 0.818713
O O7 0.054191 0.135135 0.449735
O O8 0.808149 0.021508 0.993038
O O9 0.742328 0.121911 0.224591
O O10 0.923537 0.217793 0.908926
O O11 0.003674 0.049550 0.927055
O O12 0.766391 0.484159 0.211570
O O13 0.698829 0.294148 0.368804
O O14 0.976775 0.341877 0.056703
O O15 0.570079 0.907630 0.682609
O O16 0.668580 0.093929 0.486179
#
# Coordination Sequence:
#
# PCOD9136032 Si02
#       8
#     4   4   4   4   4   4   4   4
#     4  11  22  42  62  93 132 167 219 270 319 389
#     4  10  21  38  63  93 129 172 205 262 330 383
#     4  11  24  38  69 101 128 170 217 268 324 390
#     4  11  27  40  68  91 132 175 217 274 331 389
#     4  11  23  41  66  95 134 165 218 273 322 385
#     4  11  22  41  64  98 131 170 216 265 322 395
#     4  11  22  40  66  98 129 168 218 273 322 376
#     4  12  25  44  64  97 131 173 220 273 330 391
#
# _framework density 20.976714000000001
#
# number of rings (size 3 to 8) (size 9 to 14) (size 15 to 20)
#    0.000    1.000    5.000    3.000    7.000    0.000 
#    0.000    1.250   11.000    0.000    0.000    0.000 
#    0.000    0.000    0.000    0.000    0.000    0.000 
#
# Total GULP energy -89297.294378 kJ/mol
# GULP energy per Si atom -5581.080899 kJ/mol
# Density = 2.092897 g / cm^3
# Si number density = 20.976714 Si / 1000 Ang^3
#
#
#
# Elastic Constant Matrix: (Units=GPa)
#
#
# Indices 1 2 3 4 5 6 
#
# 1 42.5272 -5.8033 21.4589 0.0000 14.1837 0.0000
# 2 -5.8033 16.5565 -1.8862 0.0000 4.1376 0.0000
# 3 21.4589 -1.8862 82.8974 0.0000 -2.5849 0.0000
# 4 0.0000 0.0000 0.0000 36.9402 0.0000 5.7495
# 5 14.1837 4.1376 -2.5849 0.0000 45.0736 0.0000
# 6 0.0000 0.0000 0.0000 5.7495 0.0000 6.2627
#
#
#
# Elastic Compliance Matrix: (Units=1/GPa)
#
#
# Indices 1 2 3 4 5 6 
#
# 1 0.034106 0.014073 -0.008899 0.000000 -0.012535 0.000000
# 2 0.014073 0.067751 -0.002438 0.000000 -0.010788 0.000000
# 3 -0.008899 -0.002438 0.014431 0.000000 0.003852 0.000000
# 4 0.000000 0.000000 0.000000 0.031584 0.000000 -0.028996
# 5 -0.012535 -0.010788 0.003852 0.000000 0.027341 0.000000
# 6 0.000000 0.000000 0.000000 -0.028996 0.000000 0.186295
#
#
# Mechanical properties :
#
#
# Convention : Reuss Voigt Hill
#
# Bulk Modulus (GPa) = 8.21286 18.83553 13.52419
# Shear Modulus (GPa) = 12.60646 26.20275 19.40460
#
# Velocity S-wave (km/s) = 2.45414 3.53814 3.04477
# Velocity P-wave (km/s) = 3.45747 5.06853 4.33844
#
# Compressibility (1/GPa) = 0.12176026
#
# Stress axis : x y z
#
# Youngs Moduli (GPa) = 29.32042 14.76003 69.29320
#
# Poissons Ratio (x) = -0.20772 0.61666
# Poissons Ratio (y) = -0.41264 0.16893
# Poissons Ratio (z) = 0.26093 0.03598
#
# Static dielectric constant tensor:
#      x y z
#    x 1.802970 0.000000 0.014730 
#    y 0.000000 1.748130 0.000000 
#    z 0.014730 0.000000 1.786370 
# 
# From -- ./inp_files/9516.got.cif
#   From: 2010.05.17/outbox.cif.g08.bks.cpg/sg9_5_cif.got.tgz:9516.got - 2010.06.03 20:04:27.
