data_PCOD9136950
_publ_section_title
;
Structure prediction by ZEFSAII (Michael W. Deem and Ramdas Pophale) SiO2 
 PCOD9136950
Probable space group: C C
;
_chemical_formula_sum "Si O2"
_cell_formula_units_Z 32
_cell_length_a 22.994272
_cell_length_b 8.888738
_cell_length_c 14.024639
_cell_angle_alpha 90.000000
_cell_angle_beta 26.760261
_cell_angle_gamma 90.000000
_cell_volume 1290.664135
_symmetry_space_group_name_H-M "C C"
_symmetry_group_IT_number 9
_symmetry_cell_setting 'monoclinic'
loop_
_space_group_symop_operation_xyz
x,y,z
x,-y,1/2+z
1/2+x,1/2+y,z
1/2+x,1/2-y,1/2+z
loop_
_atom_site_type_symbol
_atom_site_label
_atom_site_fract_x
_atom_site_fract_y
_atom_site_fract_z
Si Si1 0.394390 0.420001 0.227030
Si Si2 0.497532 0.435427 0.764065
Si Si3 0.070581 0.523956 0.423836
Si Si4 0.903083 0.625865 0.830954
Si Si5 0.663654 0.314480 0.791535
Si Si6 0.323348 0.404231 0.660281
Si Si7 0.212580 0.835918 0.931288
Si Si8 0.992732 0.366817 0.837658
O O1 0.417611 0.469977 0.300905
O O2 0.315340 0.542365 0.281254
O O3 0.328077 0.255640 0.313312
O O4 0.540750 0.422754 0.972080
O O5 0.491166 0.264769 0.738316
O O6 0.640239 0.508277 0.564971
O O7 0.409197 0.463064 0.985599
O O8 0.103517 0.350063 0.386721
O O9 0.186753 0.604968 0.308846
O O10 0.942640 0.576284 0.667254
O O11 0.064950 0.558705 0.320969
O O12 0.925474 0.485345 0.867934
O O13 0.757072 0.674829 0.065384
O O14 0.740425 0.344473 0.777927
O O15 0.398418 0.252681 0.525888
O O16 0.093967 0.722061 0.124380
#
# Coordination Sequence:
#
# PCOD9136950 Si02
#       8
#     4   4   4   4   4   4   4   4
#     4  11  22  44  71 100 144 190 241 301 380 439
#     4  10  23  41  73 103 138 190 243 304 371 446
#     4  12  25  47  72 105 151 196 244 312 380 440
#     4  12  25  49  71 108 152 192 257 309 371 459
#     4  11  25  45  71 105 149 193 242 312 369 443
#     4  11  23  46  71 100 147 186 239 307 372 448
#     4  10  21  46  72 103 142 194 242 309 377 442
#     4  11  26  44  75 108 143 199 246 310 380 449
#
# _framework density 24.793438999999999
#
# number of rings (size 3 to 8) (size 9 to 14) (size 15 to 20)
#    0.000    1.000    3.750    1.500    3.500    3.000 
#    6.750    0.000    0.000    0.000    0.000    0.000 
#    0.000    0.000    0.000    0.000    0.000    0.000 
#
# Total GULP energy -89576.699491 kJ/mol
# GULP energy per Si atom -5598.543718 kJ/mol
# Density = 2.473701 g / cm^3
# Si number density = 24.793439 Si / 1000 Ang^3
#
#
#
# Elastic Constant Matrix: (Units=GPa)
#
#
# Indices 1 2 3 4 5 6 
#
# 1 90.6327 -6.9843 4.3337 0.0000 17.5601 0.0000
# 2 -6.9843 71.3571 11.7362 0.0000 2.0442 0.0000
# 3 4.3337 11.7362 87.6540 0.0000 5.3143 0.0000
# 4 0.0000 0.0000 0.0000 26.9656 0.0000 8.6837
# 5 17.5601 2.0442 5.3143 0.0000 34.8120 0.0000
# 6 0.0000 0.0000 0.0000 8.6837 0.0000 22.8778
#
#
#
# Elastic Compliance Matrix: (Units=1/GPa)
#
#
# Indices 1 2 3 4 5 6 
#
# 1 0.012381 0.001462 -0.000428 0.000000 -0.006266 0.000000
# 2 0.001462 0.014513 -0.001937 0.000000 -0.001294 0.000000
# 3 -0.000428 -0.001937 0.011778 0.000000 -0.001468 0.000000
# 4 0.000000 0.000000 0.000000 0.042248 0.000000 -0.016036
# 5 -0.006266 -0.001294 -0.001468 0.000000 0.032186 0.000000
# 6 0.000000 0.000000 0.000000 -0.016036 0.000000 0.049797
#
#
# Mechanical properties :
#
#
# Convention : Reuss Voigt Hill
#
# Bulk Modulus (GPa) = 27.12608 29.75723 28.44165
# Shear Modulus (GPa) = 28.24884 32.96828 30.60856
#
# Velocity S-wave (km/s) = 3.37911 3.65049 3.51742
# Velocity P-wave (km/s) = 5.11753 5.45859 5.29081
#
# Compressibility (1/GPa) = 0.03686490
#
# Stress axis : x y z
#
# Youngs Moduli (GPa) = 80.77144 68.90505 84.90392
#
# Poissons Ratio (x) = -0.10072 0.03633
# Poissons Ratio (y) = -0.11806 0.16446
# Poissons Ratio (z) = 0.03457 0.13347
#
# Static dielectric constant tensor:
#      x y z
#    x 1.955700 0.000000 -0.050790 
#    y 0.000000 1.954110 0.000000 
#    z -0.050790 0.000000 2.008290 
# 
# From -- ./inp_files/24436.got.cif
#   From: 2010.05.17/outbox.cif.g08.bks.cpg/sg9_13_cif.got.tgz:24436.got - 2010.06.03 20:04:27.
