data_PCOD9136971
_publ_section_title
;
Structure prediction by ZEFSAII (Michael W. Deem and Ramdas Pophale) SiO2 
 PCOD9136971
Probable space group: C C
;
_chemical_formula_sum "Si O2"
_cell_formula_units_Z 28
_cell_length_a 5.538063
_cell_length_b 31.479834
_cell_length_c 7.215166
_cell_angle_alpha 90.000000
_cell_angle_beta 113.160056
_cell_angle_gamma 90.000000
_cell_volume 1156.500327
_symmetry_space_group_name_H-M "C C"
_symmetry_group_IT_number 9
_symmetry_cell_setting 'monoclinic'
loop_
_space_group_symop_operation_xyz
x,y,z
x,-y,1/2+z
1/2+x,1/2+y,z
1/2+x,1/2-y,1/2+z
loop_
_atom_site_type_symbol
_atom_site_label
_atom_site_fract_x
_atom_site_fract_y
_atom_site_fract_z
Si Si1 0.112220 0.345686 0.750000
Si Si2 0.315079 0.357107 0.429843
Si Si3 0.372839 0.070205 0.283906
Si Si4 0.327908 0.561390 0.694129
Si Si5 0.204347 0.787089 0.653527
Si Si6 0.881797 0.033598 0.313642
Si Si7 0.027389 0.690823 0.577142
O O1 0.279490 0.365015 0.637495
O O2 0.985898 0.300551 0.651671
O O3 0.888709 0.380883 0.726432
O O4 0.216243 0.333857 0.984555
O O5 0.395933 0.398111 0.337764
O O6 0.500853 0.315915 0.481721
O O7 0.043091 0.338694 0.260115
O O8 0.529514 0.066312 0.527361
O O9 0.092498 0.049875 0.230494
O O10 0.574057 0.046764 0.203129
O O11 0.464546 0.554914 0.534829
O O12 0.373171 0.517172 0.811557
O O13 0.129118 0.738477 0.632792
O O14 0.256103 0.803269 0.880941
#
# Coordination Sequence:
#
# PCOD9136971 Si02
#       7
#     4   4   4   4   4   4   4
#     4  10  25  42  71 105 139 193 247 299 374 445
#     4  12  23  48  71 108 142 197 244 310 376 440
#     4  10  24  46  68 103 147 191 247 310 363 449
#     4  10  25  42  71 102 146 195 243 313 376 440
#     4  10  23  43  72  99 151 190 243 305 379 447
#     4  10  25  43  70 102 141 198 239 308 375 443
#     4  10  21  48  63 111 146 188 249 305 371 454
#
# _framework density 24.210975000000001
#
# number of rings (size 3 to 8) (size 9 to 14) (size 15 to 20)
#    1.714    0.000    2.857    0.000    6.000    2.286 
#    2.571    0.000    0.000    0.000    0.000    0.000 
#    0.000    0.000    0.000    0.000    0.000    0.000 
#
# Total GULP energy -77953.275625 kJ/mol
# GULP energy per Si atom -5568.091116 kJ/mol
# Density = 2.415587 g / cm^3
# Si number density = 24.210975 Si / 1000 Ang^3
#
#
#
# Elastic Constant Matrix: (Units=GPa)
#
#
# Indices 1 2 3 4 5 6 
#
# 1 83.1315 32.7249 7.5389 0.0000 -4.8173 0.0000
# 2 32.7249 161.1464 24.6309 0.0000 4.2357 0.0000
# 3 7.5389 24.6309 78.0557 0.0000 3.1443 0.0000
# 4 0.0000 0.0000 0.0000 33.5461 0.0000 -6.8961
# 5 -4.8173 4.2357 3.1443 0.0000 19.0233 0.0000
# 6 0.0000 0.0000 0.0000 -6.8961 0.0000 12.8122
#
#
#
# Elastic Compliance Matrix: (Units=1/GPa)
#
#
# Indices 1 2 3 4 5 6 
#
# 1 0.013398 -0.002738 -0.000595 0.000000 0.004101 0.000000
# 2 -0.002738 0.007103 -0.001898 0.000000 -0.001961 0.000000
# 3 -0.000595 -0.001898 0.013547 0.000000 -0.001967 0.000000
# 4 0.000000 0.000000 0.000000 0.033519 0.000000 0.018041
# 5 0.004101 -0.001961 -0.001967 0.000000 0.054367 0.000000
# 6 0.000000 0.000000 0.000000 0.018041 0.000000 0.087761
#
#
# Mechanical properties :
#
#
# Convention : Reuss Voigt Hill
#
# Bulk Modulus (GPa) = 42.39716 50.23590 46.31653
# Shear Modulus (GPa) = 21.92786 30.23890 26.08338
#
# Velocity S-wave (km/s) = 3.01275 3.53792 3.28584
# Velocity P-wave (km/s) = 5.44534 6.12237 5.79375
#
# Compressibility (1/GPa) = 0.02358648
#
# Stress axis : x y z
#
# Youngs Moduli (GPa) = 74.63539 140.78253 73.81687
#
# Poissons Ratio (x) = 0.38542 0.04395
# Poissons Ratio (y) = 0.20433 0.14011
# Poissons Ratio (z) = 0.04444 0.26721
#
# Static dielectric constant tensor:
#      x y z
#    x 1.965680 0.000000 0.005130 
#    y 0.000000 1.913570 0.000000 
#    z 0.005130 0.000000 2.007900 
# 
# From -- ./inp_files/4529.got.cif
#   From: 2010.05.17/outbox.cif.g08.bks.cpg/sg9_3_cif.got.tgz:4529.got - 2010.06.03 20:04:27.
