data_PCOD9136953
_publ_section_title
;
Structure prediction by ZEFSAII (Michael W. Deem and Ramdas Pophale) SiO2 
 PCOD9136953
Probable space group: C C
;
_chemical_formula_sum "Si O2"
_cell_formula_units_Z 24
_cell_length_a 8.967838
_cell_length_b 11.292001
_cell_length_c 9.370932
_cell_angle_alpha 90.000000
_cell_angle_beta 101.363461
_cell_angle_gamma 90.000000
_cell_volume 930.343728
_symmetry_space_group_name_H-M "C C"
_symmetry_group_IT_number 9
_symmetry_cell_setting 'monoclinic'
loop_
_space_group_symop_operation_xyz
x,y,z
x,-y,1/2+z
1/2+x,1/2+y,z
1/2+x,1/2-y,1/2+z
loop_
_atom_site_type_symbol
_atom_site_label
_atom_site_fract_x
_atom_site_fract_y
_atom_site_fract_z
Si Si1 0.075420 0.438277 0.967230
Si Si2 0.760381 0.026878 0.225874
Si Si3 0.106111 0.952968 0.225831
Si Si4 0.141376 0.749251 0.007771
Si Si5 0.314868 0.813262 0.773487
Si Si6 0.344581 0.156268 0.961038
O O1 0.209954 0.467544 0.880600
O O2 0.981306 0.341563 0.865729
O O3 0.942367 0.534512 0.976482
O O4 0.153899 0.425713 0.133644
O O5 0.702947 0.146721 0.129467
O O6 0.934060 0.991045 0.228111
O O7 0.135993 0.873958 0.090080
O O8 0.184605 0.873292 0.363459
O O9 0.208125 0.070487 0.238133
O O10 0.835916 0.717028 0.112917
O O11 0.970643 0.736942 0.909261
O O12 0.246014 0.741564 0.890222
#
# Coordination Sequence:
#
# PCOD9136953 Si02
#       6
#     4   4   4   4   4   4
#     4  10  21  46  74 102 154 198 261 321 396 456
#     4  11  26  46  75 114 154 206 256 332 401 468
#     4  11  26  45  80 111 155 205 257 328 395 467
#     4  11  26  47  74 117 156 205 273 317 395 484
#     4  11  23  48  74 104 154 208 249 328 390 457
#     4  10  24  48  71 110 151 204 258 320 391 464
#
# _framework density 25.796917000000001
#
# number of rings (size 3 to 8) (size 9 to 14) (size 15 to 20)
#    0.000    1.333    3.333    2.000    9.333    2.667 
#    0.000    0.000    0.000    0.000    0.000    0.000 
#    0.000    0.000    0.000    0.000    0.000    0.000 
#
# Total GULP energy -67031.242919 kJ/mol
# GULP energy per Si atom -5585.936910 kJ/mol
# Density = 2.573820 g / cm^3
# Si number density = 25.796917 Si / 1000 Ang^3
#
#
#
# Elastic Constant Matrix: (Units=GPa)
#
#
# Indices 1 2 3 4 5 6 
#
# 1 148.9949 36.3931 32.0501 0.0000 4.2511 0.0000
# 2 36.3931 78.0320 2.0053 0.0000 -0.4877 0.0000
# 3 32.0501 2.0053 81.5336 0.0000 -10.2246 0.0000
# 4 0.0000 0.0000 0.0000 22.8738 0.0000 -10.0036
# 5 4.2511 -0.4877 -10.2246 0.0000 54.0044 0.0000
# 6 0.0000 0.0000 0.0000 -10.0036 0.0000 48.0032
#
#
#
# Elastic Compliance Matrix: (Units=1/GPa)
#
#
# Indices 1 2 3 4 5 6 
#
# 1 0.008417 -0.003847 -0.003382 0.000000 -0.001338 0.000000
# 2 -0.003847 0.014582 0.001237 0.000000 0.000669 0.000000
# 3 -0.003382 0.001237 0.013929 0.000000 0.002915 0.000000
# 4 0.000000 0.000000 0.000000 0.048102 0.000000 0.010024
# 5 -0.001338 0.000669 0.002915 0.000000 0.019180 0.000000
# 6 0.000000 0.000000 0.000000 0.010024 0.000000 0.022921
#
#
# Mechanical properties :
#
#
# Convention : Reuss Voigt Hill
#
# Bulk Modulus (GPa) = 40.08746 49.93973 45.01360
# Shear Modulus (GPa) = 33.91469 40.85042 37.38256
#
# Velocity S-wave (km/s) = 3.62979 3.98369 3.81085
# Velocity P-wave (km/s) = 5.75678 6.36871 6.07046
#
# Compressibility (1/GPa) = 0.02494545
#
# Stress axis : x y z
#
# Youngs Moduli (GPa) = 118.80866 68.57855 71.79129
#
# Poissons Ratio (x) = 0.26382 0.24278
# Poissons Ratio (y) = 0.45706 -0.08884
# Poissons Ratio (z) = 0.40178 -0.08486
#
# Static dielectric constant tensor:
#      x y z
#    x 1.970990 0.000000 -0.001400 
#    y 0.000000 2.221050 0.000000 
#    z -0.001400 0.000000 2.013830 
# 
# From -- ./inp_files/14331.got.cif
#   From: 2010.05.17/outbox.cif.g08.bks.cpg/sg9_8_cif.got.tgz:14331.got - 2010.06.03 20:04:27.
