data_PCOD9136234
_publ_section_title
;
Structure prediction by ZEFSAII (Michael W. Deem and Ramdas Pophale) SiO2 
 PCOD9136234
Probable space group: C C
;
_chemical_formula_sum "Si O2"
_cell_formula_units_Z 32
_cell_length_a 7.363071
_cell_length_b 22.079645
_cell_length_c 13.788618
_cell_angle_alpha 90.000000
_cell_angle_beta 43.576982
_cell_angle_gamma 90.000000
_cell_volume 1545.247632
_symmetry_space_group_name_H-M "C C"
_symmetry_group_IT_number 9
_symmetry_cell_setting 'monoclinic'
loop_
_space_group_symop_operation_xyz
x,y,z
x,-y,1/2+z
1/2+x,1/2+y,z
1/2+x,1/2-y,1/2+z
loop_
_atom_site_type_symbol
_atom_site_label
_atom_site_fract_x
_atom_site_fract_y
_atom_site_fract_z
Si Si1 0.980980 0.507821 0.212880
Si Si2 0.132343 0.889912 0.165129
Si Si3 0.166679 0.305750 0.266368
Si Si4 0.583867 0.871585 0.106435
Si Si5 0.376152 0.187004 0.080930
Si Si6 0.507632 0.015237 0.429439
Si Si7 0.738942 0.084233 0.975692
Si Si8 0.009929 0.909253 0.809674
O O1 0.725243 0.545031 0.273360
O O2 0.028803 0.442713 0.146794
O O3 0.984973 0.501088 0.325761
O O4 0.225876 0.548795 0.080795
O O5 0.383531 0.850587 0.100196
O O6 0.902486 0.851871 0.204424
O O7 0.007254 0.912863 0.314237
O O8 0.252098 0.945625 0.058674
O O9 0.035273 0.336036 0.223334
O O10 0.293430 0.244273 0.176547
O O11 0.972084 0.298816 0.433995
O O12 0.876848 0.870983 0.949036
O O13 0.143233 0.137715 0.183993
O O14 0.623711 0.151029 0.031044
O O15 0.771027 0.054178 0.351936
O O16 0.549361 0.954812 0.476520
#
# Coordination Sequence:
#
# PCOD9136234 Si02
#       8
#     4   4   4   4   4   4   4   4
#     4  11  21  35  60  90 125 168 202 253 321 375
#     4  10  22  41  60  89 129 163 209 266 307 375
#     4  11  23  44  64  89 121 169 218 259 318 373
#     4  11  22  38  62  92 124 170 206 257 321 368
#     4  10  23  42  67  88 124 168 211 267 313 369
#     4  11  22  37  63  94 128 167 206 253 323 380
#     4  10  21  40  59  95 128 160 206 261 315 381
#     4  10  22  41  59  91 131 161 210 264 306 383
#
# _framework density 20.708653999999999
#
# number of rings (size 3 to 8) (size 9 to 14) (size 15 to 20)
#    0.000    1.500    2.500    3.750    1.750    2.000 
#    0.000   10.000    0.000    0.000    0.000    0.000 
#    0.000    0.000    0.000    0.000    0.000    0.000 
#
# Total GULP energy -89292.313546 kJ/mol
# GULP energy per Si atom -5580.769597 kJ/mol
# Density = 2.066152 g / cm^3
# Si number density = 20.708654 Si / 1000 Ang^3
#
#
#
# Elastic Constant Matrix: (Units=GPa)
#
#
# Indices 1 2 3 4 5 6 
#
# 1 32.4241 -4.0172 11.4903 0.0000 4.3263 0.0000
# 2 -4.0172 74.6594 37.2577 0.0000 -2.5704 0.0000
# 3 11.4903 37.2577 138.6895 0.0000 5.3745 0.0000
# 4 0.0000 0.0000 0.0000 37.6946 0.0000 5.5025
# 5 4.3263 -2.5704 5.3745 0.0000 27.6298 0.0000
# 6 0.0000 0.0000 0.0000 5.5025 0.0000 17.0270
#
#
#
# Elastic Compliance Matrix: (Units=1/GPa)
#
#
# Indices 1 2 3 4 5 6 
#
# 1 0.033051 0.003372 -0.003482 0.000000 -0.004184 0.000000
# 2 0.003372 0.015954 -0.004637 0.000000 0.001858 0.000000
# 3 -0.003482 -0.004637 0.008807 0.000000 -0.001599 0.000000
# 4 0.000000 0.000000 0.000000 0.027842 0.000000 -0.008998
# 5 -0.004184 0.001858 -0.001599 0.000000 0.037332 0.000000
# 6 0.000000 0.000000 0.000000 -0.008998 0.000000 0.061638
#
#
# Mechanical properties :
#
#
# Convention : Reuss Voigt Hill
#
# Bulk Modulus (GPa) = 20.69662 37.24830 28.97246
# Shear Modulus (GPa) = 23.78417 29.87309 26.82863
#
# Velocity S-wave (km/s) = 3.39265 3.80220 3.60325
# Velocity P-wave (km/s) = 5.03613 6.10750 5.59751
#
# Compressibility (1/GPa) = 0.04831707
#
# Stress axis : x y z
#
# Youngs Moduli (GPa) = 30.25604 62.68139 113.55193
#
# Poissons Ratio (x) = -0.21136 0.39538
# Poissons Ratio (y) = -0.10202 0.52656
# Poissons Ratio (z) = 0.10535 0.29067
#
# Static dielectric constant tensor:
#      x y z
#    x 1.756140 0.000000 -0.037880 
#    y 0.000000 1.768390 0.000000 
#    z -0.037880 0.000000 1.800660 
# 
# From -- ./inp_files/23746.got.cif
#   From: 2010.05.17/outbox.cif.g08.bks.cpg/sg9_12_cif.got.tgz:23746.got - 2010.06.03 20:04:27.
