data_PCOD9136166
_publ_section_title
;
Structure prediction by ZEFSAII (Michael W. Deem and Ramdas Pophale) SiO2 
 PCOD9136166
Probable space group: C C
;
_chemical_formula_sum "Si O2"
_cell_formula_units_Z 32
_cell_length_a 7.517721
_cell_length_b 11.804087
_cell_length_c 25.084260
_cell_angle_alpha 90.000000
_cell_angle_beta 145.848680
_cell_angle_gamma 90.000000
_cell_volume 1249.617780
_symmetry_space_group_name_H-M "C C"
_symmetry_group_IT_number 9
_symmetry_cell_setting 'monoclinic'
loop_
_space_group_symop_operation_xyz
x,y,z
x,-y,1/2+z
1/2+x,1/2+y,z
1/2+x,1/2-y,1/2+z
loop_
_atom_site_type_symbol
_atom_site_label
_atom_site_fract_x
_atom_site_fract_y
_atom_site_fract_z
Si Si1 0.211940 0.008262 0.782720
Si Si2 0.902185 0.070656 0.497276
Si Si3 0.484789 0.699234 0.180696
Si Si4 0.610172 0.651329 0.095967
Si Si5 0.499452 0.212632 0.461477
Si Si6 0.606146 0.751781 0.788100
Si Si7 0.604444 0.570544 0.429451
Si Si8 0.093688 0.622366 0.787556
O O1 0.546313 0.972301 0.892107
O O2 0.323357 0.059505 0.753848
O O3 0.088063 0.117893 0.783154
O O4 0.942546 0.913784 0.705144
O O5 0.052064 0.980163 0.574253
O O6 0.113304 0.063276 0.495673
O O7 0.808951 0.189100 0.502071
O O8 0.410837 0.690637 0.099352
O O9 0.873009 0.698673 0.274499
O O10 0.440775 0.817333 0.198852
O O11 0.959348 0.693932 0.198501
O O12 0.550893 0.705687 0.024151
O O13 0.244420 0.275254 0.360337
O O14 0.404946 0.092571 0.466494
O O15 0.937923 0.807447 0.879998
O O16 0.376708 0.469937 0.352192
#
# Coordination Sequence:
#
# PCOD9136166 Si02
#       8
#     4   4   4   4   4   4   4   4
#     4  11  20  40  66  91 122 171 214 264 317 388
#     4  11  22  43  66  92 136 167 216 275 325 386
#     4  10  23  39  61  93 126 171 208 269 328 374
#     4  10  23  42  59  98 139 160 219 277 328 384
#     4  12  23  41  67  96 127 175 217 269 325 394
#     4  10  21  39  65  89 129 167 206 272 327 371
#     4  11  22  44  69  97 127 172 230 266 320 401
#     4  11  20  40  65  94 122 163 228 260 308 406
#
# _framework density 25.60783
#
# number of rings (size 3 to 8) (size 9 to 14) (size 15 to 20)
#    0.750    0.500    7.500    0.000    3.500    0.000 
#    6.750    1.250    0.000    0.000    0.000    0.000 
#    0.000    0.000    0.000    0.000    0.000    0.000 
#
# Total GULP energy -89314.041430 kJ/mol
# GULP energy per Si atom -5582.127589 kJ/mol
# Density = 2.554954 g / cm^3
# Si number density = 25.607830 Si / 1000 Ang^3
#
#
#
# Elastic Constant Matrix: (Units=GPa)
#
#
# Indices 1 2 3 4 5 6 
#
# 1 80.5382 28.3221 15.7499 -0.0001 -25.4366 0.0000
# 2 28.3221 123.1012 22.1466 0.0001 -24.1075 0.0000
# 3 15.7499 22.1466 68.5096 0.0006 -23.2208 -0.0001
# 4 -0.0001 0.0001 0.0006 34.0291 -0.0001 -12.9484
# 5 -25.4366 -24.1075 -23.2208 -0.0001 32.2584 -0.0001
# 6 0.0000 0.0000 -0.0001 -12.9484 -0.0001 50.3074
#
#
#
# Elastic Compliance Matrix: (Units=1/GPa)
#
#
# Indices 1 2 3 4 5 6 
#
# 1 0.016812 -0.001534 0.000973 0.000000 0.012810 0.000000
# 2 -0.001534 0.009696 -0.000973 0.000000 0.005336 0.000000
# 3 0.000973 -0.000973 0.019445 0.000000 0.014037 0.000000
# 4 0.000000 0.000000 0.000000 0.032577 0.000000 0.008385
# 5 0.012810 0.005336 0.014037 0.000000 0.055193 0.000000
# 6 0.000000 0.000000 0.000000 0.008385 0.000000 0.022036
#
#
# Mechanical properties :
#
#
# Convention : Reuss Voigt Hill
#
# Bulk Modulus (GPa) = 23.31848 44.95404 34.13626
# Shear Modulus (GPa) = 28.88118 37.04768 32.96443
#
# Velocity S-wave (km/s) = 3.36196 3.80772 3.59176
# Velocity P-wave (km/s) = 4.91895 6.07656 5.52814
#
# Compressibility (1/GPa) = 0.04288444
#
# Stress axis : x y z
#
# Youngs Moduli (GPa) = 59.48278 103.13052 51.42644
#
# Poissons Ratio (x) = 0.15823 -0.05004
# Poissons Ratio (y) = 0.09126 0.05005
# Poissons Ratio (z) = -0.05788 0.10036
#
# Static dielectric constant tensor:
#      x y z
#    x 2.065970 0.000000 -0.006690 
#    y 0.000000 2.170470 0.000000 
#    z -0.006690 0.000000 2.023770 
# 
# From -- ./inp_files/32478.got.cif
#   From: 2010.05.17/outbox.cif.g08.bks.cpg/sg9_17_cif.got.tgz:32478.got - 2010.06.03 20:04:27.
