data_PCOD9136921
_publ_section_title
;
Structure prediction by ZEFSAII (Michael W. Deem and Ramdas Pophale) SiO2 
 PCOD9136921
Probable space group: C C
;
_chemical_formula_sum "Si O2"
_cell_formula_units_Z 32
_cell_length_a 16.131773
_cell_length_b 11.791603
_cell_length_c 11.330516
_cell_angle_alpha 90.000000
_cell_angle_beta 141.972122
_cell_angle_gamma 90.000000
_cell_volume 1327.751954
_symmetry_space_group_name_H-M "C C"
_symmetry_group_IT_number 9
_symmetry_cell_setting 'monoclinic'
loop_
_space_group_symop_operation_xyz
x,y,z
x,-y,1/2+z
1/2+x,1/2+y,z
1/2+x,1/2-y,1/2+z
loop_
_atom_site_type_symbol
_atom_site_label
_atom_site_fract_x
_atom_site_fract_y
_atom_site_fract_z
Si Si1 0.193530 0.027492 0.518630
Si Si2 0.338215 0.376058 0.528422
Si Si3 0.470745 0.110251 0.071005
Si Si4 0.332203 0.744793 0.252922
Si Si5 0.071029 0.254357 0.144308
Si Si6 0.877322 0.695640 0.209464
Si Si7 0.688483 0.478814 0.751789
Si Si8 0.765670 0.879521 0.921801
O O1 0.297843 0.921718 0.644748
O O2 0.114877 0.027715 0.554349
O O3 0.255981 0.154130 0.594942
O O4 0.138117 0.001059 0.327544
O O5 0.346641 0.355402 0.677785
O O6 0.456899 0.296734 0.605535
O O7 0.356607 0.508498 0.519453
O O8 0.186496 0.337827 0.321511
O O9 0.454986 0.179297 0.173723
O O10 0.618424 0.065908 0.248676
O O11 0.462948 0.188687 0.946407
O O12 0.341549 0.027013 0.921378
O O13 0.276845 0.700200 0.317293
O O14 0.981440 0.289154 0.931916
O O15 0.168679 0.153076 0.213893
O O16 0.787990 0.804534 0.066641
#
# Coordination Sequence:
#
# PCOD9136921 Si02
#       8
#     4   4   4   4   4   4   4   4
#     4  10  21  45  77 111 149 202 259 317 387 477
#     4  12  30  48  75 113 160 205 259 328 396 465
#     4   9  23  47  80 105 147 207 256 316 398 471
#     4  10  24  49  72 113 148 205 261 315 390 475
#     4  12  28  48  76 116 153 204 266 325 392 468
#     4  10  25  45  74 113 152 198 259 324 394 466
#     4  10  22  44  73 114 144 197 259 316 384 466
#     4  11  27  50  75 115 157 204 257 333 395 460
#
# _framework density 24.100887
#
# number of rings (size 3 to 8) (size 9 to 14) (size 15 to 20)
#    0.000    1.500    1.250    1.500   12.250    1.000 
#   18.000    0.000    0.000    0.000    0.000    0.000 
#    0.000    0.000    0.000    0.000    0.000    0.000 
#
# Total GULP energy -89109.349464 kJ/mol
# GULP energy per Si atom -5569.334342 kJ/mol
# Density = 2.404603 g / cm^3
# Si number density = 24.100887 Si / 1000 Ang^3
#
#
#
# Elastic Constant Matrix: (Units=GPa)
#
#
# Indices 1 2 3 4 5 6 
#
# 1 65.2382 12.8909 72.1033 0.0000 -15.2129 0.0000
# 2 12.8909 102.0852 59.2320 0.0000 17.6958 0.0000
# 3 72.1033 59.2320 159.8769 0.0000 1.0280 0.0000
# 4 0.0000 0.0000 0.0000 29.9107 0.0000 -8.1213
# 5 -15.2129 17.6958 1.0280 0.0000 58.7700 0.0000
# 6 0.0000 0.0000 0.0000 -8.1213 0.0000 22.7763
#
#
#
# Elastic Compliance Matrix: (Units=1/GPa)
#
#
# Indices 1 2 3 4 5 6 
#
# 1 0.036484 0.004475 -0.018166 0.000000 0.008414 0.000000
# 2 0.004475 0.013875 -0.007140 0.000000 -0.002895 0.000000
# 3 -0.018166 -0.007140 0.017111 0.000000 -0.002852 0.000000
# 4 0.000000 0.000000 0.000000 0.037017 0.000000 0.013199
# 5 0.008414 -0.002895 -0.002852 0.000000 0.020115 0.000000
# 6 0.000000 0.000000 0.000000 0.013199 0.000000 0.048612
#
#
# Mechanical properties :
#
#
# Convention : Reuss Voigt Hill
#
# Bulk Modulus (GPa) = 38.74801 68.40585 53.57693
# Shear Modulus (GPa) = 22.37352 34.48967 28.43160
#
# Velocity S-wave (km/s) = 3.05015 3.78703 3.43839
# Velocity P-wave (km/s) = 5.34012 6.89687 6.16781
#
# Compressibility (1/GPa) = 0.02580778
#
# Stress axis : x y z
#
# Youngs Moduli (GPa) = 27.40937 72.07072 58.44179
#
# Poissons Ratio (x) = -0.32249 1.06164
# Poissons Ratio (y) = -0.12265 0.41727
# Poissons Ratio (z) = 0.49791 0.51458
#
# Static dielectric constant tensor:
#      x y z
#    x 1.962570 0.000000 -0.028920 
#    y 0.000000 2.003440 0.000000 
#    z -0.028920 0.000000 1.974850 
# 
# From -- ./inp_files/19324.got.cif
#   From: 2010.05.17/outbox.cif.g08.bks.cpg/sg9_10_cif.got.tgz:19324.got - 2010.06.03 20:04:27.
