data_PCOD9136370
_publ_section_title
;
Structure prediction by ZEFSAII (Michael W. Deem and Ramdas Pophale) SiO2 
 PCOD9136370
Probable space group: C C
;
_chemical_formula_sum "Si O2"
_cell_formula_units_Z 32
_cell_length_a 12.168157
_cell_length_b 7.408911
_cell_length_c 30.317458
_cell_angle_alpha 90.000000
_cell_angle_beta 152.125051
_cell_angle_gamma 90.000000
_cell_volume 1277.891165
_symmetry_space_group_name_H-M "C C"
_symmetry_group_IT_number 9
_symmetry_cell_setting 'monoclinic'
loop_
_space_group_symop_operation_xyz
x,y,z
x,-y,1/2+z
1/2+x,1/2+y,z
1/2+x,1/2-y,1/2+z
loop_
_atom_site_type_symbol
_atom_site_label
_atom_site_fract_x
_atom_site_fract_y
_atom_site_fract_z
Si Si1 0.040650 0.917513 0.326040
Si Si2 0.144486 0.965714 0.542953
Si Si3 0.287520 0.318950 0.973495
Si Si4 0.179934 0.628427 0.156609
Si Si5 0.522985 0.969174 0.451372
Si Si6 0.914256 0.896091 0.873926
Si Si7 0.900896 0.192852 0.150167
Si Si8 0.528184 0.698043 0.692498
O O1 0.807197 0.941183 0.214006
O O2 0.983496 0.012014 0.352643
O O3 0.129457 0.725985 0.375081
O O4 0.263335 0.998577 0.378739
O O5 0.370102 0.106125 0.619160
O O6 0.980499 0.038225 0.524469
O O7 0.989754 0.988984 0.443569
O O8 0.261158 0.773543 0.594221
O O9 0.135573 0.380719 0.960756
O O10 0.435634 0.145093 0.043775
O O11 0.362268 0.721861 0.188129
O O12 0.144070 0.742226 0.187659
O O13 0.539198 0.794974 0.425247
O O14 0.681225 0.904038 0.548236
O O15 0.649205 0.818791 0.773603
O O16 0.072103 0.018254 0.210258
#
# Coordination Sequence:
#
# PCOD9136370 Si02
#       8
#     4   4   4   4   4   4   4   4
#     4  11  22  43  71  94 138 182 222 299 343 407
#     4  10  23  44  67 103 139 178 238 283 343 429
#     4  11  22  45  65 100 140 177 234 288 341 426
#     4  10  21  41  68  98 135 176 233 278 352 413
#     4  11  22  43  71  94 138 184 230 287 350 414
#     4  10  23  43  68 100 134 178 235 278 354 418
#     4  10  21  40  69  92 134 183 217 287 346 399
#     4  11  22  43  67 101 138 178 229 292 343 418
#
# _framework density 25.041257000000002
#
# number of rings (size 3 to 8) (size 9 to 14) (size 15 to 20)
#    0.000    1.500    5.000    1.500    0.000    1.000 
#   15.750    2.500    0.000    0.000    0.000    0.000 
#    0.000    0.000    0.000    0.000    0.000    0.000 
#
# Total GULP energy -89152.073903 kJ/mol
# GULP energy per Si atom -5572.004619 kJ/mol
# Density = 2.498426 g / cm^3
# Si number density = 25.041257 Si / 1000 Ang^3
#
#
#
# Elastic Constant Matrix: (Units=GPa)
#
#
# Indices 1 2 3 4 5 6 
#
# 1 115.2148 6.6459 20.4127 0.0005 2.3684 -0.0003
# 2 6.6459 82.1945 10.3376 0.0016 3.8206 -0.0004
# 3 20.4127 10.3376 65.6359 0.0010 -14.7544 -0.0003
# 4 0.0005 0.0016 0.0010 27.6705 -0.0003 0.2262
# 5 2.3684 3.8206 -14.7544 -0.0003 36.8685 0.0002
# 6 -0.0003 -0.0004 -0.0003 0.2262 0.0002 30.2563
#
#
#
# Elastic Compliance Matrix: (Units=1/GPa)
#
#
# Indices 1 2 3 4 5 6 
#
# 1 0.009314 -0.000253 -0.003281 0.000000 -0.001885 0.000000
# 2 -0.000253 0.012595 -0.002412 -0.000001 -0.002254 0.000000
# 3 -0.003281 -0.002412 0.018394 0.000000 0.007822 0.000000
# 4 0.000000 -0.000001 0.000000 0.036142 0.000000 -0.000270
# 5 -0.001885 -0.002254 0.007822 0.000000 0.030608 0.000000
# 6 0.000000 0.000000 0.000000 -0.000270 0.000000 0.033053
#
#
# Mechanical properties :
#
#
# Convention : Reuss Voigt Hill
#
# Bulk Modulus (GPa) = 35.19585 37.53750 36.36668
# Shear Modulus (GPa) = 30.96613 34.00234 32.48423
#
# Velocity S-wave (km/s) = 3.52035 3.68890 3.60561
# Velocity P-wave (km/s) = 5.53259 5.75906 5.64696
#
# Compressibility (1/GPa) = 0.02841244
#
# Stress axis : x y z
#
# Youngs Moduli (GPa) = 107.36536 79.39781 54.36584
#
# Poissons Ratio (x) = 0.02008 0.17835
# Poissons Ratio (y) = 0.02715 0.13112
# Poissons Ratio (z) = 0.35222 0.19149
#
# Static dielectric constant tensor:
#      x y z
#    x 1.985800 0.000000 -0.001520 
#    y 0.000000 2.019130 0.000000 
#    z -0.001520 0.000000 2.116810 
# 
# From -- ./inp_files/31848.got.cif
#   From: 2010.05.17/outbox.cif.g08.bks.cpg/sg9_16_cif.got.tgz:31848.got - 2010.06.03 20:04:27.
