data_PCOD9136520
_publ_section_title
;
Structure prediction by ZEFSAII (Michael W. Deem and Ramdas Pophale) SiO2 
 PCOD9136520
Probable space group: C C
;
_chemical_formula_sum "Si O2"
_cell_formula_units_Z 32
_cell_length_a 23.597265
_cell_length_b 5.526857
_cell_length_c 18.568666
_cell_angle_alpha 90.000000
_cell_angle_beta 146.379782
_cell_angle_gamma 90.000000
_cell_volume 1340.860806
_symmetry_space_group_name_H-M "C C"
_symmetry_group_IT_number 9
_symmetry_cell_setting 'monoclinic'
loop_
_space_group_symop_operation_xyz
x,y,z
x,-y,1/2+z
1/2+x,1/2+y,z
1/2+x,1/2-y,1/2+z
loop_
_atom_site_type_symbol
_atom_site_label
_atom_site_fract_x
_atom_site_fract_y
_atom_site_fract_z
Si Si1 0.924090 0.442140 0.025550
Si Si2 0.913381 0.520593 0.756011
Si Si3 0.965186 0.807559 0.190654
Si Si4 0.721039 0.440058 0.254381
Si Si5 0.621581 0.208037 0.020341
Si Si6 0.600434 0.654085 0.249932
Si Si7 0.716967 0.293888 0.613432
Si Si8 0.300270 0.341579 0.515419
O O1 0.972261 0.635416 0.130098
O O2 0.851073 0.270600 0.996838
O O3 0.020547 0.275234 0.109263
O O4 0.843989 0.580026 0.890319
O O5 0.981552 0.342593 0.779171
O O6 0.833396 0.362015 0.716529
O O7 0.846559 0.686651 0.630700
O O8 0.999604 0.671040 0.889400
O O9 0.847404 0.894173 0.072352
O O10 0.035418 0.032121 0.244861
O O11 0.666330 0.238973 0.148421
O O12 0.667179 0.466913 0.273975
O O13 0.706094 0.678202 0.188540
O O14 0.653047 0.468197 0.019454
O O15 0.680611 0.971655 0.052162
O O16 0.680727 0.828568 0.374348
#
# Coordination Sequence:
#
# PCOD9136520 Si02
#       8
#     4   4   4   4   4   4   4   4
#     4   9  20  41  63 102 132 178 225 294 364 433
#     4  11  25  43  69  97 144 191 246 299 359 443
#     4  10  23  38  65 101 137 182 232 295 371 431
#     4   9  23  44  66 102 142 184 241 297 367 434
#     4  10  26  47  69 105 139 191 248 291 371 420
#     4  10  21  41  70 103 140 183 238 306 370 437
#     4  10  26  46  68 103 139 192 238 304 352 437
#     4   9  22  40  60  97 137 181 234 292 360 431
#
# _framework density 23.865265999999998
#
# number of rings (size 3 to 8) (size 9 to 14) (size 15 to 20)
#    0.750    1.500    0.000    0.000    5.250   11.000 
#    2.250    0.000    0.000    0.000    0.000    0.000 
#    0.000    0.000    0.000    0.000    0.000    0.000 
#
# Total GULP energy -89229.307046 kJ/mol
# GULP energy per Si atom -5576.831690 kJ/mol
# Density = 2.381095 g / cm^3
# Si number density = 23.865266 Si / 1000 Ang^3
#
#
#
# Elastic Constant Matrix: (Units=GPa)
#
#
# Indices 1 2 3 4 5 6 
#
# 1 61.4690 14.4793 40.0478 0.0000 6.7889 0.0000
# 2 14.4793 74.7554 30.2347 0.0002 11.1058 0.0001
# 3 40.0478 30.2347 154.0558 0.0001 28.3581 0.0001
# 4 0.0000 0.0002 0.0001 30.4881 0.0001 3.9531
# 5 6.7889 11.1058 28.3581 0.0001 25.4965 0.0000
# 6 0.0000 0.0001 0.0001 3.9531 0.0000 25.6111
#
#
#
# Elastic Compliance Matrix: (Units=1/GPa)
#
#
# Indices 1 2 3 4 5 6 
#
# 1 0.019857 -0.002000 -0.004975 0.000000 0.001117 0.000000
# 2 -0.002000 0.015059 -0.001667 0.000000 -0.004172 0.000000
# 3 -0.004975 -0.001667 0.009725 0.000000 -0.008766 0.000000
# 4 0.000000 0.000000 0.000000 0.033470 0.000000 -0.005166
# 5 0.001117 -0.004172 -0.008766 0.000000 0.050490 0.000000
# 6 0.000000 0.000000 0.000000 -0.005166 0.000000 0.039843
#
#
# Mechanical properties :
#
#
# Convention : Reuss Voigt Hill
#
# Bulk Modulus (GPa) = 36.55506 51.08931 43.82219
# Shear Modulus (GPa) = 25.66099 30.02037 27.84068
#
# Velocity S-wave (km/s) = 3.28265 3.55055 3.41923
# Velocity P-wave (km/s) = 5.45144 6.18566 5.83012
#
# Compressibility (1/GPa) = 0.02735600
#
# Stress axis : x y z
#
# Youngs Moduli (GPa) = 50.35889 66.40741 102.82415
#
# Poissons Ratio (x) = 0.13281 0.51158
# Poissons Ratio (y) = 0.10071 0.17146
# Poissons Ratio (z) = 0.25055 0.11073
#
# Static dielectric constant tensor:
#      x y z
#    x 1.939430 0.000000 -0.024010 
#    y 0.000000 1.930130 0.000000 
#    z -0.024010 0.000000 1.952000 
# 
# From -- ./inp_files/34243.got.cif
#   From: 2010.05.17/outbox.cif.g08.bks.cpg/sg9_18_cif.got.tgz:34243.got - 2010.06.03 20:04:27.
