data_PCOD9136539
_publ_section_title
;
Structure prediction by ZEFSAII (Michael W. Deem and Ramdas Pophale) SiO2 
 PCOD9136539
Probable space group: C C
;
_chemical_formula_sum "Si O2"
_cell_formula_units_Z 12
_cell_length_a 14.000582
_cell_length_b 7.027336
_cell_length_c 9.261955
_cell_angle_alpha 90.000000
_cell_angle_beta 28.232492
_cell_angle_gamma 90.000000
_cell_volume 431.069160
_symmetry_space_group_name_H-M "C C"
_symmetry_group_IT_number 9
_symmetry_cell_setting 'monoclinic'
loop_
_space_group_symop_operation_xyz
x,y,z
x,-y,1/2+z
1/2+x,1/2+y,z
1/2+x,1/2-y,1/2+z
loop_
_atom_site_type_symbol
_atom_site_label
_atom_site_fract_x
_atom_site_fract_y
_atom_site_fract_z
Si Si1 0.318710 0.527532 0.394590
Si Si2 0.413262 0.941293 0.256181
Si Si3 0.538529 0.664459 0.849888
O O1 0.323488 0.745934 0.443108
O O2 0.367847 0.394878 0.462716
O O3 0.116721 0.499654 0.568856
O O4 0.503876 0.526201 0.034199
O O5 0.240843 0.097850 0.498604
O O6 0.467506 0.862261 0.023312
#
# Coordination Sequence:
#
# PCOD9136539 Si02
#       3
#     4   4   4
#     4  10  21  41  73 104 153 199 255 325 388 473
#     4  10  21  41  75 106 154 202 260 324 396 476
#     4  10  22  42  74 112 153 205 265 323 404 473
#
# _framework density 27.837759999999999
#
# number of rings (size 3 to 8) (size 9 to 14) (size 15 to 20)
#    2.000    0.000    3.333    0.000    0.000    8.000 
#    0.000    3.333    0.000    0.000    0.000    0.000 
#    0.000    0.000    0.000    0.000    0.000    0.000 
#
# Total GULP energy -33482.043761 kJ/mol
# GULP energy per Si atom -5580.340627 kJ/mol
# Density = 2.777440 g / cm^3
# Si number density = 27.837760 Si / 1000 Ang^3
#
#
#
# Elastic Constant Matrix: (Units=GPa)
#
#
# Indices 1 2 3 4 5 6 
#
# 1 168.8140 77.9094 67.2252 0.0000 7.4412 0.0000
# 2 77.9094 128.5495 55.0993 0.0000 2.2453 0.0000
# 3 67.2252 55.0993 169.8915 0.0000 -10.8072 0.0000
# 4 0.0000 0.0000 0.0000 43.3837 0.0000 10.2521
# 5 7.4412 2.2453 -10.8072 0.0000 63.5703 0.0000
# 6 0.0000 0.0000 0.0000 10.2521 0.0000 65.2108
#
#
#
# Elastic Compliance Matrix: (Units=1/GPa)
#
#
# Indices 1 2 3 4 5 6 
#
# 1 0.008886 -0.004440 -0.002156 0.000000 -0.001250 0.000000
# 2 -0.004440 0.011296 -0.001920 0.000000 -0.000206 0.000000
# 3 -0.002156 -0.001920 0.007463 0.000000 0.001589 0.000000
# 4 0.000000 0.000000 0.000000 0.023940 0.000000 -0.003764
# 5 -0.001250 -0.000206 0.001589 0.000000 0.016154 0.000000
# 6 0.000000 0.000000 0.000000 -0.003764 0.000000 0.015927
#
#
# Mechanical properties :
#
#
# Convention : Reuss Voigt Hill
#
# Bulk Modulus (GPa) = 94.21111 96.41368 95.31240
# Shear Modulus (GPa) = 47.96836 52.23438 50.10137
#
# Velocity S-wave (km/s) = 4.15558 4.33643 4.24696
# Velocity P-wave (km/s) = 7.54596 7.73189 7.63949
#
# Compressibility (1/GPa) = 0.01061446
#
# Stress axis : x y z
#
# Youngs Moduli (GPa) = 112.53296 88.52351 133.99578
#
# Poissons Ratio (x) = 0.39303 0.28887
# Poissons Ratio (y) = 0.49962 0.25727
# Poissons Ratio (z) = 0.24260 0.16996
#
# Static dielectric constant tensor:
#      x y z
#    x 2.351020 0.000000 -0.155960 
#    y 0.000000 2.223140 0.000000 
#    z -0.155960 0.000000 2.269640 
# 
# From -- ./inp_files/4575.got.cif
#   From: 2010.05.17/outbox.cif.g08.bks.cpg/sg9_3_cif.got.tgz:4575.got - 2010.06.03 20:04:27.
