data_PCOD9136077
_publ_section_title
;
Structure prediction by ZEFSAII (Michael W. Deem and Ramdas Pophale) SiO2 
 PCOD9136077
Probable space group: C C
;
_chemical_formula_sum "Si O2"
_cell_formula_units_Z 28
_cell_length_a 5.530378
_cell_length_b 25.716889
_cell_length_c 8.523050
_cell_angle_alpha 90.000000
_cell_angle_beta 69.058703
_cell_angle_gamma 90.000000
_cell_volume 1132.115049
_symmetry_space_group_name_H-M "C C"
_symmetry_group_IT_number 9
_symmetry_cell_setting 'monoclinic'
loop_
_space_group_symop_operation_xyz
x,y,z
x,-y,1/2+z
1/2+x,1/2+y,z
1/2+x,1/2-y,1/2+z
loop_
_atom_site_type_symbol
_atom_site_label
_atom_site_fract_x
_atom_site_fract_y
_atom_site_fract_z
Si Si1 0.266510 0.937832 0.872940
Si Si2 0.291591 0.430872 0.583191
Si Si3 0.166080 0.181756 0.666792
Si Si4 0.790174 0.730773 0.322781
Si Si5 0.034443 0.024922 0.730612
Si Si6 0.084032 0.339206 0.329832
Si Si7 0.664497 0.638935 0.146748
O O1 0.547511 0.921392 0.751882
O O2 0.097325 0.897625 0.810070
O O3 0.227160 0.994401 0.802538
O O4 0.196802 0.940085 0.070842
O O5 0.413405 0.481083 0.646185
O O6 0.321817 0.449768 0.395142
O O7 0.463014 0.378670 0.562191
O O8 0.064062 0.239542 0.743618
O O9 0.384808 0.159764 0.730998
O O10 0.886737 0.152372 0.720372
O O11 0.287813 0.192118 0.469335
O O12 0.683770 0.697107 0.202804
O O13 0.596944 0.779298 0.385382
O O14 0.944295 0.371471 0.499907
#
# Coordination Sequence:
#
# PCOD9136077 Si02
#       7
#     4   4   4   4   4   4   4
#     4  10  21  39  65  97 130 171 213 276 328 413
#     4  10  21  38  68  92 137 168 215 276 328 410
#     4  10  23  38  67  85 121 172 223 274 336 399
#     4  10  22  41  61  88 122 171 221 282 333 399
#     4   9  20  41  64  98 128 173 215 257 346 410
#     4  10  23  42  62  91 122 174 217 276 335 396
#     4  11  24  41  59  97 128 165 230 277 334 393
#
# _framework density 24.732465999999999
#
# number of rings (size 3 to 8) (size 9 to 14) (size 15 to 20)
#    0.857    1.143    1.429    0.857    6.000    2.286 
#    2.571    0.000    0.000    0.000    0.000    0.000 
#    0.000    0.000    0.000    0.000    0.000    0.000 
#
# Total GULP energy -78039.194521 kJ/mol
# GULP energy per Si atom -5574.228180 kJ/mol
# Density = 2.467617 g / cm^3
# Si number density = 24.732466 Si / 1000 Ang^3
#
#
#
# Elastic Constant Matrix: (Units=GPa)
#
#
# Indices 1 2 3 4 5 6 
#
# 1 81.7524 10.0502 31.0089 0.0000 -2.7125 0.0000
# 2 10.0502 58.3958 43.0860 0.0000 -3.5768 0.0000
# 3 31.0089 43.0860 151.6096 0.0000 0.2309 0.0000
# 4 0.0000 0.0000 0.0000 50.2786 0.0000 -4.1115
# 5 -2.7125 -3.5768 0.2309 0.0000 29.2859 0.0000
# 6 0.0000 0.0000 0.0000 -4.1115 0.0000 31.8955
#
#
#
# Elastic Compliance Matrix: (Units=1/GPa)
#
#
# Indices 1 2 3 4 5 6 
#
# 1 0.013310 -0.000261 -0.002650 0.000000 0.001222 0.000000
# 2 -0.000261 0.021888 -0.006171 0.000000 0.002698 0.000000
# 3 -0.002650 -0.006171 0.008893 0.000000 -0.001069 0.000000
# 4 0.000000 0.000000 0.000000 0.020101 0.000000 0.002591
# 5 0.001222 0.002698 -0.001069 0.000000 0.034597 0.000000
# 6 0.000000 0.000000 0.000000 0.002591 0.000000 0.031686
#
#
# Mechanical properties :
#
#
# Convention : Reuss Voigt Hill
#
# Bulk Modulus (GPa) = 38.56916 51.11645 44.84280
# Shear Modulus (GPa) = 31.79010 36.13284 33.96147
#
# Velocity S-wave (km/s) = 3.58908 3.82638 3.70963
# Velocity P-wave (km/s) = 5.72745 6.34304 6.04309
#
# Compressibility (1/GPa) = 0.02592745
#
# Stress axis : x y z
#
# Youngs Moduli (GPa) = 75.13251 45.68749 112.44388
#
# Poissons Ratio (x) = 0.01190 0.29799
# Poissons Ratio (y) = 0.01957 0.69391
# Poissons Ratio (z) = 0.19911 0.28194
#
# Static dielectric constant tensor:
#      x y z
#    x 2.037960 0.000000 0.036270 
#    y 0.000000 2.009670 0.000000 
#    z 0.036270 0.000000 1.931520 
# 
# From -- ./inp_files/4296.got.cif
#   From: 2010.05.17/outbox.cif.g08.bks.cpg/sg9_3_cif.got.tgz:4296.got - 2010.06.03 20:04:27.
