data_PCOD9136278
_publ_section_title
;
Structure prediction by ZEFSAII (Michael W. Deem and Ramdas Pophale) SiO2 
 PCOD9136278
Probable space group: C C
;
_chemical_formula_sum "Si O2"
_cell_formula_units_Z 24
_cell_length_a 10.503777
_cell_length_b 17.047779
_cell_length_c 5.501985
_cell_angle_alpha 90.000000
_cell_angle_beta 69.561261
_cell_angle_gamma 90.000000
_cell_volume 923.195456
_symmetry_space_group_name_H-M "C C"
_symmetry_group_IT_number 9
_symmetry_cell_setting 'monoclinic'
loop_
_space_group_symop_operation_xyz
x,y,z
x,-y,1/2+z
1/2+x,1/2+y,z
1/2+x,1/2-y,1/2+z
loop_
_atom_site_type_symbol
_atom_site_label
_atom_site_fract_x
_atom_site_fract_y
_atom_site_fract_z
Si Si1 0.512530 0.860120 0.321960
Si Si2 0.962784 0.656462 0.355124
Si Si3 0.196767 0.221504 0.669240
Si Si4 0.043143 0.016582 0.134885
Si Si5 0.078590 0.182112 0.248024
Si Si6 0.243101 0.460608 0.305017
O O1 0.438089 0.885216 0.616841
O O2 0.504386 0.765759 0.310201
O O3 0.670101 0.882581 0.260357
O O4 0.462359 0.893306 0.100661
O O5 0.850307 0.724017 0.473552
O O6 0.108397 0.699571 0.240861
O O7 0.130233 0.171394 0.490832
O O8 0.187021 0.190324 0.952973
O O9 0.998050 0.106598 0.208391
O O10 0.118008 0.991910 0.330228
O O11 0.905674 0.965330 0.209342
O O12 0.201203 0.481071 0.610184
#
# Coordination Sequence:
#
# PCOD9136278 Si02
#       6
#     4   4   4   4   4   4
#     4  10  21  40  63  98 142 181 229 291 354 411
#     4  10  21  40  63  98 142 181 229 291 354 411
#     4  10  21  40  63  98 142 181 229 291 354 411
#     4  10  21  40  63  98 142 181 229 291 354 411
#     4  10  21  40  63  98 142 181 229 291 354 411
#     4  10  21  40  63  98 142 181 229 291 354 411
#
# _framework density 25.996663999999999
#
# number of rings (size 3 to 8) (size 9 to 14) (size 15 to 20)
#    0.000    2.000    0.000    3.000    0.000    0.000 
#   72.000    0.000    0.000   20.000    0.000    0.000 
#    0.000    0.000    0.000    0.000    0.000    0.000 
#
# Total GULP energy -66915.920327 kJ/mol
# GULP energy per Si atom -5576.326694 kJ/mol
# Density = 2.593749 g / cm^3
# Si number density = 25.996664 Si / 1000 Ang^3
#
#
#
# Elastic Constant Matrix: (Units=GPa)
#
#
# Indices 1 2 3 4 5 6 
#
# 1 58.7323 15.8286 39.6832 0.0000 13.2537 0.0000
# 2 15.8286 54.2108 15.7003 0.0000 3.9682 0.0000
# 3 39.6832 15.7003 251.9956 0.0000 62.2608 0.0000
# 4 0.0000 0.0000 0.0000 26.9010 0.0000 5.4147
# 5 13.2537 3.9682 62.2608 0.0000 51.4022 0.0000
# 6 0.0000 0.0000 0.0000 5.4147 0.0000 23.5145
#
#
#
# Elastic Compliance Matrix: (Units=1/GPa)
#
#
# Indices 1 2 3 4 5 6 
#
# 1 0.020489 -0.005138 -0.002425 0.000000 -0.001949 0.000000
# 2 -0.005138 0.020074 -0.000551 0.000000 0.000442 0.000000
# 3 -0.002425 -0.000551 0.006022 0.000000 -0.006626 0.000000
# 4 0.000000 0.000000 0.000000 0.038980 0.000000 -0.008976
# 5 -0.001949 0.000442 -0.006626 0.000000 0.027948 0.000000
# 6 0.000000 0.000000 0.000000 -0.008976 0.000000 0.044594
#
#
# Mechanical properties :
#
#
# Convention : Reuss Voigt Hill
#
# Bulk Modulus (GPa) = 32.94030 56.37364 44.65697
# Shear Modulus (GPa) = 27.10720 39.94531 33.52625
#
# Velocity S-wave (km/s) = 3.23262 3.92414 3.59505
# Velocity P-wave (km/s) = 5.16058 6.50107 5.86922
#
# Compressibility (1/GPa) = 0.03035795
#
# Stress axis : x y z
#
# Youngs Moduli (GPa) = 48.80608 49.81633 166.07005
#
# Poissons Ratio (x) = 0.25593 0.40270
# Poissons Ratio (y) = 0.25074 0.09149
# Poissons Ratio (z) = 0.11835 0.02744
#
# Static dielectric constant tensor:
#      x y z
#    x 2.056550 0.000000 0.051410 
#    y 0.000000 2.038120 0.000000 
#    z 0.051410 0.000000 2.181470 
# 
# From -- ./inp_files/1593.got.cif
#   From: 2010.05.17/outbox.cif.g08.bks.cpg/sg9_1_cif.got.tgz:1593.got - 2010.06.03 20:04:27.
