data_PCOD9136536
_publ_section_title
;
Structure prediction by ZEFSAII (Michael W. Deem and Ramdas Pophale) SiO2 
 PCOD9136536
Probable space group: C C
;
_chemical_formula_sum "Si O2"
_cell_formula_units_Z 28
_cell_length_a 11.329747
_cell_length_b 9.949186
_cell_length_c 14.816995
_cell_angle_alpha 90.000000
_cell_angle_beta 39.847366
_cell_angle_gamma 90.000000
_cell_volume 1070.170219
_symmetry_space_group_name_H-M "C C"
_symmetry_group_IT_number 9
_symmetry_cell_setting 'monoclinic'
loop_
_space_group_symop_operation_xyz
x,y,z
x,-y,1/2+z
1/2+x,1/2+y,z
1/2+x,1/2-y,1/2+z
loop_
_atom_site_type_symbol
_atom_site_label
_atom_site_fract_x
_atom_site_fract_y
_atom_site_fract_z
Si Si1 0.998480 0.482149 0.768480
Si Si2 0.394220 0.179221 0.481584
Si Si3 0.973082 0.425968 0.104277
Si Si4 0.538607 0.448617 0.386232
Si Si5 0.346244 0.340900 0.109577
Si Si6 0.193707 0.831386 0.543955
Si Si7 0.480586 0.416580 0.218092
O O1 0.965977 0.345209 0.839578
O O2 0.007912 0.459737 0.656310
O O3 0.182709 0.554268 0.689585
O O4 0.838808 0.589044 0.894666
O O5 0.493386 0.067167 0.485662
O O6 0.446492 0.322381 0.489947
O O7 0.180843 0.151657 0.602584
O O8 0.751578 0.408220 0.245885
O O9 0.106426 0.305709 0.057945
O O10 0.514400 0.585562 0.456705
O O11 0.434306 0.447080 0.350227
O O12 0.287318 0.209387 0.085894
O O13 0.372679 0.339929 0.201878
O O14 0.025460 0.933251 0.655981
#
# Coordination Sequence:
#
# PCOD9136536 Si02
#       7
#     4   4   4   4   4   4   4
#     4  10  23  41  65 101 130 173 228 284 349 417
#     4  10  22  41  63  97 133 173 229 280 351 418
#     4  10  21  41  72  92 124 183 225 286 334 417
#     4  11  24  41  67 100 134 174 231 289 349 420
#     4  11  25  41  68 100 134 177 230 289 346 422
#     4  10  23  45  69  98 133 183 239 280 348 424
#     4  10  24  44  64  96 140 179 226 290 351 416
#
# _framework density 26.164059999999999
#
# number of rings (size 3 to 8) (size 9 to 14) (size 15 to 20)
#    0.000    1.714    0.000    3.429   10.000    3.429 
#    7.714    0.000    0.000    0.000    0.000    0.000 
#    0.000    0.000    0.000    0.000    0.000    0.000 
#
# Total GULP energy -78214.705947 kJ/mol
# GULP energy per Si atom -5586.764711 kJ/mol
# Density = 2.610451 g / cm^3
# Si number density = 26.164060 Si / 1000 Ang^3
#
#
#
# Elastic Constant Matrix: (Units=GPa)
#
#
# Indices 1 2 3 4 5 6 
#
# 1 130.6539 -0.9581 16.7359 -0.0001 41.7240 0.0001
# 2 -0.9581 85.6932 3.8527 -0.0001 -1.8496 0.0001
# 3 16.7359 3.8527 61.5264 -0.0002 11.0857 0.0002
# 4 -0.0001 -0.0001 -0.0002 36.2147 0.0001 3.0664
# 5 41.7240 -1.8496 11.0857 0.0001 52.1208 0.0000
# 6 0.0001 0.0001 0.0002 3.0664 0.0000 22.9780
#
#
#
# Elastic Compliance Matrix: (Units=1/GPa)
#
#
# Indices 1 2 3 4 5 6 
#
# 1 0.010394 0.000005 -0.001381 0.000000 -0.008027 0.000000
# 2 0.000005 0.011720 -0.000842 0.000000 0.000591 0.000000
# 3 -0.001381 -0.000842 0.017145 0.000000 -0.002571 0.000000
# 4 0.000000 0.000000 0.000000 0.027929 0.000000 -0.003727
# 5 -0.008027 0.000591 -0.002571 0.000000 0.026180 0.000000
# 6 0.000000 0.000000 0.000000 -0.003727 0.000000 0.044017
#
#
# Mechanical properties :
#
#
# Convention : Reuss Voigt Hill
#
# Bulk Modulus (GPa) = 28.71667 35.23719 31.97693
# Shear Modulus (GPa) = 32.58846 39.47887 36.03367
#
# Velocity S-wave (km/s) = 3.53305 3.88867 3.71512
# Velocity P-wave (km/s) = 5.25764 5.80167 5.53634
#
# Compressibility (1/GPa) = 0.03482298
#
# Stress axis : x y z
#
# Youngs Moduli (GPa) = 96.20815 85.32288 58.32669
#
# Poissons Ratio (x) = -0.00043 0.08057
# Poissons Ratio (y) = -0.00049 0.04910
# Poissons Ratio (z) = 0.13290 0.07182
#
# Static dielectric constant tensor:
#      x y z
#    x 2.090160 0.000000 0.055790 
#    y 0.000000 2.002600 0.000000 
#    z 0.055790 0.000000 2.079960 
# 
# From -- ./inp_files/16033.got.cif
#   From: 2010.05.17/outbox.cif.g08.bks.cpg/sg9_9_cif.got.tgz:16033.got - 2010.06.03 20:04:27.
