data_PCOD9136876
_publ_section_title
;
Structure prediction by ZEFSAII (Michael W. Deem and Ramdas Pophale) SiO2 
 PCOD9136876
Probable space group: C C
;
_chemical_formula_sum "Si O2"
_cell_formula_units_Z 28
_cell_length_a 23.277810
_cell_length_b 11.351146
_cell_length_c 9.711530
_cell_angle_alpha 90.000000
_cell_angle_beta 27.062209
_cell_angle_gamma 90.000000
_cell_volume 1167.455810
_symmetry_space_group_name_H-M "C C"
_symmetry_group_IT_number 9
_symmetry_cell_setting 'monoclinic'
loop_
_space_group_symop_operation_xyz
x,y,z
x,-y,1/2+z
1/2+x,1/2+y,z
1/2+x,1/2-y,1/2+z
loop_
_atom_site_type_symbol
_atom_site_label
_atom_site_fract_x
_atom_site_fract_y
_atom_site_fract_z
Si Si1 0.056530 0.515150 0.962840
Si Si2 0.181882 0.768895 0.368521
Si Si3 0.667240 0.436047 0.657262
Si Si4 0.952436 0.086583 0.218353
Si Si5 0.711088 0.001204 0.881048
Si Si6 0.847780 0.339922 0.769614
Si Si7 0.845679 0.312748 0.462802
O O1 0.115294 0.564512 0.978057
O O2 0.170177 0.469995 0.623204
O O3 0.981818 0.612712 0.035253
O O4 0.954845 0.411122 0.207169
O O5 0.197388 0.847648 0.470399
O O6 0.178146 0.634329 0.419962
O O7 0.062746 0.834617 0.552478
O O8 0.289649 0.773842 0.022979
O O9 0.759078 0.546363 0.438439
O O10 0.715715 0.372802 0.692792
O O11 0.526703 0.488345 0.972293
O O12 0.872910 0.193303 0.318906
O O13 0.853985 0.026228 0.532211
O O14 0.846137 0.280846 0.623873
#
# Coordination Sequence:
#
# PCOD9136876 Si02
#       7
#     4   4   4   4   4   4   4
#     4  11  23  46  66 105 138 187 239 284 356 423
#     4  11  25  47  70 104 143 185 234 299 355 415
#     4  10  24  43  72 103 139 185 243 285 355 423
#     4  11  26  45  71 101 145 181 237 289 352 418
#     4  12  28  43  71 103 146 188 235 292 356 426
#     4  10  21  44  75  99 142 187 232 292 359 416
#     4  11  23  46  73 103 139 189 232 297 351 419
#
# _framework density 23.983778000000001
#
# number of rings (size 3 to 8) (size 9 to 14) (size 15 to 20)
#    0.000    1.143    2.857    2.571    8.000    1.143 
#    0.000    0.000    0.000    0.000    0.000    0.000 
#    0.000    0.000    0.000    0.000    0.000    0.000 
#
# Total GULP energy -78266.070911 kJ/mol
# GULP energy per Si atom -5590.433636 kJ/mol
# Density = 2.392919 g / cm^3
# Si number density = 23.983778 Si / 1000 Ang^3
#
#
#
# Elastic Constant Matrix: (Units=GPa)
#
#
# Indices 1 2 3 4 5 6 
#
# 1 55.8357 22.8954 15.6134 0.0000 16.3996 0.0000
# 2 22.8954 73.7504 32.1718 0.0000 1.5758 0.0000
# 3 15.6134 32.1718 138.3760 0.0000 3.7481 0.0000
# 4 0.0000 0.0000 0.0000 29.0606 0.0000 3.5641
# 5 16.3996 1.5758 3.7481 0.0000 31.1175 0.0000
# 6 0.0000 0.0000 0.0000 3.5641 0.0000 20.1287
#
#
#
# Elastic Compliance Matrix: (Units=1/GPa)
#
#
# Indices 1 2 3 4 5 6 
#
# 1 0.024721 -0.007053 -0.000809 0.000000 -0.012574 0.000000
# 2 -0.007053 0.017105 -0.003269 0.000000 0.003245 0.000000
# 3 -0.000809 -0.003269 0.008088 0.000000 -0.000382 0.000000
# 4 0.000000 0.000000 0.000000 0.035175 0.000000 -0.006228
# 5 -0.012574 0.003245 -0.000382 0.000000 0.038645 0.000000
# 6 0.000000 0.000000 0.000000 -0.006228 0.000000 0.050783
#
#
# Mechanical properties :
#
#
# Convention : Reuss Voigt Hill
#
# Bulk Modulus (GPa) = 36.16244 45.48036 40.82140
# Shear Modulus (GPa) = 24.27217 29.21346 26.74281
#
# Velocity S-wave (km/s) = 3.18468 3.49384 3.34284
# Velocity P-wave (km/s) = 5.35103 5.93970 5.65304
#
# Compressibility (1/GPa) = 0.02765300
#
# Stress axis : x y z
#
# Youngs Moduli (GPa) = 40.45130 58.46075 123.63448
#
# Poissons Ratio (x) = 0.41232 0.10002
# Poissons Ratio (y) = 0.28530 0.40416
# Poissons Ratio (z) = 0.03273 0.19111
#
# Static dielectric constant tensor:
#      x y z
#    x 1.976720 0.000000 0.010950 
#    y 0.000000 1.919230 0.000000 
#    z 0.010950 0.000000 1.981240 
# 
# From -- ./inp_files/12179.got.cif
#   From: 2010.05.17/outbox.cif.g08.bks.cpg/sg9_7_cif.got.tgz:12179.got - 2010.06.03 20:04:27.
