data_PCOD9136141
_publ_section_title
;
Structure prediction by ZEFSAII (Michael W. Deem and Ramdas Pophale) SiO2 
 PCOD9136141
Probable space group: C C
;
_chemical_formula_sum "Si O2"
_cell_formula_units_Z 32
_cell_length_a 26.860417
_cell_length_b 11.698120
_cell_length_c 14.503827
_cell_angle_alpha 90.000000
_cell_angle_beta 160.716644
_cell_angle_gamma 90.000000
_cell_volume 1505.016937
_symmetry_space_group_name_H-M "C C"
_symmetry_group_IT_number 9
_symmetry_cell_setting 'monoclinic'
loop_
_space_group_symop_operation_xyz
x,y,z
x,-y,1/2+z
1/2+x,1/2+y,z
1/2+x,1/2-y,1/2+z
loop_
_atom_site_type_symbol
_atom_site_label
_atom_site_fract_x
_atom_site_fract_y
_atom_site_fract_z
Si Si1 0.223900 0.121403 0.595150
Si Si2 0.900449 0.298976 0.965727
Si Si3 0.992927 0.794441 0.818402
Si Si4 0.913097 0.184726 0.376398
Si Si5 0.053177 0.481656 0.657546
Si Si6 0.294100 0.510812 0.424163
Si Si7 0.805478 0.944183 0.236329
Si Si8 0.072788 0.884068 0.336623
O O1 0.254538 0.246501 0.604911
O O2 0.153897 0.152968 0.571438
O O3 0.117962 0.013924 0.381185
O O4 0.391328 0.076012 0.878856
O O5 0.948519 0.291314 0.157635
O O6 0.006942 0.387391 0.098563
O O7 0.898038 0.171739 0.917142
O O8 0.725707 0.338150 0.649262
O O9 0.992352 0.765993 0.924272
O O10 0.867921 0.893223 0.588129
O O11 0.011150 0.187351 0.641824
O O12 0.885608 0.048073 0.322108
O O13 0.148989 0.467677 0.732000
O O14 0.156159 0.426892 0.916570
O O15 0.259334 0.493636 0.255515
O O16 0.432887 0.601097 0.662832
#
# Coordination Sequence:
#
# PCOD9136141 Si02
#       8
#     4   4   4   4   4   4   4   4
#     4  10  23  40  61  94 133 164 222 273 323 407
#     4  10  22  42  64  94 133 171 222 280 328 404
#     4  10  21  41  62  94 127 173 220 266 336 393
#     4  11  21  40  67  90 129 176 219 269 343 392
#     4  11  21  41  63  93 132 172 220 272 337 391
#     4   9  20  40  61  92 127 169 215 261 337 396
#     4  10  21  39  63  91 129 170 213 277 322 395
#     4   9  21  43  63  94 134 167 219 284 326 406
#
# _framework density 21.262219000000002
#
# number of rings (size 3 to 8) (size 9 to 14) (size 15 to 20)
#    0.000    2.000    1.250    2.250    0.000    3.000 
#   15.750    0.000    0.000    0.000    0.000    0.000 
#    0.000    0.000    0.000    0.000    0.000    0.000 
#
# Total GULP energy -89102.498736 kJ/mol
# GULP energy per Si atom -5568.906171 kJ/mol
# Density = 2.121383 g / cm^3
# Si number density = 21.262219 Si / 1000 Ang^3
#
#
#
# Elastic Constant Matrix: (Units=GPa)
#
#
# Indices 1 2 3 4 5 6 
#
# 1 141.5233 30.1370 48.2865 0.0000 20.5640 0.0000
# 2 30.1370 114.8674 35.2056 0.0000 6.4331 0.0000
# 3 48.2865 35.2056 73.7346 0.0000 21.2582 0.0000
# 4 0.0000 0.0000 0.0000 37.7685 0.0000 7.3722
# 5 20.5640 6.4331 21.2582 0.0000 32.2813 0.0000
# 6 0.0000 0.0000 0.0000 7.3722 0.0000 15.6063
#
#
#
# Elastic Compliance Matrix: (Units=1/GPa)
#
#
# Indices 1 2 3 4 5 6 
#
# 1 0.009298 -0.000765 -0.005011 0.000000 -0.002470 0.000000
# 2 -0.000765 0.010316 -0.004903 0.000000 0.001661 0.000000
# 3 -0.005011 -0.004903 0.022197 0.000000 -0.010448 0.000000
# 4 0.000000 0.000000 0.000000 0.029166 0.000000 -0.013778
# 5 -0.002470 0.001661 -0.010448 0.000000 0.039101 0.000000
# 6 0.000000 0.000000 0.000000 -0.013778 0.000000 0.070585
#
#
# Mechanical properties :
#
#
# Convention : Reuss Voigt Hill
#
# Bulk Modulus (GPa) = 48.89535 61.93149 55.41342
# Shear Modulus (GPa) = 23.94173 31.56430 27.75302
#
# Velocity S-wave (km/s) = 3.35927 3.85713 3.61678
# Velocity P-wave (km/s) = 6.17191 7.00195 6.59999
#
# Compressibility (1/GPa) = 0.02045184
#
# Stress axis : x y z
#
# Youngs Moduli (GPa) = 107.55419 96.93445 45.05063
#
# Poissons Ratio (x) = 0.07417 0.22576
# Poissons Ratio (y) = 0.08229 0.22090
# Poissons Ratio (z) = 0.53898 0.47530
#
# Static dielectric constant tensor:
#      x y z
#    x 1.748410 0.000000 -0.018790 
#    y 0.000000 1.907180 0.000000 
#    z -0.018790 0.000000 1.810750 
# 
# From -- ./inp_files/28109.got.cif
#   From: 2010.05.17/outbox.cif.g08.bks.cpg/sg9_15_cif.got.tgz:28109.got - 2010.06.03 20:04:27.
