data_PCOD9136300
_publ_section_title
;
Structure prediction by ZEFSAII (Michael W. Deem and Ramdas Pophale) SiO2 
 PCOD9136300
Probable space group: C C
;
_chemical_formula_sum "Si O2"
_cell_formula_units_Z 32
_cell_length_a 12.605067
_cell_length_b 10.240422
_cell_length_c 12.425051
_cell_angle_alpha 90.000000
_cell_angle_beta 96.679690
_cell_angle_gamma 90.000000
_cell_volume 1592.953601
_symmetry_space_group_name_H-M "C C"
_symmetry_group_IT_number 9
_symmetry_cell_setting 'monoclinic'
loop_
_space_group_symop_operation_xyz
x,y,z
x,-y,1/2+z
1/2+x,1/2+y,z
1/2+x,1/2-y,1/2+z
loop_
_atom_site_type_symbol
_atom_site_label
_atom_site_fract_x
_atom_site_fract_y
_atom_site_fract_z
Si Si1 0.272850 0.416777 0.304180
Si Si2 0.177273 0.331927 0.517644
Si Si3 0.723151 0.446186 0.982926
Si Si4 0.389703 0.069329 0.687892
Si Si5 0.126917 0.772048 0.423339
Si Si6 0.599487 0.080677 0.601610
Si Si7 0.789330 0.808950 0.759873
Si Si8 0.897035 0.330866 0.834102
O O1 0.239283 0.389347 0.422527
O O2 0.169218 0.433905 0.217309
O O3 0.336276 0.552218 0.300875
O O4 0.334083 0.288794 0.273165
O O5 0.148434 0.182602 0.486669
O O6 0.091593 0.440938 0.540364
O O7 0.253148 0.321886 0.631274
O O8 0.786484 0.464371 0.103094
O O9 0.660416 0.577353 0.944496
O O10 0.814331 0.401405 0.907306
O O11 0.482216 0.122687 0.622188
O O12 0.363141 0.182247 0.769926
O O13 0.429043 0.940872 0.753005
O O14 0.156384 0.683651 0.530014
O O15 0.189986 0.720669 0.326266
O O16 0.002044 0.737339 0.394980
#
# Coordination Sequence:
#
# PCOD9136300 Si02
#       8
#     4   4   4   4   4   4   4   4
#     4  10  21  41  62  92 130 170 216 282 328 394
#     4   9  20  39  65  87 127 171 213 272 328 385
#     4  10  22  41  64  93 132 170 220 279 328 397
#     4  11  22  41  64  97 130 173 219 270 338 404
#     4  12  22  42  65  98 127 175 219 276 338 401
#     4  11  22  38  68  94 126 172 222 271 342 404
#     4  10  21  40  65  93 130 169 217 275 327 396
#     4  11  22  40  63  92 134 170 218 275 333 397
#
# _framework density 20.088469
#
# number of rings (size 3 to 8) (size 9 to 14) (size 15 to 20)
#    0.000    1.500    3.750    2.250    0.000    0.000 
#    4.500    1.250    0.000    0.000    0.000    0.000 
#    0.000    0.000    0.000    0.000    0.000    0.000 
#
# Total GULP energy -89219.343646 kJ/mol
# GULP energy per Si atom -5576.208978 kJ/mol
# Density = 2.004275 g / cm^3
# Si number density = 20.088469 Si / 1000 Ang^3
#
#
#
# Elastic Constant Matrix: (Units=GPa)
#
#
# Indices 1 2 3 4 5 6 
#
# 1 57.5092 41.2951 17.8560 0.0000 -11.1845 0.0000
# 2 41.2951 174.8932 52.1355 0.0000 -2.5957 0.0000
# 3 17.8560 52.1355 85.5783 0.0000 -11.5810 0.0000
# 4 0.0000 0.0000 0.0000 38.1391 0.0000 0.0000
# 5 -11.1845 -2.5957 -11.5810 0.0000 21.6101 0.0000
# 6 0.0000 0.0000 0.0000 0.0000 0.0000 24.4581
#
#
#
# Elastic Compliance Matrix: (Units=1/GPa)
#
#
# Indices 1 2 3 4 5 6 
#
# 1 0.023487 -0.005348 -0.000091 0.000000 0.011465 0.000000
# 2 -0.005348 0.008253 -0.004477 0.000000 -0.004176 0.000000
# 3 -0.000091 -0.004477 0.015475 0.000000 0.007708 0.000000
# 4 0.000000 0.000000 0.000000 0.026220 0.000000 0.000000
# 5 0.011465 -0.004176 0.007708 0.000000 0.055838 0.000000
# 6 0.000000 0.000000 0.000000 0.000000 0.000000 0.040886
#
#
# Mechanical properties :
#
#
# Convention : Reuss Voigt Hill
#
# Bulk Modulus (GPa) = 36.51993 60.06155 48.29074
# Shear Modulus (GPa) = 25.11063 30.62108 27.86585
#
# Velocity S-wave (km/s) = 3.53937 3.90848 3.72850
# Velocity P-wave (km/s) = 5.90947 7.09448 6.52892
#
# Compressibility (1/GPa) = 0.02738231
#
# Stress axis : x y z
#
# Youngs Moduli (GPa) = 42.57692 121.16367 64.62093
#
# Poissons Ratio (x) = 0.64804 0.00586
# Poissons Ratio (y) = 0.22772 0.28932
# Poissons Ratio (z) = 0.00386 0.54248
#
# Static dielectric constant tensor:
#      x y z
#    x 1.708070 0.000000 0.009720 
#    y 0.000000 1.755270 0.000000 
#    z 0.009720 0.000000 1.732630 
# 
# From -- ./inp_files/17780.got.cif
#   From: 2010.05.17/outbox.cif.g08.bks.cpg/sg9_9_cif.got.tgz:17780.got - 2010.06.03 20:04:27.
