data_PCOD9136982
_publ_section_title
;
Structure prediction by ZEFSAII (Michael W. Deem and Ramdas Pophale) SiO2 
 PCOD9136982
Probable space group: C C
;
_chemical_formula_sum "Si O2"
_cell_formula_units_Z 32
_cell_length_a 7.301763
_cell_length_b 19.592894
_cell_length_c 13.601429
_cell_angle_alpha 90.000000
_cell_angle_beta 139.625414
_cell_angle_gamma 90.000000
_cell_volume 1260.491062
_symmetry_space_group_name_H-M "C C"
_symmetry_group_IT_number 9
_symmetry_cell_setting 'monoclinic'
loop_
_space_group_symop_operation_xyz
x,y,z
x,-y,1/2+z
1/2+x,1/2+y,z
1/2+x,1/2-y,1/2+z
loop_
_atom_site_type_symbol
_atom_site_label
_atom_site_fract_x
_atom_site_fract_y
_atom_site_fract_z
Si Si1 0.598760 0.767210 0.580420
Si Si2 0.695017 0.605525 0.903012
Si Si3 0.184915 0.959907 0.834744
Si Si4 0.623094 0.381267 0.003066
Si Si5 0.262701 0.522706 0.500430
Si Si6 0.240197 0.244559 0.344097
Si Si7 0.322760 0.702970 0.658487
Si Si8 0.204021 0.608086 0.848212
O O1 0.422301 0.835169 0.488398
O O2 0.553815 0.698570 0.495698
O O3 0.495593 0.743341 0.646574
O O4 0.928833 0.784590 0.709322
O O5 0.797302 0.529634 0.931466
O O6 0.463765 0.628880 0.726963
O O7 0.515747 0.604047 0.929696
O O8 0.474827 0.935270 0.904191
O O9 0.070829 0.911129 0.873469
O O10 0.950586 0.986650 0.662606
O O11 0.495132 0.204957 0.497181
O O12 0.955137 0.390475 0.165505
O O13 0.454413 0.429152 0.010031
O O14 0.157419 0.456452 0.395995
O O15 0.342050 0.263948 0.275198
O O16 0.196228 0.684638 0.886896
#
# Coordination Sequence:
#
# PCOD9136982 Si02
#       8
#     4   4   4   4   4   4   4   4
#     4  11  25  48  79 111 155 204 252 326 398 463
#     4  11  24  49  78 108 156 200 257 318 398 462
#     4  12  27  48  79 113 149 209 263 323 387 475
#     4  11  25  49  80 112 158 202 264 327 391 468
#     4  12  25  48  79 110 150 207 265 319 395 464
#     4  10  25  43  74 109 157 198 256 321 396 469
#     4  11  22  46  71 109 150 207 249 313 392 479
#     4  10  21  49  76 104 153 205 248 327 385 462
#
# _framework density 25.38693
#
# number of rings (size 3 to 8) (size 9 to 14) (size 15 to 20)
#    0.000    1.000    5.000    1.500    3.500    2.000 
#    4.500    6.250    0.000    0.000    0.000    0.000 
#    0.000    0.000    0.000    0.000    0.000    0.000 
#
# Total GULP energy -89631.474124 kJ/mol
# GULP energy per Si atom -5601.967133 kJ/mol
# Density = 2.532915 g / cm^3
# Si number density = 25.386930 Si / 1000 Ang^3
#
#
#
# Elastic Constant Matrix: (Units=GPa)
#
#
# Indices 1 2 3 4 5 6 
#
# 1 116.0153 6.0127 20.3856 0.0000 -6.4188 -0.0001
# 2 6.0127 123.5406 23.4373 0.0000 -22.2606 -0.0001
# 3 20.3856 23.4373 76.4771 -0.0001 -1.8342 0.0002
# 4 0.0000 0.0000 -0.0001 38.3646 0.0000 2.5063
# 5 -6.4188 -22.2606 -1.8342 0.0000 41.0782 0.0000
# 6 -0.0001 -0.0001 0.0002 2.5063 0.0000 41.1269
#
#
#
# Elastic Compliance Matrix: (Units=1/GPa)
#
#
# Indices 1 2 3 4 5 6 
#
# 1 0.009123 0.000293 -0.002486 0.000000 0.001473 0.000000
# 2 0.000293 0.009544 -0.002881 0.000000 0.005089 0.000000
# 3 -0.002486 -0.002881 0.014590 0.000000 -0.001298 0.000000
# 4 0.000000 0.000000 0.000000 0.026170 0.000000 -0.001595
# 5 0.001473 0.005089 -0.001298 0.000000 0.027274 0.000000
# 6 0.000000 0.000000 0.000000 -0.001595 0.000000 0.024412
#
#
# Mechanical properties :
#
#
# Convention : Reuss Voigt Hill
#
# Bulk Modulus (GPa) = 43.27348 46.18935 44.73141
# Shear Modulus (GPa) = 38.77064 41.86044 40.31554
#
# Velocity S-wave (km/s) = 3.91217 4.06507 3.98935
# Velocity P-wave (km/s) = 6.12285 6.34560 6.23522
#
# Compressibility (1/GPa) = 0.02310884
#
# Stress axis : x y z
#
# Youngs Moduli (GPa) = 109.61614 104.78054 68.53877
#
# Poissons Ratio (x) = -0.03072 0.17040
# Poissons Ratio (y) = -0.03213 0.19745
# Poissons Ratio (z) = 0.27253 0.30186
#
# Static dielectric constant tensor:
#      x y z
#    x 2.026280 0.000000 -0.040880 
#    y 0.000000 1.994440 0.000000 
#    z -0.040880 0.000000 2.013780 
# 
# From -- ./inp_files/23692.got.cif
#   From: 2010.05.17/outbox.cif.g08.bks.cpg/sg9_12_cif.got.tgz:23692.got - 2010.06.03 20:04:27.
