data_PCOD9136490
_publ_section_title
;
Structure prediction by ZEFSAII (Michael W. Deem and Ramdas Pophale) SiO2 
 PCOD9136490
Probable space group: C C
;
_chemical_formula_sum "Si O2"
_cell_formula_units_Z 24
_cell_length_a 9.270398
_cell_length_b 11.910661
_cell_length_c 15.404935
_cell_angle_alpha 90.000000
_cell_angle_beta 32.846097
_cell_angle_gamma 90.000000
_cell_volume 922.574041
_symmetry_space_group_name_H-M "C C"
_symmetry_group_IT_number 9
_symmetry_cell_setting 'monoclinic'
loop_
_space_group_symop_operation_xyz
x,y,z
x,-y,1/2+z
1/2+x,1/2+y,z
1/2+x,1/2-y,1/2+z
loop_
_atom_site_type_symbol
_atom_site_label
_atom_site_fract_x
_atom_site_fract_y
_atom_site_fract_z
Si Si1 0.325890 0.536954 0.498460
Si Si2 0.127733 0.816653 0.101750
Si Si3 0.097455 0.390013 0.746338
Si Si4 0.824460 0.580413 0.670382
Si Si5 0.516441 0.682397 0.153893
Si Si6 0.543874 0.765133 0.335090
O O1 0.147460 0.505564 0.671239
O O2 0.592043 0.467217 0.348025
O O3 0.438194 0.662514 0.448631
O O4 0.106966 0.517154 0.532830
O O5 0.181288 0.699530 0.127477
O O6 0.198557 0.907988 0.139390
O O7 0.826872 0.807599 0.222008
O O8 0.323332 0.842903 0.923082
O O9 0.290232 0.397837 0.732173
O O10 0.911890 0.701160 0.663533
O O11 0.538335 0.704229 0.244428
O O12 0.798731 0.650101 0.969996
#
# Coordination Sequence:
#
# PCOD9136490 Si02
#       6
#     4   4   4   4   4   4
#     4  11  23  41  67 103 145 181 228 300 354 398
#     4  11  23  42  70  99 133 188 237 272 340 432
#     4  11  21  41  70  98 134 183 231 284 347 414
#     4  10  23  44  68 100 141 186 235 291 349 419
#     4  10  21  41  67  96 133 183 233 278 342 430
#     4  11  23  41  66 100 136 177 232 289 340 409
#
# _framework density 26.01417
#
# number of rings (size 3 to 8) (size 9 to 14) (size 15 to 20)
#    0.000    1.333    0.000    8.000    0.000    2.667 
#    0.000   16.667    0.000    4.000    0.000    0.000 
#    0.000    0.000    0.000    0.000    0.000    0.000 
#
# Total GULP energy -67140.628336 kJ/mol
# GULP energy per Si atom -5595.052361 kJ/mol
# Density = 2.595496 g / cm^3
# Si number density = 26.014170 Si / 1000 Ang^3
#
#
#
# Elastic Constant Matrix: (Units=GPa)
#
#
# Indices 1 2 3 4 5 6 
#
# 1 181.8853 24.3006 69.3396 -0.0031 -37.5359 0.0005
# 2 24.3006 30.3021 49.8210 -0.0048 -3.2917 0.0002
# 3 69.3396 49.8210 199.6173 -0.0157 -31.9487 0.0021
# 4 -0.0031 -0.0048 -0.0157 29.6854 0.0037 15.4580
# 5 -37.5359 -3.2917 -31.9487 0.0037 61.1447 -0.0009
# 6 0.0005 0.0002 0.0021 15.4580 -0.0009 28.7092
#
#
#
# Elastic Compliance Matrix: (Units=1/GPa)
#
#
# Indices 1 2 3 4 5 6 
#
# 1 0.007119 -0.003749 -0.000949 -0.000001 0.003672 0.000001
# 2 -0.003749 0.059195 -0.014546 0.000003 -0.006715 -0.000001
# 3 -0.000949 -0.014546 0.009550 0.000003 0.003624 -0.000002
# 4 -0.000001 0.000003 0.000003 0.046811 -0.000002 -0.025205
# 5 0.003672 -0.006715 0.003624 -0.000002 0.020141 0.000001
# 6 0.000001 -0.000001 -0.000002 -0.025205 0.000001 0.048403
#
#
# Mechanical properties :
#
#
# Convention : Reuss Voigt Hill
#
# Bulk Modulus (GPa) = 26.75697 77.63634 52.19665
# Shear Modulus (GPa) = 20.64700 41.79742 31.22221
#
# Velocity S-wave (km/s) = 2.82029 4.01274 3.46815
# Velocity P-wave (km/s) = 4.57310 7.16785 6.01213
#
# Compressibility (1/GPa) = 0.03737345
#
# Stress axis : x y z
#
# Youngs Moduli (GPa) = 140.47743 16.89346 104.71287
#
# Poissons Ratio (x) = 0.06333 0.09941
# Poissons Ratio (y) = 0.52665 1.52320
# Poissons Ratio (z) = 0.13336 0.24574
#
# Static dielectric constant tensor:
#      x y z
#    x 2.068330 0.000000 0.015070 
#    y 0.000000 2.231750 0.000010 
#    z 0.015070 0.000010 2.056050 
# 
# From -- ./inp_files/23603.got.cif
#   From: 2010.05.17/outbox.cif.g08.bks.cpg/sg9_12_cif.got.tgz:23603.got - 2010.06.03 20:04:27.
