data_PCOD9136210
_publ_section_title
;
Structure prediction by ZEFSAII (Michael W. Deem and Ramdas Pophale) SiO2 
 PCOD9136210
Probable space group: C C
;
_chemical_formula_sum "Si O2"
_cell_formula_units_Z 32
_cell_length_a 27.785438
_cell_length_b 11.115366
_cell_length_c 14.350390
_cell_angle_alpha 90.000000
_cell_angle_beta 160.628317
_cell_angle_gamma 90.000000
_cell_volume 1470.088731
_symmetry_space_group_name_H-M "C C"
_symmetry_group_IT_number 9
_symmetry_cell_setting 'monoclinic'
loop_
_space_group_symop_operation_xyz
x,y,z
x,-y,1/2+z
1/2+x,1/2+y,z
1/2+x,1/2-y,1/2+z
loop_
_atom_site_type_symbol
_atom_site_label
_atom_site_fract_x
_atom_site_fract_y
_atom_site_fract_z
Si Si1 0.836940 0.576749 0.268180
Si Si2 0.493491 0.494938 0.970448
Si Si3 0.522934 0.496531 0.241876
Si Si4 0.284442 0.302166 0.077689
Si Si5 0.509140 0.715240 0.343283
Si Si6 0.828331 0.791416 0.953163
Si Si7 0.457118 0.848326 0.520850
Si Si8 0.285447 0.117063 0.530095
O O1 0.847746 0.717700 0.274271
O O2 0.822213 0.517307 0.136678
O O3 0.962128 0.493624 0.537928
O O4 0.691403 0.542504 0.060064
O O5 0.497457 0.464746 0.087216
O O6 0.513111 0.386293 0.933759
O O7 0.622024 0.595912 0.196796
O O8 0.341946 0.562865 0.682810
O O9 0.503370 0.633442 0.239787
O O10 0.409024 0.418164 0.090936
O O11 0.334465 0.251946 0.070356
O O12 0.111459 0.301389 0.769764
O O13 0.380903 0.810033 0.130319
O O14 0.659092 0.788565 0.618290
O O15 0.911365 0.705196 0.034562
O O16 0.332156 0.819736 0.214610
#
# Coordination Sequence:
#
# PCOD9136210 Si02
#       8
#     4   4   4   4   4   4   4   4
#     4   9  20  41  64  91 131 173 219 270 332 401
#     4  11  25  44  64  99 143 176 214 299 338 390
#     4  11  22  41  65  98 129 176 227 271 342 410
#     4  12  23  41  66 101 137 177 227 282 343 405
#     4  12  22  43  72  96 135 182 229 273 344 408
#     4  12  20  39  71  97 124 180 234 267 333 424
#     4  10  21  39  68  96 127 180 227 266 340 407
#     4   9  21  40  66  92 128 178 219 268 340 391
#
# _framework density 21.767392999999998
#
# number of rings (size 3 to 8) (size 9 to 14) (size 15 to 20)
#    0.750    0.500    5.000    2.250    0.000    1.000 
#    6.750    1.250    0.000    0.000    0.000    0.000 
#    0.000    0.000    0.000    0.000    0.000    0.000 
#
# Total GULP energy -89113.158830 kJ/mol
# GULP energy per Si atom -5569.572427 kJ/mol
# Density = 2.171785 g / cm^3
# Si number density = 21.767393 Si / 1000 Ang^3
#
#
#
# Elastic Constant Matrix: (Units=GPa)
#
#
# Indices 1 2 3 4 5 6 
#
# 1 83.8800 20.8100 34.5883 0.0000 26.0639 0.0000
# 2 20.8100 66.2634 34.7143 0.0000 22.0273 0.0000
# 3 34.5883 34.7143 56.5459 0.0000 20.9921 0.0000
# 4 0.0000 0.0000 0.0000 28.9563 0.0000 8.9047
# 5 26.0639 22.0273 20.9921 0.0000 30.6614 0.0000
# 6 0.0000 0.0000 0.0000 8.9047 0.0000 42.0227
#
#
#
# Elastic Compliance Matrix: (Units=1/GPa)
#
#
# Indices 1 2 3 4 5 6 
#
# 1 0.018421 0.002547 -0.008499 0.000000 -0.011669 0.000000
# 2 0.002547 0.024566 -0.012447 0.000000 -0.011291 0.000000
# 3 -0.008499 -0.012447 0.032880 0.000000 -0.006344 0.000000
# 4 0.000000 0.000000 0.000000 0.036942 0.000000 -0.007828
# 5 -0.011669 -0.011291 -0.006344 0.000000 0.054989 0.000000
# 6 0.000000 0.000000 0.000000 -0.007828 0.000000 0.025455
#
#
# Mechanical properties :
#
#
# Convention : Reuss Voigt Hill
#
# Bulk Modulus (GPa) = 25.59677 42.99049 34.29363
# Shear Modulus (GPa) = 20.56978 28.09986 24.33482
#
# Velocity S-wave (km/s) = 3.07739 3.59683 3.34720
# Velocity P-wave (km/s) = 4.94084 6.08625 5.54321
#
# Compressibility (1/GPa) = 0.03906744
#
# Stress axis : x y z
#
# Youngs Moduli (GPa) = 54.28717 40.70693 30.41338
#
# Poissons Ratio (x) = -0.10366 0.25848
# Poissons Ratio (y) = -0.13825 0.37857
# Poissons Ratio (z) = 0.46138 0.50669
#
# Static dielectric constant tensor:
#      x y z
#    x 1.818170 0.000000 -0.035580 
#    y 0.000000 1.851590 0.000000 
#    z -0.035580 0.000000 1.794510 
# 
# From -- ./inp_files/28105.got.cif
#   From: 2010.05.17/outbox.cif.g08.bks.cpg/sg9_15_cif.got.tgz:28105.got - 2010.06.03 20:04:27.
