data_PCOD9136970
_publ_section_title
;
Structure prediction by ZEFSAII (Michael W. Deem and Ramdas Pophale) SiO2 
 PCOD9136970
Probable space group: C C
;
_chemical_formula_sum "Si O2"
_cell_formula_units_Z 20
_cell_length_a 16.232281
_cell_length_b 5.489310
_cell_length_c 9.006015
_cell_angle_alpha 90.000000
_cell_angle_beta 78.229524
_cell_angle_gamma 90.000000
_cell_volume 785.598286
_symmetry_space_group_name_H-M "C C"
_symmetry_group_IT_number 9
_symmetry_cell_setting 'monoclinic'
loop_
_space_group_symop_operation_xyz
x,y,z
x,-y,1/2+z
1/2+x,1/2+y,z
1/2+x,1/2-y,1/2+z
loop_
_atom_site_type_symbol
_atom_site_label
_atom_site_fract_x
_atom_site_fract_y
_atom_site_fract_z
Si Si1 0.563660 0.955566 0.288800
Si Si2 0.339049 0.510354 0.980289
Si Si3 0.318302 0.013561 0.830140
Si Si4 0.947980 0.709754 0.099678
Si Si5 0.670604 0.785992 0.997184
O O1 0.502551 0.845942 0.434665
O O2 0.601043 0.767888 0.152214
O O3 0.510373 0.150852 0.211866
O O4 0.633569 0.080549 0.366993
O O5 0.344541 0.765215 0.899884
O O6 0.351751 0.275744 0.868575
O O7 0.407212 0.471708 0.083020
O O8 0.241407 0.455371 0.052461
O O9 0.362843 0.955660 0.656289
O O10 0.219809 0.053306 0.909838
#
# Coordination Sequence:
#
# PCOD9136970 Si02
#       5
#     4   4   4   4   4
#     4  10  21  47  77 125 161 214 249 353 398 483
#     4  10  24  45  80 106 151 205 266 315 383 474
#     4  10  24  47  78 107 149 207 264 319 379 478
#     4  11  22  47  82 115 163 207 277 317 415 468
#     4   9  23  44  79 111 166 197 274 314 417 457
#
# _framework density 25.458304999999999
#
# number of rings (size 3 to 8) (size 9 to 14) (size 15 to 20)
#    1.200    0.800    2.000    0.000    2.800    3.200 
#    0.000    8.000    0.000    0.000    0.000    0.000 
#    0.000    0.000    0.000    0.000    0.000    0.000 
#
# Total GULP energy -55706.089411 kJ/mol
# GULP energy per Si atom -5570.608941 kJ/mol
# Density = 2.540036 g / cm^3
# Si number density = 25.458305 Si / 1000 Ang^3
#
#
#
# Elastic Constant Matrix: (Units=GPa)
#
#
# Indices 1 2 3 4 5 6 
#
# 1 126.7557 34.3481 65.5519 0.0000 -2.5284 0.0000
# 2 34.3481 126.6768 61.9396 0.0000 -11.6511 0.0000
# 3 65.5519 61.9396 191.7438 0.0000 -32.8105 0.0000
# 4 0.0000 0.0000 0.0000 32.6473 0.0000 16.6327
# 5 -2.5284 -11.6511 -32.8105 0.0000 46.6828 0.0000
# 6 0.0000 0.0000 0.0000 16.6327 0.0000 32.5249
#
#
#
# Elastic Compliance Matrix: (Units=1/GPa)
#
#
# Indices 1 2 3 4 5 6 
#
# 1 0.009918 -0.001246 -0.003353 0.000000 -0.002130 0.000000
# 2 -0.001246 0.009534 -0.002567 0.000000 0.000508 0.000000
# 3 -0.003353 -0.002567 0.008014 0.000000 0.004810 0.000000
# 4 0.000000 0.000000 0.000000 0.041422 0.000000 -0.021183
# 5 -0.002130 0.000508 0.004810 0.000000 0.024813 0.000000
# 6 0.000000 0.000000 0.000000 -0.021183 0.000000 0.041578
#
#
# Mechanical properties :
#
#
# Convention : Reuss Voigt Hill
#
# Bulk Modulus (GPa) = 76.13458 85.42838 80.78148
# Shear Modulus (GPa) = 32.46993 41.26013 36.86503
#
# Velocity S-wave (km/s) = 3.57517 4.03015 3.80946
# Velocity P-wave (km/s) = 6.85660 7.43540 7.15186
#
# Compressibility (1/GPa) = 0.01313464
#
# Stress axis : x y z
#
# Youngs Moduli (GPa) = 100.82455 104.89092 124.78426
#
# Poissons Ratio (x) = 0.13068 0.41838
# Poissons Ratio (y) = 0.12561 0.32031
# Poissons Ratio (z) = 0.33805 0.26924
#
# Static dielectric constant tensor:
#      x y z
#    x 2.155260 0.000000 -0.032380 
#    y 0.000000 1.945770 0.000000 
#    z -0.032380 0.000000 2.111550 
# 
# From -- ./inp_files/11112.got.cif
#   From: 2010.05.17/outbox.cif.g08.bks.cpg/sg9_6_cif.got.tgz:11112.got - 2010.06.03 20:04:27.
