data_PCOD9136802
_publ_section_title
;
Structure prediction by ZEFSAII (Michael W. Deem and Ramdas Pophale) SiO2 
 PCOD9136802
Probable space group: C C
;
_chemical_formula_sum "Si O2"
_cell_formula_units_Z 24
_cell_length_a 12.257763
_cell_length_b 7.155310
_cell_length_c 12.210945
_cell_angle_alpha 90.000000
_cell_angle_beta 120.127006
_cell_angle_gamma 90.000000
_cell_volume 926.322789
_symmetry_space_group_name_H-M "C C"
_symmetry_group_IT_number 9
_symmetry_cell_setting 'monoclinic'
loop_
_space_group_symop_operation_xyz
x,y,z
x,-y,1/2+z
1/2+x,1/2+y,z
1/2+x,1/2-y,1/2+z
loop_
_atom_site_type_symbol
_atom_site_label
_atom_site_fract_x
_atom_site_fract_y
_atom_site_fract_z
Si Si1 0.362590 0.406407 0.575770
Si Si2 0.776670 0.501679 0.030746
Si Si3 0.123331 0.416720 0.838634
Si Si4 0.542103 0.666721 0.338634
Si Si5 0.539978 0.843594 0.575770
Si Si6 0.580873 0.251677 0.530745
O O1 0.303495 0.208188 0.581613
O O2 0.259798 0.534322 0.462262
O O3 0.433496 0.451031 0.724418
O O4 0.472397 0.351242 0.544753
O O5 0.670161 0.450233 0.887842
O O6 0.706259 0.624999 0.085722
O O7 0.899155 0.601241 0.044756
O O8 0.061860 0.625001 0.796916
O O9 0.117721 0.298967 0.724418
O O10 0.044479 0.299772 0.887841
O O11 0.529263 0.715683 0.462261
O O12 0.604916 0.041813 0.581615
#
# Coordination Sequence:
#
# PCOD9136802 Si02
#       6
#     4   4   4   4   4   4
#     4  10  22  45  66  93 135 170 213 279 330 393
#     4  10  22  42  64  95 127 174 218 269 328 398
#     4  10  21  44  65  97 132 172 221 271 337 386
#     4  10  21  44  65  97 132 172 221 271 337 386
#     4  10  22  45  66  93 135 170 213 279 330 393
#     4  10  22  42  64  95 127 174 218 269 328 398
#
# _framework density 25.908895999999999
#
# number of rings (size 3 to 8) (size 9 to 14) (size 15 to 20)
#    0.000    2.000    3.333    0.000    0.000    4.000 
#   24.000    0.000    0.000    0.000    0.000    0.000 
#    0.000    0.000    0.000    0.000    0.000    0.000 
#
# Total GULP energy -66950.787122 kJ/mol
# GULP energy per Si atom -5579.232260 kJ/mol
# Density = 2.584993 g / cm^3
# Si number density = 25.908896 Si / 1000 Ang^3
#
#
#
# Elastic Constant Matrix: (Units=GPa)
#
#
# Indices 1 2 3 4 5 6 
#
# 1 124.6735 28.3498 54.4473 0.0000 2.9813 0.0000
# 2 28.3498 100.3349 42.7634 0.0000 1.2742 0.0000
# 3 54.4473 42.7634 206.0497 0.0000 4.2122 0.0000
# 4 0.0000 0.0000 0.0000 18.7636 0.0000 -1.7384
# 5 2.9813 1.2742 4.2122 0.0000 52.0780 0.0000
# 6 0.0000 0.0000 0.0000 -1.7384 0.0000 38.4220
#
#
#
# Elastic Compliance Matrix: (Units=1/GPa)
#
#
# Indices 1 2 3 4 5 6 
#
# 1 0.009342 -0.001740 -0.002101 0.000000 -0.000322 0.000000
# 2 -0.001740 0.011258 -0.001876 0.000000 -0.000024 0.000000
# 3 -0.002101 -0.001876 0.005804 0.000000 -0.000303 0.000000
# 4 0.000000 0.000000 0.000000 0.053519 0.000000 0.002421
# 5 -0.000322 -0.000024 -0.000303 0.000000 0.019246 0.000000
# 6 0.000000 0.000000 0.000000 0.002421 0.000000 0.026136
#
#
# Mechanical properties :
#
#
# Convention : Reuss Voigt Hill
#
# Bulk Modulus (GPa) = 66.80133 75.79767 71.29950
# Shear Modulus (GPa) = 35.27862 42.21923 38.74893
#
# Velocity S-wave (km/s) = 3.69405 4.04112 3.87147
# Velocity P-wave (km/s) = 6.63579 7.14795 6.89663
#
# Compressibility (1/GPa) = 0.01496976
#
# Stress axis : x y z
#
# Youngs Moduli (GPa) = 107.04585 88.82377 172.29771
#
# Poissons Ratio (x) = 0.15456 0.36196
# Poissons Ratio (y) = 0.18627 0.32327
# Poissons Ratio (z) = 0.22488 0.16665
#
# Static dielectric constant tensor:
#      x y z
#    x 2.104330 0.000000 -0.000290 
#    y 0.000000 2.096800 0.000000 
#    z -0.000290 0.000000 2.101030 
# 
# From -- ./inp_files/15968.got.cif
#   From: 2010.05.17/outbox.cif.g08.bks.cpg/sg9_8_cif.got.tgz:15968.got - 2010.06.03 20:04:27.
