data_PCOD9136647
_publ_section_title
;
Structure prediction by ZEFSAII (Michael W. Deem and Ramdas Pophale) SiO2 
 PCOD9136647
Probable space group: C C
;
_chemical_formula_sum "Si O2"
_cell_formula_units_Z 20
_cell_length_a 15.108825
_cell_length_b 11.697346
_cell_length_c 8.523829
_cell_angle_alpha 90.000000
_cell_angle_beta 33.679030
_cell_angle_gamma 90.000000
_cell_volume 835.382849
_symmetry_space_group_name_H-M "C C"
_symmetry_group_IT_number 9
_symmetry_cell_setting 'monoclinic'
loop_
_space_group_symop_operation_xyz
x,y,z
x,-y,1/2+z
1/2+x,1/2+y,z
1/2+x,1/2-y,1/2+z
loop_
_atom_site_type_symbol
_atom_site_label
_atom_site_fract_x
_atom_site_fract_y
_atom_site_fract_z
Si Si1 0.667970 0.534973 0.485710
Si Si2 0.397532 0.641754 0.353166
Si Si3 0.883525 0.414667 0.948695
Si Si4 0.578738 0.857178 0.161575
Si Si5 0.114350 0.273424 0.444085
O O1 0.503203 0.467926 0.730849
O O2 0.735863 0.587157 0.545382
O O3 0.649951 0.639331 0.390326
O O4 0.800347 0.443696 0.234266
O O5 0.511131 0.751832 0.162234
O O6 0.269763 0.633033 0.399642
O O7 0.283519 0.663883 0.672946
O O8 0.997827 0.523203 0.742759
O O9 0.999660 0.307681 0.755045
O O10 0.529608 0.820836 0.412339
#
# Coordination Sequence:
#
# PCOD9136647 Si02
#       5
#     4   4   4   4   4
#     4  12  24  45  72 101 142 182 228 284 346 403
#     4  10  21  42  70  96 138 183 225 273 351 402
#     4  12  23  46  71 102 140 180 230 287 338 412
#     4  10  21  44  70  97 139 183 221 281 348 400
#     4  10  23  45  69  98 141 184 218 287 341 413
#
# _framework density 23.941116999999998
#
# number of rings (size 3 to 8) (size 9 to 14) (size 15 to 20)
#    1.200    0.000    4.000    2.400    0.000    4.800 
#   10.800    0.000    0.000    0.000    0.000    0.000 
#    0.000    0.000    0.000    0.000    0.000    0.000 
#
# Total GULP energy -55818.309310 kJ/mol
# GULP energy per Si atom -5581.830931 kJ/mol
# Density = 2.388663 g / cm^3
# Si number density = 23.941117 Si / 1000 Ang^3
#
#
#
# Elastic Constant Matrix: (Units=GPa)
#
#
# Indices 1 2 3 4 5 6 
#
# 1 88.9107 12.0051 18.8802 0.0000 -35.7867 0.0000
# 2 12.0051 69.8413 28.7840 0.0000 -30.4446 0.0000
# 3 18.8802 28.7840 89.3231 0.0000 -28.4992 0.0000
# 4 0.0000 0.0000 0.0000 43.5995 0.0000 -7.3911
# 5 -35.7867 -30.4446 -28.4992 0.0000 42.6121 0.0000
# 6 0.0000 0.0000 0.0000 -7.3911 0.0000 26.7446
#
#
#
# Elastic Compliance Matrix: (Units=1/GPa)
#
#
# Indices 1 2 3 4 5 6 
#
# 1 0.018206 0.005011 0.000709 0.000000 0.019344 0.000000
# 2 0.005011 0.022619 -0.002351 0.000000 0.018796 0.000000
# 3 0.000709 -0.002351 0.014565 0.000000 0.008657 0.000000
# 4 0.000000 0.000000 0.000000 0.024063 0.000000 0.006650
# 5 0.019344 0.018796 0.008657 0.000000 0.058932 0.000000
# 6 0.000000 0.000000 0.000000 0.006650 0.000000 0.039228
#
#
# Mechanical properties :
#
#
# Convention : Reuss Voigt Hill
#
# Bulk Modulus (GPa) = 16.09593 40.82376 28.45984
# Shear Modulus (GPa) = 26.09790 35.15164 30.62477
#
# Velocity S-wave (km/s) = 3.30523 3.83594 3.58043
# Velocity P-wave (km/s) = 4.61560 6.05871 5.38571
#
# Compressibility (1/GPa) = 0.06212752
#
# Stress axis : x y z
#
# Youngs Moduli (GPa) = 54.92676 44.21002 68.65721
#
# Poissons Ratio (x) = -0.22152 -0.04868
# Poissons Ratio (y) = -0.27521 0.16141
# Poissons Ratio (z) = -0.03894 0.10394
#
# Static dielectric constant tensor:
#      x y z
#    x 1.905150 0.000000 0.019110 
#    y 0.000000 1.843990 0.000000 
#    z 0.019110 0.000000 1.954920 
# 
# From -- ./inp_files/4809.got.cif
#   From: 2010.05.17/outbox.cif.g08.bks.cpg/sg9_3_cif.got.tgz:4809.got - 2010.06.03 20:04:27.
