data_PCOD9136513
_publ_section_title
;
Structure prediction by ZEFSAII (Michael W. Deem and Ramdas Pophale) SiO2 
 PCOD9136513
Probable space group: C C
;
_chemical_formula_sum "Si O2"
_cell_formula_units_Z 32
_cell_length_a 24.295519
_cell_length_b 9.327868
_cell_length_c 13.247731
_cell_angle_alpha 90.000000
_cell_angle_beta 23.286742
_cell_angle_gamma 90.000000
_cell_volume 1186.897202
_symmetry_space_group_name_H-M "C C"
_symmetry_group_IT_number 9
_symmetry_cell_setting 'monoclinic'
loop_
_space_group_symop_operation_xyz
x,y,z
x,-y,1/2+z
1/2+x,1/2+y,z
1/2+x,1/2-y,1/2+z
loop_
_atom_site_type_symbol
_atom_site_label
_atom_site_fract_x
_atom_site_fract_y
_atom_site_fract_z
Si Si1 0.187190 0.407116 0.069190
Si Si2 0.569715 0.389529 0.149382
Si Si3 0.681761 0.417031 0.316790
Si Si4 0.323682 0.264505 0.155815
Si Si5 0.467566 0.876504 0.586634
Si Si6 0.463716 0.542818 0.024761
Si Si7 0.786478 0.831324 0.530630
Si Si8 0.956116 0.419574 0.287207
O O1 0.110960 0.327110 0.290379
O O2 0.213074 0.559417 0.079797
O O3 0.091439 0.424900 0.131428
O O4 0.338685 0.359436 0.777030
O O5 0.564873 0.375995 0.277124
O O6 0.407385 0.398594 0.395159
O O7 0.638114 0.540266 0.001785
O O8 0.657387 0.261481 0.947778
O O9 0.564775 0.496825 0.446474
O O10 0.685335 0.254328 0.275856
O O11 0.833676 0.474619 0.033563
O O12 0.374973 0.131909 0.141104
O O13 0.389810 0.406611 0.094343
O O14 0.385406 0.232227 0.940696
O O15 0.481044 0.019473 0.632206
O O16 0.379940 0.770954 0.803594
#
# Coordination Sequence:
#
# PCOD9136513 Si02
#       8
#     4   4   4   4   4   4   4   4
#     4  11  24  40  66 101 132 177 225 271 336 406
#     4  11  24  43  68  98 139 174 226 281 328 407
#     4  10  23  43  66 102 129 175 230 275 335 403
#     4  10  22  44  69  99 135 183 221 277 351 385
#     4  10  21  41  69  92 135 173 223 280 323 402
#     4  12  25  42  70 101 139 175 228 280 336 407
#     4  11  23  43  71  93 136 183 216 280 346 384
#     4   9  22  40  71  98 131 178 231 268 337 408
#
# _framework density 26.961055999999999
#
# number of rings (size 3 to 8) (size 9 to 14) (size 15 to 20)
#    0.000    1.500    2.500    1.500    5.250    1.000 
#    2.250    0.000   11.000    0.000    0.000    0.000 
#    0.000    0.000    0.000    0.000    0.000    0.000 
#
# Total GULP energy -89354.838013 kJ/mol
# GULP energy per Si atom -5584.677376 kJ/mol
# Density = 2.689969 g / cm^3
# Si number density = 26.961056 Si / 1000 Ang^3
#
#
#
# Elastic Constant Matrix: (Units=GPa)
#
#
# Indices 1 2 3 4 5 6 
#
# 1 95.6747 7.8387 42.8563 0.0000 -3.1116 0.0000
# 2 7.8387 56.9506 27.3968 0.0000 -6.8662 0.0000
# 3 42.8563 27.3968 138.6532 0.0000 14.6912 0.0000
# 4 0.0000 0.0000 0.0000 45.3639 0.0000 1.5670
# 5 -3.1116 -6.8662 14.6912 0.0000 54.1113 0.0000
# 6 0.0000 0.0000 0.0000 1.5670 0.0000 36.9003
#
#
#
# Elastic Compliance Matrix: (Units=1/GPa)
#
#
# Indices 1 2 3 4 5 6 
#
# 1 0.012311 0.000508 -0.004105 0.000000 0.001887 0.000000
# 2 0.000508 0.020133 -0.004540 0.000000 0.003816 0.000000
# 3 -0.004105 -0.004540 0.009745 0.000000 -0.003458 0.000000
# 4 0.000000 0.000000 0.000000 0.022076 0.000000 -0.000937
# 5 0.001887 0.003816 -0.003458 0.000000 0.020012 0.000000
# 6 0.000000 0.000000 0.000000 -0.000937 0.000000 0.027140
#
#
# Mechanical properties :
#
#
# Convention : Reuss Voigt Hill
#
# Bulk Modulus (GPa) = 38.58848 49.71803 44.15325
# Shear Modulus (GPa) = 36.67604 41.48753 39.08178
#
# Velocity S-wave (km/s) = 3.69227 3.92700 3.81144
# Velocity P-wave (km/s) = 5.70271 6.24840 5.98178
#
# Compressibility (1/GPa) = 0.02591447
#
# Stress axis : x y z
#
# Youngs Moduli (GPa) = 81.22925 49.66956 102.62145
#
# Poissons Ratio (x) = -0.02523 0.42131
# Poissons Ratio (y) = -0.04127 0.46585
# Poissons Ratio (z) = 0.33349 0.22548
#
# Static dielectric constant tensor:
#      x y z
#    x 2.148710 0.000000 0.021590 
#    y 0.000000 2.173540 0.000000 
#    z 0.021590 0.000000 2.233430 
# 
# From -- ./inp_files/28088.got.cif
#   From: 2010.05.17/outbox.cif.g08.bks.cpg/sg9_15_cif.got.tgz:28088.got - 2010.06.03 20:04:27.
