data_PCOD9136457
_publ_section_title
;
Structure prediction by ZEFSAII (Michael W. Deem and Ramdas Pophale) SiO2 
 PCOD9136457
Probable space group: C C
;
_chemical_formula_sum "Si O2"
_cell_formula_units_Z 32
_cell_length_a 12.998280
_cell_length_b 4.837853
_cell_length_c 21.351007
_cell_angle_alpha 90.000000
_cell_angle_beta 81.236900
_cell_angle_gamma 90.000000
_cell_volume 1326.958830
_symmetry_space_group_name_H-M "C C"
_symmetry_group_IT_number 9
_symmetry_cell_setting 'monoclinic'
loop_
_space_group_symop_operation_xyz
x,y,z
x,-y,1/2+z
1/2+x,1/2+y,z
1/2+x,1/2-y,1/2+z
loop_
_atom_site_type_symbol
_atom_site_label
_atom_site_fract_x
_atom_site_fract_y
_atom_site_fract_z
Si Si1 0.306320 0.699260 0.189790
Si Si2 0.900233 0.328112 0.741957
Si Si3 0.681898 0.509521 0.997215
Si Si4 0.769270 0.980123 0.055181
Si Si5 0.603904 0.064318 0.857497
Si Si6 0.965852 0.936777 0.952607
Si Si7 0.604324 0.565340 0.772141
Si Si8 0.318272 0.823214 0.883915
O O1 0.326001 0.421226 0.226951
O O2 0.287425 0.606418 0.121145
O O3 0.208864 0.866577 0.226106
O O4 0.398386 0.919274 0.193762
O O5 0.863431 0.431287 0.814085
O O6 0.009891 0.180171 0.740658
O O7 0.570264 0.553702 0.976251
O O8 0.771716 0.550186 0.935868
O O9 0.707568 0.202178 0.018574
O O10 0.701338 0.705731 0.054384
O O11 0.881480 0.903899 0.015439
O O12 0.512487 0.169128 0.912129
O O13 0.591859 0.252833 0.796090
O O14 0.714645 0.148509 0.876289
O O15 0.606005 0.749871 0.835444
O O16 0.903651 0.129720 0.909223
#
# Coordination Sequence:
#
# PCOD9136457 Si02
#       8
#     4   4   4   4   4   4   4   4
#     4  12  26  46  66  97 136 178 223 271 323 398
#     4  12  25  41  69 100 133 178 215 270 339 396
#     4  10  25  43  68 100 129 177 221 279 327 389
#     4  11  26  46  69  94 133 180 226 271 325 390
#     4  11  23  39  66  96 134 170 212 268 332 389
#     4  10  24  43  69  99 134 172 218 276 333 391
#     4  12  24  41  63  97 133 173 213 267 325 393
#     4  10  21  41  66 101 136 166 214 270 340 394
#
# _framework density 24.115290000000002
#
# number of rings (size 3 to 8) (size 9 to 14) (size 15 to 20)
#    0.000    1.000    3.750    1.500    1.750   11.000 
#    0.000    0.000    0.000    0.000    0.000    0.000 
#    0.000    0.000    0.000    0.000    0.000    0.000 
#
# Total GULP energy -89624.601859 kJ/mol
# GULP energy per Si atom -5601.537616 kJ/mol
# Density = 2.406040 g / cm^3
# Si number density = 24.115290 Si / 1000 Ang^3
#
#
#
# Elastic Constant Matrix: (Units=GPa)
#
#
# Indices 1 2 3 4 5 6 
#
# 1 136.8733 16.0318 24.7922 0.0000 17.4376 0.0000
# 2 16.0318 69.4941 -10.7317 0.0000 5.7612 0.0000
# 3 24.7922 -10.7317 64.6161 0.0000 14.9156 0.0000
# 4 0.0000 0.0000 0.0000 30.0961 0.0000 10.5485
# 5 17.4376 5.7612 14.9156 0.0000 29.3280 0.0000
# 6 0.0000 0.0000 0.0000 10.5485 0.0000 30.9622
#
#
#
# Elastic Compliance Matrix: (Units=1/GPa)
#
#
# Indices 1 2 3 4 5 6 
#
# 1 0.008481 -0.002139 -0.002880 0.000000 -0.003157 0.000000
# 2 -0.002139 0.015903 0.004407 0.000000 -0.004093 0.000000
# 3 -0.002880 0.004407 0.019394 0.000000 -0.009017 0.000000
# 4 0.000000 0.000000 0.000000 0.037733 0.000000 -0.012855
# 5 -0.003157 -0.004093 -0.009017 0.000000 0.041364 0.000000
# 6 0.000000 0.000000 0.000000 -0.012855 0.000000 0.036677
#
#
# Mechanical properties :
#
#
# Convention : Reuss Voigt Hill
#
# Bulk Modulus (GPa) = 23.50045 36.79646 30.14845
# Shear Modulus (GPa) = 28.57767 34.13668 31.35717
#
# Velocity S-wave (km/s) = 3.44618 3.76648 3.60988
# Velocity P-wave (km/s) = 5.05975 5.84866 5.46845
#
# Compressibility (1/GPa) = 0.04255238
#
# Stress axis : x y z
#
# Youngs Moduli (GPa) = 117.91656 62.88058 51.56106
#
# Poissons Ratio (x) = 0.13453 0.14852
# Poissons Ratio (y) = 0.25228 -0.22723
# Poissons Ratio (z) = 0.33965 -0.27711
#
# Static dielectric constant tensor:
#      x y z
#    x 1.960960 0.000000 -0.001580 
#    y 0.000000 1.920750 0.000000 
#    z -0.001580 0.000000 1.926460 
# 
# From -- ./inp_files/32976.got.cif
#   From: 2010.05.17/outbox.cif.g08.bks.cpg/sg9_17_cif.got.tgz:32976.got - 2010.06.03 20:04:27.
