data_PCOD9136383
_publ_section_title
;
Structure prediction by ZEFSAII (Michael W. Deem and Ramdas Pophale) SiO2 
 PCOD9136383
Probable space group: C C
;
_chemical_formula_sum "Si O2"
_cell_formula_units_Z 32
_cell_length_a 10.667336
_cell_length_b 9.344758
_cell_length_c 19.164078
_cell_angle_alpha 90.000000
_cell_angle_beta 129.489747
_cell_angle_gamma 90.000000
_cell_volume 1474.287121
_symmetry_space_group_name_H-M "C C"
_symmetry_group_IT_number 9
_symmetry_cell_setting 'monoclinic'
loop_
_space_group_symop_operation_xyz
x,y,z
x,-y,1/2+z
1/2+x,1/2+y,z
1/2+x,1/2-y,1/2+z
loop_
_atom_site_type_symbol
_atom_site_label
_atom_site_fract_x
_atom_site_fract_y
_atom_site_fract_z
Si Si1 0.972960 0.582309 0.770960
Si Si2 0.249159 0.312875 0.627055
Si Si3 0.682352 0.532555 0.259341
Si Si4 0.726110 0.716455 0.406936
Si Si5 0.569393 0.307764 0.580509
Si Si6 0.485274 0.110906 0.140672
Si Si7 0.663317 0.449813 0.006393
Si Si8 0.857669 0.894386 0.142145
O O1 0.907630 0.724296 0.707324
O O2 0.833853 0.549747 0.778285
O O3 0.138430 0.632659 0.864014
O O4 0.994919 0.452478 0.723290
O O5 0.153404 0.376501 0.659543
O O6 0.154178 0.189664 0.552606
O O7 0.283614 0.453700 0.593895
O O8 0.749504 0.639446 0.341263
O O9 0.603391 0.609628 0.164075
O O10 0.533060 0.437956 0.237462
O O11 0.613629 0.611084 0.413984
O O12 0.893096 0.742694 0.506631
O O13 0.586699 0.420082 0.522376
O O14 0.712348 0.188969 0.629617
O O15 0.414219 0.271282 0.109730
O O16 0.347402 0.008615 0.060830
#
# Coordination Sequence:
#
# PCOD9136383 Si02
#       8
#     4   4   4   4   4   4   4   4
#     4  11  24  43  65 104 138 178 231 289 345 420
#     4  11  20  38  73  96 128 180 228 279 346 407
#     4  12  24  46  70 103 141 183 238 290 348 426
#     4  12  28  41  72 107 142 183 236 297 355 418
#     4  11  25  47  70  99 145 185 230 293 353 422
#     4  10  21  40  70  98 128 181 228 281 345 417
#     4  10  23  45  62 103 138 173 233 286 346 420
#     4  11  21  38  74 100 124 185 232 277 350 414
#
# _framework density 21.705406
#
# number of rings (size 3 to 8) (size 9 to 14) (size 15 to 20)
#    0.000    1.000    6.250    1.500    3.500    5.000 
#    0.000    0.000    0.000    0.000    0.000    0.000 
#    0.000    0.000    0.000    0.000    0.000    0.000 
#
# Total GULP energy -89147.648719 kJ/mol
# GULP energy per Si atom -5571.728045 kJ/mol
# Density = 2.165600 g / cm^3
# Si number density = 21.705406 Si / 1000 Ang^3
#
#
#
# Elastic Constant Matrix: (Units=GPa)
#
#
# Indices 1 2 3 4 5 6 
#
# 1 75.7938 45.3034 13.9629 0.0000 6.4415 0.0000
# 2 45.3034 141.0254 17.3800 0.0000 1.6932 0.0000
# 3 13.9629 17.3800 43.6733 0.0000 -3.3039 0.0000
# 4 0.0000 0.0000 0.0000 16.8990 0.0000 1.9039
# 5 6.4415 1.6932 -3.3039 0.0000 21.6303 0.0000
# 6 0.0000 0.0000 0.0000 1.9039 0.0000 34.0815
#
#
#
# Elastic Compliance Matrix: (Units=1/GPa)
#
#
# Indices 1 2 3 4 5 6 
#
# 1 0.017391 -0.005033 -0.003965 0.000000 -0.005391 0.000000
# 2 -0.005033 0.008937 -0.001909 0.000000 0.000508 0.000000
# 3 -0.003965 -0.001909 0.025318 0.000000 0.005197 0.000000
# 4 0.000000 0.000000 0.000000 0.059550 0.000000 -0.003327
# 5 -0.005391 0.000508 0.005197 0.000000 0.048591 0.000000
# 6 0.000000 0.000000 0.000000 -0.003327 0.000000 0.029527
#
#
# Mechanical properties :
#
#
# Convention : Reuss Voigt Hill
#
# Bulk Modulus (GPa) = 33.52171 45.97614 39.74892
# Shear Modulus (GPa) = 22.61715 26.77857 24.69786
#
# Velocity S-wave (km/s) = 3.23151 3.51626 3.37689
# Velocity P-wave (km/s) = 5.42227 6.14111 5.79285
#
# Compressibility (1/GPa) = 0.02983141
#
# Stress axis : x y z
#
# Youngs Moduli (GPa) = 57.50195 111.89453 39.49801
#
# Poissons Ratio (x) = 0.56320 0.15660
# Poissons Ratio (y) = 0.28942 0.07540
# Poissons Ratio (z) = 0.22798 0.21359
#
# Static dielectric constant tensor:
#      x y z
#    x 1.871030 0.000000 -0.009620 
#    y 0.000000 1.815470 0.000000 
#    z -0.009620 0.000000 1.805400 
# 
# From -- ./inp_files/33219.got.cif
#   From: 2010.05.17/outbox.cif.g08.bks.cpg/sg9_17_cif.got.tgz:33219.got - 2010.06.03 20:04:27.
