data_PCOD9136072
_publ_section_title
;
Structure prediction by ZEFSAII (Michael W. Deem and Ramdas Pophale) SiO2 
 PCOD9136072
Probable space group: C C
;
_chemical_formula_sum "Si O2"
_cell_formula_units_Z 28
_cell_length_a 21.894730
_cell_length_b 9.657378
_cell_length_c 9.801610
_cell_angle_alpha 90.000000
_cell_angle_beta 37.916009
_cell_angle_gamma 90.000000
_cell_volume 1273.567963
_symmetry_space_group_name_H-M "C C"
_symmetry_group_IT_number 9
_symmetry_cell_setting 'monoclinic'
loop_
_space_group_symop_operation_xyz
x,y,z
x,-y,1/2+z
1/2+x,1/2+y,z
1/2+x,1/2-y,1/2+z
loop_
_atom_site_type_symbol
_atom_site_label
_atom_site_fract_x
_atom_site_fract_y
_atom_site_fract_z
Si Si1 0.454390 0.083194 0.394730
Si Si2 0.516179 0.793114 0.203450
Si Si3 0.140824 0.540309 0.922360
Si Si4 0.342830 0.225617 0.830385
Si Si5 0.846272 0.998914 0.675474
Si Si6 0.625812 0.706381 0.271809
Si Si7 0.945677 0.857299 0.254277
O O1 0.399753 0.121279 0.629217
O O2 0.420786 0.197851 0.341883
O O3 0.445324 0.920213 0.381531
O O4 0.574260 0.097062 0.166395
O O5 0.434898 0.715273 0.256931
O O6 0.570576 0.705825 0.223541
O O7 0.601539 0.883132 0.976397
O O8 0.255202 0.560517 0.752207
O O9 0.117149 0.632775 0.833766
O O10 0.304235 0.357651 0.814805
O O11 0.241071 0.164431 0.069507
O O12 0.926223 0.944262 0.425480
O O13 0.881816 0.094410 0.736423
O O14 0.558203 0.629849 0.502060
#
# Coordination Sequence:
#
# PCOD9136072 Si02
#       7
#     4   4   4   4   4   4   4
#     4   8  20  40  60  93 122 159 219 272 303 387
#     4  10  21  38  67  88 123 165 214 273 308 376
#     4   9  20  39  65  88 116 163 228 266 300 375
#     4  11  21  39  63  92 129 165 218 261 333 380
#     4  11  22  41  67  96 125 172 214 271 319 383
#     4  11  22  40  60  96 126 173 214 263 326 387
#     4  10  24  39  62  91 135 161 215 266 319 384
#
# _framework density 21.985475999999998
#
# number of rings (size 3 to 8) (size 9 to 14) (size 15 to 20)
#    0.857    1.143    1.429    1.714    4.000    0.000 
#    2.571    0.000    3.143    0.000    0.000    0.000 
#    0.000    0.000    0.000    0.000    0.000    0.000 
#
# Total GULP energy -77952.395990 kJ/mol
# GULP energy per Si atom -5568.028285 kJ/mol
# Density = 2.193544 g / cm^3
# Si number density = 21.985476 Si / 1000 Ang^3
#
#
#
# Elastic Constant Matrix: (Units=GPa)
#
#
# Indices 1 2 3 4 5 6 
#
# 1 80.6609 -8.6457 15.6272 0.0000 -4.4727 0.0000
# 2 -8.6457 21.7818 -7.3455 0.0000 -0.6192 0.0000
# 3 15.6272 -7.3455 125.7979 0.0000 -9.4081 0.0000
# 4 0.0000 0.0000 0.0000 23.8746 0.0000 0.8480
# 5 -4.4727 -0.6192 -9.4081 0.0000 22.4959 0.0000
# 6 0.0000 0.0000 0.0000 0.8480 0.0000 27.2918
#
#
#
# Elastic Compliance Matrix: (Units=1/GPa)
#
#
# Indices 1 2 3 4 5 6 
#
# 1 0.013284 0.004936 -0.001192 0.000000 0.002279 0.000000
# 2 0.004936 0.048804 0.002488 0.000000 0.003365 0.000000
# 3 -0.001192 0.002488 0.008496 0.000000 0.003385 0.000000
# 4 0.000000 0.000000 0.000000 0.041932 0.000000 -0.001303
# 5 0.002279 0.003365 0.003385 0.000000 0.046414 0.000000
# 6 0.000000 0.000000 0.000000 -0.001303 0.000000 0.036682
#
#
# Mechanical properties :
#
#
# Convention : Reuss Voigt Hill
#
# Bulk Modulus (GPa) = 12.04126 25.27919 18.66022
# Shear Modulus (GPa) = 23.71598 29.97277 26.84437
#
# Velocity S-wave (km/s) = 3.28794 3.69629 3.49808
# Velocity P-wave (km/s) = 4.46126 5.45343 4.98210
#
# Compressibility (1/GPa) = 0.08304781
#
# Stress axis : x y z
#
# Youngs Moduli (GPa) = 75.27961 20.49022 117.70663
#
# Poissons Ratio (x) = -0.10113 0.14026
# Poissons Ratio (y) = -0.37155 -0.29288
# Poissons Ratio (z) = 0.08970 -0.05098
#
# Static dielectric constant tensor:
#      x y z
#    x 1.819710 0.000000 0.023090 
#    y 0.000000 1.872590 0.000000 
#    z 0.023090 0.000000 1.833290 
# 
# From -- ./inp_files/11625.got.cif
#   From: 2010.05.17/outbox.cif.g08.bks.cpg/sg9_6_cif.got.tgz:11625.got - 2010.06.03 20:04:27.
