data_PCOD9136626
_publ_section_title
;
Structure prediction by ZEFSAII (Michael W. Deem and Ramdas Pophale) SiO2 
 PCOD9136626
Probable space group: C C
;
_chemical_formula_sum "Si O2"
_cell_formula_units_Z 24
_cell_length_a 12.374742
_cell_length_b 7.387838
_cell_length_c 20.807446
_cell_angle_alpha 90.000000
_cell_angle_beta 145.629732
_cell_angle_gamma 90.000000
_cell_volume 1073.905476
_symmetry_space_group_name_H-M "C C"
_symmetry_group_IT_number 9
_symmetry_cell_setting 'monoclinic'
loop_
_space_group_symop_operation_xyz
x,y,z
x,-y,1/2+z
1/2+x,1/2+y,z
1/2+x,1/2-y,1/2+z
loop_
_atom_site_type_symbol
_atom_site_label
_atom_site_fract_x
_atom_site_fract_y
_atom_site_fract_z
Si Si1 0.435100 0.467960 0.383250
Si Si2 0.036457 0.921178 0.064802
Si Si3 0.762922 0.791107 0.408838
Si Si4 0.997695 0.019505 0.776448
Si Si5 0.284580 0.128487 0.804039
Si Si6 0.055688 0.512858 0.036233
O O1 0.581659 0.507739 0.514329
O O2 0.284949 0.336392 0.343987
O O3 0.518415 0.398216 0.357826
O O4 0.327945 0.658350 0.318403
O O5 0.193350 0.955229 0.195639
O O6 0.015260 0.706212 0.049195
O O7 0.836394 0.027005 0.979158
O O8 0.564831 0.689963 0.320178
O O9 0.926520 0.642475 0.504421
O O10 0.133201 0.099926 0.788118
O O11 0.777821 0.029786 0.648939
O O12 0.477907 0.038094 0.925593
#
# Coordination Sequence:
#
# PCOD9136626 Si02
#       6
#     4   4   4   4   4   4
#     4   9  21  45  66  99 140 177 232 289 333 417
#     4   9  20  43  66  96 140 176 221 296 335 395
#     4   9  23  44  68 103 135 184 231 285 348 411
#     4  11  22  43  75 100 132 195 226 281 363 410
#     4  10  21  43  67  99 141 174 232 293 331 418
#     4  10  21  42  68  99 142 172 236 290 334 419
#
# _framework density 22.348337000000001
#
# number of rings (size 3 to 8) (size 9 to 14) (size 15 to 20)
#    1.000    1.333    1.667    0.000    0.000    5.333 
#   12.000    5.000    0.000    0.000    0.000    0.000 
#    0.000    0.000    0.000    0.000    0.000    0.000 
#
# Total GULP energy -66863.089173 kJ/mol
# GULP energy per Si atom -5571.924098 kJ/mol
# Density = 2.229747 g / cm^3
# Si number density = 22.348337 Si / 1000 Ang^3
#
#
#
# Elastic Constant Matrix: (Units=GPa)
#
#
# Indices 1 2 3 4 5 6 
#
# 1 102.6510 20.1087 59.0058 0.0000 -7.0055 0.0000
# 2 20.1087 54.1726 -3.6245 0.0001 -0.4820 0.0000
# 3 59.0058 -3.6245 138.7202 0.0003 -31.2453 0.0001
# 4 0.0000 0.0001 0.0003 14.2591 0.0001 5.3500
# 5 -7.0055 -0.4820 -31.2453 0.0001 28.7090 0.0000
# 6 0.0000 0.0000 0.0001 5.3500 0.0000 25.2957
#
#
#
# Elastic Compliance Matrix: (Units=1/GPa)
#
#
# Indices 1 2 3 4 5 6 
#
# 1 0.014982 -0.006111 -0.007594 0.000000 -0.004711 0.000000
# 2 -0.006111 0.021011 0.003831 0.000000 0.003031 0.000000
# 3 -0.007594 0.003831 0.013428 0.000000 0.012825 0.000000
# 4 0.000000 0.000000 0.000000 0.076175 -0.000001 -0.016111
# 5 -0.004711 0.003031 0.012825 -0.000001 0.047692 0.000000
# 6 0.000000 0.000000 0.000000 -0.016111 0.000000 0.042940
#
#
# Mechanical properties :
#
#
# Convention : Reuss Voigt Hill
#
# Bulk Modulus (GPa) = 33.69982 49.61373 41.65678
# Shear Modulus (GPa) = 20.33614 28.32300 24.32957
#
# Velocity S-wave (km/s) = 3.01983 3.56384 3.30305
# Velocity P-wave (km/s) = 5.22219 6.25963 5.76430
#
# Compressibility (1/GPa) = 0.02967375
#
# Stress axis : x y z
#
# Youngs Moduli (GPa) = 66.74477 47.59325 74.47307
#
# Poissons Ratio (x) = 0.29086 0.56553
# Poissons Ratio (y) = 0.40791 -0.28533
# Poissons Ratio (z) = 0.50684 -0.18234
#
# Static dielectric constant tensor:
#      x y z
#    x 1.871100 0.000000 -0.036190 
#    y 0.000000 1.896370 0.000000 
#    z -0.036190 0.000000 1.835080 
# 
# From -- ./inp_files/27959.got.cif
#   From: 2010.05.17/outbox.cif.g08.bks.cpg/sg9_14_cif.got.tgz:27959.got - 2010.06.03 20:04:27.
