data_PCOD9136060
_publ_section_title
;
Structure prediction by ZEFSAII (Michael W. Deem and Ramdas Pophale) SiO2 
 PCOD9136060
Probable space group: C C
;
_chemical_formula_sum "Si O2"
_cell_formula_units_Z 28
_cell_length_a 16.699113
_cell_length_b 9.717188
_cell_length_c 19.169914
_cell_angle_alpha 90.000000
_cell_angle_beta 27.569873
_cell_angle_gamma 90.000000
_cell_volume 1439.712141
_symmetry_space_group_name_H-M "C C"
_symmetry_group_IT_number 9
_symmetry_cell_setting 'monoclinic'
loop_
_space_group_symop_operation_xyz
x,y,z
x,-y,1/2+z
1/2+x,1/2+y,z
1/2+x,1/2-y,1/2+z
loop_
_atom_site_type_symbol
_atom_site_label
_atom_site_fract_x
_atom_site_fract_y
_atom_site_fract_z
Si Si1 0.625000 0.370136 0.078150
Si Si2 0.871027 0.178911 0.039180
Si Si3 0.588717 0.072222 0.349631
Si Si4 0.816682 0.091964 0.925774
Si Si5 0.617772 0.814305 0.095394
Si Si6 0.954643 0.910179 0.618157
Si Si7 0.399908 0.904035 0.397445
O O1 0.479343 0.385422 0.249906
O O2 0.550287 0.455485 0.071255
O O3 0.678446 0.214542 0.022624
O O4 0.796877 0.453214 0.967277
O O5 0.928324 0.336844 0.997100
O O6 0.878004 0.108438 0.958827
O O7 0.677764 0.157368 0.217205
O O8 0.986010 0.111024 0.011535
O O9 0.746313 0.068630 0.282609
O O10 0.530850 0.929832 0.359916
O O11 0.723825 0.945658 0.985526
O O12 0.518937 0.720744 0.113944
O O13 0.492173 0.865828 0.253699
O O14 0.758128 0.711764 0.020824
#
# Coordination Sequence:
#
# PCOD9136060 Si02
#       7
#     4   4   4   4   4   4   4
#     4  11  24  39  65  92 130 162 218 261 320 371
#     4  10  21  38  66  89 125 164 211 256 310 383
#     4  10  21  39  63  90 127 164 212 258 314 382
#     4  12  22  41  65  97 124 173 210 265 312 393
#     4  11  22  38  67  94 128 162 216 261 326 365
#     4   9  24  40  65  94 126 166 210 271 314 379
#     4  11  22  41  61  94 124 167 209 266 306 397
#
# _framework density 19.448333000000002
#
# number of rings (size 3 to 8) (size 9 to 14) (size 15 to 20)
#    0.857    0.571    2.857    3.429    6.000    0.000 
#    0.000    2.857    0.000    0.000    0.000    0.000 
#    0.000    0.000    0.000    0.000    0.000    0.000 
#
# Total GULP energy -78047.526042 kJ/mol
# GULP energy per Si atom -5574.823289 kJ/mol
# Density = 1.940407 g / cm^3
# Si number density = 19.448333 Si / 1000 Ang^3
#
#
#
# Elastic Constant Matrix: (Units=GPa)
#
#
# Indices 1 2 3 4 5 6 
#
# 1 130.3365 64.3743 24.2501 0.0001 -8.7612 -0.0001
# 2 64.3743 96.3574 4.9799 -0.0003 -22.4666 0.0003
# 3 24.2501 4.9799 58.9005 0.0001 -11.6319 0.0002
# 4 0.0001 -0.0003 0.0001 35.0283 0.0002 -5.1984
# 5 -8.7612 -22.4666 -11.6319 0.0002 27.8834 -0.0001
# 6 -0.0001 0.0003 0.0002 -5.1984 -0.0001 32.7281
#
#
#
# Elastic Compliance Matrix: (Units=1/GPa)
#
#
# Indices 1 2 3 4 5 6 
#
# 1 0.013322 -0.010088 -0.005896 0.000000 -0.006402 0.000000
# 2 -0.010088 0.020476 0.005508 0.000000 0.015627 0.000000
# 3 -0.005896 0.005508 0.021196 0.000000 0.011428 0.000000
# 4 0.000000 0.000000 0.000000 0.029238 0.000000 0.004644
# 5 -0.006402 0.015627 0.011428 0.000000 0.051210 0.000000
# 6 0.000000 0.000000 0.000000 0.004644 0.000000 0.031292
#
#
# Mechanical properties :
#
#
# Convention : Reuss Voigt Hill
#
# Bulk Modulus (GPa) = 29.37494 52.53366 40.95430
# Shear Modulus (GPa) = 25.12139 31.92728 28.52434
#
# Velocity S-wave (km/s) = 3.59792 4.05612 3.83387
# Velocity P-wave (km/s) = 5.69183 7.00048 6.37980
#
# Compressibility (1/GPa) = 0.03404263
#
# Stress axis : x y z
#
# Youngs Moduli (GPa) = 75.06633 48.83706 47.17786
#
# Poissons Ratio (x) = 0.49266 0.27816
# Poissons Ratio (y) = 0.75725 -0.25986
# Poissons Ratio (z) = 0.44259 -0.26900
#
# Static dielectric constant tensor:
#      x y z
#    x 1.721780 0.000000 -0.012640 
#    y 0.000000 1.676540 0.000000 
#    z -0.012640 0.000000 1.698740 
# 
# From -- ./inp_files/34014.got.cif
#   From: 2010.05.17/outbox.cif.g08.bks.cpg/sg9_18_cif.got.tgz:34014.got - 2010.06.03 20:04:27.
