data_PCOD9136588
_publ_section_title
;
Structure prediction by ZEFSAII (Michael W. Deem and Ramdas Pophale) SiO2 
 PCOD9136588
Probable space group: C C
;
_chemical_formula_sum "Si O2"
_cell_formula_units_Z 24
_cell_length_a 10.433975
_cell_length_b 9.243207
_cell_length_c 23.080619
_cell_angle_alpha 90.000000
_cell_angle_beta 156.285934
_cell_angle_gamma 90.000000
_cell_volume 895.225318
_symmetry_space_group_name_H-M "C C"
_symmetry_group_IT_number 9
_symmetry_cell_setting 'monoclinic'
loop_
_space_group_symop_operation_xyz
x,y,z
x,-y,1/2+z
1/2+x,1/2+y,z
1/2+x,1/2-y,1/2+z
loop_
_atom_site_type_symbol
_atom_site_label
_atom_site_fract_x
_atom_site_fract_y
_atom_site_fract_z
Si Si1 0.411850 0.546286 0.145770
Si Si2 0.875818 0.713271 0.712918
Si Si3 0.917468 0.685108 0.853134
Si Si4 0.200477 0.632428 0.671329
Si Si5 0.860470 0.616281 0.166461
Si Si6 0.242167 0.110779 0.990763
O O1 0.535049 0.688100 0.229540
O O2 0.678142 0.441325 0.231634
O O3 0.281188 0.448386 0.144575
O O4 0.144835 0.604036 0.991953
O O5 0.052917 0.734248 0.847463
O O6 0.523085 0.784505 0.580960
O O7 0.868304 0.551385 0.685755
O O8 0.708092 0.810535 0.797283
O O9 0.215978 0.798894 0.661150
O O10 0.884303 0.550586 0.558758
O O11 0.464362 0.605556 0.829375
O O12 0.675441 0.650776 0.029837
#
# Coordination Sequence:
#
# PCOD9136588 Si02
#       6
#     4   4   4   4   4   4
#     4  10  21  42  66  90 125 164 204 254 308 365
#     4  10  22  39  61  91 125 161 204 251 302 363
#     4  10  23  43  64  91 126 162 205 255 306 366
#     4  10  21  42  66  90 125 164 204 254 308 365
#     4  10  22  39  61  91 125 161 204 251 302 363
#     4  10  23  43  64  91 126 162 205 255 306 366
#
# _framework density 26.808892
#
# number of rings (size 3 to 8) (size 9 to 14) (size 15 to 20)
#    0.000    2.000    0.000    4.000    0.000   12.000 
#    0.000   20.000    0.000    0.000    0.000    0.000 
#    0.000    0.000    0.000    0.000    0.000    0.000 
#
# Total GULP energy -67257.082516 kJ/mol
# GULP energy per Si atom -5604.756876 kJ/mol
# Density = 2.674787 g / cm^3
# Si number density = 26.808892 Si / 1000 Ang^3
#
#
#
# Elastic Constant Matrix: (Units=GPa)
#
#
# Indices 1 2 3 4 5 6 
#
# 1 100.0770 34.9450 48.4595 0.0038 -14.1555 -0.0010
# 2 34.9450 194.7756 21.9389 0.0030 1.3839 -0.0001
# 3 48.4595 21.9389 124.0020 0.0315 -23.5704 0.0085
# 4 0.0038 0.0030 0.0315 41.4264 0.0087 -10.2850
# 5 -14.1555 1.3839 -23.5704 0.0087 39.4274 0.0008
# 6 -0.0010 -0.0001 0.0085 -10.2850 0.0008 44.1058
#
#
#
# Elastic Compliance Matrix: (Units=1/GPa)
#
#
# Indices 1 2 3 4 5 6 
#
# 1 0.013062 -0.001867 -0.004367 0.000002 0.002145 0.000002
# 2 -0.001867 0.005530 -0.000466 0.000000 -0.001143 0.000000
# 3 -0.004367 -0.000466 0.010784 -0.000010 0.004895 -0.000005
# 4 0.000002 0.000000 -0.000010 0.025623 -0.000011 0.005975
# 5 0.002145 -0.001143 0.004895 -0.000011 0.029100 -0.000004
# 6 0.000002 0.000000 -0.000005 0.005975 -0.000004 0.024066
#
#
# Mechanical properties :
#
#
# Convention : Reuss Voigt Hill
#
# Bulk Modulus (GPa) = 62.59213 69.94904 66.27059
# Shear Modulus (GPa) = 39.40477 45.89267 42.64872
#
# Velocity S-wave (km/s) = 3.83801 4.14193 3.99286
# Velocity P-wave (km/s) = 6.56038 7.00161 6.78458
#
# Compressibility (1/GPa) = 0.01597645
#
# Stress axis : x y z
#
# Youngs Moduli (GPa) = 76.55828 180.84297 92.73164
#
# Poissons Ratio (x) = 0.33761 0.40492
# Poissons Ratio (y) = 0.14292 0.04321
# Poissons Ratio (z) = 0.33430 0.08428
#
# Static dielectric constant tensor:
#      x y z
#    x 2.128990 0.000000 0.069320 
#    y 0.000000 2.144870 -0.000010 
#    z 0.069320 -0.000010 2.112030 
# 
# From -- ./inp_files/37401.got.cif
#   From: 2010.05.17/outbox.cif.g08.bks.cpg/sg9_19_cif.got.tgz:37401.got - 2010.06.03 20:04:27.
