data_PCOD9136598
_publ_section_title
;
Structure prediction by ZEFSAII (Michael W. Deem and Ramdas Pophale) SiO2 
 PCOD9136598
Probable space group: C C
;
_chemical_formula_sum "Si O2"
_cell_formula_units_Z 32
_cell_length_a 5.149148
_cell_length_b 24.223713
_cell_length_c 10.830637
_cell_angle_alpha 90.000000
_cell_angle_beta 89.228044
_cell_angle_gamma 90.000000
_cell_volume 1350.798806
_symmetry_space_group_name_H-M "C C"
_symmetry_group_IT_number 9
_symmetry_cell_setting 'monoclinic'
loop_
_space_group_symop_operation_xyz
x,y,z
x,-y,1/2+z
1/2+x,1/2+y,z
1/2+x,1/2-y,1/2+z
loop_
_atom_site_type_symbol
_atom_site_label
_atom_site_fract_x
_atom_site_fract_y
_atom_site_fract_z
Si Si1 0.789110 0.919156 0.517820
Si Si2 0.230710 0.078642 0.589099
Si Si3 0.610668 0.246842 0.321808
Si Si4 0.914158 0.169249 0.654020
Si Si5 0.912185 0.975437 0.884473
Si Si6 0.134168 0.367280 0.913095
Si Si7 0.798849 0.463345 0.657149
Si Si8 0.124114 0.307350 0.386877
O O1 0.557263 0.932549 0.613340
O O2 0.717681 0.858475 0.468636
O O3 0.070717 0.931360 0.578739
O O4 0.788230 0.964725 0.405857
O O5 0.377690 0.117871 0.491967
O O6 0.095205 0.117523 0.689057
O O7 0.012624 0.043910 0.518099
O O8 0.393850 0.027242 0.634139
O O9 0.566873 0.275364 0.188847
O O10 0.628138 0.181422 0.314843
O O11 0.346030 0.260652 0.396616
O O12 0.844323 0.278644 0.389472
O O13 0.827099 0.157579 0.516370
O O14 0.667197 0.171330 0.745219
O O15 0.719801 0.925421 0.857432
O O16 0.152789 0.970611 0.789356
#
# Coordination Sequence:
#
# PCOD9136598 Si02
#       8
#     4   4   4   4   4   4   4   4
#     4  11  23  44  66  99 139 177 230 278 347 412
#     4  10  21  42  67 100 136 180 228 275 338 423
#     4  10  24  42  66  97 133 181 232 280 339 398
#     4   9  22  39  69  96 130 180 227 273 337 397
#     4  10  24  41  67 102 136 185 214 299 339 419
#     4  11  22  44  68 100 141 173 238 278 348 413
#     4  11  24  41  66 104 137 179 226 277 359 407
#     4  10  22  45  65  98 132 181 225 282 335 405
#
# _framework density 23.689684
#
# number of rings (size 3 to 8) (size 9 to 14) (size 15 to 20)
#    0.750    1.000    1.250    2.250    5.250    0.000 
#    9.000    3.750    0.000    0.000    0.000    0.000 
#    0.000    0.000    0.000    0.000    0.000    0.000 
#
# Total GULP energy -89137.260439 kJ/mol
# GULP energy per Si atom -5571.078777 kJ/mol
# Density = 2.363577 g / cm^3
# Si number density = 23.689684 Si / 1000 Ang^3
#
#
#
# Elastic Constant Matrix: (Units=GPa)
#
#
# Indices 1 2 3 4 5 6 
#
# 1 116.5851 6.4304 13.4325 0.0000 -7.1263 0.0000
# 2 6.4304 41.4069 -11.3472 0.0000 -2.2883 0.0000
# 3 13.4325 -11.3472 39.5513 0.0000 -10.0782 0.0000
# 4 0.0000 0.0000 0.0000 17.7806 0.0000 -2.2105
# 5 -7.1263 -2.2883 -10.0782 0.0000 21.8919 0.0000
# 6 0.0000 0.0000 0.0000 -2.2105 0.0000 21.8211
#
#
#
# Elastic Compliance Matrix: (Units=1/GPa)
#
#
# Indices 1 2 3 4 5 6 
#
# 1 0.009177 -0.002319 -0.003492 0.000000 0.001137 0.000000
# 2 -0.002319 0.027788 0.010545 0.000000 0.007004 0.000000
# 3 -0.003492 0.010545 0.033405 0.000000 0.015344 0.000000
# 4 0.000000 0.000000 0.000000 0.056958 0.000000 0.005770
# 5 0.001137 0.007004 0.015344 0.000000 0.053845 0.000000
# 6 0.000000 0.000000 0.000000 0.005770 0.000000 0.046412
#
#
# Mechanical properties :
#
#
# Convention : Reuss Voigt Hill
#
# Bulk Modulus (GPa) = 12.52585 23.84162 18.18374
# Shear Modulus (GPa) = 20.43060 24.90055 22.66558
#
# Velocity S-wave (km/s) = 2.93990 3.24561 3.09653
# Velocity P-wave (km/s) = 4.10158 4.91236 4.52516
#
# Compressibility (1/GPa) = 0.07983490
#
# Stress axis : x y z
#
# Youngs Moduli (GPa) = 108.96500 35.98737 29.93587
#
# Poissons Ratio (x) = 0.08347 0.10455
# Poissons Ratio (y) = 0.25274 -0.31566
# Poissons Ratio (z) = 0.38056 -0.37947
#
# Static dielectric constant tensor:
#      x y z
#    x 2.016840 0.000000 0.110320 
#    y 0.000000 2.000330 0.000000 
#    z 0.110320 0.000000 1.981490 
# 
# From -- ./inp_files/13621.got.cif
#   From: 2010.05.17/outbox.cif.g08.bks.cpg/sg9_7_cif.got.tgz:13621.got - 2010.06.03 20:04:27.
