data_PCOD9136196
_publ_section_title
;
Structure prediction by ZEFSAII (Michael W. Deem and Ramdas Pophale) SiO2 
 PCOD9136196
Probable space group: C C
;
_chemical_formula_sum "Si O2"
_cell_formula_units_Z 32
_cell_length_a 8.882521
_cell_length_b 12.142417
_cell_length_c 12.488174
_cell_angle_alpha 90.000000
_cell_angle_beta 118.545886
_cell_angle_gamma 90.000000
_cell_volume 1183.177240
_symmetry_space_group_name_H-M "C C"
_symmetry_group_IT_number 9
_symmetry_cell_setting 'monoclinic'
loop_
_space_group_symop_operation_xyz
x,y,z
x,-y,1/2+z
1/2+x,1/2+y,z
1/2+x,1/2-y,1/2+z
loop_
_atom_site_type_symbol
_atom_site_label
_atom_site_fract_x
_atom_site_fract_y
_atom_site_fract_z
Si Si1 0.289580 0.316711 0.535030
Si Si2 0.631374 0.585775 0.095587
Si Si3 0.968394 0.870454 0.027545
Si Si4 0.823032 0.815595 0.189528
Si Si5 0.020107 0.385181 0.580305
Si Si6 0.860174 0.502352 0.354654
Si Si7 0.043813 0.320451 0.270029
Si Si8 0.096933 0.344113 0.837342
O O1 0.436355 0.377084 0.518057
O O2 0.184678 0.409043 0.564517
O O3 0.161164 0.263484 0.402975
O O4 0.402767 0.246518 0.656051
O O5 0.737071 0.700846 0.110071
O O6 0.699699 0.556784 0.239927
O O7 0.607937 0.460555 0.041882
O O8 0.799464 0.852407 0.899248
O O9 0.885211 0.893465 0.116024
O O10 0.034423 0.746965 0.069624
O O11 0.684583 0.855779 0.228388
O O12 0.003524 0.773327 0.300803
O O13 0.859370 0.443387 0.469225
O O14 0.035743 0.408314 0.709479
O O15 0.004888 0.597205 0.405139
O O16 0.936532 0.408908 0.301599
#
# Coordination Sequence:
#
# PCOD9136196 Si02
#       8
#     4   4   4   4   4   4   4   4
#     4  10  22  40  65  98 137 172 230 284 343 417
#     4  10  22  43  63  97 132 174 226 284 337 416
#     4  11  22  39  71  90 131 181 218 284 349 412
#     4   9  23  41  64  96 134 170 229 277 342 421
#     4  10  23  40  65  94 130 172 228 275 346 422
#     4  10  22  43  64  90 138 166 224 286 335 413
#     4  10  21  39  67  94 132 179 217 288 341 412
#     4  10  23  41  61  95 128 172 222 280 343 413
#
# _framework density 27.045821
#
# number of rings (size 3 to 8) (size 9 to 14) (size 15 to 20)
#    0.000    2.000    0.000    2.250   10.500    2.000 
#    4.500    2.500    2.750    0.000    0.000    0.000 
#    0.000    0.000    0.000    0.000    0.000    0.000 
#
# Total GULP energy -89226.159175 kJ/mol
# GULP energy per Si atom -5576.634948 kJ/mol
# Density = 2.698426 g / cm^3
# Si number density = 27.045821 Si / 1000 Ang^3
#
#
#
# Elastic Constant Matrix: (Units=GPa)
#
#
# Indices 1 2 3 4 5 6 
#
# 1 86.7211 17.3572 32.7180 0.0000 7.0402 0.0000
# 2 17.3572 102.5889 19.4953 0.0000 7.2915 0.0000
# 3 32.7180 19.4953 117.7316 0.0000 14.6312 0.0000
# 4 0.0000 0.0000 0.0000 29.5888 0.0000 -1.3573
# 5 7.0402 7.2915 14.6312 0.0000 51.9386 0.0000
# 6 0.0000 0.0000 0.0000 -1.3573 0.0000 48.3812
#
#
#
# Elastic Compliance Matrix: (Units=1/GPa)
#
#
# Indices 1 2 3 4 5 6 
#
# 1 0.013144 -0.001549 -0.003318 0.000000 -0.000630 0.000000
# 2 -0.001549 0.010295 -0.001162 0.000000 -0.000908 0.000000
# 3 -0.003318 -0.001162 0.009878 0.000000 -0.002170 0.000000
# 4 0.000000 0.000000 0.000000 0.033840 0.000000 0.000949
# 5 -0.000630 -0.000908 -0.002170 0.000000 0.020078 0.000000
# 6 0.000000 0.000000 0.000000 0.000949 0.000000 0.020696
#
#
# Mechanical properties :
#
#
# Convention : Reuss Voigt Hill
#
# Bulk Modulus (GPa) = 47.03537 49.57583 48.30560
# Shear Modulus (GPa) = 39.34720 41.81314 40.58017
#
# Velocity S-wave (km/s) = 3.81837 3.93620 3.87773
# Velocity P-wave (km/s) = 6.07196 6.24727 6.16023
#
# Compressibility (1/GPa) = 0.02126060
#
# Stress axis : x y z
#
# Youngs Moduli (GPa) = 76.07962 97.13524 101.23492
#
# Poissons Ratio (x) = 0.15042 0.33591
# Poissons Ratio (y) = 0.11782 0.11759
# Poissons Ratio (z) = 0.25244 0.11283
#
# Static dielectric constant tensor:
#      x y z
#    x 2.293630 0.000000 -0.048270 
#    y 0.000000 2.197670 0.000000 
#    z -0.048270 0.000000 2.153260 
# 
# From -- ./inp_files/24737.got.cif
#   From: 2010.05.17/outbox.cif.g08.bks.cpg/sg9_13_cif.got.tgz:24737.got - 2010.06.03 20:04:27.
