data_PCOD9136829
_publ_section_title
;
Structure prediction by ZEFSAII (Michael W. Deem and Ramdas Pophale) SiO2 
 PCOD9136829
Probable space group: C C
;
_chemical_formula_sum "Si O2"
_cell_formula_units_Z 28
_cell_length_a 14.468952
_cell_length_b 11.667488
_cell_length_c 7.839740
_cell_angle_alpha 90.000000
_cell_angle_beta 65.886433
_cell_angle_gamma 90.000000
_cell_volume 1207.986206
_symmetry_space_group_name_H-M "C C"
_symmetry_group_IT_number 9
_symmetry_cell_setting 'monoclinic'
loop_
_space_group_symop_operation_xyz
x,y,z
x,-y,1/2+z
1/2+x,1/2+y,z
1/2+x,1/2-y,1/2+z
loop_
_atom_site_type_symbol
_atom_site_label
_atom_site_fract_x
_atom_site_fract_y
_atom_site_fract_z
Si Si1 0.333360 0.288743 0.652210
Si Si2 0.604544 0.843989 0.146766
Si Si3 0.119801 0.401879 0.746467
Si Si4 0.947135 0.160942 0.384697
Si Si5 0.223725 0.867684 0.467121
Si Si6 0.477335 0.273182 0.217958
Si Si7 0.112818 0.037245 0.744922
O O1 0.228895 0.339283 0.656253
O O2 0.373474 0.364127 0.781566
O O3 0.310391 0.168644 0.768885
O O4 0.411774 0.282756 0.439228
O O5 0.509531 0.775551 0.290429
O O6 0.629971 0.962903 0.215999
O O7 0.585184 0.873023 0.963987
O O8 0.693976 0.749466 0.084222
O O9 0.036816 0.347639 0.680952
O O10 0.911948 0.191897 0.602240
O O11 0.026068 0.056964 0.330883
O O12 0.215319 0.973493 0.603128
O O13 0.132380 0.901390 0.408985
O O14 0.569336 0.364854 0.156281
#
# Coordination Sequence:
#
# PCOD9136829 Si02
#       7
#     4   4   4   4   4   4   4
#     4  11  25  48  67 113 147 184 249 310 345 446
#     4  10  21  44  68  99 138 195 230 296 360 436
#     4  11  23  46  71  96 155 192 235 299 373 434
#     4  11  24  44  75 107 140 187 253 299 366 436
#     4  10  22  44  70 101 145 182 243 300 358 433
#     4  12  23  45  75 104 145 199 235 299 380 433
#     4  11  20  45  74  98 140 197 235 299 368 436
#
# _framework density 23.179072000000001
#
# number of rings (size 3 to 8) (size 9 to 14) (size 15 to 20)
#    0.000    1.143    5.714    1.714    0.000    2.286 
#   18.000    0.000    0.000    0.000    0.000    0.000 
#    0.000    0.000    0.000    0.000    0.000    0.000 
#
# Total GULP energy -78140.052714 kJ/mol
# GULP energy per Si atom -5581.432337 kJ/mol
# Density = 2.312632 g / cm^3
# Si number density = 23.179072 Si / 1000 Ang^3
#
#
#
# Elastic Constant Matrix: (Units=GPa)
#
#
# Indices 1 2 3 4 5 6 
#
# 1 64.0748 11.8059 -0.6948 0.0000 9.3899 0.0000
# 2 11.8059 119.0280 33.5851 0.0000 -9.9061 0.0000
# 3 -0.6948 33.5851 72.7182 0.0000 10.0853 0.0000
# 4 0.0000 0.0000 0.0000 33.0981 0.0000 5.0520
# 5 9.3899 -9.9061 10.0853 0.0000 20.5028 0.0000
# 6 0.0000 0.0000 0.0000 5.0520 0.0000 27.1886
#
#
#
# Elastic Compliance Matrix: (Units=1/GPa)
#
#
# Indices 1 2 3 4 5 6 
#
# 1 0.018082 -0.003788 0.003568 0.000000 -0.011867 0.000000
# 2 -0.003788 0.011614 -0.006889 0.000000 0.010735 0.000000
# 3 0.003568 -0.006889 0.018949 0.000000 -0.014283 0.000000
# 4 0.000000 0.000000 0.000000 0.031095 0.000000 -0.005778
# 5 -0.011867 0.010735 -0.014283 0.000000 0.066421 0.000000
# 6 0.000000 0.000000 0.000000 -0.005778 0.000000 0.037854
#
#
# Mechanical properties :
#
#
# Convention : Reuss Voigt Hill
#
# Bulk Modulus (GPa) = 29.04680 38.35705 33.70192
# Shear Modulus (GPa) = 23.84253 30.23291 27.03772
#
# Velocity S-wave (km/s) = 3.21070 3.61545 3.41907
# Velocity P-wave (km/s) = 5.12869 5.83204 5.49164
#
# Compressibility (1/GPa) = 0.03442720
#
# Stress axis : x y z
#
# Youngs Moduli (GPa) = 55.30250 86.10016 52.77445
#
# Poissons Ratio (x) = 0.32614 -0.18830
# Poissons Ratio (y) = 0.20948 0.36357
# Poissons Ratio (z) = -0.19732 0.59316
#
# Static dielectric constant tensor:
#      x y z
#    x 1.893080 0.000000 0.004170 
#    y 0.000000 1.890080 0.000000 
#    z 0.004170 0.000000 1.918050 
# 
# From -- ./inp_files/9028.got.cif
#   From: 2010.05.17/outbox.cif.g08.bks.cpg/sg9_5_cif.got.tgz:9028.got - 2010.06.03 20:04:27.
