data_PCOD9136816
_publ_section_title
;
Structure prediction by ZEFSAII (Michael W. Deem and Ramdas Pophale) SiO2 
 PCOD9136816
Probable space group: C C
;
_chemical_formula_sum "Si O2"
_cell_formula_units_Z 28
_cell_length_a 9.959550
_cell_length_b 9.720678
_cell_length_c 13.019246
_cell_angle_alpha 90.000000
_cell_angle_beta 61.253976
_cell_angle_gamma 90.000000
_cell_volume 1105.103361
_symmetry_space_group_name_H-M "C C"
_symmetry_group_IT_number 9
_symmetry_cell_setting 'monoclinic'
loop_
_space_group_symop_operation_xyz
x,y,z
x,-y,1/2+z
1/2+x,1/2+y,z
1/2+x,1/2-y,1/2+z
loop_
_atom_site_type_symbol
_atom_site_label
_atom_site_fract_x
_atom_site_fract_y
_atom_site_fract_z
Si Si1 0.502160 0.708625 0.512450
Si Si2 0.667421 0.837537 0.130209
Si Si3 0.055241 0.134820 0.712582
Si Si4 0.689402 0.507583 0.839651
Si Si5 0.015580 0.564523 0.313857
Si Si6 0.002717 0.748479 0.506967
Si Si7 0.768196 0.908582 0.460509
O O1 0.323701 0.746865 0.589368
O O2 0.540699 0.615179 0.597930
O O3 0.564175 0.614212 0.397375
O O4 0.615705 0.835071 0.479325
O O5 0.610642 0.929918 0.245963
O O6 0.528898 0.767585 0.118721
O O7 0.729109 0.947332 0.024274
O O8 0.896260 0.089201 0.825019
O O9 0.189434 0.053337 0.720919
O O10 0.067239 0.296774 0.735431
O O11 0.631146 0.643629 0.920253
O O12 0.845635 0.460243 0.832739
O O13 0.016812 0.611544 0.431609
O O14 0.848602 0.817716 0.520917
#
# Coordination Sequence:
#
# PCOD9136816 Si02
#       7
#     4   4   4   4   4   4   4
#     4  12  22  42  70  96 130 174 218 268 327 384
#     4  12  25  40  65 100 126 171 219 267 326 389
#     4  10  22  41  67  95 129 174 215 268 322 385
#     4  10  21  44  67  95 131 172 219 266 331 387
#     4  10  22  41  67  93 130 174 215 264 331 385
#     4  10  24  43  66  91 131 171 209 272 322 385
#     4  10  22  45  64  88 137 166 211 269 329 379
#
# _framework density 25.336995999999999
#
# number of rings (size 3 to 8) (size 9 to 14) (size 15 to 20)
#    0.000    1.714    7.143    0.000    4.000    1.143 
#    2.571    0.000    0.000    0.000    0.000    0.000 
#    0.000    0.000    0.000    0.000    0.000    0.000 
#
# Total GULP energy -78328.074293 kJ/mol
# GULP energy per Si atom -5594.862450 kJ/mol
# Density = 2.527933 g / cm^3
# Si number density = 25.336996 Si / 1000 Ang^3
#
#
#
# Elastic Constant Matrix: (Units=GPa)
#
#
# Indices 1 2 3 4 5 6 
#
# 1 135.1979 29.7437 15.4985 0.0000 -3.1988 0.0000
# 2 29.7437 60.4087 -1.8975 0.0000 -0.3204 0.0000
# 3 15.4985 -1.8975 40.0014 0.0000 -5.2495 0.0000
# 4 0.0000 0.0000 0.0000 22.0891 0.0000 1.5308
# 5 -3.1988 -0.3204 -5.2495 0.0000 41.5215 0.0000
# 6 0.0000 0.0000 0.0000 1.5308 0.0000 34.7173
#
#
#
# Elastic Compliance Matrix: (Units=1/GPa)
#
#
# Indices 1 2 3 4 5 6 
#
# 1 0.008789 -0.004439 -0.003591 0.000000 0.000189 0.000000
# 2 -0.004439 0.018823 0.002631 0.000000 0.000136 0.000000
# 3 -0.003591 0.002631 0.026929 0.000000 0.003148 0.000000
# 4 0.000000 0.000000 0.000000 0.045410 0.000000 -0.002002
# 5 0.000189 0.000136 0.003148 0.000000 0.024498 0.000000
# 6 0.000000 0.000000 0.000000 -0.002002 0.000000 0.028892
#
#
# Mechanical properties :
#
#
# Convention : Reuss Voigt Hill
#
# Bulk Modulus (GPa) = 22.86175 35.81083 29.33629
# Shear Modulus (GPa) = 27.97652 32.48312 30.22982
#
# Velocity S-wave (km/s) = 3.32652 3.58445 3.45789
# Velocity P-wave (km/s) = 4.87821 5.59424 5.24845
#
# Compressibility (1/GPa) = 0.04374119
#
# Stress axis : x y z
#
# Youngs Moduli (GPa) = 113.77319 53.12609 37.13534
#
# Poissons Ratio (x) = 0.23585 0.13336
# Poissons Ratio (y) = 0.50509 -0.09770
# Poissons Ratio (z) = 0.40859 -0.13976
#
# Static dielectric constant tensor:
#      x y z
#    x 2.034380 0.000000 0.024790 
#    y 0.000000 2.061030 0.000000 
#    z 0.024790 0.000000 2.031780 
# 
# From -- ./inp_files/22588.got.cif
#   From: 2010.05.17/outbox.cif.g08.bks.cpg/sg9_12_cif.got.tgz:22588.got - 2010.06.03 20:04:27.
