data_PCOD9136635
_publ_section_title
;
Structure prediction by ZEFSAII (Michael W. Deem and Ramdas Pophale) SiO2 
 PCOD9136635
Probable space group: C C
;
_chemical_formula_sum "Si O2"
_cell_formula_units_Z 32
_cell_length_a 17.033085
_cell_length_b 15.190495
_cell_length_c 9.331365
_cell_angle_alpha 90.000000
_cell_angle_beta 148.137946
_cell_angle_gamma 90.000000
_cell_volume 1274.507223
_symmetry_space_group_name_H-M "C C"
_symmetry_group_IT_number 9
_symmetry_cell_setting 'monoclinic'
loop_
_space_group_symop_operation_xyz
x,y,z
x,-y,1/2+z
1/2+x,1/2+y,z
1/2+x,1/2-y,1/2+z
loop_
_atom_site_type_symbol
_atom_site_label
_atom_site_fract_x
_atom_site_fract_y
_atom_site_fract_z
Si Si1 0.027110 0.298264 0.082700
Si Si2 0.585986 0.083150 0.933894
Si Si3 0.005988 0.964431 0.834322
Si Si4 0.123404 0.912804 0.316337
Si Si5 0.616558 0.774799 0.672386
Si Si6 0.033411 0.395930 0.803090
Si Si7 0.816549 0.449552 0.230333
Si Si8 0.857521 0.206272 0.061897
O O1 0.044345 0.383002 0.213114
O O2 0.193299 0.258594 0.333728
O O3 0.000293 0.330899 0.881204
O O4 0.914280 0.236248 0.993553
O O5 0.688525 0.159951 0.163598
O O6 0.630739 0.981165 0.997915
O O7 0.436631 0.080862 0.801109
O O8 0.007088 0.060359 0.762878
O O9 0.148051 0.913129 0.979035
O O10 0.868847 0.899637 0.597896
O O11 0.056602 0.966737 0.077467
O O12 0.272268 0.951985 0.617993
O O13 0.158070 0.817064 0.310316
O O14 0.605410 0.838889 0.789864
O O15 0.469531 0.743189 0.356276
O O16 0.889477 0.435229 0.497618
#
# Coordination Sequence:
#
# PCOD9136635 Si02
#       8
#     4   4   4   4   4   4   4   4
#     4  11  25  45  69 103 144 195 246 311 374 448
#     4  10  21  42  69  93 143 195 230 299 370 454
#     4   9  20  38  67 100 142 184 248 303 374 432
#     4   9  19  38  63 106 139 186 238 316 361 436
#     4   9  21  43  66 102 146 189 242 308 376 427
#     4  11  22  42  67 108 139 198 244 306 376 457
#     4   9  20  38  68 106 135 187 240 307 360 446
#     4  10  24  46  67 102 146 202 244 314 377 444
#
# _framework density 25.107741999999998
#
# number of rings (size 3 to 8) (size 9 to 14) (size 15 to 20)
#    0.750    1.500    0.000    2.250    5.250    1.000 
#   18.000    1.250    0.000    0.000    0.000    0.000 
#    0.000    0.000    0.000    0.000    0.000    0.000 
#
# Total GULP energy -89178.173198 kJ/mol
# GULP energy per Si atom -5573.635825 kJ/mol
# Density = 2.505060 g / cm^3
# Si number density = 25.107742 Si / 1000 Ang^3
#
#
#
# Elastic Constant Matrix: (Units=GPa)
#
#
# Indices 1 2 3 4 5 6 
#
# 1 108.5624 10.7984 25.1757 0.0000 -30.0409 0.0000
# 2 10.7984 116.7908 33.4127 0.0000 -27.0344 0.0000
# 3 25.1757 33.4127 56.7377 0.0000 -17.4038 0.0000
# 4 0.0000 0.0000 0.0000 25.4317 0.0000 -13.3089
# 5 -30.0409 -27.0344 -17.4038 0.0000 34.5580 0.0000
# 6 0.0000 0.0000 0.0000 -13.3089 0.0000 46.5384
#
#
#
# Elastic Compliance Matrix: (Units=1/GPa)
#
#
# Indices 1 2 3 4 5 6 
#
# 1 0.012970 0.002498 -0.003747 0.000000 0.011342 0.000000
# 2 0.002498 0.011913 -0.005440 0.000000 0.008752 0.000000
# 3 -0.003747 -0.005440 0.023875 0.000000 0.004511 0.000000
# 4 0.000000 0.000000 0.000000 0.046241 0.000000 0.013224
# 5 0.011342 0.008752 0.004511 0.000000 0.047915 0.000000
# 6 0.000000 0.000000 0.000000 0.013224 0.000000 0.025269
#
#
# Mechanical properties :
#
#
# Convention : Reuss Voigt Hill
#
# Bulk Modulus (GPa) = 28.26378 46.76271 37.51325
# Shear Modulus (GPa) = 25.85915 35.48591 30.67253
#
# Velocity S-wave (km/s) = 3.21273 3.76353 3.49898
# Velocity P-wave (km/s) = 5.00436 6.12787 5.59439
#
# Compressibility (1/GPa) = 0.03538097
#
# Stress axis : x y z
#
# Youngs Moduli (GPa) = 77.09891 83.93859 41.88518
#
# Poissons Ratio (x) = -0.20970 0.15696
# Poissons Ratio (y) = -0.19262 0.22785
# Poissons Ratio (z) = 0.28892 0.45661
#
# Static dielectric constant tensor:
#      x y z
#    x 1.993670 0.000000 0.072100 
#    y 0.000000 2.084650 0.000000 
#    z 0.072100 0.000000 2.064330 
# 
# From -- ./inp_files/19423.got.cif
#   From: 2010.05.17/outbox.cif.g08.bks.cpg/sg9_10_cif.got.tgz:19423.got - 2010.06.03 20:04:27.
