data_PCOD9136527
_publ_section_title
;
Structure prediction by ZEFSAII (Michael W. Deem and Ramdas Pophale) SiO2 
 PCOD9136527
Probable space group: C C
;
_chemical_formula_sum "Si O2"
_cell_formula_units_Z 32
_cell_length_a 5.061134
_cell_length_b 17.895492
_cell_length_c 15.219723
_cell_angle_alpha 90.000000
_cell_angle_beta 105.217245
_cell_angle_gamma 90.000000
_cell_volume 1330.140228
_symmetry_space_group_name_H-M "C C"
_symmetry_group_IT_number 9
_symmetry_cell_setting 'monoclinic'
loop_
_space_group_symop_operation_xyz
x,y,z
x,-y,1/2+z
1/2+x,1/2+y,z
1/2+x,1/2-y,1/2+z
loop_
_atom_site_type_symbol
_atom_site_label
_atom_site_fract_x
_atom_site_fract_y
_atom_site_fract_z
Si Si1 0.487960 0.846438 0.850570
Si Si2 0.597099 0.677309 0.842462
Si Si3 0.901793 0.610106 0.539840
Si Si4 0.624177 0.051406 0.100506
Si Si5 0.017753 0.387149 0.243715
Si Si6 0.440656 0.536420 0.420334
Si Si7 0.163395 0.030281 0.257148
Si Si8 0.030351 0.888572 0.520906
O O1 0.552919 0.764820 0.823577
O O2 0.716405 0.910499 0.859144
O O3 0.246350 0.882740 0.772696
O O4 0.445213 0.845440 0.952925
O O5 0.860331 0.653343 0.809632
O O6 0.609850 0.665599 0.948834
O O7 0.338174 0.628347 0.786554
O O8 0.960355 0.643063 0.640287
O O9 0.585282 0.586937 0.506144
O O10 0.053956 0.529435 0.549588
O O11 0.864526 0.025575 0.188397
O O12 0.314858 0.082312 0.088879
O O13 0.788107 0.121503 0.069517
O O14 0.878017 0.470428 0.235316
O O15 0.647523 0.513784 0.360264
O O16 0.381320 0.458136 0.458277
#
# Coordination Sequence:
#
# PCOD9136527 Si02
#       8
#     4   4   4   4   4   4   4   4
#     4  11  26  47  71 104 150 193 240 289 375 436
#     4  12  28  47  71 104 151 195 234 296 366 443
#     4  10  24  43  72 104 135 187 240 298 354 433
#     4  11  23  41  73 106 133 173 246 299 352 409
#     4  12  26  46  76 106 141 189 252 297 361 431
#     4  10  21  41  71  98 137 182 235 295 352 418
#     4  11  24  43  73 106 138 186 242 308 349 429
#     4  11  22  44  67 102 135 181 233 294 351 425
#
# _framework density 24.057614999999998
#
# number of rings (size 3 to 8) (size 9 to 14) (size 15 to 20)
#    0.000    1.000    2.500    3.750   10.500    0.000 
#    2.250    0.000    0.000    0.000    0.000    0.000 
#    0.000    0.000    0.000    0.000    0.000    0.000 
#
# Total GULP energy -89195.457527 kJ/mol
# GULP energy per Si atom -5574.716095 kJ/mol
# Density = 2.400286 g / cm^3
# Si number density = 24.057615 Si / 1000 Ang^3
#
#
#
# Elastic Constant Matrix: (Units=GPa)
#
#
# Indices 1 2 3 4 5 6 
#
# 1 98.3912 10.1935 6.7214 0.0000 5.7797 0.0000
# 2 10.1935 72.1690 6.5303 0.0000 7.8042 0.0000
# 3 6.7214 6.5303 86.7726 0.0000 15.6326 0.0000
# 4 0.0000 0.0000 0.0000 19.4037 0.0000 0.0721
# 5 5.7797 7.8042 15.6326 0.0000 46.2093 0.0000
# 6 0.0000 0.0000 0.0000 0.0721 0.0000 9.3621
#
#
#
# Elastic Compliance Matrix: (Units=1/GPa)
#
#
# Indices 1 2 3 4 5 6 
#
# 1 0.010390 -0.001322 -0.000545 0.000000 -0.000892 0.000000
# 2 -0.001322 0.014319 -0.000606 0.000000 -0.002048 0.000000
# 3 -0.000545 -0.000606 0.012333 0.000000 -0.004002 0.000000
# 4 0.000000 0.000000 0.000000 0.051538 0.000000 -0.000397
# 5 -0.000892 -0.002048 -0.004002 0.000000 0.023452 0.000000
# 6 0.000000 0.000000 0.000000 -0.000397 0.000000 0.106816
#
#
# Mechanical properties :
#
#
# Convention : Reuss Voigt Hill
#
# Bulk Modulus (GPa) = 31.15542 33.80256 32.47899
# Shear Modulus (GPa) = 21.32258 30.58754 25.95506
#
# Velocity S-wave (km/s) = 2.98033 3.56958 3.28818
# Velocity P-wave (km/s) = 4.98213 5.57408 5.28640
#
# Compressibility (1/GPa) = 0.03209714
#
# Stress axis : x y z
#
# Youngs Moduli (GPa) = 96.24587 69.83543 81.08239
#
# Poissons Ratio (x) = 0.09231 0.04416
# Poissons Ratio (y) = 0.12722 0.04916
# Poissons Ratio (z) = 0.05242 0.04234
#
# Static dielectric constant tensor:
#      x y z
#    x 2.079410 0.000000 -0.091690 
#    y 0.000000 1.899410 0.000000 
#    z -0.091690 0.000000 2.038210 
# 
# From -- ./inp_files/22010.got.cif
#   From: 2010.05.17/outbox.cif.g08.bks.cpg/sg9_12_cif.got.tgz:22010.got - 2010.06.03 20:04:27.
