data_PCOD9136578
_publ_section_title
;
Structure prediction by ZEFSAII (Michael W. Deem and Ramdas Pophale) SiO2 
 PCOD9136578
Probable space group: C C
;
_chemical_formula_sum "Si O2"
_cell_formula_units_Z 32
_cell_length_a 19.832989
_cell_length_b 5.889408
_cell_length_c 14.332976
_cell_angle_alpha 90.000000
_cell_angle_beta 48.585788
_cell_angle_gamma 90.000000
_cell_volume 1255.529048
_symmetry_space_group_name_H-M "C C"
_symmetry_group_IT_number 9
_symmetry_cell_setting 'monoclinic'
loop_
_space_group_symop_operation_xyz
x,y,z
x,-y,1/2+z
1/2+x,1/2+y,z
1/2+x,1/2-y,1/2+z
loop_
_atom_site_type_symbol
_atom_site_label
_atom_site_fract_x
_atom_site_fract_y
_atom_site_fract_z
Si Si1 0.764060 0.256460 0.980270
Si Si2 0.932565 0.650697 0.223129
Si Si3 0.906476 0.113595 0.563276
Si Si4 0.322099 0.758653 0.271543
Si Si5 0.643520 0.338215 0.508900
Si Si6 0.592498 0.015368 0.196536
Si Si7 0.264851 0.952794 0.650263
Si Si8 0.573070 0.367065 0.365488
O O1 0.850867 0.197438 0.839254
O O2 0.696459 0.431700 0.988417
O O3 0.696225 0.080593 0.087713
O O4 0.802789 0.393529 0.033183
O O5 0.948211 0.708527 0.100222
O O6 0.891336 0.396801 0.271709
O O7 0.023546 0.663855 0.197155
O O8 0.819559 0.220715 0.594007
O O9 0.870682 0.916552 0.661936
O O10 0.982758 0.007288 0.429446
O O11 0.229266 0.678668 0.402321
O O12 0.288497 0.950585 0.229541
O O13 0.586155 0.354239 0.466212
O O14 0.590945 0.227328 0.643934
O O15 0.572409 0.115988 0.318624
O O16 0.157364 0.986734 0.748244
#
# Coordination Sequence:
#
# PCOD9136578 Si02
#       8
#     4   4   4   4   4   4   4   4
#     4  10  22  42  62  93 135 168 225 276 323 412
#     4  10  22  39  62  94 130 175 220 276 332 394
#     4  11  21  40  66  93 129 181 214 274 345 389
#     4   9  20  38  64  95 127 172 223 268 334 406
#     4  10  21  42  65  92 134 179 215 280 334 397
#     4  11  23  42  66  98 132 178 219 277 344 394
#     4   9  22  41  61  94 134 168 218 280 331 396
#     4  10  23  42  66 105 137 171 238 283 323 422
#
# _framework density 25.487265000000001
#
# number of rings (size 3 to 8) (size 9 to 14) (size 15 to 20)
#    0.000    2.000    0.000    3.000    1.750    4.000 
#    9.000    2.500    0.000    0.000    0.000    0.000 
#    0.000    0.000    0.000    0.000    0.000    0.000 
#
# Total GULP energy -89310.054525 kJ/mol
# GULP energy per Si atom -5581.878408 kJ/mol
# Density = 2.542925 g / cm^3
# Si number density = 25.487265 Si / 1000 Ang^3
#
#
#
# Elastic Constant Matrix: (Units=GPa)
#
#
# Indices 1 2 3 4 5 6 
#
# 1 97.5514 23.8458 27.0193 -0.0188 3.7152 0.0142
# 2 23.8458 16.8930 25.6900 -0.0157 -10.7857 0.0445
# 3 27.0193 25.6900 119.3312 -0.0239 -10.4786 0.0259
# 4 -0.0188 -0.0157 -0.0239 43.9476 0.0136 4.6741
# 5 3.7152 -10.7857 -10.4786 0.0136 46.5198 -0.0081
# 6 0.0142 0.0445 0.0259 4.6741 -0.0081 27.3038
#
#
#
# Elastic Compliance Matrix: (Units=1/GPa)
#
#
# Indices 1 2 3 4 5 6 
#
# 1 0.018867 -0.037027 0.002870 -0.000006 -0.009445 0.000046
# 2 -0.037027 0.175056 -0.025993 0.000046 0.037689 -0.000238
# 3 0.002870 -0.025993 0.013035 -0.000003 -0.003320 0.000028
# 4 -0.000006 0.000046 -0.000003 0.023176 0.000003 -0.003968
# 5 -0.009445 0.037689 -0.003320 0.000003 0.030241 -0.000045
# 6 0.000046 -0.000238 0.000028 -0.003968 -0.000045 0.037304
#
#
# Mechanical properties :
#
#
# Convention : Reuss Voigt Hill
#
# Bulk Modulus (GPa) = 11.53978 42.98730 27.26354
# Shear Modulus (GPa) = 11.18906 34.03561 22.61234
#
# Velocity S-wave (km/s) = 2.09752 3.65827 2.98182
# Velocity P-wave (km/s) = 3.22546 5.89464 4.75133
#
# Compressibility (1/GPa) = 0.08665675
#
# Stress axis : x y z
#
# Youngs Moduli (GPa) = 53.00313 5.71246 76.71906
#
# Poissons Ratio (x) = 0.21152 -0.22019
# Poissons Ratio (y) = 1.96255 1.99417
# Poissons Ratio (z) = -0.15212 0.14849
#
# Static dielectric constant tensor:
#      x y z
#    x 1.998570 -0.000020 -0.005720 
#    y -0.000020 2.142970 0.000020 
#    z -0.005720 0.000020 1.990420 
# 
# From -- ./inp_files/31505.got.cif
#   From: 2010.05.17/outbox.cif.g08.bks.cpg/sg9_16_cif.got.tgz:31505.got - 2010.06.03 20:04:27.
