data_PCOD9136733
_publ_section_title
;
Structure prediction by ZEFSAII (Michael W. Deem and Ramdas Pophale) SiO2 
 PCOD9136733
Probable space group: C C
;
_chemical_formula_sum "Si O2"
_cell_formula_units_Z 32
_cell_length_a 12.220481
_cell_length_b 8.627510
_cell_length_c 20.535669
_cell_angle_alpha 90.000000
_cell_angle_beta 144.390646
_cell_angle_gamma 90.000000
_cell_volume 1260.655380
_symmetry_space_group_name_H-M "C C"
_symmetry_group_IT_number 9
_symmetry_cell_setting 'monoclinic'
loop_
_space_group_symop_operation_xyz
x,y,z
x,-y,1/2+z
1/2+x,1/2+y,z
1/2+x,1/2-y,1/2+z
loop_
_atom_site_type_symbol
_atom_site_label
_atom_site_fract_x
_atom_site_fract_y
_atom_site_fract_z
Si Si1 0.867610 0.918948 0.300110
Si Si2 0.510331 0.057927 0.063269
Si Si3 0.458524 0.688242 0.706664
Si Si4 0.215204 0.920201 0.002323
Si Si5 0.975245 0.528886 0.748861
Si Si6 0.570487 0.130626 0.461344
Si Si7 0.632858 0.601773 0.656418
Si Si8 0.293329 0.598698 0.972259
O O1 0.941207 0.919845 0.260665
O O2 0.924396 0.753147 0.359434
O O3 0.652099 0.965740 0.181694
O O4 0.993671 0.047054 0.397787
O O5 0.581090 0.234484 0.097695
O O6 0.309783 0.048653 0.001060
O O7 0.502113 0.978652 0.988199
O O8 0.576904 0.620522 0.704830
O O9 0.244891 0.720846 0.579717
O O10 0.533507 0.852831 0.765466
O O11 0.325235 0.925030 0.122587
O O12 0.272032 0.758420 0.998410
O O13 0.849556 0.562120 0.751919
O O14 0.171196 0.617675 0.847909
O O15 0.684276 0.030117 0.462776
O O16 0.502501 0.463742 0.565775
#
# Coordination Sequence:
#
# PCOD9136733 Si02
#       8
#     4   4   4   4   4   4   4   4
#     4  11  23  45  72  99 144 189 233 303 372 425
#     4  11  25  43  69 102 141 190 242 294 378 435
#     4  10  22  45  71 102 141 186 239 297 357 440
#     4  12  26  44  68 104 146 179 241 308 350 448
#     4  12  24  45  73 103 144 188 247 300 363 440
#     4  10  21  43  67  99 137 182 237 299 355 441
#     4  11  25  48  72 102 148 196 240 306 370 441
#     4  11  26  43  70 105 139 188 245 295 367 440
#
# _framework density 25.383623
#
# number of rings (size 3 to 8) (size 9 to 14) (size 15 to 20)
#    0.000    1.000    3.750    2.250    3.500    5.000 
#    2.250    0.000    0.000    0.000    0.000    0.000 
#    0.000    0.000    0.000    0.000    0.000    0.000 
#
# Total GULP energy -89573.769576 kJ/mol
# GULP energy per Si atom -5598.360599 kJ/mol
# Density = 2.532585 g / cm^3
# Si number density = 25.383623 Si / 1000 Ang^3
#
#
#
# Elastic Constant Matrix: (Units=GPa)
#
#
# Indices 1 2 3 4 5 6 
#
# 1 78.6800 -8.9384 4.3394 0.0000 -1.3596 0.0000
# 2 -8.9384 86.8396 11.8299 0.0000 2.9819 0.0000
# 3 4.3394 11.8299 98.6559 0.0000 2.0896 0.0000
# 4 0.0000 0.0000 0.0000 25.3490 0.0000 2.4453
# 5 -1.3596 2.9819 2.0896 0.0000 37.0576 0.0000
# 6 0.0000 0.0000 0.0000 2.4453 0.0000 37.5704
#
#
#
# Elastic Compliance Matrix: (Units=1/GPa)
#
#
# Indices 1 2 3 4 5 6 
#
# 1 0.012919 0.001418 -0.000747 0.000000 0.000402 0.000000
# 2 0.001418 0.011890 -0.001471 0.000000 -0.000822 0.000000
# 3 -0.000747 -0.001471 0.010356 0.000000 -0.000493 0.000000
# 4 0.000000 0.000000 0.000000 0.039699 0.000000 -0.002584
# 5 0.000402 -0.000822 -0.000493 0.000000 0.027094 0.000000
# 6 0.000000 0.000000 0.000000 -0.002584 0.000000 0.026785
#
#
# Mechanical properties :
#
#
# Convention : Reuss Voigt Hill
#
# Bulk Modulus (GPa) = 29.79276 30.95971 30.37624
# Shear Modulus (GPa) = 35.32826 37.12505 36.22665
#
# Velocity S-wave (km/s) = 3.73470 3.82849 3.78188
# Velocity P-wave (km/s) = 5.50997 5.63616 5.57342
#
# Compressibility (1/GPa) = 0.03356520
#
# Stress axis : x y z
#
# Youngs Moduli (GPa) = 77.40601 84.10450 96.56354
#
# Poissons Ratio (x) = -0.11923 0.07211
# Poissons Ratio (y) = -0.10974 0.14201
# Poissons Ratio (z) = 0.05780 0.12369
#
# Static dielectric constant tensor:
#      x y z
#    x 2.034400 0.000000 -0.081820 
#    y 0.000000 1.952340 0.000000 
#    z -0.081820 0.000000 2.030810 
# 
# From -- ./inp_files/27712.got.cif
#   From: 2010.05.17/outbox.cif.g08.bks.cpg/sg9_14_cif.got.tgz:27712.got - 2010.06.03 20:04:27.
