data_PCOD9136193
_publ_section_title
;
Structure prediction by ZEFSAII (Michael W. Deem and Ramdas Pophale) SiO2 
 PCOD9136193
Probable space group: C C
;
_chemical_formula_sum "Si O2"
_cell_formula_units_Z 32
_cell_length_a 18.618197
_cell_length_b 12.094673
_cell_length_c 10.979745
_cell_angle_alpha 90.000000
_cell_angle_beta 145.556643
_cell_angle_gamma 90.000000
_cell_volume 1398.384714
_symmetry_space_group_name_H-M "C C"
_symmetry_group_IT_number 9
_symmetry_cell_setting 'monoclinic'
loop_
_space_group_symop_operation_xyz
x,y,z
x,-y,1/2+z
1/2+x,1/2+y,z
1/2+x,1/2-y,1/2+z
loop_
_atom_site_type_symbol
_atom_site_label
_atom_site_fract_x
_atom_site_fract_y
_atom_site_fract_z
Si Si1 0.094710 0.936959 0.370540
Si Si2 0.314364 0.467052 0.226968
Si Si3 0.953784 0.239874 0.037749
Si Si4 0.792596 0.082861 0.438503
Si Si5 0.702726 0.675110 0.777637
Si Si6 0.215147 0.164085 0.468472
Si Si7 0.932090 0.814625 0.791110
Si Si8 0.794215 0.558740 0.340307
O O1 0.150974 0.871658 0.334337
O O2 0.165327 0.901482 0.592469
O O3 0.136440 0.064503 0.417448
O O4 0.944470 0.933070 0.158773
O O5 0.389986 0.354437 0.364467
O O6 0.249215 0.512177 0.259814
O O7 0.408662 0.566085 0.318483
O O8 0.236320 0.450170 0.992341
O O9 0.902728 0.362794 0.935635
O O10 0.915137 0.200841 0.121844
O O11 0.106285 0.238298 0.254131
O O12 0.776258 0.212616 0.399805
O O13 0.576087 0.712259 0.526880
O O14 0.784598 0.574008 0.834369
O O15 0.317677 0.237901 0.681545
O O16 0.293281 0.097080 0.477408
#
# Coordination Sequence:
#
# PCOD9136193 Si02
#       8
#     4   4   4   4   4   4   4   4
#     4  11  21  40  66  98 131 185 227 284 352 413
#     4  12  22  43  67 105 134 181 236 285 354 417
#     4  11  21  41  66  97 134 177 226 283 345 418
#     4  12  25  41  76 100 140 183 238 289 351 430
#     4  11  24  42  65 102 141 180 235 292 353 422
#     4  10  21  39  67  91 126 171 232 279 335 416
#     4  11  23  39  66  99 124 180 232 280 343 412
#     4  10  23  39  65  94 132 175 226 278 349 416
#
# _framework density 22.883547
#
# number of rings (size 3 to 8) (size 9 to 14) (size 15 to 20)
#    0.000    1.000    3.750    3.750    3.500    0.000 
#    0.000    3.750    5.500    0.000    0.000    0.000 
#    0.000    0.000    0.000    0.000    0.000    0.000 
#
# Total GULP energy -89256.083205 kJ/mol
# GULP energy per Si atom -5578.505200 kJ/mol
# Density = 2.283146 g / cm^3
# Si number density = 22.883547 Si / 1000 Ang^3
#
#
#
# Elastic Constant Matrix: (Units=GPa)
#
#
# Indices 1 2 3 4 5 6 
#
# 1 60.0200 46.7178 26.4930 0.0000 -24.2720 0.0000
# 2 46.7178 154.6932 67.3107 0.0000 10.8196 0.0000
# 3 26.4930 67.3107 61.0558 0.0000 -5.9905 0.0000
# 4 0.0000 0.0000 0.0000 37.9911 0.0000 2.0730
# 5 -24.2720 10.8196 -5.9905 0.0000 43.4514 0.0000
# 6 0.0000 0.0000 0.0000 2.0730 0.0000 29.2437
#
#
#
# Elastic Compliance Matrix: (Units=1/GPa)
#
#
# Indices 1 2 3 4 5 6 
#
# 1 0.035551 -0.012748 0.000899 0.000000 0.023157 0.000000
# 2 -0.012748 0.018194 -0.015885 0.000000 -0.013841 0.000000
# 3 0.000899 -0.015885 0.034403 0.000000 0.009201 0.000000
# 4 0.000000 0.000000 0.000000 0.026424 0.000000 -0.001873
# 5 0.023157 -0.013841 0.009201 0.000000 0.040665 0.000000
# 6 0.000000 0.000000 0.000000 -0.001873 0.000000 0.034328
#
#
# Mechanical properties :
#
#
# Convention : Reuss Voigt Hill
#
# Bulk Modulus (GPa) = 30.59744 61.86801 46.23273
# Shear Modulus (GPa) = 19.53695 31.15373 25.34534
#
# Velocity S-wave (km/s) = 2.92508 3.69372 3.33164
# Velocity P-wave (km/s) = 4.98077 6.72950 5.92006
#
# Compressibility (1/GPa) = 0.03268247
#
# Stress axis : x y z
#
# Youngs Moduli (GPa) = 28.12851 54.96284 29.06725
#
# Poissons Ratio (x) = 0.70064 -0.02614
# Poissons Ratio (y) = 0.35857 0.46172
# Poissons Ratio (z) = -0.02530 0.87307
#
# Static dielectric constant tensor:
#      x y z
#    x 1.989750 0.000000 -0.059760 
#    y 0.000000 1.873320 0.000000 
#    z -0.059760 0.000000 1.864350 
# 
# From -- ./inp_files/16558.got.cif
#   From: 2010.05.17/outbox.cif.g08.bks.cpg/sg9_9_cif.got.tgz:16558.got - 2010.06.03 20:04:27.
