data_PCOD9136604
_publ_section_title
;
Structure prediction by ZEFSAII (Michael W. Deem and Ramdas Pophale) SiO2 
 PCOD9136604
Probable space group: C C
;
_chemical_formula_sum "Si O2"
_cell_formula_units_Z 32
_cell_length_a 22.486310
_cell_length_b 8.685484
_cell_length_c 14.910052
_cell_angle_alpha 90.000000
_cell_angle_beta 31.688970
_cell_angle_gamma 90.000000
_cell_volume 1529.696485
_symmetry_space_group_name_H-M "C C"
_symmetry_group_IT_number 9
_symmetry_cell_setting 'monoclinic'
loop_
_space_group_symop_operation_xyz
x,y,z
x,-y,1/2+z
1/2+x,1/2+y,z
1/2+x,1/2-y,1/2+z
loop_
_atom_site_type_symbol
_atom_site_label
_atom_site_fract_x
_atom_site_fract_y
_atom_site_fract_z
Si Si1 0.207480 0.128587 0.175890
Si Si2 0.261456 0.297929 0.473756
Si Si3 0.926281 0.568719 0.340240
Si Si4 0.306482 0.830608 0.733381
Si Si5 0.332912 0.366369 0.915335
Si Si6 0.531279 0.765388 0.866999
Si Si7 0.445924 0.107525 0.650653
Si Si8 0.455451 0.567871 0.438790
O O1 0.221837 0.119811 0.263630
O O2 0.085813 0.087616 0.296853
O O3 0.233237 0.296295 0.104034
O O4 0.313384 0.030753 0.002837
O O5 0.378534 0.224044 0.358239
O O6 0.238655 0.234620 0.404526
O O7 0.284995 0.477224 0.438217
O O8 0.159710 0.246130 0.668711
O O9 0.995033 0.478644 0.175414
O O10 0.985561 0.605014 0.356988
O O11 0.384468 0.693070 0.589484
O O12 0.375213 0.977046 0.686010
O O13 0.373094 0.247681 0.787165
O O14 0.428760 0.397084 0.868601
O O15 0.447238 0.617081 0.966155
O O16 0.529940 0.821283 0.970658
#
# Coordination Sequence:
#
# PCOD9136604 Si02
#       8
#     4   4   4   4   4   4   4   4
#     4  10  21  42  67  94 129 176 215 271 336 395
#     4  11  23  41  63  99 128 170 217 280 328 390
#     4  10  21  43  62  95 137 166 216 278 329 399
#     4  10  23  42  65  95 133 170 224 275 335 399
#     4  10  23  42  66  96 136 167 223 277 329 400
#     4  12  23  42  69  97 134 177 228 275 337 401
#     4  10  23  42  67  95 133 181 214 280 338 393
#     4  11  23  42  69  97 132 179 223 276 338 399
#
# _framework density 20.919183
#
# number of rings (size 3 to 8) (size 9 to 14) (size 15 to 20)
#    0.000    1.500    3.750    0.750    1.750    2.000 
#    4.500    3.750    0.000    0.000    0.000    0.000 
#    0.000    0.000    0.000    0.000    0.000    0.000 
#
# Total GULP energy -89208.193885 kJ/mol
# GULP energy per Si atom -5575.512118 kJ/mol
# Density = 2.087157 g / cm^3
# Si number density = 20.919183 Si / 1000 Ang^3
#
#
#
# Elastic Constant Matrix: (Units=GPa)
#
#
# Indices 1 2 3 4 5 6 
#
# 1 81.2574 14.7513 45.8810 -0.0001 22.9828 0.0001
# 2 14.7513 99.3423 27.3837 -0.0001 19.2449 0.0001
# 3 45.8810 27.3837 79.2899 0.0000 30.2545 0.0001
# 4 -0.0001 -0.0001 0.0000 15.1807 0.0000 4.2348
# 5 22.9828 19.2449 30.2545 0.0000 35.7392 0.0000
# 6 0.0001 0.0001 0.0001 4.2348 0.0000 20.9115
#
#
#
# Elastic Compliance Matrix: (Units=1/GPa)
#
#
# Indices 1 2 3 4 5 6 
#
# 1 0.018741 0.000667 -0.009364 0.000000 -0.004484 0.000000
# 2 0.000667 0.011559 -0.002717 0.000000 -0.004353 0.000000
# 3 -0.009364 -0.002717 0.023801 0.000000 -0.012663 0.000000
# 4 0.000000 0.000000 0.000000 0.069817 0.000000 -0.014139
# 5 -0.004484 -0.004353 -0.012663 0.000000 0.043928 0.000000
# 6 0.000000 0.000000 0.000000 -0.014139 0.000000 0.050684
#
#
# Mechanical properties :
#
#
# Convention : Reuss Voigt Hill
#
# Bulk Modulus (GPa) = 31.97605 48.43573 40.20589
# Shear Modulus (GPa) = 19.85843 25.82451 22.84147
#
# Velocity S-wave (km/s) = 3.08440 3.51734 3.30796
# Velocity P-wave (km/s) = 5.29182 6.30076 5.81820
#
# Compressibility (1/GPa) = 0.03127341
#
# Stress axis : x y z
#
# Youngs Moduli (GPa) = 53.35930 86.50915 42.01584
#
# Poissons Ratio (x) = -0.05770 0.39342
# Poissons Ratio (y) = -0.03559 0.11416
# Poissons Ratio (z) = 0.49964 0.23504
#
# Static dielectric constant tensor:
#      x y z
#    x 1.729670 0.000000 0.006980 
#    y 0.000000 1.899050 0.000000 
#    z 0.006980 0.000000 1.742290 
# 
# From -- ./inp_files/17834.got.cif
#   From: 2010.05.17/outbox.cif.g08.bks.cpg/sg9_9_cif.got.tgz:17834.got - 2010.06.03 20:04:27.
