data_PCOD9136356
_publ_section_title
;
Structure prediction by ZEFSAII (Michael W. Deem and Ramdas Pophale) SiO2 
 PCOD9136356
Probable space group: C C
;
_chemical_formula_sum "Si O2"
_cell_formula_units_Z 28
_cell_length_a 5.384034
_cell_length_b 26.400428
_cell_length_c 8.495865
_cell_angle_alpha 90.000000
_cell_angle_beta 119.589160
_cell_angle_gamma 90.000000
_cell_volume 1050.122792
_symmetry_space_group_name_H-M "C C"
_symmetry_group_IT_number 9
_symmetry_cell_setting 'monoclinic'
loop_
_space_group_symop_operation_xyz
x,y,z
x,-y,1/2+z
1/2+x,1/2+y,z
1/2+x,1/2-y,1/2+z
loop_
_atom_site_type_symbol
_atom_site_label
_atom_site_fract_x
_atom_site_fract_y
_atom_site_fract_z
Si Si1 0.615870 0.063472 0.990500
Si Si2 0.564947 0.300572 0.356833
Si Si3 0.291367 0.106402 0.582042
Si Si4 0.290704 0.204044 0.396494
Si Si5 0.613449 0.790175 0.687399
Si Si6 0.264820 0.552157 0.556406
Si Si7 0.072790 0.911195 0.450255
O O1 0.445480 0.088943 0.791458
O O2 0.405302 0.075849 0.065908
O O3 0.925727 0.088022 0.073857
O O4 0.680499 0.004685 0.986120
O O5 0.415221 0.261963 0.435453
O O6 0.527582 0.269210 0.186606
O O7 0.477329 0.357749 0.344935
O O8 0.905673 0.305778 0.484735
O O9 0.332493 0.165542 0.553425
O O10 0.468623 0.079038 0.501884
O O11 0.972811 0.083780 0.505677
O O12 0.469603 0.185192 0.298978
O O13 0.947772 0.204260 0.272941
O O14 0.439857 0.549982 0.779442
#
# Coordination Sequence:
#
# PCOD9136356 Si02
#       7
#     4   4   4   4   4   4   4
#     4  10  22  40  66  96 129 176 235 284 340 405
#     4  10  26  43  70 103 142 184 230 282 343 426
#     4  10  21  40  68  95 134 177 223 280 360 399
#     4  10  24  42  67 104 139 181 230 282 342 424
#     4  10  25  40  68  95 149 173 232 275 340 400
#     4  10  21  41  65  99 127 177 232 286 339 406
#     4  10  23  40  68  98 134 176 224 281 358 404
#
# _framework density 26.663547000000001
#
# number of rings (size 3 to 8) (size 9 to 14) (size 15 to 20)
#    0.857    1.143    0.000    1.714    8.000    1.143 
#    0.000   17.143    0.000    0.000    0.000    0.000 
#    0.000    0.000    0.000    0.000    0.000    0.000 
#
# Total GULP energy -78169.253182 kJ/mol
# GULP energy per Si atom -5583.518084 kJ/mol
# Density = 2.660286 g / cm^3
# Si number density = 26.663547 Si / 1000 Ang^3
#
#
#
# Elastic Constant Matrix: (Units=GPa)
#
#
# Indices 1 2 3 4 5 6 
#
# 1 255.9978 55.6650 36.7365 0.0000 38.5864 0.0000
# 2 55.6650 150.9067 17.1214 0.0000 -10.0240 0.0000
# 3 36.7365 17.1214 62.9273 0.0000 11.6789 0.0000
# 4 0.0000 0.0000 0.0000 33.5175 0.0000 -6.9538
# 5 38.5864 -10.0240 11.6789 0.0000 27.5886 0.0000
# 6 0.0000 0.0000 0.0000 -6.9538 0.0000 45.5173
#
#
#
# Elastic Compliance Matrix: (Units=1/GPa)
#
#
# Indices 1 2 3 4 5 6 
#
# 1 0.005984 -0.002669 -0.001122 0.000000 -0.008863 0.000000
# 2 -0.002669 0.008364 -0.002143 0.000000 0.007679 0.000000
# 3 -0.001122 -0.002143 0.018431 0.000000 -0.007011 0.000000
# 4 0.000000 0.000000 0.000000 0.030812 0.000000 0.004707
# 5 -0.008863 0.007679 -0.007011 0.000000 0.054402 0.000000
# 6 0.000000 0.000000 0.000000 0.004707 0.000000 0.022689
#
#
# Mechanical properties :
#
#
# Convention : Reuss Voigt Hill
#
# Bulk Modulus (GPa) = 47.82116 76.54194 62.18155
# Shear Modulus (GPa) = 31.34439 45.34527 38.34483
#
# Velocity S-wave (km/s) = 3.43235 4.12836 3.79634
# Velocity P-wave (km/s) = 5.80362 7.17589 6.52593
#
# Compressibility (1/GPa) = 0.02091124
#
# Stress axis : x y z
#
# Youngs Moduli (GPa) = 167.12469 119.55768 54.25717
#
# Poissons Ratio (x) = 0.31905 0.06088
# Poissons Ratio (y) = 0.44599 0.11627
# Poissons Ratio (z) = 0.18753 0.25620
#
# Static dielectric constant tensor:
#      x y z
#    x 2.247680 0.000000 -0.036490 
#    y 0.000000 2.145190 0.000000 
#    z -0.036490 0.000000 2.102780 
# 
# From -- ./inp_files/13566.got.cif
#   From: 2010.05.17/outbox.cif.g08.bks.cpg/sg9_7_cif.got.tgz:13566.got - 2010.06.03 20:04:27.
