data_PCOD9136898
_publ_section_title
;
Structure prediction by ZEFSAII (Michael W. Deem and Ramdas Pophale) SiO2 
 PCOD9136898
Probable space group: C C
;
_chemical_formula_sum "Si O2"
_cell_formula_units_Z 32
_cell_length_a 4.973555
_cell_length_b 29.094092
_cell_length_c 9.395250
_cell_angle_alpha 90.000000
_cell_angle_beta 61.984999
_cell_angle_gamma 90.000000
_cell_volume 1200.202489
_symmetry_space_group_name_H-M "C C"
_symmetry_group_IT_number 9
_symmetry_cell_setting 'monoclinic'
loop_
_space_group_symop_operation_xyz
x,y,z
x,-y,1/2+z
1/2+x,1/2+y,z
1/2+x,1/2-y,1/2+z
loop_
_atom_site_type_symbol
_atom_site_label
_atom_site_fract_x
_atom_site_fract_y
_atom_site_fract_z
Si Si1 0.915660 0.000080 0.284230
Si Si2 0.596699 0.563081 0.490180
Si Si3 0.984699 0.360419 0.775561
Si Si4 0.214474 0.134725 0.879057
Si Si5 0.752428 0.807121 0.362304
Si Si6 0.082799 0.368831 0.013301
Si Si7 0.239127 0.437915 0.568012
Si Si8 0.996276 0.789161 0.001196
O O1 0.109366 0.029023 0.350877
O O2 0.754976 0.033476 0.210713
O O3 0.091580 0.965976 0.134709
O O4 0.697904 0.970373 0.442112
O O5 0.848057 0.603860 0.436734
O O6 0.294719 0.592054 0.534025
O O7 0.006439 0.395484 0.643708
O O8 0.778360 0.316945 0.856354
O O9 0.278023 0.359347 0.801476
O O10 0.521338 0.152673 0.873659
O O11 0.287482 0.128401 0.695442
O O12 0.949767 0.174069 0.945912
O O13 0.063325 0.087654 0.969242
O O14 0.972882 0.792955 0.177983
O O15 0.545941 0.763402 0.450247
O O16 0.192982 0.316428 0.033426
#
# Coordination Sequence:
#
# PCOD9136898 Si02
#       8
#     4   4   4   4   4   4   4   4
#     4  10  23  45  64 103 143 183 253 302 369 448
#     4  10  22  43  66  96 136 189 234 305 367 437
#     4  11  22  42  71  97 142 186 242 296 376 435
#     4  11  26  46  72 105 148 193 243 305 372 441
#     4  11  26  46  73 107 147 191 250 303 367 444
#     4  10  21  45  68  97 140 190 235 299 367 439
#     4  11  25  44  70 108 144 194 246 309 377 436
#     4  10  25  43  70 105 142 192 241 305 363 442
#
# _framework density 26.662171000000001
#
# number of rings (size 3 to 8) (size 9 to 14) (size 15 to 20)
#    0.000    1.500    2.500    0.750    7.000    3.000 
#    9.000    0.000    0.000    0.000    0.000    0.000 
#    0.000    0.000    0.000    0.000    0.000    0.000 
#
# Total GULP energy -89201.588923 kJ/mol
# GULP energy per Si atom -5575.099308 kJ/mol
# Density = 2.660149 g / cm^3
# Si number density = 26.662171 Si / 1000 Ang^3
#
#
#
# Elastic Constant Matrix: (Units=GPa)
#
#
# Indices 1 2 3 4 5 6 
#
# 1 70.1156 25.5372 29.1356 0.0000 -4.2844 0.0000
# 2 25.5372 99.3328 66.0350 0.0000 10.3545 0.0000
# 3 29.1356 66.0350 132.2925 0.0000 38.2661 0.0000
# 4 0.0000 0.0000 0.0000 63.5702 0.0000 -13.3256
# 5 -4.2844 10.3545 38.2661 0.0000 31.3297 0.0000
# 6 0.0000 0.0000 0.0000 -13.3256 0.0000 42.3893
#
#
#
# Elastic Compliance Matrix: (Units=1/GPa)
#
#
# Indices 1 2 3 4 5 6 
#
# 1 0.018103 -0.001592 -0.006279 0.000000 0.010671 0.000000
# 2 -0.001592 0.016116 -0.009417 0.000000 0.005958 0.000000
# 3 -0.006279 -0.009417 0.020087 0.000000 -0.022281 0.000000
# 4 0.000000 0.000000 0.000000 0.016840 0.000000 0.005294
# 5 0.010671 0.005958 -0.022281 0.000000 0.058622 0.000000
# 6 0.000000 0.000000 0.000000 0.005294 0.000000 0.025255
#
#
# Mechanical properties :
#
#
# Convention : Reuss Voigt Hill
#
# Bulk Modulus (GPa) = 50.68413 60.35071 55.51742
# Shear Modulus (GPa) = 25.48723 39.52672 32.50697
#
# Velocity S-wave (km/s) = 3.09517 3.85450 3.49552
# Velocity P-wave (km/s) = 5.64132 6.51875 6.09584
#
# Compressibility (1/GPa) = 0.01973004
#
# Stress axis : x y z
#
# Youngs Moduli (GPa) = 55.23880 62.05107 49.78318
#
# Poissons Ratio (x) = 0.09882 0.31257
# Poissons Ratio (y) = 0.08797 0.46880
# Poissons Ratio (z) = 0.34682 0.58433
#
# Static dielectric constant tensor:
#      x y z
#    x 2.066970 0.000000 -0.039360 
#    y 0.000000 2.059480 0.000000 
#    z -0.039360 0.000000 2.299150 
# 
# From -- ./inp_files/4445.got.cif
#   From: 2010.05.17/outbox.cif.g08.bks.cpg/sg9_3_cif.got.tgz:4445.got - 2010.06.03 20:04:27.
