data_PCOD9136358
_publ_section_title
;
Structure prediction by ZEFSAII (Michael W. Deem and Ramdas Pophale) SiO2 
 PCOD9136358
Probable space group: C C
;
_chemical_formula_sum "Si O2"
_cell_formula_units_Z 32
_cell_length_a 11.958290
_cell_length_b 10.440558
_cell_length_c 15.698796
_cell_angle_alpha 90.000000
_cell_angle_beta 140.939626
_cell_angle_gamma 90.000000
_cell_volume 1235.081042
_symmetry_space_group_name_H-M "C C"
_symmetry_group_IT_number 9
_symmetry_cell_setting 'monoclinic'
loop_
_space_group_symop_operation_xyz
x,y,z
x,-y,1/2+z
1/2+x,1/2+y,z
1/2+x,1/2-y,1/2+z
loop_
_atom_site_type_symbol
_atom_site_label
_atom_site_fract_x
_atom_site_fract_y
_atom_site_fract_z
Si Si1 0.708110 0.079803 0.841900
Si Si2 0.212080 0.239728 0.182211
Si Si3 0.555010 0.150540 0.315379
Si Si4 0.545018 0.051839 0.501999
Si Si5 0.303880 0.171781 0.865839
Si Si6 0.147236 0.235387 0.467524
Si Si7 0.899628 0.095830 0.210719
Si Si8 0.043108 0.021541 0.623428
O O1 0.729236 0.175266 0.776425
O O2 0.675610 0.167065 0.905718
O O3 0.559186 0.967536 0.751029
O O4 0.885372 0.995972 0.963384
O O5 0.380317 0.237412 0.219481
O O6 0.175831 0.092550 0.178278
O O7 0.044599 0.306818 0.039848
O O8 0.566663 0.079531 0.414026
O O9 0.715641 0.246183 0.387782
O O10 0.377606 0.969240 0.431337
O O11 0.723665 0.978080 0.638652
O O12 0.478342 0.228364 0.925405
O O13 0.152103 0.150523 0.703713
O O14 0.064642 0.111035 0.372341
O O15 0.321969 0.266781 0.628018
O O16 0.964820 0.016486 0.168457
#
# Coordination Sequence:
#
# PCOD9136358 Si02
#       8
#     4   4   4   4   4   4   4   4
#     4  11  24  45  72 104 143 189 242 301 372 437
#     4  12  25  43  75 106 143 193 246 297 375 439
#     4  12  25  47  72 104 150 191 241 304 362 439
#     4  11  24  47  66 105 149 187 246 310 361 440
#     4  11  25  44  72 100 144 195 235 297 373 432
#     4  10  21  44  67 103 136 193 236 304 359 436
#     4  10  21  40  68  95 143 183 238 299 361 429
#     4  11  21  42  70  97 142 185 232 302 361 428
#
# _framework density 25.909230999999998
#
# number of rings (size 3 to 8) (size 9 to 14) (size 15 to 20)
#    0.000    1.000    6.250    1.500    1.750    3.000 
#    0.000    1.250    0.000    0.000    0.000    0.000 
#    0.000    0.000    0.000    0.000    0.000    0.000 
#
# Total GULP energy -89408.920274 kJ/mol
# GULP energy per Si atom -5588.057517 kJ/mol
# Density = 2.585026 g / cm^3
# Si number density = 25.909231 Si / 1000 Ang^3
#
#
#
# Elastic Constant Matrix: (Units=GPa)
#
#
# Indices 1 2 3 4 5 6 
#
# 1 107.9467 33.4227 33.1409 0.0000 24.9240 0.0000
# 2 33.4227 67.4260 23.3866 0.0000 8.0392 0.0000
# 3 33.1409 23.3866 52.8129 0.0001 4.4091 0.0000
# 4 0.0000 0.0000 0.0001 45.8264 0.0000 9.9713
# 5 24.9240 8.0392 4.4091 0.0000 28.7669 0.0000
# 6 0.0000 0.0000 0.0000 9.9713 0.0000 39.7820
#
#
#
# Elastic Compliance Matrix: (Units=1/GPa)
#
#
# Indices 1 2 3 4 5 6 
#
# 1 0.015072 -0.003783 -0.006868 0.000000 -0.010948 0.000000
# 2 -0.003783 0.018882 -0.005896 0.000000 -0.001095 0.000000
# 3 -0.006868 -0.005896 0.025548 0.000000 0.003683 0.000000
# 4 0.000000 0.000000 0.000000 0.023080 0.000000 -0.005785
# 5 -0.010948 -0.001095 0.003683 0.000000 0.043990 0.000000
# 6 0.000000 0.000000 0.000000 -0.005785 0.000000 0.026587
#
#
# Mechanical properties :
#
#
# Convention : Reuss Voigt Hill
#
# Bulk Modulus (GPa) = 37.86901 45.34290 41.60595
# Shear Modulus (GPa) = 25.63362 32.09073 28.86217
#
# Velocity S-wave (km/s) = 3.14883 3.52317 3.34124
# Velocity P-wave (km/s) = 5.27901 5.83857 5.56583
#
# Compressibility (1/GPa) = 0.02640682
#
# Stress axis : x y z
#
# Youngs Moduli (GPa) = 66.34889 52.96053 39.14185
#
# Poissons Ratio (x) = 0.20037 0.26884
# Poissons Ratio (y) = 0.25102 0.23077
# Poissons Ratio (z) = 0.45571 0.31224
#
# Static dielectric constant tensor:
#      x y z
#    x 2.017540 0.000000 0.004290 
#    y 0.000000 2.128470 0.000000 
#    z 0.004290 0.000000 2.134460 
# 
# From -- ./inp_files/16225.got.cif
#   From: 2010.05.17/outbox.cif.g08.bks.cpg/sg9_9_cif.got.tgz:16225.got - 2010.06.03 20:04:27.
