data_PCOD9136827
_publ_section_title
;
Structure prediction by ZEFSAII (Michael W. Deem and Ramdas Pophale) SiO2 
 PCOD9136827
Probable space group: C C
;
_chemical_formula_sum "Si O2"
_cell_formula_units_Z 32
_cell_length_a 23.956428
_cell_length_b 6.469751
_cell_length_c 17.316388
_cell_angle_alpha 90.000000
_cell_angle_beta 149.794702
_cell_angle_gamma 90.000000
_cell_volume 1350.271609
_symmetry_space_group_name_H-M "C C"
_symmetry_group_IT_number 9
_symmetry_cell_setting 'monoclinic'
loop_
_space_group_symop_operation_xyz
x,y,z
x,-y,1/2+z
1/2+x,1/2+y,z
1/2+x,1/2-y,1/2+z
loop_
_atom_site_type_symbol
_atom_site_label
_atom_site_fract_x
_atom_site_fract_y
_atom_site_fract_z
Si Si1 0.399590 0.904562 0.867250
Si Si2 0.140325 0.422723 0.625392
Si Si3 0.144184 0.760199 0.892013
Si Si4 0.858610 0.414544 0.084186
Si Si5 0.998783 0.172073 0.357075
Si Si6 0.851085 0.732998 0.936481
Si Si7 0.777054 0.926304 0.139119
Si Si8 0.444702 0.640556 0.063763
O O1 0.320430 0.808463 0.706205
O O2 0.393486 0.732129 0.926131
O O3 0.356862 0.108188 0.862089
O O4 0.531957 0.935345 0.011079
O O5 0.234157 0.356729 0.798671
O O6 0.211062 0.509391 0.637854
O O7 0.078466 0.214339 0.523527
O O8 0.240426 0.908342 0.980206
O O9 0.078760 0.882129 0.881811
O O10 0.058077 0.743214 0.719377
O O11 0.194559 0.538818 0.978462
O O12 0.867191 0.588331 0.029924
O O13 0.870776 0.201934 0.049285
O O14 0.947775 0.385959 0.259287
O O15 0.894335 0.038985 0.258586
O O16 0.949656 0.898226 0.058636
#
# Coordination Sequence:
#
# PCOD9136827 Si02
#       8
#     4   4   4   4   4   4   4   4
#     4  11  25  41  67 102 143 182 235 292 353 421
#     4  11  23  40  69 100 135 190 227 283 363 411
#     4   9  20  40  74  94 132 190 227 293 356 407
#     4   9  21  42  67  97 135 180 234 288 348 418
#     4   9  20  43  66  93 141 176 231 295 339 416
#     4  11  24  42  68 106 142 183 236 290 349 427
#     4  10  21  44  68  98 139 182 236 293 347 420
#     4  10  22  42  67  96 145 177 232 294 345 426
#
# _framework density 23.698934999999999
#
# number of rings (size 3 to 8) (size 9 to 14) (size 15 to 20)
#    0.000    2.000    1.250    0.750    3.500    1.000 
#    6.750    0.000   24.750    0.000    0.000    0.000 
#    0.000    0.000    0.000    0.000    0.000    0.000 
#
# Total GULP energy -89132.611097 kJ/mol
# GULP energy per Si atom -5570.788194 kJ/mol
# Density = 2.364500 g / cm^3
# Si number density = 23.698935 Si / 1000 Ang^3
#
#
#
# Elastic Constant Matrix: (Units=GPa)
#
#
# Indices 1 2 3 4 5 6 
#
# 1 77.8521 33.2744 27.5103 0.0000 30.3220 0.0000
# 2 33.2744 98.7434 41.4954 0.0000 -4.8337 0.0000
# 3 27.5103 41.4954 132.7914 0.0000 4.4316 0.0000
# 4 0.0000 0.0000 0.0000 36.3121 0.0000 -2.1739
# 5 30.3220 -4.8337 4.4316 0.0000 45.2289 0.0000
# 6 0.0000 0.0000 0.0000 -2.1739 0.0000 9.6166
#
#
#
# Elastic Compliance Matrix: (Units=1/GPa)
#
#
# Indices 1 2 3 4 5 6 
#
# 1 0.023121 -0.007823 -0.001806 0.000000 -0.016159 0.000000
# 2 -0.007823 0.014423 -0.003123 0.000000 0.007092 0.000000
# 3 -0.001806 -0.003123 0.008880 0.000000 0.000007 0.000000
# 4 0.000000 0.000000 0.000000 0.027917 0.000000 0.006311
# 5 -0.016159 0.007092 0.000007 0.000000 0.033700 0.000000
# 6 0.000000 0.000000 0.000000 0.006311 0.000000 0.105413
#
#
# Mechanical properties :
#
#
# Convention : Reuss Voigt Hill
#
# Bulk Modulus (GPa) = 47.80173 57.10521 52.45347
# Shear Modulus (GPa) = 20.33081 32.03865 26.18473
#
# Velocity S-wave (km/s) = 2.93213 3.68081 3.32760
# Velocity P-wave (km/s) = 5.62827 6.49715 6.07825
#
# Compressibility (1/GPa) = 0.02091975
#
# Stress axis : x y z
#
# Youngs Moduli (GPa) = 43.25165 69.33340 112.60763
#
# Poissons Ratio (x) = 0.54241 0.20336
# Poissons Ratio (y) = 0.33837 0.35167
# Poissons Ratio (z) = 0.07811 0.21653
#
# Static dielectric constant tensor:
#      x y z
#    x 1.940350 0.000000 0.005020 
#    y 0.000000 1.933370 0.000000 
#    z 0.005020 0.000000 1.948270 
# 
# From -- ./inp_files/34586.got.cif
#   From: 2010.05.17/outbox.cif.g08.bks.cpg/sg9_18_cif.got.tgz:34586.got - 2010.06.03 20:04:27.
