data_PCOD9136454
_publ_section_title
;
Structure prediction by ZEFSAII (Michael W. Deem and Ramdas Pophale) SiO2 
 PCOD9136454
Probable space group: C C
;
_chemical_formula_sum "Si O2"
_cell_formula_units_Z 28
_cell_length_a 15.185452
_cell_length_b 9.121935
_cell_length_c 13.250384
_cell_angle_alpha 90.000000
_cell_angle_beta 42.405079
_cell_angle_gamma 90.000000
_cell_volume 1237.770180
_symmetry_space_group_name_H-M "C C"
_symmetry_group_IT_number 9
_symmetry_cell_setting 'monoclinic'
loop_
_space_group_symop_operation_xyz
x,y,z
x,-y,1/2+z
1/2+x,1/2+y,z
1/2+x,1/2-y,1/2+z
loop_
_atom_site_type_symbol
_atom_site_label
_atom_site_fract_x
_atom_site_fract_y
_atom_site_fract_z
Si Si1 0.323400 0.392382 0.313560
Si Si2 0.726839 0.433081 0.157743
Si Si3 0.628426 0.735365 0.244794
Si Si4 0.019995 0.533705 0.371316
Si Si5 0.228654 0.323242 0.810472
Si Si6 0.849573 0.833258 0.911924
Si Si7 0.581093 0.768915 0.627721
O O1 0.307502 0.521139 0.243232
O O2 0.348439 0.492108 0.392781
O O3 0.442491 0.281417 0.199767
O O4 0.188799 0.312603 0.454587
O O5 0.658168 0.575248 0.264288
O O6 0.760351 0.301862 0.204985
O O7 0.638245 0.366246 0.144456
O O8 0.866053 0.477596 0.996380
O O9 0.500294 0.713154 0.282224
O O10 0.578070 0.875393 0.346712
O O11 0.763630 0.787992 0.079901
O O12 0.079674 0.636539 0.408577
O O13 0.064414 0.601380 0.225606
O O14 0.264842 0.268938 0.890750
#
# Coordination Sequence:
#
# PCOD9136454 Si02
#       7
#     4   4   4   4   4   4   4
#     4  10  21  41  66 100 129 174 218 276 325 401
#     4  11  22  39  68  99 131 178 221 273 335 394
#     4  12  22  42  66  98 129 180 228 262 328 399
#     4  11  22  39  63  99 133 170 216 281 324 399
#     4   9  24  42  62  92 137 172 213 278 342 375
#     4  10  23  41  65  95 131 171 217 278 316 399
#     4  11  20  40  72  95 128 173 229 258 334 399
#
# _framework density 22.621323
#
# number of rings (size 3 to 8) (size 9 to 14) (size 15 to 20)
#    0.857    0.571    5.714    0.000    2.000    0.000 
#    2.571    1.429    0.000    0.000    0.000    0.000 
#    0.000    0.000    0.000    0.000    0.000    0.000 
#
# Total GULP energy -78008.250928 kJ/mol
# GULP energy per Si atom -5572.017923 kJ/mol
# Density = 2.256984 g / cm^3
# Si number density = 22.621323 Si / 1000 Ang^3
#
#
#
# Elastic Constant Matrix: (Units=GPa)
#
#
# Indices 1 2 3 4 5 6 
#
# 1 60.6812 30.8565 22.1117 0.0000 -15.5114 0.0000
# 2 30.8565 122.0199 53.0358 0.0000 -8.5845 0.0000
# 3 22.1117 53.0358 101.1727 0.0000 -32.6418 0.0000
# 4 0.0000 0.0000 0.0000 33.3885 0.0000 -13.1070
# 5 -15.5114 -8.5845 -32.6418 0.0000 19.6105 0.0000
# 6 0.0000 0.0000 0.0000 -13.1070 0.0000 35.1826
#
#
#
# Elastic Compliance Matrix: (Units=1/GPa)
#
#
# Indices 1 2 3 4 5 6 
#
# 1 0.025266 -0.007952 0.008577 0.000000 0.030781 0.000000
# 2 -0.007952 0.014102 -0.012295 0.000000 -0.020581 0.000000
# 3 0.008577 -0.012295 0.032198 0.000000 0.054997 0.000000
# 4 0.000000 0.000000 0.000000 0.035081 0.000000 0.013069
# 5 0.030781 -0.020581 0.054997 0.000000 0.157873 0.000000
# 6 0.000000 0.000000 0.000000 0.013069 0.000000 0.033292
#
#
# Mechanical properties :
#
#
# Convention : Reuss Voigt Hill
#
# Bulk Modulus (GPa) = 20.73486 55.09797 37.91641
# Shear Modulus (GPa) = 14.82683 29.49431 22.16057
#
# Velocity S-wave (km/s) = 2.56293 3.61477 3.13330
# Velocity P-wave (km/s) = 4.23605 6.46774 5.46698
#
# Compressibility (1/GPa) = 0.04822795
#
# Stress axis : x y z
#
# Youngs Moduli (GPa) = 39.57920 70.91075 31.05745
#
# Poissons Ratio (x) = 0.56387 -0.26639
# Poissons Ratio (y) = 0.31473 0.38185
# Poissons Ratio (z) = -0.33949 0.87184
#
# Static dielectric constant tensor:
#      x y z
#    x 1.904940 0.000000 0.025810 
#    y 0.000000 1.886060 0.000000 
#    z 0.025810 0.000000 1.819360 
# 
# From -- ./inp_files/30967.got.cif
#   From: 2010.05.17/outbox.cif.g08.bks.cpg/sg9_16_cif.got.tgz:30967.got - 2010.06.03 20:04:27.
