data_PCOD9136914
_publ_section_title
;
Structure prediction by ZEFSAII (Michael W. Deem and Ramdas Pophale) SiO2 
 PCOD9136914
Probable space group: C C
;
_chemical_formula_sum "Si O2"
_cell_formula_units_Z 28
_cell_length_a 19.396824
_cell_length_b 5.435385
_cell_length_c 10.733207
_cell_angle_alpha 90.000000
_cell_angle_beta 70.912421
_cell_angle_gamma 90.000000
_cell_volume 1069.378288
_symmetry_space_group_name_H-M "C C"
_symmetry_group_IT_number 9
_symmetry_cell_setting 'monoclinic'
loop_
_space_group_symop_operation_xyz
x,y,z
x,-y,1/2+z
1/2+x,1/2+y,z
1/2+x,1/2-y,1/2+z
loop_
_atom_site_type_symbol
_atom_site_label
_atom_site_fract_x
_atom_site_fract_y
_atom_site_fract_z
Si Si1 0.756210 0.437721 0.530910
Si Si2 0.939012 0.695556 0.296206
Si Si3 0.144561 0.650111 0.865135
Si Si4 0.788210 0.942327 0.373145
Si Si5 0.526328 0.443655 0.057680
Si Si6 0.609313 0.831417 0.125652
Si Si7 0.408335 0.923558 0.562559
O O1 0.764539 0.719884 0.481739
O O2 0.672591 0.376469 0.613924
O O3 0.823396 0.400949 0.584417
O O4 0.774184 0.223936 0.419239
O O5 0.874772 0.897936 0.314534
O O6 0.938811 0.598771 0.435856
O O7 0.913821 0.502138 0.204180
O O8 0.014162 0.791045 0.193650
O O9 0.231588 0.623273 0.795735
O O10 0.105593 0.555007 0.764520
O O11 0.098102 0.891550 0.931773
O O12 0.134707 0.499004 0.997966
O O13 0.538401 0.708537 0.108262
O O14 0.456577 0.329844 0.026113
#
# Coordination Sequence:
#
# PCOD9136914 Si02
#       7
#     4   4   4   4   4   4   4
#     4  10  21  45  75 110 148 197 258 323 376 465
#     4   9  21  43  71 103 149 192 251 313 382 455
#     4  11  25  44  75 107 147 203 254 317 383 469
#     4  10  21  45  73 112 145 202 258 317 383 456
#     4  10  24  46  71 108 146 195 249 314 385 455
#     4  11  25  48  74 105 151 198 258 315 391 457
#     4   9  21  43  71 107 144 197 248 311 386 453
#
# _framework density 26.183439
#
# number of rings (size 3 to 8) (size 9 to 14) (size 15 to 20)
#    0.857    1.143    1.429    0.857    2.000    2.286 
#    7.714   20.000    3.143    0.000    0.000    0.000 
#    0.000    0.000    0.000    0.000    0.000    0.000 
#
# Total GULP energy -77964.071804 kJ/mol
# GULP energy per Si atom -5568.862272 kJ/mol
# Density = 2.612384 g / cm^3
# Si number density = 26.183439 Si / 1000 Ang^3
#
#
#
# Elastic Constant Matrix: (Units=GPa)
#
#
# Indices 1 2 3 4 5 6 
#
# 1 -3.4146 83.5816 -40.0982 0.0000 -4.8383 0.0000
# 2 83.5816 29.3228 41.5990 0.0000 9.1039 0.0000
# 3 -40.0982 41.5990 87.8250 0.0000 0.2064 0.0000
# 4 0.0000 0.0000 0.0000 -1.2903 0.0000 -38.5196
# 5 -4.8383 9.1039 0.2064 0.0000 40.1355 0.0000
# 6 0.0000 0.0000 0.0000 -38.5196 0.0000 16.1023
#
#
#
# Elastic Compliance Matrix: (Units=1/GPa)
#
#
# Indices 1 2 3 4 5 6 
#
# 1 -0.000696 0.009499 -0.004812 0.000000 -0.002214 0.000000
# 2 0.009499 0.002042 0.003368 0.000000 0.000665 0.000000
# 3 -0.004812 0.003368 0.007597 0.000000 -0.001383 0.000000
# 4 0.000000 0.000000 0.000000 -0.010702 0.000000 -0.025602
# 5 -0.002214 0.000665 -0.001383 0.000000 0.024505 0.000000
# 6 0.000000 0.000000 0.000000 -0.025602 0.000000 0.000858
#
#
# Mechanical properties :
#
#
# Convention : Reuss Voigt Hill
#
# Bulk Modulus (GPa) = 39.91487 31.54423 35.72955
# Shear Modulus (GPa) = 315.57238 12.89955 164.23596
#
# Velocity S-wave (km/s) = 10.99024 2.22200 7.92851
# Velocity P-wave (km/s) = 13.27872 4.31933 9.87373
#
# Compressibility (1/GPa) = 0.02505332
#
# Stress axis : x y z
#
# Youngs Moduli (GPa) = -1435.90558 489.62712 131.62813
#
# Poissons Ratio (x) = -4.65104 0.63341
# Poissons Ratio (y) = 13.63988 -0.44333
# Poissons Ratio (z) = -6.90973 -1.64910
#
# Static dielectric constant tensor:
#      x y z
#    x 2.128760 0.000000 -0.073960 
#    y 0.000000 2.326310 0.000000 
#    z -0.073960 0.000000 2.109370 
# 
# From -- ./inp_files/19777.got.cif
#   From: 2010.05.17/outbox.cif.g08.bks.cpg/sg9_10_cif.got.tgz:19777.got - 2010.06.03 20:04:27.
