data_PCOD9136866
_publ_section_title
;
Structure prediction by ZEFSAII (Michael W. Deem and Ramdas Pophale) SiO2 
 PCOD9136866
Probable space group: C C
;
_chemical_formula_sum "Si O2"
_cell_formula_units_Z 32
_cell_length_a 23.080148
_cell_length_b 4.893002
_cell_length_c 25.700740
_cell_angle_alpha 90.000000
_cell_angle_beta 153.078918
_cell_angle_gamma 90.000000
_cell_volume 1314.105894
_symmetry_space_group_name_H-M "C C"
_symmetry_group_IT_number 9
_symmetry_cell_setting 'monoclinic'
loop_
_space_group_symop_operation_xyz
x,y,z
x,-y,1/2+z
1/2+x,1/2+y,z
1/2+x,1/2-y,1/2+z
loop_
_atom_site_type_symbol
_atom_site_label
_atom_site_fract_x
_atom_site_fract_y
_atom_site_fract_z
Si Si1 0.770050 0.822710 0.644490
Si Si2 0.242332 0.639211 0.237364
Si Si3 0.938070 0.025817 0.573543
Si Si4 0.536843 0.499896 0.331308
Si Si5 0.604797 0.967201 0.221618
Si Si6 0.603053 0.315150 0.499412
Si Si7 0.169679 0.498457 0.389838
Si Si8 0.968892 0.122748 0.481101
O O1 0.799563 0.923175 0.726900
O O2 0.728604 0.506997 0.609795
O O3 0.646507 0.002604 0.531194
O O4 0.893127 0.890449 0.708940
O O5 0.195834 0.423536 0.244143
O O6 0.358901 0.786933 0.361404
O O7 0.106438 0.760417 0.109142
O O8 0.909043 0.061193 0.489192
O O9 0.058888 0.218138 0.683444
O O10 0.816210 0.093047 0.510973
O O11 0.979699 0.714933 0.613527
O O12 0.553453 0.398864 0.403471
O O13 0.632729 0.748595 0.396883
O O14 0.575374 0.248099 0.325860
O O15 0.655507 0.899952 0.319012
O O16 0.509786 0.384468 0.473144
#
# Coordination Sequence:
#
# PCOD9136866 Si02
#       8
#     4   4   4   4   4   4   4   4
#     4  11  24  44  68  99 134 178 223 286 345 412
#     4  10  21  44  73 108 140 180 226 286 352 416
#     4  11  24  44  68  99 134 178 223 286 345 412
#     4  12  26  43  66  97 132 182 232 284 336 406
#     4  11  24  44  68  99 134 178 223 286 345 412
#     4  11  24  44  68  99 134 178 223 286 345 412
#     4  12  26  43  66  97 132 182 232 284 336 406
#     4  10  21  44  73 108 140 180 226 286 352 416
#
# _framework density 24.351156
#
# number of rings (size 3 to 8) (size 9 to 14) (size 15 to 20)
#    0.000    1.000    2.500    3.750    0.000    6.000 
#    4.500    2.500    0.000    0.000    0.000    0.000 
#    0.000    0.000    0.000    0.000    0.000    0.000 
#
# Total GULP energy -89360.595597 kJ/mol
# GULP energy per Si atom -5585.037225 kJ/mol
# Density = 2.429573 g / cm^3
# Si number density = 24.351156 Si / 1000 Ang^3
#
#
#
# Elastic Constant Matrix: (Units=GPa)
#
#
# Indices 1 2 3 4 5 6 
#
# 1 84.4254 3.2595 16.8710 -0.0012 4.9836 -0.0027
# 2 3.2595 54.9341 -2.4949 0.0098 0.5066 0.0058
# 3 16.8710 -2.4949 100.8009 -0.0006 -2.9425 0.0010
# 4 -0.0012 0.0098 -0.0006 21.4996 0.0055 11.0479
# 5 4.9836 0.5066 -2.9425 0.0055 40.1226 0.0008
# 6 -0.0027 0.0058 0.0010 11.0479 0.0008 9.4759
#
#
#
# Elastic Compliance Matrix: (Units=1/GPa)
#
#
# Indices 1 2 3 4 5 6 
#
# 1 0.012405 -0.000818 -0.002146 -0.000002 -0.001688 0.000007
# 2 -0.000818 0.018280 0.000587 -0.000006 -0.000086 -0.000004
# 3 -0.002146 0.000587 0.010324 0.000002 0.001016 -0.000004
# 4 -0.000002 -0.000006 0.000002 0.116026 -0.000013 -0.135275
# 5 -0.001688 -0.000086 0.001016 -0.000013 0.025209 0.000012
# 6 0.000007 -0.000004 -0.000004 -0.135275 0.000012 0.263248
#
#
# Mechanical properties :
#
#
# Convention : Reuss Voigt Hill
#
# Bulk Modulus (GPa) = 27.58269 30.60352 29.09310
# Shear Modulus (GPa) = 10.81479 29.05460 19.93469
#
# Velocity S-wave (km/s) = 2.10970 3.45795 2.86428
# Velocity P-wave (km/s) = 4.15765 5.34210 4.78666
#
# Compressibility (1/GPa) = 0.03625463
#
# Stress axis : x y z
#
# Youngs Moduli (GPa) = 80.61418 54.70580 96.86304
#
# Poissons Ratio (x) = 0.04475 0.20784
# Poissons Ratio (y) = 0.06594 -0.05684
# Poissons Ratio (z) = 0.17297 -0.03210
#
# Static dielectric constant tensor:
#      x y z
#    x 1.945710 0.000000 0.029850 
#    y 0.000000 1.893110 0.000000 
#    z 0.029850 0.000000 1.976100 
# 
# From -- ./inp_files/19708.got.cif
#   From: 2010.05.17/outbox.cif.g08.bks.cpg/sg9_10_cif.got.tgz:19708.got - 2010.06.03 20:04:27.
