data_PCOD9136442
_publ_section_title
;
Structure prediction by ZEFSAII (Michael W. Deem and Ramdas Pophale) SiO2 
 PCOD9136442
Probable space group: C C
;
_chemical_formula_sum "Si O2"
_cell_formula_units_Z 28
_cell_length_a 22.752079
_cell_length_b 4.960125
_cell_length_c 20.226726
_cell_angle_alpha 90.000000
_cell_angle_beta 154.722981
_cell_angle_gamma 90.000000
_cell_volume 974.680550
_symmetry_space_group_name_H-M "C C"
_symmetry_group_IT_number 9
_symmetry_cell_setting 'monoclinic'
loop_
_space_group_symop_operation_xyz
x,y,z
x,-y,1/2+z
1/2+x,1/2+y,z
1/2+x,1/2-y,1/2+z
loop_
_atom_site_type_symbol
_atom_site_label
_atom_site_fract_x
_atom_site_fract_y
_atom_site_fract_z
Si Si1 0.877850 0.311429 0.748660
Si Si2 0.049655 0.200242 0.429141
Si Si3 0.775750 0.694957 0.867367
Si Si4 0.650137 0.689151 0.385435
Si Si5 0.713726 0.052204 0.696647
Si Si6 0.882152 0.080184 0.613528
Si Si7 0.037727 0.435497 0.133362
O O1 0.910513 0.624238 0.786815
O O2 0.782057 0.235884 0.711682
O O3 0.831194 0.237763 0.626975
O O4 0.008923 0.111833 0.890623
O O5 0.115979 0.276812 0.425952
O O6 0.132413 0.322367 0.573540
O O7 0.613029 0.766763 0.705676
O O8 0.817374 0.887337 0.848980
O O9 0.829090 0.785151 0.993397
O O10 0.874017 0.438287 0.958089
O O11 0.548219 0.427467 0.282506
O O12 0.809290 0.784796 0.540877
O O13 0.586451 0.819302 0.253106
O O14 0.611238 0.196641 0.644454
#
# Coordination Sequence:
#
# PCOD9136442 Si02
#       7
#     4   4   4   4   4   4   4
#     4  11  24  44  70 100 138 179 228 281 343 405
#     4  11  24  44  70 100 138 179 228 281 343 405
#     4   9  20  38  62  94 131 178 230 282 341 404
#     4  10  21  41  64  97 136 178 234 285 342 404
#     4  10  22  40  64  96 144 172 234 276 346 410
#     4  10  21  41  64  97 136 178 234 285 342 404
#     4   9  20  38  62  94 131 178 230 282 341 404
#
# _framework density 28.727363
#
# number of rings (size 3 to 8) (size 9 to 14) (size 15 to 20)
#    0.857    1.143    1.429    1.714    0.000    3.429 
#    2.571    2.857    0.000    0.000    0.000    0.000 
#    0.000    0.000    0.000    0.000    0.000    0.000 
#
# Total GULP energy -78246.539754 kJ/mol
# GULP energy per Si atom -5589.038554 kJ/mol
# Density = 2.866198 g / cm^3
# Si number density = 28.727363 Si / 1000 Ang^3
#
#
#
# Elastic Constant Matrix: (Units=GPa)
#
#
# Indices 1 2 3 4 5 6 
#
# 1 215.1852 23.2443 61.9134 0.0012 -27.4559 0.0002
# 2 23.2443 56.2858 20.5896 0.0067 -8.0507 0.0028
# 3 61.9134 20.5896 104.2910 0.0016 -18.7555 0.0009
# 4 0.0012 0.0067 0.0016 30.4805 0.0001 1.5919
# 5 -27.4559 -8.0507 -18.7555 0.0001 57.1521 -0.0002
# 6 0.0002 0.0028 0.0009 1.5919 -0.0002 43.7381
#
#
#
# Elastic Compliance Matrix: (Units=1/GPa)
#
#
# Indices 1 2 3 4 5 6 
#
# 1 0.005825 -0.001090 -0.002941 0.000000 0.001680 0.000000
# 2 -0.001090 0.019483 -0.002976 -0.000004 0.001244 -0.000001
# 3 -0.002941 -0.002976 0.012320 0.000000 0.002211 0.000000
# 4 0.000000 -0.000004 0.000000 0.032870 -0.000001 -0.001196
# 5 0.001680 0.001244 0.002211 -0.000001 0.019205 0.000000
# 6 0.000000 -0.000001 0.000000 -0.001196 0.000000 0.022907
#
#
# Mechanical properties :
#
#
# Convention : Reuss Voigt Hill
#
# Bulk Modulus (GPa) = 42.34571 65.25072 53.79822
# Shear Modulus (GPa) = 37.17613 44.27513 40.72563
#
# Velocity S-wave (km/s) = 3.60127 3.93009 3.76927
# Velocity P-wave (km/s) = 5.66257 6.58462 6.14093
#
# Compressibility (1/GPa) = 0.02361514
#
# Stress axis : x y z
#
# Youngs Moduli (GPa) = 171.66168 51.32687 81.17108
#
# Poissons Ratio (x) = 0.05592 0.23873
# Poissons Ratio (y) = 0.18704 0.24155
# Poissons Ratio (z) = 0.50487 0.15274
#
# Static dielectric constant tensor:
#      x y z
#    x 2.168540 0.000000 0.058220 
#    y 0.000000 2.338690 0.000000 
#    z 0.058220 0.000000 2.247610 
# 
# From -- ./inp_files/20438.got.cif
#   From: 2010.05.17/outbox.cif.g08.bks.cpg/sg9_11_cif.got.tgz:20438.got - 2010.06.03 20:04:27.
