data_PCOD9136778
_publ_section_title
;
Structure prediction by ZEFSAII (Michael W. Deem and Ramdas Pophale) SiO2 
 PCOD9136778
Probable space group: C C
;
_chemical_formula_sum "Si O2"
_cell_formula_units_Z 28
_cell_length_a 9.104862
_cell_length_b 12.986055
_cell_length_c 15.550488
_cell_angle_alpha 90.000000
_cell_angle_beta 33.348640
_cell_angle_gamma 90.000000
_cell_volume 1010.754708
_symmetry_space_group_name_H-M "C C"
_symmetry_group_IT_number 9
_symmetry_cell_setting 'monoclinic'
loop_
_space_group_symop_operation_xyz
x,y,z
x,-y,1/2+z
1/2+x,1/2+y,z
1/2+x,1/2-y,1/2+z
loop_
_atom_site_type_symbol
_atom_site_label
_atom_site_fract_x
_atom_site_fract_y
_atom_site_fract_z
Si Si1 0.285950 0.301795 0.411480
Si Si2 0.320886 0.029335 0.023023
Si Si3 0.148947 0.747201 0.552817
Si Si4 0.260813 0.943257 0.241484
Si Si5 0.469014 0.452829 0.033756
Si Si6 0.749500 0.241875 0.730353
Si Si7 0.154337 0.386964 0.748901
O O1 0.499068 0.374408 0.350805
O O2 0.399945 0.186562 0.368903
O O3 0.272790 0.309287 0.314187
O O4 0.005207 0.314533 0.596502
O O5 0.248881 0.151809 0.058526
O O6 0.304486 0.992270 0.127434
O O7 0.116974 0.990072 0.048726
O O8 0.587259 0.968111 0.859050
O O9 0.441001 0.723978 0.367032
O O10 0.996811 0.639428 0.646901
O O11 0.903891 0.806913 0.625063
O O12 0.169182 0.025380 0.358094
O O13 0.336772 0.342902 0.116309
O O14 0.227900 0.533030 0.139460
#
# Coordination Sequence:
#
# PCOD9136778 Si02
#       7
#     4   4   4   4   4   4   4
#     4  11  23  45  78 113 159 217 278 348 442 527
#     4  11  22  48  83 115 166 215 282 360 422 524
#     4  10  26  46  81 121 168 215 286 361 428 528
#     4  11  25  49  85 120 157 232 291 339 447 532
#     4  11  23  45  80 115 163 221 277 356 426 519
#     4  12  24  46  76 119 169 211 280 368 429 505
#     4  10  21  43  79 107 158 217 270 340 440 509
#
# _framework density 27.702072000000001
#
# number of rings (size 3 to 8) (size 9 to 14) (size 15 to 20)
#    0.000    1.143    4.286    0.857    0.000    9.143 
#    2.571    2.857    3.143    0.000    0.000    0.000 
#    0.000    0.000    0.000    0.000    0.000    0.000 
#
# Total GULP energy -78150.479884 kJ/mol
# GULP energy per Si atom -5582.177135 kJ/mol
# Density = 2.763902 g / cm^3
# Si number density = 27.702072 Si / 1000 Ang^3
#
#
#
# Elastic Constant Matrix: (Units=GPa)
#
#
# Indices 1 2 3 4 5 6 
#
# 1 133.1836 55.9505 86.5582 -0.0020 6.5714 0.0007
# 2 55.9505 166.6344 73.6628 -0.0149 9.5451 0.0005
# 3 86.5582 73.6628 273.4023 -0.0351 -5.7911 0.0009
# 4 -0.0020 -0.0149 -0.0351 48.2731 -0.0015 0.7356
# 5 6.5714 9.5451 -5.7911 -0.0015 56.4808 0.0001
# 6 0.0007 0.0005 0.0009 0.7356 0.0001 41.1335
#
#
#
# Elastic Compliance Matrix: (Units=1/GPa)
#
#
# Indices 1 2 3 4 5 6 
#
# 1 0.010215 -0.002188 -0.002668 -0.000002 -0.001092 0.000000
# 2 -0.002188 0.007384 -0.001321 0.000001 -0.001129 0.000000
# 3 -0.002668 -0.001321 0.004880 0.000003 0.001034 0.000000
# 4 -0.000002 0.000001 0.000003 0.020721 0.000001 -0.000371
# 5 -0.001092 -0.001129 0.001034 0.000001 0.018129 0.000000
# 6 0.000000 0.000000 0.000000 -0.000371 0.000000 0.024318
#
#
# Mechanical properties :
#
#
# Convention : Reuss Voigt Hill
#
# Bulk Modulus (GPa) = 98.75069 111.72927 105.23998
# Shear Modulus (GPa) = 49.32126 52.98074 51.15100
#
# Velocity S-wave (km/s) = 4.22408 4.37798 4.30172
# Velocity P-wave (km/s) = 7.71461 8.12254 7.92120
#
# Compressibility (1/GPa) = 0.01012651
#
# Stress axis : x y z
#
# Youngs Moduli (GPa) = 97.89174 135.42130 204.91988
#
# Poissons Ratio (x) = 0.29632 0.54667
# Poissons Ratio (y) = 0.21420 0.27064
# Poissons Ratio (z) = 0.26115 0.17885
#
# Static dielectric constant tensor:
#      x y z
#    x 2.186500 0.000000 -0.046570 
#    y 0.000000 2.233350 0.000000 
#    z -0.046570 0.000000 2.242410 
# 
# From -- ./inp_files/35378.got.cif
#   From: 2010.05.17/outbox.cif.g08.bks.cpg/sg9_18_cif.got.tgz:35378.got - 2010.06.03 20:04:27.
