data_PCOD9136638
_publ_section_title
;
Structure prediction by ZEFSAII (Michael W. Deem and Ramdas Pophale) SiO2 
 PCOD9136638
Probable space group: C C
;
_chemical_formula_sum "Si O2"
_cell_formula_units_Z 28
_cell_length_a 12.872218
_cell_length_b 5.656214
_cell_length_c 18.587222
_cell_angle_alpha 90.000000
_cell_angle_beta 57.896944
_cell_angle_gamma 90.000000
_cell_volume 1146.370742
_symmetry_space_group_name_H-M "C C"
_symmetry_group_IT_number 9
_symmetry_cell_setting 'monoclinic'
loop_
_space_group_symop_operation_xyz
x,y,z
x,-y,1/2+z
1/2+x,1/2+y,z
1/2+x,1/2-y,1/2+z
loop_
_atom_site_type_symbol
_atom_site_label
_atom_site_fract_x
_atom_site_fract_y
_atom_site_fract_z
Si Si1 0.974710 0.571225 0.548740
Si Si2 0.742956 0.888324 0.596571
Si Si3 0.073004 0.770830 0.643318
Si Si4 0.724205 0.283185 0.391486
Si Si5 0.115908 0.830504 0.010894
Si Si6 0.113487 0.682544 0.295535
Si Si7 0.986991 0.175017 0.334602
O O1 0.866297 0.741089 0.564825
O O2 0.990763 0.581781 0.629658
O O3 0.100254 0.662040 0.465737
O O4 0.992815 0.293217 0.526505
O O5 0.702169 0.821956 0.531060
O O6 0.656346 0.810471 0.696478
O O7 0.709445 0.168167 0.608733
O O8 0.015093 0.835234 0.739236
O O9 0.076698 0.976382 0.584061
O O10 0.696687 0.557826 0.417894
O O11 0.728918 0.212352 0.306531
O O12 0.842023 0.209382 0.393013
O O13 0.050682 0.426161 0.333100
O O14 0.033463 0.917855 0.343767
#
# Coordination Sequence:
#
# PCOD9136638 Si02
#       7
#     4   4   4   4   4   4   4
#     4  10  23  40  66  99 138 181 235 287 356 424
#     4  10  21  42  69  96 136 182 241 290 346 427
#     4   9  20  43  64  97 128 180 232 294 348 404
#     4  11  27  41  66 103 140 183 228 288 356 422
#     4  10  22  41  66  97 137 183 229 290 354 414
#     4  11  26  45  71 103 134 187 235 287 354 412
#     4  11  25  46  72  97 143 178 232 294 346 421
#
# _framework density 24.424909
#
# number of rings (size 3 to 8) (size 9 to 14) (size 15 to 20)
#    0.000    1.714    1.429    0.857    6.000    4.571 
#    2.571    0.000    0.000    0.000    0.000    0.000 
#    0.000    0.000    0.000    0.000    0.000    0.000 
#
# Total GULP energy -78009.173351 kJ/mol
# GULP energy per Si atom -5572.083811 kJ/mol
# Density = 2.436932 g / cm^3
# Si number density = 24.424909 Si / 1000 Ang^3
#
#
#
# Elastic Constant Matrix: (Units=GPa)
#
#
# Indices 1 2 3 4 5 6 
#
# 1 117.8655 43.0947 26.6196 0.0001 -15.3233 0.0005
# 2 43.0947 119.5231 27.5707 0.0000 -21.2998 0.0008
# 3 26.6196 27.5707 68.4413 0.0000 4.6488 -0.0001
# 4 0.0001 0.0000 0.0000 34.2879 -0.0001 4.0197
# 5 -15.3233 -21.2998 4.6488 -0.0001 45.4276 0.0000
# 6 0.0005 0.0008 -0.0001 4.0197 0.0000 34.1575
#
#
#
# Elastic Compliance Matrix: (Units=1/GPa)
#
#
# Indices 1 2 3 4 5 6 
#
# 1 0.010499 -0.002564 -0.003232 0.000000 0.002670 0.000000
# 2 -0.002564 0.010987 -0.003746 0.000000 0.004670 0.000000
# 3 -0.003232 -0.003746 0.017693 0.000000 -0.004657 0.000000
# 4 0.000000 0.000000 0.000000 0.029573 0.000000 -0.003480
# 5 0.002670 0.004670 -0.004657 0.000000 0.025580 0.000000
# 6 0.000000 0.000000 0.000000 -0.003480 0.000000 0.029686
#
#
# Mechanical properties :
#
#
# Convention : Reuss Voigt Hill
#
# Bulk Modulus (GPa) = 49.76208 55.60001 52.68104
# Shear Modulus (GPa) = 33.37768 36.67759 35.02763
#
# Velocity S-wave (km/s) = 3.70069 3.87931 3.79105
# Velocity P-wave (km/s) = 6.21915 6.54817 6.38578
#
# Compressibility (1/GPa) = 0.02009562
#
# Stress axis : x y z
#
# Youngs Moduli (GPa) = 95.24946 91.01281 56.51802
#
# Poissons Ratio (x) = 0.23337 0.18266
# Poissons Ratio (y) = 0.24423 0.21172
# Poissons Ratio (z) = 0.30783 0.34094
#
# Static dielectric constant tensor:
#      x y z
#    x 2.022500 0.000000 -0.013060 
#    y 0.000000 2.305950 0.000000 
#    z -0.013060 0.000000 1.922010 
# 
# From -- ./inp_files/25267.got.cif
#   From: 2010.05.17/outbox.cif.g08.bks.cpg/sg9_13_cif.got.tgz:25267.got - 2010.06.03 20:04:27.
