data_PCOD9136270
_publ_section_title
;
Structure prediction by ZEFSAII (Michael W. Deem and Ramdas Pophale) SiO2 
 PCOD9136270
Probable space group: C C
;
_chemical_formula_sum "Si O2"
_cell_formula_units_Z 32
_cell_length_a 9.171655
_cell_length_b 12.414022
_cell_length_c 21.389319
_cell_angle_alpha 90.000000
_cell_angle_beta 149.594598
_cell_angle_gamma 90.000000
_cell_volume 1232.555425
_symmetry_space_group_name_H-M "C C"
_symmetry_group_IT_number 9
_symmetry_cell_setting 'monoclinic'
loop_
_space_group_symop_operation_xyz
x,y,z
x,-y,1/2+z
1/2+x,1/2+y,z
1/2+x,1/2-y,1/2+z
loop_
_atom_site_type_symbol
_atom_site_label
_atom_site_fract_x
_atom_site_fract_y
_atom_site_fract_z
Si Si1 0.943160 0.653217 0.220850
Si Si2 0.467114 0.620159 0.251311
Si Si3 0.614502 0.398064 0.939020
Si Si4 0.779592 0.634693 0.019759
Si Si5 0.315808 0.368600 0.011942
Si Si6 0.937728 0.670975 0.679076
Si Si7 0.027796 0.885698 0.223206
Si Si8 0.009373 0.457593 0.318981
O O1 0.776620 0.636696 0.094059
O O2 0.947572 0.781265 0.233362
O O3 0.829806 0.560917 0.225094
O O4 0.288842 0.628051 0.341841
O O5 0.628702 0.651249 0.375079
O O6 0.526978 0.705854 0.219336
O O7 0.538458 0.498337 0.261326
O O8 0.124368 0.625808 0.135346
O O9 0.649667 0.526153 0.944852
O O10 0.858342 0.363803 0.079521
O O11 0.675541 0.749430 0.954228
O O12 0.214569 0.474312 0.939295
O O13 0.631335 0.346505 0.100784
O O14 0.314727 0.391426 0.085259
O O15 0.121478 0.602140 0.797829
O O16 0.333343 0.877799 0.299315
#
# Coordination Sequence:
#
# PCOD9136270 Si02
#       8
#     4   4   4   4   4   4   4   4
#     4  10  21  40  65  92 124 171 211 264 319 383
#     4  10  24  41  61  95 127 164 208 264 325 382
#     4  11  20  37  67  92 121 168 204 265 322 380
#     4   9  20  40  63  90 127 159 208 263 320 377
#     4   9  20  39  63  88 123 171 201 258 321 373
#     4  10  21  40  63  92 124 161 215 254 310 387
#     4  10  24  42  61  92 137 161 217 269 322 387
#     4  11  20  39  67  91 123 175 210 255 323 391
#
# _framework density 25.962323000000001
#
# number of rings (size 3 to 8) (size 9 to 14) (size 15 to 20)
#    0.000    2.000    2.500    2.250    1.750    3.000 
#    4.500    0.000    5.500    0.000    0.000    0.000 
#    0.000    0.000    0.000    0.000    0.000    0.000 
#
# Total GULP energy -89372.165199 kJ/mol
# GULP energy per Si atom -5585.760325 kJ/mol
# Density = 2.590323 g / cm^3
# Si number density = 25.962323 Si / 1000 Ang^3
#
#
#
# Elastic Constant Matrix: (Units=GPa)
#
#
# Indices 1 2 3 4 5 6 
#
# 1 44.4506 15.4064 23.1718 0.0002 -3.9515 -0.0001
# 2 15.4064 165.5521 35.8771 0.0009 -18.3534 -0.0003
# 3 23.1718 35.8771 94.4707 0.0035 -21.2626 -0.0003
# 4 0.0002 0.0009 0.0035 32.6070 0.0005 4.1620
# 5 -3.9515 -18.3534 -21.2626 0.0005 38.4149 -0.0001
# 6 -0.0001 -0.0003 -0.0003 4.1620 -0.0001 34.4860
#
#
#
# Elastic Compliance Matrix: (Units=1/GPa)
#
#
# Indices 1 2 3 4 5 6 
#
# 1 0.026048 -0.001224 -0.006229 0.000001 -0.001353 0.000000
# 2 -0.001224 0.006779 -0.001797 0.000000 0.002118 0.000000
# 3 -0.006229 -0.001797 0.014231 -0.000002 0.006377 0.000000
# 4 0.000001 0.000000 -0.000002 0.031148 -0.000001 -0.003759
# 5 -0.001353 0.002118 0.006377 -0.000001 0.030434 0.000000
# 6 0.000000 0.000000 0.000000 -0.003759 0.000000 0.029451
#
#
# Mechanical properties :
#
#
# Convention : Reuss Voigt Hill
#
# Bulk Modulus (GPa) = 35.01768 50.37603 42.69685
# Shear Modulus (GPa) = 30.10052 36.43612 33.26832
#
# Velocity S-wave (km/s) = 3.40868 3.75029 3.58356
# Velocity P-wave (km/s) = 5.38603 6.18050 5.79689
#
# Compressibility (1/GPa) = 0.02855700
#
# Stress axis : x y z
#
# Youngs Moduli (GPa) = 38.39091 147.52261 70.26904
#
# Poissons Ratio (x) = 0.18060 0.43768
# Poissons Ratio (y) = 0.04700 0.12630
# Poissons Ratio (z) = 0.23912 0.26515
#
# Static dielectric constant tensor:
#      x y z
#    x 2.060260 0.000000 0.043040 
#    y 0.000000 2.020350 0.000000 
#    z 0.043040 0.000000 2.141720 
# 
# From -- ./inp_files/16249.got.cif
#   From: 2010.05.17/outbox.cif.g08.bks.cpg/sg9_9_cif.got.tgz:16249.got - 2010.06.03 20:04:27.
