data_PCOD9136313
_publ_section_title
;
Structure prediction by ZEFSAII (Michael W. Deem and Ramdas Pophale) SiO2 
 PCOD9136313
Probable space group: C C
;
_chemical_formula_sum "Si O2"
_cell_formula_units_Z 32
_cell_length_a 13.769575
_cell_length_b 12.136200
_cell_length_c 16.645745
_cell_angle_alpha 90.000000
_cell_angle_beta 148.881595
_cell_angle_gamma 90.000000
_cell_volume 1437.593259
_symmetry_space_group_name_H-M "C C"
_symmetry_group_IT_number 9
_symmetry_cell_setting 'monoclinic'
loop_
_space_group_symop_operation_xyz
x,y,z
x,-y,1/2+z
1/2+x,1/2+y,z
1/2+x,1/2-y,1/2+z
loop_
_atom_site_type_symbol
_atom_site_label
_atom_site_fract_x
_atom_site_fract_y
_atom_site_fract_z
Si Si1 0.274230 0.900379 0.036030
Si Si2 0.287102 0.237483 0.222207
Si Si3 0.595073 0.378594 0.362184
Si Si4 0.883799 0.806890 0.050139
Si Si5 0.527034 0.919657 0.471503
Si Si6 0.402788 0.861995 0.958206
Si Si7 0.026051 0.447872 0.811858
Si Si8 0.208743 0.780178 0.155960
O O1 0.210146 0.831805 0.067845
O O2 0.455139 0.965393 0.197638
O O3 0.334349 0.836476 0.998869
O O4 0.128468 0.994378 0.905082
O O5 0.459786 0.321858 0.332128
O O6 0.263680 0.187208 0.293897
O O7 0.353660 0.132816 0.215878
O O8 0.099721 0.305253 0.073554
O O9 0.794361 0.313933 0.500938
O O10 0.490791 0.352530 0.204239
O O11 0.023911 0.809401 0.075511
O O12 0.699183 0.878306 0.903439
O O13 0.378157 0.832685 0.327658
O O14 0.691742 0.851011 0.630455
O O15 0.428769 0.007013 0.461736
O O16 0.587898 0.991580 0.437772
#
# Coordination Sequence:
#
# PCOD9136313 Si02
#       8
#     4   4   4   4   4   4   4   4
#     4  11  24  39  58  87 129 166 201 246 301 368
#     4  10  21  40  66  91 119 156 206 262 310 357
#     4  11  21  39  63  92 120 157 208 261 309 360
#     4  11  21  37  64  91 117 155 208 263 311 359
#     4  10  23  42  61  87 125 161 203 251 303 364
#     4  11  23  42  64  92 124 162 204 254 307 365
#     4   9  21  42  62  89 120 155 204 259 306 361
#     4  11  24  41  60  89 126 164 202 250 303 366
#
# _framework density 22.259423999999999
#
# number of rings (size 3 to 8) (size 9 to 14) (size 15 to 20)
#    0.000    1.500    0.000    6.750    0.000    6.000 
#    0.000    5.000    0.000    0.000    0.000    0.000 
#    0.000    0.000    0.000    0.000    0.000    0.000 
#
# Total GULP energy -89448.890878 kJ/mol
# GULP energy per Si atom -5590.555680 kJ/mol
# Density = 2.220876 g / cm^3
# Si number density = 22.259424 Si / 1000 Ang^3
#
#
#
# Elastic Constant Matrix: (Units=GPa)
#
#
# Indices 1 2 3 4 5 6 
#
# 1 102.8127 11.7007 23.1482 0.0016 -14.9588 0.0005
# 2 11.7007 63.8417 24.7684 0.0014 2.9683 0.0005
# 3 23.1482 24.7684 58.9026 0.0029 -11.8705 0.0012
# 4 0.0016 0.0014 0.0029 40.8154 0.0009 -4.5020
# 5 -14.9588 2.9683 -11.8705 0.0009 27.9535 0.0003
# 6 0.0005 0.0005 0.0012 -4.5020 0.0003 19.6644
#
#
#
# Elastic Compliance Matrix: (Units=1/GPa)
#
#
# Indices 1 2 3 4 5 6 
#
# 1 0.011230 -0.001140 -0.002951 0.000000 0.004878 0.000000
# 2 -0.001140 0.019744 -0.009186 0.000000 -0.006607 0.000000
# 3 -0.002951 -0.009186 0.023925 -0.000002 0.009556 -0.000002
# 4 0.000000 0.000000 -0.000002 0.025135 -0.000002 0.005755
# 5 0.004878 -0.006607 0.009556 -0.000002 0.043143 -0.000002
# 6 0.000000 0.000000 -0.000002 0.005755 -0.000002 0.052171
#
#
# Mechanical properties :
#
#
# Convention : Reuss Voigt Hill
#
# Bulk Modulus (GPa) = 35.27886 38.31017 36.79451
# Shear Modulus (GPa) = 23.65735 28.74931 26.20333
#
# Velocity S-wave (km/s) = 3.26360 3.59772 3.43473
# Velocity P-wave (km/s) = 5.48496 5.87420 5.68292
#
# Compressibility (1/GPa) = 0.02834559
#
# Stress axis : x y z
#
# Youngs Moduli (GPa) = 89.04514 50.64932 41.79687
#
# Poissons Ratio (x) = 0.05775 0.12334
# Poissons Ratio (y) = 0.10152 0.38393
# Poissons Ratio (z) = 0.26277 0.46525
#
# Static dielectric constant tensor:
#      x y z
#    x 1.801070 0.000000 -0.031260 
#    y 0.000000 1.826960 0.000000 
#    z -0.031260 0.000000 1.846370 
# 
# From -- ./inp_files/9134.got.cif
#   From: 2010.05.17/outbox.cif.g08.bks.cpg/sg9_5_cif.got.tgz:9134.got - 2010.06.03 20:04:27.
