data_PCOD9136223
_publ_section_title
;
Structure prediction by ZEFSAII (Michael W. Deem and Ramdas Pophale) SiO2 
 PCOD9136223
Probable space group: C C
;
_chemical_formula_sum "Si O2"
_cell_formula_units_Z 32
_cell_length_a 26.094666
_cell_length_b 9.035449
_cell_length_c 11.419775
_cell_angle_alpha 90.000000
_cell_angle_beta 26.593935
_cell_angle_gamma 90.000000
_cell_volume 1205.345697
_symmetry_space_group_name_H-M "C C"
_symmetry_group_IT_number 9
_symmetry_cell_setting 'monoclinic'
loop_
_space_group_symop_operation_xyz
x,y,z
x,-y,1/2+z
1/2+x,1/2+y,z
1/2+x,1/2-y,1/2+z
loop_
_atom_site_type_symbol
_atom_site_label
_atom_site_fract_x
_atom_site_fract_y
_atom_site_fract_z
Si Si1 0.230170 0.548536 0.933390
Si Si2 0.685390 0.909739 0.262064
Si Si3 0.667338 0.400326 0.729782
Si Si4 0.443720 0.522051 0.232967
Si Si5 0.045733 0.244591 0.173886
Si Si6 0.402965 0.764647 0.684603
Si Si7 0.883596 0.504503 0.907571
Si Si8 0.289685 0.228799 0.753895
O O1 0.166501 0.555257 0.938242
O O2 0.300437 0.699656 0.812290
O O3 0.310268 0.400025 0.749434
O O4 0.165056 0.514102 0.189168
O O5 0.620542 0.757776 0.370278
O O6 0.824554 0.888824 0.967687
O O7 0.753398 0.440819 0.659237
O O8 0.738574 0.358801 0.469267
O O9 0.564824 0.516197 0.913558
O O10 0.496709 0.583499 0.243026
O O11 0.400670 0.358774 0.291627
O O12 0.010273 0.269106 0.379283
O O13 0.974906 0.366662 0.244829
O O14 0.181898 0.244418 0.884370
O O15 0.395836 0.921001 0.759683
O O16 0.884178 0.377868 0.005945
#
# Coordination Sequence:
#
# PCOD9136223 Si02
#       8
#     4   4   4   4   4   4   4   4
#     4  10  21  42  69  97 137 189 239 304 373 441
#     4  10  21  39  70  98 138 186 240 299 365 447
#     4  11  22  40  68  99 136 187 245 296 368 451
#     4  11  21  41  69  96 132 190 234 292 364 438
#     4  12  24  46  68 104 148 182 250 315 363 455
#     4  11  24  44  70 100 139 188 245 300 376 453
#     4  12  25  43  70 105 143 192 239 313 386 437
#     4  11  24  43  70 101 145 190 246 313 375 450
#
# _framework density 26.548400999999998
#
# number of rings (size 3 to 8) (size 9 to 14) (size 15 to 20)
#    0.000    1.000    5.000    2.250    0.000    1.000 
#    2.250    0.000    0.000    0.000    0.000    0.000 
#    0.000    0.000    0.000    0.000    0.000    0.000 
#
# Total GULP energy -89219.378358 kJ/mol
# GULP energy per Si atom -5576.211147 kJ/mol
# Density = 2.648798 g / cm^3
# Si number density = 26.548401 Si / 1000 Ang^3
#
#
#
# Elastic Constant Matrix: (Units=GPa)
#
#
# Indices 1 2 3 4 5 6 
#
# 1 132.0014 42.2681 35.2597 0.0000 12.3118 0.0000
# 2 42.2681 70.1655 32.2495 0.0000 2.9616 0.0000
# 3 35.2597 32.2495 93.5580 0.0000 0.7647 0.0000
# 4 0.0000 0.0000 0.0000 31.9782 0.0000 5.5700
# 5 12.3118 2.9616 0.7647 0.0000 56.0491 0.0000
# 6 0.0000 0.0000 0.0000 5.5700 0.0000 54.5525
#
#
#
# Elastic Compliance Matrix: (Units=1/GPa)
#
#
# Indices 1 2 3 4 5 6 
#
# 1 0.009869 -0.004947 -0.001999 0.000000 -0.001879 0.000000
# 2 -0.004947 0.019452 -0.004842 0.000000 0.000125 0.000000
# 3 -0.001999 -0.004842 0.013107 0.000000 0.000516 0.000000
# 4 0.000000 0.000000 0.000000 0.031838 0.000000 -0.003251
# 5 -0.001879 0.000125 0.000516 0.000000 0.018241 0.000000
# 6 0.000000 0.000000 0.000000 -0.003251 0.000000 0.018663
#
#
# Mechanical properties :
#
#
# Convention : Reuss Voigt Hill
#
# Bulk Modulus (GPa) = 53.04326 57.25328 55.14827
# Shear Modulus (GPa) = 35.45386 40.91247 38.18316
#
# Velocity S-wave (km/s) = 3.65833 3.92988 3.79654
# Velocity P-wave (km/s) = 6.15368 6.49649 6.32741
#
# Compressibility (1/GPa) = 0.01885254
#
# Stress axis : x y z
#
# Youngs Moduli (GPa) = 101.32777 51.40781 76.29763
#
# Poissons Ratio (x) = 0.25432 0.15250
# Poissons Ratio (y) = 0.50128 0.36942
# Poissons Ratio (z) = 0.20253 0.24890
#
# Static dielectric constant tensor:
#      x y z
#    x 2.136450 0.000000 -0.037900 
#    y 0.000000 2.124050 0.000000 
#    z -0.037900 0.000000 2.109890 
# 
# From -- ./inp_files/21449.got.cif
#   From: 2010.05.17/outbox.cif.g08.bks.cpg/sg9_11_cif.got.tgz:21449.got - 2010.06.03 20:04:27.
