data_PCOD9136815
_publ_section_title
;
Structure prediction by ZEFSAII (Michael W. Deem and Ramdas Pophale) SiO2 
 PCOD9136815
Probable space group: C C
;
_chemical_formula_sum "Si O2"
_cell_formula_units_Z 28
_cell_length_a 12.246274
_cell_length_b 7.116759
_cell_length_c 24.978714
_cell_angle_alpha 90.000000
_cell_angle_beta 32.814998
_cell_angle_gamma 90.000000
_cell_volume 1179.771975
_symmetry_space_group_name_H-M "C C"
_symmetry_group_IT_number 9
_symmetry_cell_setting 'monoclinic'
loop_
_space_group_symop_operation_xyz
x,y,z
x,-y,1/2+z
1/2+x,1/2+y,z
1/2+x,1/2-y,1/2+z
loop_
_atom_site_type_symbol
_atom_site_label
_atom_site_fract_x
_atom_site_fract_y
_atom_site_fract_z
Si Si1 0.677580 0.770360 0.714750
Si Si2 0.842547 0.947265 0.284582
Si Si3 0.482865 0.955098 0.367450
Si Si4 0.641828 0.614538 0.576272
Si Si5 0.863991 0.937086 0.539939
Si Si6 0.984005 0.486022 0.145183
Si Si7 0.801693 0.639672 0.833512
O O1 0.485232 0.679928 0.763240
O O2 0.588315 0.848428 0.806891
O O3 0.783654 0.928471 0.633737
O O4 0.853429 0.624974 0.656468
O O5 0.643491 0.856931 0.340131
O O6 0.769526 0.138198 0.340995
O O7 0.995783 0.005224 0.173580
O O8 0.267977 0.998681 0.482081
O O9 0.450354 0.868031 0.322836
O O10 0.808177 0.724463 0.543475
O O11 0.505332 0.796401 0.617265
O O12 0.718349 0.062070 0.562236
O O13 0.096987 0.964342 0.435035
O O14 0.882033 0.453059 0.245519
#
# Coordination Sequence:
#
# PCOD9136815 Si02
#       7
#     4   4   4   4   4   4   4
#     4  11  23  43  68  92 140 170 215 273 325 379
#     4  11  24  43  64  98 133 170 218 274 313 398
#     4  12  24  44  67  97 134 172 213 280 316 398
#     4   9  22  44  63  92 138 165 220 268 324 380
#     4   9  21  43  61  95 131 168 214 270 319 388
#     4  10  21  44  67  93 129 177 210 273 323 387
#     4  12  23  41  72  95 129 178 218 262 342 374
#
# _framework density 23.7334
#
# number of rings (size 3 to 8) (size 9 to 14) (size 15 to 20)
#    0.857    0.571    4.286    0.000    4.000    1.143 
#    0.000    1.429    0.000    0.000    0.000    0.000 
#    0.000    0.000    0.000    0.000    0.000    0.000 
#
# Total GULP energy -78089.580807 kJ/mol
# GULP energy per Si atom -5577.827200 kJ/mol
# Density = 2.367938 g / cm^3
# Si number density = 23.733400 Si / 1000 Ang^3
#
#
#
# Elastic Constant Matrix: (Units=GPa)
#
#
# Indices 1 2 3 4 5 6 
#
# 1 130.2184 24.9830 24.8979 0.0000 -33.0507 0.0000
# 2 24.9830 38.6193 8.5094 -0.0001 -13.3809 0.0001
# 3 24.8979 8.5094 96.1356 -0.0001 -20.1549 0.0000
# 4 0.0000 -0.0001 -0.0001 30.0245 0.0000 -4.5310
# 5 -33.0507 -13.3809 -20.1549 0.0000 40.8454 0.0000
# 6 0.0000 0.0001 0.0000 -4.5310 0.0000 27.5886
#
#
#
# Elastic Compliance Matrix: (Units=1/GPa)
#
#
# Indices 1 2 3 4 5 6 
#
# 1 0.010318 -0.004214 -0.000935 0.000000 0.006507 0.000000
# 2 -0.004214 0.030967 -0.000265 0.000000 0.006604 0.000000
# 3 -0.000935 -0.000265 0.011701 0.000000 0.004930 0.000000
# 4 0.000000 0.000000 0.000000 0.034153 0.000000 0.005609
# 5 0.006507 0.006604 0.004930 0.000000 0.034344 0.000000
# 6 0.000000 0.000000 0.000000 0.005609 0.000000 0.037168
#
#
# Mechanical properties :
#
#
# Convention : Reuss Voigt Hill
#
# Bulk Modulus (GPa) = 23.72066 42.41710 33.06888
# Shear Modulus (GPa) = 27.24316 33.46390 30.35353
#
# Velocity S-wave (km/s) = 3.39172 3.75906 3.58010
# Velocity P-wave (km/s) = 5.03534 6.06233 5.57254
#
# Compressibility (1/GPa) = 0.04215735
#
# Stress axis : x y z
#
# Youngs Moduli (GPa) = 96.91496 32.29291 85.46078
#
# Poissons Ratio (x) = 0.13609 0.07991
# Poissons Ratio (y) = 0.40843 0.02265
# Poissons Ratio (z) = 0.09062 0.00856
#
# Static dielectric constant tensor:
#      x y z
#    x 1.962510 0.000000 -0.009790 
#    y 0.000000 1.938040 0.000000 
#    z -0.009790 0.000000 1.907680 
# 
# From -- ./inp_files/36497.got.cif
#   From: 2010.05.17/outbox.cif.g08.bks.cpg/sg9_19_cif.got.tgz:36497.got - 2010.06.03 20:04:27.
