data_PCOD9136170
_publ_section_title
;
Structure prediction by ZEFSAII (Michael W. Deem and Ramdas Pophale) SiO2 
 PCOD9136170
Probable space group: C C
;
_chemical_formula_sum "Si O2"
_cell_formula_units_Z 24
_cell_length_a 12.907646
_cell_length_b 9.284234
_cell_length_c 11.982928
_cell_angle_alpha 90.000000
_cell_angle_beta 41.041760
_cell_angle_gamma 90.000000
_cell_volume 942.893963
_symmetry_space_group_name_H-M "C C"
_symmetry_group_IT_number 9
_symmetry_cell_setting 'monoclinic'
loop_
_space_group_symop_operation_xyz
x,y,z
x,-y,1/2+z
1/2+x,1/2+y,z
1/2+x,1/2-y,1/2+z
loop_
_atom_site_type_symbol
_atom_site_label
_atom_site_fract_x
_atom_site_fract_y
_atom_site_fract_z
Si Si1 0.130920 0.374168 0.850800
Si Si2 0.625247 0.676688 0.419195
Si Si3 0.472803 0.938880 0.653576
Si Si4 0.907015 0.093975 0.306074
Si Si5 0.934213 0.087175 0.973892
Si Si6 0.136166 0.684822 0.664987
O O1 0.272597 0.392673 0.825173
O O2 0.247489 0.397784 0.650990
O O3 0.039300 0.225830 0.912991
O O4 0.999612 0.477941 0.013108
O O5 0.569503 0.791467 0.556237
O O6 0.792569 0.606742 0.313326
O O7 0.508406 0.543173 0.487641
O O8 0.637563 0.768086 0.292859
O O9 0.533725 0.049111 0.700460
O O10 0.816548 0.171631 0.482475
O O11 0.061565 0.182731 0.156785
O O12 0.948642 0.945238 0.329932
#
# Coordination Sequence:
#
# PCOD9136170 Si02
#       6
#     4   4   4   4   4   4
#     4  11  22  42  67 100 139 176 225 280 337 403
#     4  11  22  42  68  98 135 178 226 280 340 402
#     4  11  23  41  70  99 136 180 224 281 340 403
#     4  10  21  39  65  95 128 173 223 272 334 402
#     4  11  23  41  70 100 135 180 225 279 340 404
#     4  10  21  39  66  96 127 173 223 272 335 402
#
# _framework density 25.453551000000001
#
# number of rings (size 3 to 8) (size 9 to 14) (size 15 to 20)
#    0.000    1.333    0.000    8.000    0.000    0.000 
#    0.000   15.000    0.000    0.000    0.000    0.000 
#    0.000    0.000    0.000    0.000    0.000    0.000 
#
# Total GULP energy -67042.185846 kJ/mol
# GULP energy per Si atom -5586.848821 kJ/mol
# Density = 2.539562 g / cm^3
# Si number density = 25.453551 Si / 1000 Ang^3
#
#
#
# Elastic Constant Matrix: (Units=GPa)
#
#
# Indices 1 2 3 4 5 6 
#
# 1 97.5623 43.2981 19.9520 0.0000 -4.2293 0.0000
# 2 43.2981 145.9422 56.0584 0.0000 0.7392 0.0000
# 3 19.9520 56.0584 78.1111 0.0000 -20.4035 0.0000
# 4 0.0000 0.0000 0.0000 42.0462 0.0000 5.9911
# 5 -4.2293 0.7392 -20.4035 0.0000 29.5995 0.0000
# 6 0.0000 0.0000 0.0000 5.9911 0.0000 28.5422
#
#
#
# Elastic Compliance Matrix: (Units=1/GPa)
#
#
# Indices 1 2 3 4 5 6 
#
# 1 0.011898 -0.003516 -0.000060 0.000000 0.001747 0.000000
# 2 -0.003516 0.011460 -0.009186 0.000000 -0.007121 0.000000
# 3 -0.000060 -0.009186 0.023743 0.000000 0.016588 0.000000
# 4 0.000000 0.000000 0.000000 0.024517 0.000000 -0.005146
# 5 0.001747 -0.007121 0.016588 0.000000 0.045646 0.000000
# 6 0.000000 0.000000 0.000000 -0.005146 0.000000 0.036116
#
#
# Mechanical properties :
#
#
# Convention : Reuss Voigt Hill
#
# Bulk Modulus (GPa) = 46.34497 62.24806 54.29651
# Shear Modulus (GPa) = 26.86787 33.52471 30.19629
#
# Velocity S-wave (km/s) = 3.25247 3.63312 3.44805
# Velocity P-wave (km/s) = 5.68788 6.48907 6.10164
#
# Compressibility (1/GPa) = 0.02157732
#
# Stress axis : x y z
#
# Youngs Moduli (GPa) = 84.04686 87.26142 42.11730
#
# Poissons Ratio (x) = 0.30680 0.00251
# Poissons Ratio (y) = 0.29550 0.38691
# Poissons Ratio (z) = 0.00501 0.80162
#
# Static dielectric constant tensor:
#      x y z
#    x 2.037630 0.000000 0.156890 
#    y 0.000000 2.160560 0.000000 
#    z 0.156890 0.000000 2.080620 
# 
# From -- ./inp_files/11289.got.cif
#   From: 2010.05.17/outbox.cif.g08.bks.cpg/sg9_6_cif.got.tgz:11289.got - 2010.06.03 20:04:27.
