data_PCOD9136804
_publ_section_title
;
Structure prediction by ZEFSAII (Michael W. Deem and Ramdas Pophale) SiO2 
 PCOD9136804
Probable space group: C C
;
_chemical_formula_sum "Si O2"
_cell_formula_units_Z 32
_cell_length_a 8.220164
_cell_length_b 12.110544
_cell_length_c 13.595473
_cell_angle_alpha 90.000000
_cell_angle_beta 96.093985
_cell_angle_gamma 90.000000
_cell_volume 1345.790128
_symmetry_space_group_name_H-M "C C"
_symmetry_group_IT_number 9
_symmetry_cell_setting 'monoclinic'
loop_
_space_group_symop_operation_xyz
x,y,z
x,-y,1/2+z
1/2+x,1/2+y,z
1/2+x,1/2-y,1/2+z
loop_
_atom_site_type_symbol
_atom_site_label
_atom_site_fract_x
_atom_site_fract_y
_atom_site_fract_z
Si Si1 0.112850 0.062255 0.516310
Si Si2 0.254957 0.938960 0.835743
Si Si3 0.308798 0.674888 0.391549
Si Si4 0.528755 0.239734 0.741023
Si Si5 0.633494 0.686551 0.042407
Si Si6 0.063304 0.117475 0.723308
Si Si7 0.465369 0.863557 0.682806
Si Si8 0.217581 0.485465 0.237408
O O1 0.061812 0.933596 0.512563
O O2 0.264588 0.076451 0.452013
O O3 0.158647 0.095365 0.628648
O O4 0.964575 0.139194 0.468860
O O5 0.141079 0.840670 0.786953
O O6 0.406863 0.931706 0.774539
O O7 0.159401 0.052652 0.812723
O O8 0.374680 0.750250 0.304328
O O9 0.176795 0.734054 0.453676
O O10 0.254021 0.563457 0.333032
O O11 0.524328 0.260851 0.623015
O O12 0.622060 0.125173 0.759149
O O13 0.813312 0.657418 0.101261
O O14 0.023772 0.245537 0.726010
O O15 0.889378 0.054430 0.703843
O O16 0.614868 0.937932 0.655176
#
# Coordination Sequence:
#
# PCOD9136804 Si02
#       8
#     4   4   4   4   4   4   4   4
#     4  11  21  40  73  93 128 184 224 272 343 402
#     4  10  22  43  67  92 138 181 217 278 340 399
#     4  11  24  42  68  98 132 180 225 279 338 406
#     4  10  21  44  66  90 139 173 217 280 329 402
#     4  11  22  44  67  95 137 173 227 282 335 406
#     4  12  21  46  67  95 140 179 224 274 343 410
#     4  11  25  42  67  98 135 176 221 280 335 401
#     4  12  24  41  71  99 131 178 225 277 343 398
#
# _framework density 23.777853
#
# number of rings (size 3 to 8) (size 9 to 14) (size 15 to 20)
#    0.000    1.000    8.750    0.000    3.500    0.000 
#    4.500    1.250    2.750    0.000    0.000    0.000 
#    0.000    0.000    0.000    0.000    0.000    0.000 
#
# Total GULP energy -89446.362766 kJ/mol
# GULP energy per Si atom -5590.397673 kJ/mol
# Density = 2.372373 g / cm^3
# Si number density = 23.777853 Si / 1000 Ang^3
#
#
#
# Elastic Constant Matrix: (Units=GPa)
#
#
# Indices 1 2 3 4 5 6 
#
# 1 57.6130 24.8857 15.1258 0.0000 -11.0904 0.0000
# 2 24.8857 131.1224 21.0444 0.0000 -15.8369 0.0000
# 3 15.1258 21.0444 125.9119 0.0000 -34.6037 0.0000
# 4 0.0000 0.0000 0.0000 30.6572 0.0000 4.2753
# 5 -11.0904 -15.8369 -34.6037 0.0000 35.5710 0.0000
# 6 0.0000 0.0000 0.0000 4.2753 0.0000 40.3248
#
#
#
# Elastic Compliance Matrix: (Units=1/GPa)
#
#
# Indices 1 2 3 4 5 6 
#
# 1 0.019677 -0.003130 -0.000734 0.000000 0.004028 0.000000
# 2 -0.003130 0.008580 -0.000377 0.000000 0.002477 0.000000
# 3 -0.000734 -0.000377 0.010898 0.000000 0.010205 0.000000
# 4 0.000000 0.000000 0.000000 0.033108 0.000000 -0.003510
# 5 0.004028 0.002477 0.010205 0.000000 0.040398 0.000000
# 6 0.000000 0.000000 0.000000 -0.003510 0.000000 0.025171
#
#
# Mechanical properties :
#
#
# Convention : Reuss Voigt Hill
#
# Bulk Modulus (GPa) = 32.60241 48.52880 40.56561
# Shear Modulus (GPa) = 31.94076 38.21670 35.07873
#
# Velocity S-wave (km/s) = 3.66908 4.01339 3.84509
# Velocity P-wave (km/s) = 5.62944 6.47533 6.06714
#
# Compressibility (1/GPa) = 0.03067257
#
# Stress axis : x y z
#
# Youngs Moduli (GPa) = 50.82009 116.54602 91.76202
#
# Poissons Ratio (x) = 0.36483 0.06733
# Poissons Ratio (y) = 0.15908 0.03462
# Poissons Ratio (z) = 0.03729 0.04397
#
# Static dielectric constant tensor:
#      x y z
#    x 1.981030 0.000000 -0.009190 
#    y 0.000000 1.887580 0.000000 
#    z -0.009190 0.000000 1.906200 
# 
# From -- ./inp_files/22892.got.cif
#   From: 2010.05.17/outbox.cif.g08.bks.cpg/sg9_12_cif.got.tgz:22892.got - 2010.06.03 20:04:27.
