data_PCOD9136752
_publ_section_title
;
Structure prediction by ZEFSAII (Michael W. Deem and Ramdas Pophale) SiO2 
 PCOD9136752
Probable space group: C C
;
_chemical_formula_sum "Si O2"
_cell_formula_units_Z 32
_cell_length_a 10.148314
_cell_length_b 11.275601
_cell_length_c 14.204000
_cell_angle_alpha 90.000000
_cell_angle_beta 116.349842
_cell_angle_gamma 90.000000
_cell_volume 1456.468368
_symmetry_space_group_name_H-M "C C"
_symmetry_group_IT_number 9
_symmetry_cell_setting 'monoclinic'
loop_
_space_group_symop_operation_xyz
x,y,z
x,-y,1/2+z
1/2+x,1/2+y,z
1/2+x,1/2-y,1/2+z
loop_
_atom_site_type_symbol
_atom_site_label
_atom_site_fract_x
_atom_site_fract_y
_atom_site_fract_z
Si Si1 0.052840 0.217886 0.408490
Si Si2 0.535396 0.527136 0.549529
Si Si3 0.874626 0.634872 0.500044
Si Si4 0.889813 0.152441 0.887589
Si Si5 0.095839 0.715836 0.723205
Si Si6 0.350290 0.081788 0.866073
Si Si7 0.317513 0.101185 0.190452
Si Si8 0.035089 0.818769 0.237642
O O1 0.989556 0.112555 0.449830
O O2 0.225772 0.202931 0.478153
O O3 0.019117 0.217391 0.286224
O O4 0.992278 0.340006 0.427467
O O5 0.436450 0.414438 0.496534
O O6 0.703775 0.479203 0.592876
O O7 0.510591 0.596024 0.639292
O O8 0.929173 0.711394 0.426965
O O9 0.832648 0.507184 0.446991
O O10 0.990285 0.645970 0.620265
O O11 0.718370 0.134384 0.811710
O O12 0.972711 0.127607 0.815939
O O13 0.197940 0.810378 0.701109
O O14 0.212055 0.170539 0.806591
O O15 0.370495 0.997386 0.781722
O O16 0.447347 0.191915 0.197670
#
# Coordination Sequence:
#
# PCOD9136752 Si02
#       8
#     4   4   4   4   4   4   4   4
#     4  11  26  45  66 103 145 185 239 300 360 427
#     4  11  24  41  69 109 144 184 239 299 363 419
#     4  11  22  46  74  97 143 196 232 295 364 419
#     4  10  21  43  70 104 135 191 241 293 357 430
#     4  10  22  46  69  98 136 191 242 281 362 426
#     4  11  23  47  70 107 148 184 234 300 359 424
#     4  10  21  47  74 100 142 195 236 297 359 431
#     4  10  23  43  72 108 143 188 243 293 362 436
#
# _framework density 21.970953999999999
#
# number of rings (size 3 to 8) (size 9 to 14) (size 15 to 20)
#    0.000    1.500    5.000    0.750    5.250    2.000 
#   15.750    0.000    0.000    0.000    0.000    0.000 
#    0.000    0.000    0.000    0.000    0.000    0.000 
#
# Total GULP energy -89166.393700 kJ/mol
# GULP energy per Si atom -5572.899606 kJ/mol
# Density = 2.192095 g / cm^3
# Si number density = 21.970954 Si / 1000 Ang^3
#
#
#
# Elastic Constant Matrix: (Units=GPa)
#
#
# Indices 1 2 3 4 5 6 
#
# 1 76.2661 51.4042 32.5406 0.0000 -2.3043 0.0000
# 2 51.4042 105.8327 38.0812 0.0000 13.7061 0.0000
# 3 32.5406 38.0812 115.2455 0.0000 16.3916 0.0000
# 4 0.0000 0.0000 0.0000 18.5021 0.0000 21.9658
# 5 -2.3043 13.7061 16.3916 0.0000 36.4344 0.0000
# 6 0.0000 0.0000 0.0000 21.9658 0.0000 23.9295
#
#
#
# Elastic Compliance Matrix: (Units=1/GPa)
#
#
# Indices 1 2 3 4 5 6 
#
# 1 0.021729 -0.010083 -0.003780 0.000000 0.006868 0.000000
# 2 -0.010083 0.015640 -0.001489 0.000000 -0.005851 0.000000
# 3 -0.003780 -0.001489 0.010887 0.000000 -0.004577 0.000000
# 4 0.000000 0.000000 0.000000 -0.602010 0.000000 0.552608
# 5 0.006868 -0.005851 -0.004577 0.000000 0.032141 0.000000
# 6 0.000000 0.000000 0.000000 0.552608 0.000000 -0.465471
#
#
# Mechanical properties :
#
#
# Convention : Reuss Voigt Hill
#
# Bulk Modulus (GPa) = 56.97413 60.15512 58.56463
# Shear Modulus (GPa) = -5.26023 27.46109 11.10043
#
# Velocity S-wave (km/s) = -1.54899 3.53920 2.25018
# Velocity P-wave (km/s) = 4.77375 6.64380 5.78484
#
# Compressibility (1/GPa) = 0.01755183
#
# Stress axis : x y z
#
# Youngs Moduli (GPa) = 46.02250 63.93965 91.84864
#
# Poissons Ratio (x) = 0.64470 0.34722
# Poissons Ratio (y) = 0.46404 0.13673
# Poissons Ratio (z) = 0.17398 0.09518
#
# Static dielectric constant tensor:
#      x y z
#    x 1.852590 0.000000 -0.031700 
#    y 0.000000 1.930430 0.000000 
#    z -0.031700 0.000000 1.832540 
# 
# From -- ./inp_files/22800.got.cif
#   From: 2010.05.17/outbox.cif.g08.bks.cpg/sg9_12_cif.got.tgz:22800.got - 2010.06.03 20:04:27.
