data_PCOD9136047
_publ_section_title
;
Structure prediction by ZEFSAII (Michael W. Deem and Ramdas Pophale) SiO2 
 PCOD9136047
Probable space group: C C
;
_chemical_formula_sum "Si O2"
_cell_formula_units_Z 32
_cell_length_a 22.588966
_cell_length_b 11.785610
_cell_length_c 14.680384
_cell_angle_alpha 90.000000
_cell_angle_beta 18.805213
_cell_angle_gamma 90.000000
_cell_volume 1259.841659
_symmetry_space_group_name_H-M "C C"
_symmetry_group_IT_number 9
_symmetry_cell_setting 'monoclinic'
loop_
_space_group_symop_operation_xyz
x,y,z
x,-y,1/2+z
1/2+x,1/2+y,z
1/2+x,1/2-y,1/2+z
loop_
_atom_site_type_symbol
_atom_site_label
_atom_site_fract_x
_atom_site_fract_y
_atom_site_fract_z
Si Si1 0.184390 0.416638 0.708220
Si Si2 0.317209 0.833477 0.512878
Si Si3 0.583772 0.186840 0.171868
Si Si4 0.596193 0.017850 0.016851
Si Si5 0.605640 0.431439 0.154320
Si Si6 0.671836 0.706838 0.842489
Si Si7 0.136837 0.803501 0.595886
Si Si8 0.010926 0.007235 0.988431
O O1 0.168908 0.400648 0.622592
O O2 0.095649 0.507293 0.907960
O O3 0.399476 0.424892 0.415917
O O4 0.102381 0.303530 0.875587
O O5 0.252402 0.769724 0.515368
O O6 0.429949 0.744738 0.409994
O O7 0.135061 0.894084 0.818700
O O8 0.455736 0.933567 0.274954
O O9 0.685203 0.307713 0.016251
O O10 0.380112 0.192341 0.509391
O O11 0.553135 0.141517 0.115646
O O12 0.803218 0.003994 0.756074
O O13 0.664623 0.560232 0.046647
O O14 0.602275 0.431367 0.268369
O O15 0.551808 0.593571 0.009844
O O16 0.683183 0.745679 0.930003
#
# Coordination Sequence:
#
# PCOD9136047 Si02
#       8
#     4   4   4   4   4   4   4   4
#     4  10  21  38  65 100 130 182 244 291 361 436
#     4  11  24  45  69 107 146 190 245 310 368 437
#     4  11  22  40  70 100 137 188 241 305 366 438
#     4  11  23  40  73 104 143 191 242 308 375 435
#     4   9  22  41  63  97 137 179 235 300 357 438
#     4  11  21  37  66  99 132 180 245 303 352 436
#     4  11  25  40  72 103 142 189 243 308 367 432
#     4  10  22  43  66 100 143 185 245 301 370 442
#
# _framework density 25.400016000000001
#
# number of rings (size 3 to 8) (size 9 to 14) (size 15 to 20)
#    0.000    1.500    3.750    0.750    3.500    0.000 
#    0.000    3.750   16.500    0.000    0.000    0.000 
#    0.000    0.000    0.000    0.000    0.000    0.000 
#
# Total GULP energy -89267.328594 kJ/mol
# GULP energy per Si atom -5579.208037 kJ/mol
# Density = 2.534220 g / cm^3
# Si number density = 25.400016 Si / 1000 Ang^3
#
#
#
# Elastic Constant Matrix: (Units=GPa)
#
#
# Indices 1 2 3 4 5 6 
#
# 1 94.9912 35.3411 11.0930 -0.0003 -11.3119 0.0000
# 2 35.3411 76.5937 20.2633 -0.0005 -1.3919 0.0000
# 3 11.0930 20.2633 72.8617 -0.0005 -32.8392 0.0001
# 4 -0.0003 -0.0005 -0.0005 37.4170 0.0001 -6.6450
# 5 -11.3119 -1.3919 -32.8392 0.0001 38.4221 0.0000
# 6 0.0000 0.0000 0.0001 -6.6450 0.0000 36.7305
#
#
#
# Elastic Compliance Matrix: (Units=1/GPa)
#
#
# Indices 1 2 3 4 5 6 
#
# 1 0.013442 -0.006743 0.002444 0.000000 0.005802 0.000000
# 2 -0.006743 0.017998 -0.007449 0.000000 -0.007700 0.000000
# 3 0.002444 -0.007449 0.025419 0.000000 0.022175 0.000000
# 4 0.000000 0.000000 0.000000 0.027613 0.000000 0.004996
# 5 0.005802 -0.007700 0.022175 0.000000 0.046408 0.000000
# 6 0.000000 0.000000 0.000000 0.004996 0.000000 0.028129
#
#
# Mechanical properties :
#
#
# Convention : Reuss Voigt Hill
#
# Bulk Modulus (GPa) = 29.97521 41.98236 35.97879
# Shear Modulus (GPa) = 25.82296 34.36386 30.09341
#
# Velocity S-wave (km/s) = 3.19196 3.68218 3.44580
# Velocity P-wave (km/s) = 5.04100 5.88577 5.47969
#
# Compressibility (1/GPa) = 0.03336091
#
# Stress axis : x y z
#
# Youngs Moduli (GPa) = 74.39607 55.56156 39.34141
#
# Poissons Ratio (x) = 0.37466 -0.09614
# Poissons Ratio (y) = 0.50166 0.29306
# Poissons Ratio (z) = -0.18180 0.41389
#
# Static dielectric constant tensor:
#      x y z
#    x 1.997120 0.000000 -0.018920 
#    y 0.000000 2.129720 0.000000 
#    z -0.018920 0.000000 2.094990 
# 
# From -- ./inp_files/31712.got.cif
#   From: 2010.05.17/outbox.cif.g08.bks.cpg/sg9_16_cif.got.tgz:31712.got - 2010.06.03 20:04:27.
