data_PCOD9136706
_publ_section_title
;
Structure prediction by ZEFSAII (Michael W. Deem and Ramdas Pophale) SiO2 
 PCOD9136706
Probable space group: C C
;
_chemical_formula_sum "Si O2"
_cell_formula_units_Z 32
_cell_length_a 11.486555
_cell_length_b 11.167890
_cell_length_c 21.824515
_cell_angle_alpha 90.000000
_cell_angle_beta 153.744430
_cell_angle_gamma 90.000000
_cell_volume 1238.502713
_symmetry_space_group_name_H-M "C C"
_symmetry_group_IT_number 9
_symmetry_cell_setting 'monoclinic'
loop_
_space_group_symop_operation_xyz
x,y,z
x,-y,1/2+z
1/2+x,1/2+y,z
1/2+x,1/2-y,1/2+z
loop_
_atom_site_type_symbol
_atom_site_label
_atom_site_fract_x
_atom_site_fract_y
_atom_site_fract_z
Si Si1 0.068440 0.439756 0.163730
Si Si2 0.555490 0.008246 0.912969
Si Si3 0.383313 0.500294 0.190530
Si Si4 0.209557 0.760588 0.128767
Si Si5 0.190398 0.581771 0.850397
Si Si6 0.743298 0.300482 0.328438
Si Si7 0.296795 0.224522 0.317238
Si Si8 0.346723 0.173530 0.065511
O O1 0.207615 0.461856 0.165294
O O2 0.060759 0.298116 0.173283
O O3 0.222504 0.480193 0.299217
O O4 0.826821 0.530375 0.052384
O O5 0.317601 0.912705 0.808270
O O6 0.723608 0.013057 0.929551
O O7 0.419818 0.136958 0.858856
O O8 0.740089 0.976657 0.058056
O O9 0.642954 0.419376 0.317270
O O10 0.393592 0.645297 0.197274
O O11 0.072222 0.717310 0.125723
O O12 0.383255 0.878548 0.209681
O O13 0.961031 0.772118 0.967321
O O14 0.328657 0.710430 0.899751
O O15 0.479404 0.226453 0.189640
O O16 0.572716 0.269662 0.418308
#
# Coordination Sequence:
#
# PCOD9136706 Si02
#       8
#     4   4   4   4   4   4   4   4
#     4   9  24  42  66 100 142 191 243 310 378 457
#     4  11  22  44  71 106 144 199 253 321 380 456
#     4  10  21  43  66 103 139 193 251 303 381 456
#     4  10  22  41  71  97 145 185 246 308 372 456
#     4  10  23  46  66 111 148 194 251 313 386 455
#     4  11  22  39  72 103 138 193 247 307 379 459
#     4  10  23  45  70 106 153 194 253 316 388 460
#     4  11  21  44  68 100 141 185 250 302 374 463
#
# _framework density 25.83765
#
# number of rings (size 3 to 8) (size 9 to 14) (size 15 to 20)
#    0.750    1.000    2.500    1.500    0.000    3.000 
#    9.000    1.250    0.000    0.000    0.000    0.000 
#    0.000    0.000    0.000    0.000    0.000    0.000 
#
# Total GULP energy -89140.259745 kJ/mol
# GULP energy per Si atom -5571.266234 kJ/mol
# Density = 2.577884 g / cm^3
# Si number density = 25.837650 Si / 1000 Ang^3
#
#
#
# Elastic Constant Matrix: (Units=GPa)
#
#
# Indices 1 2 3 4 5 6 
#
# 1 130.7687 13.6131 10.5379 -0.0001 -28.7766 -0.0002
# 2 13.6131 78.8879 17.8246 -0.0012 -8.1242 -0.0006
# 3 10.5379 17.8246 69.2054 -0.0031 0.7438 -0.0016
# 4 -0.0001 -0.0012 -0.0031 34.2966 -0.0003 9.4162
# 5 -28.7766 -8.1242 0.7438 -0.0003 34.4842 -0.0003
# 6 -0.0002 -0.0006 -0.0016 9.4162 -0.0003 20.7108
#
#
#
# Elastic Compliance Matrix: (Units=1/GPa)
#
#
# Indices 1 2 3 4 5 6 
#
# 1 0.009547 -0.000519 -0.001405 0.000000 0.007875 0.000000
# 2 -0.000519 0.013861 -0.003522 0.000000 0.002908 0.000000
# 3 -0.001405 -0.003522 0.015596 0.000001 -0.002338 0.000001
# 4 0.000000 0.000000 0.000001 0.033316 0.000000 -0.015147
# 5 0.007875 0.002908 -0.002338 0.000000 0.036306 0.000001
# 6 0.000000 0.000000 0.000001 -0.015147 0.000001 0.055171
#
#
# Mechanical properties :
#
#
# Convention : Reuss Voigt Hill
#
# Bulk Modulus (GPa) = 35.57175 40.31260 37.94217
# Shear Modulus (GPa) = 27.16501 33.69072 30.42786
#
# Velocity S-wave (km/s) = 3.24601 3.61493 3.43542
# Velocity P-wave (km/s) = 5.27693 5.74976 5.51841
#
# Compressibility (1/GPa) = 0.02811219
#
# Stress axis : x y z
#
# Youngs Moduli (GPa) = 104.74165 72.14396 64.11909
#
# Poissons Ratio (x) = 0.03745 0.09007
# Poissons Ratio (y) = 0.05437 0.22585
# Poissons Ratio (z) = 0.14713 0.25411
#
# Static dielectric constant tensor:
#      x y z
#    x 2.172370 0.000000 -0.057420 
#    y 0.000000 2.144930 0.000000 
#    z -0.057420 0.000000 2.030080 
# 
# From -- ./inp_files/35405.got.cif
#   From: 2010.05.17/outbox.cif.g08.bks.cpg/sg9_18_cif.got.tgz:35405.got - 2010.06.03 20:04:27.
