data_PCOD9136327
_publ_section_title
;
Structure prediction by ZEFSAII (Michael W. Deem and Ramdas Pophale) SiO2 
 PCOD9136327
Probable space group: C C
;
_chemical_formula_sum "Si O2"
_cell_formula_units_Z 32
_cell_length_a 9.149836
_cell_length_b 16.421312
_cell_length_c 11.578099
_cell_angle_alpha 90.000000
_cell_angle_beta 58.108516
_cell_angle_gamma 90.000000
_cell_volume 1477.038449
_symmetry_space_group_name_H-M "C C"
_symmetry_group_IT_number 9
_symmetry_cell_setting 'monoclinic'
loop_
_space_group_symop_operation_xyz
x,y,z
x,-y,1/2+z
1/2+x,1/2+y,z
1/2+x,1/2-y,1/2+z
loop_
_atom_site_type_symbol
_atom_site_label
_atom_site_fract_x
_atom_site_fract_y
_atom_site_fract_z
Si Si1 0.710960 0.918510 0.394420
Si Si2 0.598902 0.795586 0.972322
Si Si3 0.363210 0.411808 0.768262
Si Si4 0.087615 0.939607 0.879793
Si Si5 0.520273 0.794192 0.596730
Si Si6 0.339972 0.180173 0.399373
Si Si7 0.498441 0.388350 0.462120
Si Si8 0.268913 0.659062 0.624018
O O1 0.551378 0.884711 0.535299
O O2 0.877369 0.891425 0.399988
O O3 0.709109 0.873881 0.272109
O O4 0.739675 0.013914 0.359619
O O5 0.775070 0.828080 0.842434
O O6 0.441053 0.839410 0.973518
O O7 0.574803 0.699915 0.957639
O O8 0.618844 0.822775 0.096044
O O9 0.540902 0.424067 0.765090
O O10 0.388837 0.411330 0.621499
O O11 0.240904 0.889437 0.871422
O O12 0.911536 0.904876 0.014876
O O13 0.119443 0.034166 0.891427
O O14 0.482465 0.790227 0.748174
O O15 0.692254 0.744508 0.493138
O O16 0.366711 0.744756 0.601206
#
# Coordination Sequence:
#
# PCOD9136327 Si02
#       8
#     4   4   4   4   4   4   4   4
#     4  11  21  42  71  95 134 188 229 270 353 414
#     4  11  24  40  66 101 137 173 231 288 343 408
#     4  10  23  42  68  98 133 179 232 281 347 421
#     4   9  22  42  69  93 129 179 229 272 341 418
#     4  11  21  40  70  96 134 181 228 276 343 409
#     4  11  23  43  66 100 135 179 225 286 346 406
#     4  11  21  41  70  96 128 183 229 285 340 415
#     4  10  21  40  66  99 132 176 231 280 333 413
#
# _framework density 21.664974999999998
#
# number of rings (size 3 to 8) (size 9 to 14) (size 15 to 20)
#    0.000    1.500    3.750    0.750    1.750    1.000 
#    2.250    1.250    0.000    0.000    0.000    0.000 
#    0.000    0.000    0.000    0.000    0.000    0.000 
#
# Total GULP energy -89335.432482 kJ/mol
# GULP energy per Si atom -5583.464530 kJ/mol
# Density = 2.161566 g / cm^3
# Si number density = 21.664975 Si / 1000 Ang^3
#
#
#
# Elastic Constant Matrix: (Units=GPa)
#
#
# Indices 1 2 3 4 5 6 
#
# 1 97.9572 41.8610 35.9748 0.0000 36.8431 0.0000
# 2 41.8610 124.8943 23.0862 0.0000 6.3879 0.0000
# 3 35.9748 23.0862 86.6963 0.0000 22.3612 0.0000
# 4 0.0000 0.0000 0.0000 22.9399 0.0000 -5.9718
# 5 36.8431 6.3879 22.3612 0.0000 30.7663 0.0000
# 6 0.0000 0.0000 0.0000 -5.9718 0.0000 25.3277
#
#
#
# Elastic Compliance Matrix: (Units=1/GPa)
#
#
# Indices 1 2 3 4 5 6 
#
# 1 0.022667 -0.006071 -0.001370 0.000000 -0.024887 0.000000
# 2 -0.006071 0.010048 -0.001838 0.000000 0.006520 0.000000
# 3 -0.001370 -0.001838 0.014856 0.000000 -0.008775 0.000000
# 4 0.000000 0.000000 0.000000 0.046443 0.000000 0.010950
# 5 -0.024887 0.006520 -0.008775 0.000000 0.067331 0.000000
# 6 0.000000 0.000000 0.000000 0.010950 0.000000 0.042064
#
#
# Mechanical properties :
#
#
# Convention : Reuss Voigt Hill
#
# Bulk Modulus (GPa) = 34.46807 56.82132 45.64470
# Shear Modulus (GPa) = 21.58554 29.71515 25.65035
#
# Velocity S-wave (km/s) = 3.15990 3.70750 3.44460
# Velocity P-wave (km/s) = 5.40901 6.67919 6.07738
#
# Compressibility (1/GPa) = 0.02901236
#
# Stress axis : x y z
#
# Youngs Moduli (GPa) = 44.11794 99.52312 67.31395
#
# Poissons Ratio (x) = 0.60421 0.09220
# Poissons Ratio (y) = 0.26784 0.12373
# Poissons Ratio (z) = 0.06043 0.18293
#
# Static dielectric constant tensor:
#      x y z
#    x 1.801670 0.000000 0.020360 
#    y 0.000000 1.843810 0.000000 
#    z 0.020360 0.000000 1.800730 
# 
# From -- ./inp_files/15174.got.cif
#   From: 2010.05.17/outbox.cif.g08.bks.cpg/sg9_8_cif.got.tgz:15174.got - 2010.06.03 20:04:27.
