data_PCOD9136296
_publ_section_title
;
Structure prediction by ZEFSAII (Michael W. Deem and Ramdas Pophale) SiO2 
 PCOD9136296
Probable space group: C C
;
_chemical_formula_sum "Si O2"
_cell_formula_units_Z 28
_cell_length_a 8.910861
_cell_length_b 12.819485
_cell_length_c 20.791528
_cell_angle_alpha 90.000000
_cell_angle_beta 151.151120
_cell_angle_gamma 90.000000
_cell_volume 1145.974502
_symmetry_space_group_name_H-M "C C"
_symmetry_group_IT_number 9
_symmetry_cell_setting 'monoclinic'
loop_
_space_group_symop_operation_xyz
x,y,z
x,-y,1/2+z
1/2+x,1/2+y,z
1/2+x,1/2-y,1/2+z
loop_
_atom_site_type_symbol
_atom_site_label
_atom_site_fract_x
_atom_site_fract_y
_atom_site_fract_z
Si Si1 0.571170 0.251510 0.792950
Si Si2 0.155199 0.464480 0.252365
Si Si3 0.351753 0.951150 0.518017
Si Si4 0.725988 0.309492 0.281824
Si Si5 0.237502 0.295118 0.006690
Si Si6 0.279477 0.609056 0.075102
Si Si7 0.445492 0.855151 0.764905
O O1 0.427806 0.263212 0.809446
O O2 0.369373 0.299213 0.659323
O O3 0.912528 0.299737 0.921562
O O4 0.615323 0.133857 0.784293
O O5 0.509849 0.467929 0.360982
O O6 0.921443 0.475679 0.105040
O O7 0.093395 0.561907 0.273900
O O8 0.329714 0.828253 0.533442
O O9 0.626939 0.968606 0.570122
O O10 0.491437 0.252729 0.242983
O O11 0.987109 0.371006 0.418528
O O12 0.502581 0.358171 0.143567
O O13 0.154171 0.341191 0.906432
O O14 0.598248 0.607948 0.153742
#
# Coordination Sequence:
#
# PCOD9136296 Si02
#       7
#     4   4   4   4   4   4   4
#     4  10  23  42  67 100 131 177 226 282 341 416
#     4  11  26  43  72  98 140 178 226 294 355 389
#     4  11  23  46  65  97 136 179 228 282 343 408
#     4  12  20  39  71  97 130 180 226 274 326 421
#     4  10  21  40  65 100 130 172 233 269 332 418
#     4  11  24  44  70  98 137 178 237 273 333 427
#     4  11  23  44  68 100 138 180 222 290 342 401
#
# _framework density 24.433351999999999
#
# number of rings (size 3 to 8) (size 9 to 14) (size 15 to 20)
#    0.000    1.143    4.286    0.857    6.000    0.000 
#    2.571    1.429    0.000    0.000    0.000    0.000 
#    0.000    0.000    0.000    0.000    0.000    0.000 
#
# Total GULP energy -78182.758579 kJ/mol
# GULP energy per Si atom -5584.482756 kJ/mol
# Density = 2.437774 g / cm^3
# Si number density = 24.433352 Si / 1000 Ang^3
#
#
#
# Elastic Constant Matrix: (Units=GPa)
#
#
# Indices 1 2 3 4 5 6 
#
# 1 136.6932 9.1241 33.7111 0.0015 11.1351 0.0002
# 2 9.1241 32.8580 2.4571 0.0006 -2.5019 0.0003
# 3 33.7111 2.4571 141.4323 0.0068 -14.3710 0.0021
# 4 0.0015 0.0006 0.0068 14.0720 0.0015 4.7993
# 5 11.1351 -2.5019 -14.3710 0.0015 31.4682 0.0000
# 6 0.0002 0.0003 0.0021 4.7993 0.0000 26.4030
#
#
#
# Elastic Compliance Matrix: (Units=1/GPa)
#
#
# Indices 1 2 3 4 5 6 
#
# 1 0.008421 -0.002484 -0.002398 0.000001 -0.004272 0.000000
# 2 -0.002484 0.031364 0.000409 -0.000002 0.003559 0.000000
# 3 -0.002398 0.000409 0.008100 -0.000004 0.004580 0.000000
# 4 0.000001 -0.000002 -0.000004 0.075760 -0.000006 -0.013771
# 5 -0.004272 0.003559 0.004580 -0.000006 0.035665 0.000001
# 6 0.000000 0.000000 0.000000 -0.013771 0.000001 0.040378
#
#
# Mechanical properties :
#
#
# Convention : Reuss Voigt Hill
#
# Bulk Modulus (GPa) = 25.68143 44.61868 35.15005
# Shear Modulus (GPa) = 22.56171 32.10138 27.33155
#
# Velocity S-wave (km/s) = 3.04204 3.62862 3.34820
# Velocity P-wave (km/s) = 4.78250 5.98806 5.41891
#
# Compressibility (1/GPa) = 0.03893865
#
# Stress axis : x y z
#
# Youngs Moduli (GPa) = 118.75148 31.88334 123.45005
#
# Poissons Ratio (x) = 0.07921 0.29605
# Poissons Ratio (y) = 0.29502 -0.05049
# Poissons Ratio (z) = 0.28478 -0.01304
#
# Static dielectric constant tensor:
#      x y z
#    x 1.942980 0.000000 0.040540 
#    y 0.000000 1.989570 0.000000 
#    z 0.040540 0.000000 1.930950 
# 
# From -- ./inp_files/32732.got.cif
#   From: 2010.05.17/outbox.cif.g08.bks.cpg/sg9_17_cif.got.tgz:32732.got - 2010.06.03 20:04:27.
