data_PCOD9136653
_publ_section_title
;
Structure prediction by ZEFSAII (Michael W. Deem and Ramdas Pophale) SiO2 
 PCOD9136653
Probable space group: C C
;
_chemical_formula_sum "Si O2"
_cell_formula_units_Z 32
_cell_length_a 5.843541
_cell_length_b 21.192444
_cell_length_c 11.950297
_cell_angle_alpha 90.000000
_cell_angle_beta 118.037065
_cell_angle_gamma 90.000000
_cell_volume 1306.234850
_symmetry_space_group_name_H-M "C C"
_symmetry_group_IT_number 9
_symmetry_cell_setting 'monoclinic'
loop_
_space_group_symop_operation_xyz
x,y,z
x,-y,1/2+z
1/2+x,1/2+y,z
1/2+x,1/2-y,1/2+z
loop_
_atom_site_type_symbol
_atom_site_label
_atom_site_fract_x
_atom_site_fract_y
_atom_site_fract_z
Si Si1 0.076700 0.354771 0.629120
Si Si2 0.246386 0.855007 0.009797
Si Si3 0.749291 0.448854 0.457017
Si Si4 0.140670 0.111127 0.713792
Si Si5 0.117205 0.440811 0.005353
Si Si6 0.322931 0.453460 0.831126
Si Si7 0.895802 0.241916 0.742857
Si Si8 0.343037 0.724995 0.000955
O O1 0.242603 0.416237 0.702743
O O2 0.201884 0.328682 0.542673
O O3 0.795249 0.388681 0.546757
O O4 0.053477 0.300853 0.719982
O O5 0.323292 0.871653 0.152910
O O6 0.154058 0.784704 0.976887
O O7 0.487284 0.872540 0.988466
O O8 0.021220 0.902124 0.926356
O O9 0.801942 0.420412 0.347752
O O10 0.468327 0.480178 0.376337
O O11 0.941043 0.507261 0.526333
O O12 0.906721 0.064823 0.619565
O O13 0.011442 0.176730 0.721842
O O14 0.096930 0.456022 0.869845
O O15 0.606835 0.256268 0.628453
O O16 0.889748 0.228963 0.876793
#
# Coordination Sequence:
#
# PCOD9136653 Si02
#       8
#     4   4   4   4   4   4   4   4
#     4  12  27  46  72 112 157 190 252 319 376 459
#     4  10  21  42  70  99 134 192 233 290 369 436
#     4  11  26  43  70 105 141 196 249 302 370 443
#     4  11  23  42  69 100 142 186 241 295 370 439
#     4  10  22  43  71  99 140 191 242 302 364 440
#     4  10  24  45  71 100 145 194 245 302 372 440
#     4  12  27  44  75 110 151 197 248 310 382 453
#     4  12  26  45  74 109 150 196 248 304 385 450
#
# _framework density 24.497892
#
# number of rings (size 3 to 8) (size 9 to 14) (size 15 to 20)
#    0.000    1.000    2.500    3.000    3.500    9.000 
#    0.000    1.250    0.000    0.000    0.000    0.000 
#    0.000    0.000    0.000    0.000    0.000    0.000 
#
# Total GULP energy -89195.301370 kJ/mol
# GULP energy per Si atom -5574.706336 kJ/mol
# Density = 2.444213 g / cm^3
# Si number density = 24.497892 Si / 1000 Ang^3
#
#
#
# Elastic Constant Matrix: (Units=GPa)
#
#
# Indices 1 2 3 4 5 6 
#
# 1 59.7816 36.6100 30.2166 0.0000 -14.7934 0.0000
# 2 36.6100 120.5449 51.1972 0.0000 -4.5882 0.0000
# 3 30.2166 51.1972 111.0862 0.0000 -18.1048 0.0000
# 4 0.0000 0.0000 0.0000 43.5518 0.0000 0.0925
# 5 -14.7934 -4.5882 -18.1048 0.0000 35.6611 0.0000
# 6 0.0000 0.0000 0.0000 0.0925 0.0000 26.4491
#
#
#
# Elastic Compliance Matrix: (Units=1/GPa)
#
#
# Indices 1 2 3 4 5 6 
#
# 1 0.023415 -0.005778 -0.002447 0.000000 0.007728 0.000000
# 2 -0.005778 0.011787 -0.004365 0.000000 -0.003097 0.000000
# 3 -0.002447 -0.004365 0.012453 0.000000 0.004746 0.000000
# 4 0.000000 0.000000 0.000000 0.022961 0.000000 -0.000080
# 5 0.007728 -0.003097 0.004746 0.000000 0.033258 0.000000
# 6 0.000000 0.000000 0.000000 -0.000080 0.000000 0.037809
#
#
# Mechanical properties :
#
#
# Convention : Reuss Voigt Hill
#
# Bulk Modulus (GPa) = 44.49465 58.60672 51.55069
# Shear Modulus (GPa) = 28.67730 32.69166 30.68448
#
# Velocity S-wave (km/s) = 3.42512 3.65700 3.54296
# Velocity P-wave (km/s) = 5.81756 6.46581 6.15023
#
# Compressibility (1/GPa) = 0.02247461
#
# Stress axis : x y z
#
# Youngs Moduli (GPa) = 42.70778 84.84258 80.30324
#
# Poissons Ratio (x) = 0.49021 0.19648
# Poissons Ratio (y) = 0.24676 0.35054
# Poissons Ratio (z) = 0.10449 0.37035
#
# Static dielectric constant tensor:
#      x y z
#    x 2.020510 0.000000 -0.002140 
#    y 0.000000 1.953860 0.000000 
#    z -0.002140 0.000000 2.070760 
# 
# From -- ./inp_files/13478.got.cif
#   From: 2010.05.17/outbox.cif.g08.bks.cpg/sg9_7_cif.got.tgz:13478.got - 2010.06.03 20:04:27.
