data_PCOD9136895
_publ_section_title
;
Structure prediction by ZEFSAII (Michael W. Deem and Ramdas Pophale) SiO2 
 PCOD9136895
Probable space group: C C
;
_chemical_formula_sum "Si O2"
_cell_formula_units_Z 28
_cell_length_a 12.740558
_cell_length_b 9.525580
_cell_length_c 18.233073
_cell_angle_alpha 90.000000
_cell_angle_beta 30.849418
_cell_angle_gamma 90.000000
_cell_volume 1134.681095
_symmetry_space_group_name_H-M "C C"
_symmetry_group_IT_number 9
_symmetry_cell_setting 'monoclinic'
loop_
_space_group_symop_operation_xyz
x,y,z
x,-y,1/2+z
1/2+x,1/2+y,z
1/2+x,1/2-y,1/2+z
loop_
_atom_site_type_symbol
_atom_site_label
_atom_site_fract_x
_atom_site_fract_y
_atom_site_fract_z
Si Si1 0.286130 0.293717 0.134880
Si Si2 0.824624 0.508108 0.682319
Si Si3 0.566411 0.543524 0.707664
Si Si4 0.227559 0.585429 0.503952
Si Si5 0.872159 0.564199 0.903503
Si Si6 0.043181 0.945062 0.485390
Si Si7 0.638591 0.836291 0.660444
O O1 0.268336 0.328819 0.056236
O O2 0.359262 0.141874 0.120166
O O3 0.896158 0.062743 0.339179
O O4 0.423667 0.418004 0.086432
O O5 0.680234 0.590439 0.713302
O O6 0.683149 0.489473 0.837605
O O7 0.011789 0.605370 0.593730
O O8 0.734997 0.475301 0.554670
O O9 0.520030 0.697172 0.705320
O O10 0.186430 0.428776 0.560160
O O11 0.556857 0.826591 0.300964
O O12 0.705391 0.616965 0.944842
O O13 0.985833 0.426317 0.803443
O O14 0.865871 0.843572 0.561322
#
# Coordination Sequence:
#
# PCOD9136895 Si02
#       7
#     4   4   4   4   4   4   4
#     4  10  24  43  69 102 138 177 242 291 345 441
#     4  12  24  43  74  98 135 194 232 285 373 420
#     4  12  25  41  65 106 137 174 244 286 355 440
#     4  10  23  46  68 100 139 182 229 296 358 408
#     4  10  23  42  67  99 137 177 233 298 350 422
#     4  10  21  45  68  94 137 189 227 294 367 413
#     4  10  22  44  65  95 137 181 233 288 346 436
#
# _framework density 24.676535999999999
#
# number of rings (size 3 to 8) (size 9 to 14) (size 15 to 20)
#    0.000    1.714    5.714    0.857    6.000    2.286 
#    5.143    0.000    0.000    0.000    0.000    0.000 
#    0.000    0.000    0.000    0.000    0.000    0.000 
#
# Total GULP energy -78077.330196 kJ/mol
# GULP energy per Si atom -5576.952157 kJ/mol
# Density = 2.462037 g / cm^3
# Si number density = 24.676536 Si / 1000 Ang^3
#
#
#
# Elastic Constant Matrix: (Units=GPa)
#
#
# Indices 1 2 3 4 5 6 
#
# 1 75.7043 -27.8611 16.0437 -0.0005 -14.9361 0.0002
# 2 -27.8611 112.2176 25.0730 -0.0011 6.9102 -0.0002
# 3 16.0437 25.0730 175.4273 -0.0035 2.9554 0.0009
# 4 -0.0005 -0.0011 -0.0035 28.4309 0.0009 3.3271
# 5 -14.9361 6.9102 2.9554 0.0009 34.5588 -0.0001
# 6 0.0002 -0.0002 0.0009 3.3271 -0.0001 4.3005
#
#
#
# Elastic Compliance Matrix: (Units=1/GPa)
#
#
# Indices 1 2 3 4 5 6 
#
# 1 0.016502 0.004193 -0.002218 0.000000 0.006483 0.000000
# 2 0.004193 0.010375 -0.001865 0.000000 -0.000103 0.000001
# 3 -0.002218 -0.001865 0.006188 0.000001 -0.001115 -0.000002
# 4 0.000000 0.000000 0.000001 0.038675 -0.000001 -0.029921
# 5 0.006483 -0.000103 -0.001115 -0.000001 0.031854 0.000002
# 6 0.000000 0.000001 -0.000002 -0.029921 0.000002 0.255681
#
#
# Mechanical properties :
#
#
# Convention : Reuss Voigt Hill
#
# Bulk Modulus (GPa) = 30.04156 43.31781 36.67968
# Shear Modulus (GPa) = 13.50808 36.79760 25.15284
#
# Velocity S-wave (km/s) = 2.34221 3.86579 3.19611
# Velocity P-wave (km/s) = 4.41760 6.12521 5.34010
#
# Compressibility (1/GPa) = 0.03328722
#
# Stress axis : x y z
#
# Youngs Moduli (GPa) = 60.60016 96.38264 161.59070
#
# Poissons Ratio (x) = -0.40416 0.35836
# Poissons Ratio (y) = -0.25411 0.30131
# Poissons Ratio (z) = 0.13439 0.17972
#
# Static dielectric constant tensor:
#      x y z
#    x 2.126630 0.000000 0.043800 
#    y 0.000000 2.177300 0.000000 
#    z 0.043800 0.000000 1.992710 
# 
# From -- ./inp_files/33688.got.cif
#   From: 2010.05.17/outbox.cif.g08.bks.cpg/sg9_17_cif.got.tgz:33688.got - 2010.06.03 20:04:27.
