data_PCOD9136052
_publ_section_title
;
Structure prediction by ZEFSAII (Michael W. Deem and Ramdas Pophale) SiO2 
 PCOD9136052
Probable space group: C C
;
_chemical_formula_sum "Si O2"
_cell_formula_units_Z 28
_cell_length_a 11.285201
_cell_length_b 16.437792
_cell_length_c 8.289475
_cell_angle_alpha 90.000000
_cell_angle_beta 135.893864
_cell_angle_gamma 90.000000
_cell_volume 1070.243546
_symmetry_space_group_name_H-M "C C"
_symmetry_group_IT_number 9
_symmetry_cell_setting 'monoclinic'
loop_
_space_group_symop_operation_xyz
x,y,z
x,-y,1/2+z
1/2+x,1/2+y,z
1/2+x,1/2-y,1/2+z
loop_
_atom_site_type_symbol
_atom_site_label
_atom_site_fract_x
_atom_site_fract_y
_atom_site_fract_z
Si Si1 0.356750 0.476723 0.289750
Si Si2 0.366252 0.852071 0.692461
Si Si3 0.132426 0.218233 0.551614
Si Si4 0.978632 0.831212 0.229547
Si Si5 0.479413 0.878613 0.451152
Si Si6 0.427555 0.621175 0.129113
Si Si7 0.071243 0.584706 0.694500
O O1 0.350251 0.403017 0.153961
O O2 0.407475 0.558207 0.254918
O O3 0.487817 0.440806 0.548671
O O4 0.180130 0.487321 0.215311
O O5 0.419284 0.757033 0.731402
O O6 0.436375 0.896822 0.597073
O O7 0.163329 0.852836 0.482353
O O8 0.440089 0.886011 0.932183
O O9 0.018233 0.178874 0.580874
O O10 0.132421 0.312980 0.595898
O O11 0.044619 0.194254 0.297130
O O12 0.315014 0.177479 0.742527
O O13 0.499065 0.929259 0.302619
O O14 0.237923 0.644291 0.881073
#
# Coordination Sequence:
#
# PCOD9136052 Si02
#       7
#     4   4   4   4   4   4   4
#     4  10  23  41  63  92 121 180 225 266 320 388
#     4  10  22  39  63 101 133 166 213 270 347 383
#     4  10  21  38  65  94 133 171 210 278 326 400
#     4  10  21  38  65  94 133 171 210 278 326 400
#     4  10  22  39  63 101 133 166 213 270 347 383
#     4  10  23  41  63  92 121 180 225 266 320 388
#     4  10  24  38  68  90 128 170 212 284 308 404
#
# _framework density 26.162269999999999
#
# number of rings (size 3 to 8) (size 9 to 14) (size 15 to 20)
#    0.857    1.143    0.000    2.571    4.000    4.571 
#    0.000    1.429    6.286    0.000    0.000    0.000 
#    0.000    0.000    0.000    0.000    0.000    0.000 
#
# Total GULP energy -78168.195123 kJ/mol
# GULP energy per Si atom -5583.442509 kJ/mol
# Density = 2.610272 g / cm^3
# Si number density = 26.162270 Si / 1000 Ang^3
#
#
#
# Elastic Constant Matrix: (Units=GPa)
#
#
# Indices 1 2 3 4 5 6 
#
# 1 138.7954 58.1685 33.8250 0.0000 -22.2739 0.0000
# 2 58.1685 81.7022 18.4685 0.0000 -27.8522 0.0000
# 3 33.8250 18.4685 153.5506 0.0000 -21.6925 0.0000
# 4 0.0000 0.0000 0.0000 43.5559 0.0000 -15.4886
# 5 -22.2739 -27.8522 -21.6925 0.0000 38.6161 0.0000
# 6 0.0000 0.0000 0.0000 -15.4886 0.0000 24.8837
#
#
#
# Elastic Compliance Matrix: (Units=1/GPa)
#
#
# Indices 1 2 3 4 5 6 
#
# 1 0.010580 -0.007163 -0.001452 0.000000 0.000120 0.000000
# 2 -0.007163 0.021095 0.000659 0.000000 0.011453 0.000000
# 3 -0.001452 0.000659 0.007280 0.000000 0.003727 0.000000
# 4 0.000000 0.000000 0.000000 0.029485 0.000000 0.018353
# 5 0.000120 0.011453 0.003727 0.000000 0.036320 0.000000
# 6 0.000000 0.000000 0.000000 0.018353 0.000000 0.051610
#
#
# Mechanical properties :
#
#
# Convention : Reuss Voigt Hill
#
# Bulk Modulus (GPa) = 43.39985 66.10802 54.75393
# Shear Modulus (GPa) = 27.78330 38.98356 33.38343
#
# Velocity S-wave (km/s) = 3.26231 3.86433 3.57601
# Velocity P-wave (km/s) = 5.55112 6.72562 6.16640
#
# Compressibility (1/GPa) = 0.02304155
#
# Stress axis : x y z
#
# Youngs Moduli (GPa) = 94.51632 47.40442 137.36901
#
# Poissons Ratio (x) = 0.33958 0.19947
# Poissons Ratio (y) = 0.67706 -0.09050
# Poissons Ratio (z) = 0.13725 -0.03123
#
# Static dielectric constant tensor:
#      x y z
#    x 2.109190 0.000000 -0.029830 
#    y 0.000000 2.201490 0.000000 
#    z -0.029830 0.000000 2.091800 
# 
# From -- ./inp_files/8395.got.cif
#   From: 2010.05.17/outbox.cif.g08.bks.cpg/sg9_5_cif.got.tgz:8395.got - 2010.06.03 20:04:27.
