data_PCOD9136001
_publ_section_title
;
Structure prediction by ZEFSAII (Michael W. Deem and Ramdas Pophale) SiO2 
 PCOD9136001
Probable space group: C C
;
_chemical_formula_sum "Si O2"
_cell_formula_units_Z 32
_cell_length_a 6.891124
_cell_length_b 13.568861
_cell_length_c 18.230463
_cell_angle_alpha 90.000000
_cell_angle_beta 56.434752
_cell_angle_gamma 90.000000
_cell_volume 1420.397804
_symmetry_space_group_name_H-M "C C"
_symmetry_group_IT_number 9
_symmetry_cell_setting 'monoclinic'
loop_
_space_group_symop_operation_xyz
x,y,z
x,-y,1/2+z
1/2+x,1/2+y,z
1/2+x,1/2-y,1/2+z
loop_
_atom_site_type_symbol
_atom_site_label
_atom_site_fract_x
_atom_site_fract_y
_atom_site_fract_z
Si Si1 0.182170 0.186403 0.908570
Si Si2 0.177488 0.999941 0.001609
Si Si3 0.674416 0.775789 0.545457
Si Si4 0.638460 0.991366 0.626789
Si Si5 0.125234 0.715817 0.894198
Si Si6 0.314791 0.089188 0.321292
Si Si7 0.752387 0.598207 0.629326
Si Si8 0.485711 0.554069 0.823355
O O1 0.173269 0.112839 0.980107
O O2 0.432362 0.229508 0.871697
O O3 0.146393 0.126080 0.840981
O O4 0.944662 0.244959 0.966534
O O5 0.301946 0.949495 0.906828
O O6 0.905406 0.974967 0.070817
O O7 0.297181 0.971398 0.050930
O O8 0.634879 0.888759 0.579602
O O9 0.546820 0.757737 0.494098
O O10 0.654011 0.700203 0.617045
O O11 0.516627 0.957382 0.728655
O O12 0.487670 0.082380 0.626644
O O13 0.321564 0.793418 0.827131
O O14 0.234718 0.606192 0.878897
O O15 0.065672 0.050328 0.339796
O O16 0.559717 0.555312 0.724071
#
# Coordination Sequence:
#
# PCOD9136001 Si02
#       8
#     4   4   4   4   4   4   4   4
#     4   9  21  39  59  86 119 164 206 257 320 379
#     4  10  21  40  61  88 122 162 216 257 320 385
#     4  10  21  38  60  92 124 159 212 262 316 387
#     4  10  23  41  59  89 134 161 204 280 310 382
#     4  11  20  40  64  88 127 166 210 268 320 378
#     4  10  21  40  63  91 122 166 216 253 322 389
#     4  11  21  37  62  89 118 166 208 256 328 377
#     4   9  22  39  56  89 126 158 210 265 310 383
#
# _framework density 22.528898999999999
#
# number of rings (size 3 to 8) (size 9 to 14) (size 15 to 20)
#    0.000    2.000    1.250    2.250    1.750    3.000 
#    0.000   12.500    0.000    0.000    0.000    0.000 
#    0.000    0.000    0.000    0.000    0.000    0.000 
#
# Total GULP energy -89080.715898 kJ/mol
# GULP energy per Si atom -5567.544744 kJ/mol
# Density = 2.247762 g / cm^3
# Si number density = 22.528899 Si / 1000 Ang^3
#
#
#
# Elastic Constant Matrix: (Units=GPa)
#
#
# Indices 1 2 3 4 5 6 
#
# 1 55.2127 9.0968 22.5014 0.0000 3.5896 -0.0001
# 2 9.0968 57.7859 2.4130 0.0000 5.7064 0.0000
# 3 22.5014 2.4130 110.4982 0.0000 16.9047 -0.0001
# 4 0.0000 0.0000 0.0000 24.6377 0.0000 4.0683
# 5 3.5896 5.7064 16.9047 0.0000 21.1954 0.0001
# 6 -0.0001 0.0000 -0.0001 4.0683 0.0001 21.6507
#
#
#
# Elastic Compliance Matrix: (Units=1/GPa)
#
#
# Indices 1 2 3 4 5 6 
#
# 1 0.020274 -0.003089 -0.004172 0.000000 0.000726 0.000000
# 2 -0.003089 0.018263 0.001028 0.000000 -0.005214 0.000000
# 3 -0.004172 0.001028 0.011175 0.000000 -0.008483 0.000000
# 4 0.000000 0.000000 0.000000 0.041888 0.000000 -0.007871
# 5 0.000726 -0.005214 -0.008483 0.000000 0.055226 0.000000
# 6 0.000000 0.000000 0.000000 -0.007871 0.000000 0.047667
#
#
# Mechanical properties :
#
#
# Convention : Reuss Voigt Hill
#
# Bulk Modulus (GPa) = 26.84873 32.39101 29.61987
# Shear Modulus (GPa) = 22.79202 26.12913 24.46057
#
# Velocity S-wave (km/s) = 3.18414 3.40929 3.29863
# Velocity P-wave (km/s) = 5.04596 5.46867 5.26156
#
# Compressibility (1/GPa) = 0.03724571
#
# Stress axis : x y z
#
# Youngs Moduli (GPa) = 49.32469 54.75411 89.48704
#
# Poissons Ratio (x) = 0.16914 0.37334
# Poissons Ratio (y) = 0.15236 -0.09198
# Poissons Ratio (z) = 0.20578 -0.05628
#
# Static dielectric constant tensor:
#      x y z
#    x 1.936830 0.000000 -0.047660 
#    y 0.000000 1.908630 0.000000 
#    z -0.047660 0.000000 1.851090 
# 
# From -- ./inp_files/21924.got.cif
#   From: 2010.05.17/outbox.cif.g08.bks.cpg/sg9_11_cif.got.tgz:21924.got - 2010.06.03 20:04:27.
