data_PCOD9136648
_publ_section_title
;
Structure prediction by ZEFSAII (Michael W. Deem and Ramdas Pophale) SiO2 
 PCOD9136648
Probable space group: C C
;
_chemical_formula_sum "Si O2"
_cell_formula_units_Z 32
_cell_length_a 10.566144
_cell_length_b 9.301547
_cell_length_c 17.569876
_cell_angle_alpha 90.000000
_cell_angle_beta 119.435671
_cell_angle_gamma 90.000000
_cell_volume 1503.878308
_symmetry_space_group_name_H-M "C C"
_symmetry_group_IT_number 9
_symmetry_cell_setting 'monoclinic'
loop_
_space_group_symop_operation_xyz
x,y,z
x,-y,1/2+z
1/2+x,1/2+y,z
1/2+x,1/2-y,1/2+z
loop_
_atom_site_type_symbol
_atom_site_label
_atom_site_fract_x
_atom_site_fract_y
_atom_site_fract_z
Si Si1 0.307860 0.761061 0.142240
Si Si2 0.892891 0.020861 0.528706
Si Si3 0.123872 0.897570 0.372014
Si Si4 0.355028 0.421327 0.182817
Si Si5 0.061044 0.168904 0.449753
Si Si6 0.864749 0.397843 0.313276
Si Si7 0.073832 0.395213 0.937130
Si Si8 0.541538 0.788638 0.089064
O O1 0.322008 0.593724 0.171004
O O2 0.294324 0.858690 0.212506
O O3 0.448853 0.817776 0.137444
O O4 0.175939 0.773070 0.044648
O O5 0.987362 0.874537 0.556430
O O6 0.919036 0.103020 0.616494
O O7 0.717886 0.005846 0.477297
O O8 0.935017 0.103976 0.465538
O O9 0.246864 0.892658 0.344778
O O10 0.127776 0.761584 0.428700
O O11 0.971117 0.895544 0.282369
O O12 0.133466 0.042363 0.423126
O O13 0.211414 0.324408 0.151412
O O14 0.987435 0.280632 0.371039
O O15 0.951103 0.547063 0.344524
O O16 0.010606 0.382464 0.003965
#
# Coordination Sequence:
#
# PCOD9136648 Si02
#       8
#     4   4   4   4   4   4   4   4
#     4  11  25  43  67 102 138 183 228 286 344 408
#     4  10  21  42  70  96 140 177 224 286 340 406
#     4  12  25  44  69 102 138 183 230 287 342 411
#     4  10  23  43  66 102 138 176 234 283 334 417
#     4  12  23  44  70  97 144 181 225 287 348 405
#     4  12  26  45  69 105 139 181 231 286 342 408
#     4  11  24  44  69 104 138 182 230 281 345 411
#     4  10  21  43  68  96 135 183 224 278 345 406
#
# _framework density 21.278317000000001
#
# number of rings (size 3 to 8) (size 9 to 14) (size 15 to 20)
#    0.000    1.000    3.750    3.750    0.000    5.000 
#    2.250    0.000    0.000    0.000    0.000    0.000 
#    0.000    0.000    0.000    0.000    0.000    0.000 
#
# Total GULP energy -89379.502261 kJ/mol
# GULP energy per Si atom -5586.218891 kJ/mol
# Density = 2.122989 g / cm^3
# Si number density = 21.278317 Si / 1000 Ang^3
#
#
#
# Elastic Constant Matrix: (Units=GPa)
#
#
# Indices 1 2 3 4 5 6 
#
# 1 103.9983 46.5803 17.0145 0.0000 -7.2434 0.0000
# 2 46.5803 72.3491 19.7883 0.0000 6.8370 0.0000
# 3 17.0145 19.7883 83.5731 0.0000 11.3927 0.0000
# 4 0.0000 0.0000 0.0000 33.0636 0.0000 2.7964
# 5 -7.2434 6.8370 11.3927 0.0000 41.3541 0.0000
# 6 0.0000 0.0000 0.0000 2.7964 0.0000 26.9663
#
#
#
# Elastic Compliance Matrix: (Units=1/GPa)
#
#
# Indices 1 2 3 4 5 6 
#
# 1 0.014279 -0.009248 -0.001316 0.000000 0.004393 0.000000
# 2 -0.009248 0.020864 -0.002458 0.000000 -0.004392 0.000000
# 3 -0.001316 -0.002458 0.013291 0.000000 -0.003486 0.000000
# 4 0.000000 0.000000 0.000000 0.030512 0.000000 -0.003164
# 5 0.004393 -0.004392 -0.003486 0.000000 0.026637 0.000000
# 6 0.000000 0.000000 0.000000 -0.003164 0.000000 0.037411
#
#
# Mechanical properties :
#
#
# Convention : Reuss Voigt Hill
#
# Bulk Modulus (GPa) = 44.66738 47.40961 46.03849
# Shear Modulus (GPa) = 28.32810 32.04596 30.18703
#
# Velocity S-wave (km/s) = 3.65267 3.88498 3.77062
# Velocity P-wave (km/s) = 6.23112 6.51561 6.37496
#
# Compressibility (1/GPa) = 0.02238770
#
# Stress axis : x y z
#
# Youngs Moduli (GPa) = 70.03232 47.93003 75.24018
#
# Poissons Ratio (x) = 0.44328 0.09902
# Poissons Ratio (y) = 0.64769 0.18498
# Poissons Ratio (z) = 0.09217 0.11784
#
# Static dielectric constant tensor:
#      x y z
#    x 1.763650 0.000000 0.016620 
#    y 0.000000 1.793130 0.000000 
#    z 0.016620 0.000000 1.749750 
# 
# From -- ./inp_files/29934.got.cif
#   From: 2010.05.17/outbox.cif.g08.bks.cpg/sg9_15_cif.got.tgz:29934.got - 2010.06.03 20:04:27.
