data_PCOD9136935
_publ_section_title
;
Structure prediction by ZEFSAII (Michael W. Deem and Ramdas Pophale) SiO2 
 PCOD9136935
Probable space group: C C
;
_chemical_formula_sum "Si O2"
_cell_formula_units_Z 32
_cell_length_a 15.569956
_cell_length_b 9.194089
_cell_length_c 16.415304
_cell_angle_alpha 90.000000
_cell_angle_beta 37.192141
_cell_angle_gamma 90.000000
_cell_volume 1420.476436
_symmetry_space_group_name_H-M "C C"
_symmetry_group_IT_number 9
_symmetry_cell_setting 'monoclinic'
loop_
_space_group_symop_operation_xyz
x,y,z
x,-y,1/2+z
1/2+x,1/2+y,z
1/2+x,1/2-y,1/2+z
loop_
_atom_site_type_symbol
_atom_site_label
_atom_site_fract_x
_atom_site_fract_y
_atom_site_fract_z
Si Si1 0.635790 0.991123 0.783320
Si Si2 0.129070 0.809480 0.499967
Si Si3 0.312427 0.765412 0.212408
Si Si4 0.133262 0.981828 0.129346
Si Si5 0.795936 0.265988 0.601339
Si Si6 0.841966 0.917562 0.924399
Si Si7 0.471744 0.943620 0.573266
Si Si8 0.107193 0.363151 0.645688
O O1 0.760409 0.869842 0.697975
O O2 0.540621 0.921672 0.781791
O O3 0.682064 0.145599 0.712227
O O4 0.581790 0.021233 0.916227
O O5 0.177420 0.800336 0.370970
O O6 0.166752 0.961048 0.513385
O O7 0.223913 0.682185 0.468724
O O8 0.962561 0.782491 0.638807
O O9 0.363017 0.922459 0.144932
O O10 0.230281 0.087097 0.112526
O O11 0.973465 0.029695 0.273200
O O12 0.134959 0.808597 0.132233
O O13 0.889692 0.186223 0.461890
O O14 0.889468 0.300674 0.608245
O O15 0.757922 0.055843 0.021741
O O16 0.526173 0.914495 0.624019
#
# Coordination Sequence:
#
# PCOD9136935 Si02
#       8
#     4   4   4   4   4   4   4   4
#     4  11  26  48  73 103 153 193 246 313 374 437
#     4  11  23  41  75 104 145 192 247 299 373 434
#     4  12  23  45  71 105 144 197 247 303 369 435
#     4  11  24  43  74 107 149 192 250 308 374 444
#     4  10  25  44  68 105 143 199 241 308 374 441
#     4  10  21  46  68 100 145 188 244 305 368 436
#     4  12  26  46  73 109 149 187 256 309 368 445
#     4  11  26  45  70 109 144 196 241 311 370 446
#
# _framework density 22.527653999999998
#
# number of rings (size 3 to 8) (size 9 to 14) (size 15 to 20)
#    0.000    1.000    3.750    1.500    1.750    7.000 
#    4.500    0.000    0.000    0.000    0.000    0.000 
#    0.000    0.000    0.000    0.000    0.000    0.000 
#
# Total GULP energy -89204.278375 kJ/mol
# GULP energy per Si atom -5575.267398 kJ/mol
# Density = 2.247638 g / cm^3
# Si number density = 22.527654 Si / 1000 Ang^3
#
#
#
# Elastic Constant Matrix: (Units=GPa)
#
#
# Indices 1 2 3 4 5 6 
#
# 1 95.8679 50.9536 16.3502 0.0000 11.8521 0.0000
# 2 50.9536 162.7635 34.8277 0.0000 4.4793 0.0000
# 3 16.3502 34.8277 60.3218 0.0000 5.6221 0.0000
# 4 0.0000 0.0000 0.0000 43.7757 0.0000 4.8860
# 5 11.8521 4.4793 5.6221 0.0000 18.5079 0.0000
# 6 0.0000 0.0000 0.0000 4.8860 0.0000 38.3047
#
#
#
# Elastic Compliance Matrix: (Units=1/GPa)
#
#
# Indices 1 2 3 4 5 6 
#
# 1 0.013545 -0.003877 -0.000733 0.000000 -0.007513 0.000000
# 2 -0.003877 0.008124 -0.003795 0.000000 0.001669 0.000000
# 3 -0.000733 -0.003795 0.019387 0.000000 -0.004501 0.000000
# 4 0.000000 0.000000 0.000000 0.023174 0.000000 -0.002956
# 5 -0.007513 0.001669 -0.004501 0.000000 0.059806 0.000000
# 6 0.000000 0.000000 0.000000 -0.002956 0.000000 0.026484
#
#
# Mechanical properties :
#
#
# Convention : Reuss Voigt Hill
#
# Bulk Modulus (GPa) = 41.24296 58.13514 49.68905
# Shear Modulus (GPa) = 28.50450 34.57244 31.53847
#
# Velocity S-wave (km/s) = 3.56098 3.92173 3.74570
# Velocity P-wave (km/s) = 5.93758 6.80946 6.38841
#
# Compressibility (1/GPa) = 0.02424656
#
# Stress axis : x y z
#
# Youngs Moduli (GPa) = 73.82570 123.09719 51.58076
#
# Poissons Ratio (x) = 0.47723 0.03780
# Poissons Ratio (y) = 0.28621 0.19575
# Poissons Ratio (z) = 0.05410 0.46716
#
# Static dielectric constant tensor:
#      x y z
#    x 1.923850 0.000000 0.037630 
#    y 0.000000 1.814840 0.000000 
#    z 0.037630 0.000000 1.845730 
# 
# From -- ./inp_files/30620.got.cif
#   From: 2010.05.17/outbox.cif.g08.bks.cpg/sg9_16_cif.got.tgz:30620.got - 2010.06.03 20:04:27.
