data_PCOD9136565
_publ_section_title
;
Structure prediction by ZEFSAII (Michael W. Deem and Ramdas Pophale) SiO2 
 PCOD9136565
Probable space group: C C
;
_chemical_formula_sum "Si O2"
_cell_formula_units_Z 32
_cell_length_a 7.386826
_cell_length_b 10.744562
_cell_length_c 26.252127
_cell_angle_alpha 90.000000
_cell_angle_beta 42.020813
_cell_angle_gamma 90.000000
_cell_volume 1394.752419
_symmetry_space_group_name_H-M "C C"
_symmetry_group_IT_number 9
_symmetry_cell_setting 'monoclinic'
loop_
_space_group_symop_operation_xyz
x,y,z
x,-y,1/2+z
1/2+x,1/2+y,z
1/2+x,1/2-y,1/2+z
loop_
_atom_site_type_symbol
_atom_site_label
_atom_site_fract_x
_atom_site_fract_y
_atom_site_fract_z
Si Si1 0.866470 0.493366 0.305280
Si Si2 0.240386 0.739571 0.700337
Si Si3 0.391608 0.572399 0.328266
Si Si4 0.153002 0.802511 0.428038
Si Si5 0.471052 0.881029 0.445015
Si Si6 0.672539 0.178359 0.186623
Si Si7 0.791982 0.237949 0.572162
Si Si8 0.391333 0.533715 0.051531
O O1 0.616355 0.535243 0.322943
O O2 0.752124 0.429671 0.379979
O O3 0.041842 0.377829 0.247420
O O4 0.054242 0.616408 0.262699
O O5 0.461690 0.733723 0.700132
O O6 0.346941 0.738634 0.620743
O O7 0.066882 0.865950 0.746675
O O8 0.181570 0.683186 0.387206
O O9 0.212513 0.448965 0.366058
O O10 0.365632 0.774448 0.429064
O O11 0.891741 0.849702 0.512746
O O12 0.490229 0.824840 0.497213
O O13 0.205691 0.969638 0.503369
O O14 0.975490 0.226715 0.131069
O O15 0.707653 0.068056 0.137687
O O16 0.816435 0.098537 0.545959
#
# Coordination Sequence:
#
# PCOD9136565 Si02
#       8
#     4   4   4   4   4   4   4   4
#     4  10  21  42  64  92 131 162 217 271 309 390
#     4  10  23  43  64  94 132 169 217 271 317 381
#     4  10  22  43  65  96 124 168 219 257 328 381
#     4   9  22  40  62  90 129 168 200 271 317 366
#     4   9  23  41  62  97 127 162 221 258 318 394
#     4  10  22  43  61  94 129 167 222 261 320 392
#     4  11  22  43  66  93 132 177 207 271 327 372
#     4   9  21  41  62  94 132 157 221 262 304 402
#
# _framework density 22.94314
#
# number of rings (size 3 to 8) (size 9 to 14) (size 15 to 20)
#    0.750    1.500    1.250    0.000    3.500    4.000 
#    9.000    0.000    0.000    0.000    0.000    0.000 
#    0.000    0.000    0.000    0.000    0.000    0.000 
#
# Total GULP energy -89067.410647 kJ/mol
# GULP energy per Si atom -5566.713165 kJ/mol
# Density = 2.289092 g / cm^3
# Si number density = 22.943140 Si / 1000 Ang^3
#
#
#
# Elastic Constant Matrix: (Units=GPa)
#
#
# Indices 1 2 3 4 5 6 
#
# 1 48.3037 18.0693 2.1712 -0.0007 -2.6683 0.0007
# 2 18.0693 63.5382 7.7830 -0.0005 -8.5794 0.0004
# 3 2.1712 7.7830 30.4717 -0.0025 0.7967 0.0024
# 4 -0.0007 -0.0005 -0.0025 40.9024 0.0012 -5.9156
# 5 -2.6683 -8.5794 0.7967 0.0012 35.0925 -0.0008
# 6 0.0007 0.0004 0.0024 -5.9156 -0.0008 21.6624
#
#
#
# Elastic Compliance Matrix: (Units=1/GPa)
#
#
# Indices 1 2 3 4 5 6 
#
# 1 0.023168 -0.006571 0.000023 0.000000 0.000155 -0.000001
# 2 -0.006571 0.018712 -0.004420 0.000000 0.004176 0.000000
# 3 0.000023 -0.004420 0.033993 0.000002 -0.001851 -0.000003
# 4 0.000000 0.000000 0.000002 0.025454 -0.000001 0.006951
# 5 0.000155 0.004176 -0.001851 -0.000001 0.029571 0.000001
# 6 -0.000001 0.000000 -0.000003 0.006951 0.000001 0.048061
#
#
# Mechanical properties :
#
#
# Convention : Reuss Voigt Hill
#
# Bulk Modulus (GPa) = 18.53979 22.04006 20.28992
# Shear Modulus (GPa) = 22.84426 27.15080 24.99753
#
# Velocity S-wave (km/s) = 3.15888 3.44378 3.30440
# Velocity P-wave (km/s) = 4.62634 5.04382 4.83958
#
# Compressibility (1/GPa) = 0.05393805
#
# Stress axis : x y z
#
# Youngs Moduli (GPa) = 43.16348 53.44044 29.41771
#
# Poissons Ratio (x) = 0.35113 -0.00069
# Poissons Ratio (y) = 0.28361 0.13004
# Poissons Ratio (z) = -0.00101 0.23623
#
# Static dielectric constant tensor:
#      x y z
#    x 1.896640 0.000000 -0.007390 
#    y 0.000000 1.859490 0.000000 
#    z -0.007390 0.000000 1.869320 
# 
# From -- ./inp_files/37169.got.cif
#   From: 2010.05.17/outbox.cif.g08.bks.cpg/sg9_19_cif.got.tgz:37169.got - 2010.06.03 20:04:27.
