data_PCOD9136590
_publ_section_title
;
Structure prediction by ZEFSAII (Michael W. Deem and Ramdas Pophale) SiO2 
 PCOD9136590
Probable space group: C C
;
_chemical_formula_sum "Si O2"
_cell_formula_units_Z 32
_cell_length_a 7.707683
_cell_length_b 16.300672
_cell_length_c 9.509504
_cell_angle_alpha 90.000000
_cell_angle_beta 90.361233
_cell_angle_gamma 90.000000
_cell_volume 1194.754259
_symmetry_space_group_name_H-M "C C"
_symmetry_group_IT_number 9
_symmetry_cell_setting 'monoclinic'
loop_
_space_group_symop_operation_xyz
x,y,z
x,-y,1/2+z
1/2+x,1/2+y,z
1/2+x,1/2-y,1/2+z
loop_
_atom_site_type_symbol
_atom_site_label
_atom_site_fract_x
_atom_site_fract_y
_atom_site_fract_z
Si Si1 0.084890 0.255254 0.756720
Si Si2 0.021159 0.657629 0.525552
Si Si3 0.157494 0.494952 0.410296
Si Si4 0.117471 0.857243 0.013592
Si Si5 0.636452 0.502534 0.304359
Si Si6 0.498042 0.425904 0.543383
Si Si7 0.499560 0.270762 0.753274
Si Si8 0.986917 0.435390 0.660215
O O1 0.040584 0.178795 0.656840
O O2 0.293780 0.258363 0.769104
O O3 0.020835 0.339748 0.682895
O O4 0.013072 0.268345 0.912547
O O5 0.822868 0.625895 0.539195
O O6 0.076881 0.692885 0.673934
O O7 0.148392 0.589139 0.465766
O O8 0.316333 0.440750 0.464552
O O9 0.997825 0.456358 0.497265
O O10 0.129718 0.509599 0.245098
O O11 0.055456 0.930484 0.911575
O O12 0.092592 0.784138 0.900665
O O13 0.632108 0.426878 0.412311
O O14 0.527960 0.501641 0.160296
O O15 0.815652 0.537284 0.243231
O O16 0.516087 0.347401 0.644760
#
# Coordination Sequence:
#
# PCOD9136590 Si02
#       8
#     4   4   4   4   4   4   4   4
#     4  10  21  42  66  92 129 175 220 274 331 400
#     4  10  23  43  64  96 131 170 224 276 330 400
#     4  11  22  41  67  96 130 175 222 274 337 402
#     4  10  22  41  66  92 132 171 218 275 335 392
#     4  11  23  42  63  97 134 173 218 282 332 394
#     4  11  24  41  66  96 134 172 221 279 340 391
#     4  10  23  44  64  96 133 170 226 278 331 396
#     4  11  22  42  66  93 135 174 221 276 334 399
#
# _framework density 26.783747999999999
#
# number of rings (size 3 to 8) (size 9 to 14) (size 15 to 20)
#    0.000    1.500    3.750    1.500    5.250    3.000 
#    6.750    0.000    0.000    0.000    0.000    0.000 
#    0.000    0.000    0.000    0.000    0.000    0.000 
#
# Total GULP energy -89441.698110 kJ/mol
# GULP energy per Si atom -5590.106132 kJ/mol
# Density = 2.672279 g / cm^3
# Si number density = 26.783748 Si / 1000 Ang^3
#
#
#
# Elastic Constant Matrix: (Units=GPa)
#
#
# Indices 1 2 3 4 5 6 
#
# 1 99.1665 2.0473 -1.2506 0.0000 -6.2235 0.0000
# 2 2.0473 54.9435 19.8358 0.0000 0.9701 0.0000
# 3 -1.2506 19.8358 113.8048 0.0000 3.0504 0.0000
# 4 0.0000 0.0000 0.0000 59.9110 0.0000 -1.1181
# 5 -6.2235 0.9701 3.0504 0.0000 37.4024 0.0000
# 6 0.0000 0.0000 0.0000 -1.1181 0.0000 19.4025
#
#
#
# Elastic Compliance Matrix: (Units=1/GPa)
#
#
# Indices 1 2 3 4 5 6 
#
# 1 0.010202 -0.000463 0.000147 0.000000 0.001698 0.000000
# 2 -0.000463 0.019446 -0.003386 0.000000 -0.000305 0.000000
# 3 0.000147 -0.003386 0.009396 0.000000 -0.000654 0.000000
# 4 0.000000 0.000000 0.000000 0.016709 0.000000 0.000963
# 5 0.001698 -0.000305 -0.000654 0.000000 0.027080 0.000000
# 6 0.000000 0.000000 0.000000 0.000963 0.000000 0.051595
#
#
# Mechanical properties :
#
#
# Convention : Reuss Voigt Hill
#
# Bulk Modulus (GPa) = 31.60591 34.35330 32.97961
# Shear Modulus (GPa) = 32.81278 39.82865 36.32071
#
# Velocity S-wave (km/s) = 3.50394 3.86041 3.68648
# Velocity P-wave (km/s) = 5.31001 5.72052 5.51908
#
# Compressibility (1/GPa) = 0.03163965
#
# Stress axis : x y z
#
# Youngs Moduli (GPa) = 98.01987 51.42535 106.42455
#
# Poissons Ratio (x) = 0.02383 -0.01568
# Poissons Ratio (y) = 0.04541 0.36038
# Poissons Ratio (z) = -0.01444 0.17414
#
# Static dielectric constant tensor:
#      x y z
#    x 2.139890 0.000000 -0.028110 
#    y 0.000000 2.281360 0.000000 
#    z -0.028110 0.000000 2.040370 
# 
# From -- ./inp_files/5751.got.cif
#   From: 2010.05.17/outbox.cif.g08.bks.cpg/sg9_3_cif.got.tgz:5751.got - 2010.06.03 20:04:27.
