data_PCOD9136333
_publ_section_title
;
Structure prediction by ZEFSAII (Michael W. Deem and Ramdas Pophale) SiO2 
 PCOD9136333
Probable space group: C C
;
_chemical_formula_sum "Si O2"
_cell_formula_units_Z 32
_cell_length_a 11.461639
_cell_length_b 10.103462
_cell_length_c 23.654347
_cell_angle_alpha 90.000000
_cell_angle_beta 148.896742
_cell_angle_gamma 90.000000
_cell_volume 1415.035012
_symmetry_space_group_name_H-M "C C"
_symmetry_group_IT_number 9
_symmetry_cell_setting 'monoclinic'
loop_
_space_group_symop_operation_xyz
x,y,z
x,-y,1/2+z
1/2+x,1/2+y,z
1/2+x,1/2-y,1/2+z
loop_
_atom_site_type_symbol
_atom_site_label
_atom_site_fract_x
_atom_site_fract_y
_atom_site_fract_z
Si Si1 0.051010 0.948309 0.159330
Si Si2 0.023363 0.335538 0.239461
Si Si3 0.971237 0.057355 0.247063
Si Si4 0.905083 0.399546 0.746325
Si Si5 0.070198 0.299970 0.536174
Si Si6 0.427707 0.550939 0.848822
Si Si7 0.687605 0.790054 0.962858
Si Si8 0.750664 0.765094 0.808673
O O1 0.192516 0.811806 0.226875
O O2 0.149345 0.049277 0.153367
O O3 0.071093 0.007273 0.230019
O O4 0.792441 0.903393 0.044832
O O5 0.079110 0.203394 0.297687
O O6 0.022070 0.461901 0.278958
O O7 0.193598 0.371181 0.260234
O O8 0.776224 0.302782 0.112103
O O9 0.999218 0.968309 0.313456
O O10 0.704784 0.081303 0.122491
O O11 0.992025 0.345078 0.841856
O O12 0.013871 0.301628 0.743661
O O13 0.895063 0.237927 0.506926
O O14 0.922515 0.318273 0.418988
O O15 0.607218 0.648436 0.953551
O O16 0.377892 0.403887 0.850376
#
# Coordination Sequence:
#
# PCOD9136333 Si02
#       8
#     4   4   4   4   4   4   4   4
#     4  12  23  42  66  94 135 171 221 278 337 393
#     4   9  20  41  64  93 131 168 222 271 335 391
#     4  10  22  39  64  93 131 169 214 276 336 399
#     4  10  21  40  67  90 129 172 219 276 324 397
#     4   9  20  41  61  96 126 167 215 269 333 388
#     4  11  22  41  65  94 134 176 223 276 333 403
#     4  11  23  40  65  98 128 175 224 269 333 399
#     4  10  23  40  68  94 128 178 220 277 333 398
#
# _framework density 22.614280999999998
#
# number of rings (size 3 to 8) (size 9 to 14) (size 15 to 20)
#    0.750    1.000    1.250    3.750    1.750    3.000 
#    4.500    0.000    5.500    0.000    0.000    0.000 
#    0.000    0.000    0.000    0.000    0.000    0.000 
#
# Total GULP energy -89099.230280 kJ/mol
# GULP energy per Si atom -5568.701892 kJ/mol
# Density = 2.256281 g / cm^3
# Si number density = 22.614281 Si / 1000 Ang^3
#
#
#
# Elastic Constant Matrix: (Units=GPa)
#
#
# Indices 1 2 3 4 5 6 
#
# 1 62.1385 6.8199 -17.5354 0.0001 4.8816 0.0000
# 2 6.8199 50.7649 7.2623 0.0002 5.2717 0.0001
# 3 -17.5354 7.2623 36.8065 0.0005 0.5604 0.0002
# 4 0.0001 0.0002 0.0005 28.5722 0.0002 9.3847
# 5 4.8816 5.2717 0.5604 0.0002 21.0187 0.0000
# 6 0.0000 0.0001 0.0002 9.3847 0.0000 39.7627
#
#
#
# Elastic Compliance Matrix: (Units=1/GPa)
#
#
# Indices 1 2 3 4 5 6 
#
# 1 0.019673 -0.003690 0.010160 0.000000 -0.003914 0.000000
# 2 -0.003690 0.021498 -0.005933 0.000000 -0.004377 0.000000
# 3 0.010160 -0.005933 0.033207 -0.000001 -0.001757 0.000000
# 4 0.000000 0.000000 -0.000001 0.037940 0.000000 -0.008955
# 5 -0.003914 -0.004377 -0.001757 0.000000 0.049630 0.000000
# 6 0.000000 0.000000 0.000000 -0.008955 0.000000 0.027263
#
#
# Mechanical properties :
#
#
# Convention : Reuss Voigt Hill
#
# Bulk Modulus (GPa) = 13.25347 15.86706 14.56027
# Shear Modulus (GPa) = 23.44264 28.08160 25.76212
#
# Velocity S-wave (km/s) = 3.22317 3.52769 3.37886
# Velocity P-wave (km/s) = 4.44130 4.86050 4.65562
#
# Compressibility (1/GPa) = 0.07545192
#
# Stress axis : x y z
#
# Youngs Moduli (GPa) = 50.83178 46.51684 30.11411
#
# Poissons Ratio (x) = 0.17164 -0.30596
# Poissons Ratio (y) = 0.18756 0.17867
# Poissons Ratio (z) = -0.51646 0.27598
#
# Static dielectric constant tensor:
#      x y z
#    x 1.875460 0.000000 0.023450 
#    y 0.000000 1.938760 0.000000 
#    z 0.023450 0.000000 1.864310 
# 
# From -- ./inp_files/35401.got.cif
#   From: 2010.05.17/outbox.cif.g08.bks.cpg/sg9_18_cif.got.tgz:35401.got - 2010.06.03 20:04:27.
