data_PCOD9136397
_publ_section_title
;
Structure prediction by ZEFSAII (Michael W. Deem and Ramdas Pophale) SiO2 
 PCOD9136397
Probable space group: C C
;
_chemical_formula_sum "Si O2"
_cell_formula_units_Z 20
_cell_length_a 7.840241
_cell_length_b 19.812321
_cell_length_c 9.060839
_cell_angle_alpha 90.000000
_cell_angle_beta 144.806595
_cell_angle_gamma 90.000000
_cell_volume 811.167663
_symmetry_space_group_name_H-M "C C"
_symmetry_group_IT_number 9
_symmetry_cell_setting 'monoclinic'
loop_
_space_group_symop_operation_xyz
x,y,z
x,-y,1/2+z
1/2+x,1/2+y,z
1/2+x,1/2-y,1/2+z
loop_
_atom_site_type_symbol
_atom_site_label
_atom_site_fract_x
_atom_site_fract_y
_atom_site_fract_z
Si Si1 0.399700 0.774841 0.232280
Si Si2 0.098681 0.704619 0.521632
Si Si3 0.377348 0.653027 0.430452
Si Si4 0.337109 0.461834 0.673295
Si Si5 0.025635 0.570404 0.642097
O O1 0.748111 0.764719 0.489109
O O2 0.796508 0.777895 0.788926
O O3 0.234802 0.842801 0.163096
O O4 0.327749 0.760253 0.744176
O O5 0.267238 0.660244 0.516431
O O6 0.014071 0.649943 0.589054
O O7 0.265561 0.591777 0.253168
O O8 0.209798 0.531177 0.646513
O O9 0.692743 0.459050 0.907723
O O10 0.193734 0.442769 0.415126
#
# Coordination Sequence:
#
# PCOD9136397 Si02
#       5
#     4   4   4   4   4
#     4   8  16  32  54  98 129 177 219 272 335 435
#     4  12  24  47  72 110 154 199 239 308 375 460
#     4  10  21  40  73 102 142 189 245 287 367 448
#     4  12  28  51  78 108 151 196 261 317 371 460
#     4  12  29  52  75 112 148 203 254 316 386 433
#
# _framework density 24.655813999999999
#
# number of rings (size 3 to 8) (size 9 to 14) (size 15 to 20)
#    1.200    0.000    2.000    3.600    2.800    1.600 
#   10.800    0.000    0.000    0.000    0.000    0.000 
#    0.000    0.000    0.000    0.000    0.000    0.000 
#
# Total GULP energy -55894.916631 kJ/mol
# GULP energy per Si atom -5589.491663 kJ/mol
# Density = 2.459970 g / cm^3
# Si number density = 24.655814 Si / 1000 Ang^3
#
#
#
# Elastic Constant Matrix: (Units=GPa)
#
#
# Indices 1 2 3 4 5 6 
#
# 1 134.2095 29.9343 56.5595 0.0000 3.8221 0.0000
# 2 29.9343 117.6991 50.4896 0.0000 6.7535 0.0000
# 3 56.5595 50.4896 202.5104 0.0000 23.5954 0.0000
# 4 0.0000 0.0000 0.0000 30.2457 0.0000 -2.4537
# 5 3.8221 6.7535 23.5954 0.0000 43.9778 0.0000
# 6 0.0000 0.0000 0.0000 -2.4537 0.0000 44.5931
#
#
#
# Elastic Compliance Matrix: (Units=1/GPa)
#
#
# Indices 1 2 3 4 5 6 
#
# 1 0.008634 -0.001306 -0.002157 0.000000 0.000607 0.000000
# 2 -0.001306 0.009713 -0.002023 0.000000 -0.000293 0.000000
# 3 -0.002157 -0.002023 0.006386 0.000000 -0.002928 0.000000
# 4 0.000000 0.000000 0.000000 0.033211 0.000000 0.001827
# 5 0.000607 -0.000293 -0.002928 0.000000 0.024302 0.000000
# 6 0.000000 0.000000 0.000000 0.001827 0.000000 0.022526
#
#
# Mechanical properties :
#
#
# Convention : Reuss Voigt Hill
#
# Bulk Modulus (GPa) = 72.66137 80.93176 76.79657
# Shear Modulus (GPa) = 41.55302 44.92570 43.23936
#
# Velocity S-wave (km/s) = 4.10972 4.27325 4.19229
# Velocity P-wave (km/s) = 7.21485 7.56594 7.39248
#
# Compressibility (1/GPa) = 0.01376247
#
# Stress axis : x y z
#
# Youngs Moduli (GPa) = 115.82408 102.95668 156.59645
#
# Poissons Ratio (x) = 0.13441 0.33772
# Poissons Ratio (y) = 0.15121 0.31677
# Poissons Ratio (z) = 0.24979 0.20827
#
# Static dielectric constant tensor:
#      x y z
#    x 2.025050 0.000000 -0.019260 
#    y 0.000000 1.980080 0.000000 
#    z -0.019260 0.000000 2.021200 
# 
# From -- ./inp_files/5863.got.cif
#   From: 2010.05.17/outbox.cif.g08.bks.cpg/sg9_3_cif.got.tgz:5863.got - 2010.06.03 20:04:27.
