data_PCOD9136467
_publ_section_title
;
Structure prediction by ZEFSAII (Michael W. Deem and Ramdas Pophale) SiO2 
 PCOD9136467
Probable space group: C C
;
_chemical_formula_sum "Si O2"
_cell_formula_units_Z 28
_cell_length_a 12.303232
_cell_length_b 24.217713
_cell_length_c 5.010681
_cell_angle_alpha 90.000000
_cell_angle_beta 47.983359
_cell_angle_gamma 90.000000
_cell_volume 1109.197667
_symmetry_space_group_name_H-M "C C"
_symmetry_group_IT_number 9
_symmetry_cell_setting 'monoclinic'
loop_
_space_group_symop_operation_xyz
x,y,z
x,-y,1/2+z
1/2+x,1/2+y,z
1/2+x,1/2-y,1/2+z
loop_
_atom_site_type_symbol
_atom_site_label
_atom_site_fract_x
_atom_site_fract_y
_atom_site_fract_z
Si Si1 0.741900 0.754961 0.654740
Si Si2 0.553382 0.866353 0.027651
Si Si3 0.249074 0.818276 0.656027
Si Si4 0.826542 0.897707 0.897599
Si Si5 0.593679 0.530888 0.866099
Si Si6 0.942756 0.158762 0.697132
Si Si7 0.414698 0.040523 0.434732
O O1 0.702735 0.706757 0.516680
O O2 0.892773 0.777909 0.278666
O O3 0.630045 0.806829 0.841169
O O4 0.762909 0.730236 0.913331
O O5 0.397967 0.852137 0.418380
O O6 0.512372 0.906842 0.851174
O O7 0.666317 0.898213 0.035300
O O8 0.102920 0.851340 0.823576
O O9 0.914569 0.858513 0.546121
O O10 0.932110 0.949786 0.710572
O O11 0.833889 0.873959 0.181182
O O12 0.604604 0.524014 0.530823
O O13 0.744444 0.560416 0.703772
O O14 0.436902 0.005312 0.130391
#
# Coordination Sequence:
#
# PCOD9136467 Si02
#       7
#     4   4   4   4   4   4   4
#     4  11  24  42  64  98 132 175 228 284 341 409
#     4  11  26  44  70 102 141 183 228 292 348 395
#     4  12  24  42  68  95 130 179 231 281 341 411
#     4  11  24  41  63  94 130 171 220 270 338 403
#     4  10  21  41  66  94 129 172 220 277 336 405
#     4  11  23  41  61  88 126 169 215 268 327 405
#     4  10  24  43  68 101 138 179 230 280 339 410
#
# _framework density 25.243469999999999
#
# number of rings (size 3 to 8) (size 9 to 14) (size 15 to 20)
#    0.000    1.143    0.000    6.000    0.000   10.286 
#    0.000    0.000    0.000    0.000    0.000    0.000 
#    0.000    0.000    0.000    0.000    0.000    0.000 
#
# Total GULP energy -78273.725245 kJ/mol
# GULP energy per Si atom -5590.980375 kJ/mol
# Density = 2.518601 g / cm^3
# Si number density = 25.243470 Si / 1000 Ang^3
#
#
#
# Elastic Constant Matrix: (Units=GPa)
#
#
# Indices 1 2 3 4 5 6 
#
# 1 134.2950 51.5620 48.7485 0.0000 -30.0833 0.0000
# 2 51.5620 59.5981 22.0137 0.0000 -12.2752 0.0000
# 3 48.7485 22.0137 99.9631 0.0000 -20.8813 0.0000
# 4 0.0000 0.0000 0.0000 50.3549 0.0000 -11.1352
# 5 -30.0833 -12.2752 -20.8813 0.0000 65.2145 0.0000
# 6 0.0000 0.0000 0.0000 -11.1352 0.0000 38.8482
#
#
#
# Elastic Compliance Matrix: (Units=1/GPa)
#
#
# Indices 1 2 3 4 5 6 
#
# 1 0.013035 -0.009287 -0.003666 0.000000 0.003091 0.000000
# 2 -0.009287 0.025210 -0.000993 0.000000 0.000143 0.000000
# 3 -0.003666 -0.000993 0.012451 0.000000 0.002109 0.000000
# 4 0.000000 0.000000 0.000000 0.021203 0.000000 0.006077
# 5 0.003091 0.000143 0.002109 0.000000 0.017462 0.000000
# 6 0.000000 0.000000 0.000000 0.006077 0.000000 0.027483
#
#
# Mechanical properties :
#
#
# Convention : Reuss Voigt Hill
#
# Bulk Modulus (GPa) = 43.85120 59.83383 51.84252
# Shear Modulus (GPa) = 32.82215 42.31900 37.57058
#
# Velocity S-wave (km/s) = 3.60977 4.09887 3.86207
# Velocity P-wave (km/s) = 5.89771 6.79376 6.36153
#
# Compressibility (1/GPa) = 0.02280439
#
# Stress axis : x y z
#
# Youngs Moduli (GPa) = 76.71632 39.66712 80.31768
#
# Poissons Ratio (x) = 0.36837 0.29444
# Poissons Ratio (y) = 0.71244 0.07975
# Poissons Ratio (z) = 0.28124 0.03939
#
# Static dielectric constant tensor:
#      x y z
#    x 2.136790 0.000000 -0.099050 
#    y 0.000000 2.091190 0.000000 
#    z -0.099050 0.000000 1.989600 
# 
# From -- ./inp_files/2130.got.cif
#   From: 2010.05.17/outbox.cif.g08.bks.cpg/sg9_2_cif.got.tgz:2130.got - 2010.06.03 20:04:27.
