data_PCOD9136125
_publ_section_title
;
Structure prediction by ZEFSAII (Michael W. Deem and Ramdas Pophale) SiO2 
 PCOD9136125
Probable space group: C C
;
_chemical_formula_sum "Si O2"
_cell_formula_units_Z 28
_cell_length_a 15.430499
_cell_length_b 10.984206
_cell_length_c 12.160969
_cell_angle_alpha 90.000000
_cell_angle_beta 143.084663
_cell_angle_gamma 90.000000
_cell_volume 1238.017903
_symmetry_space_group_name_H-M "C C"
_symmetry_group_IT_number 9
_symmetry_cell_setting 'monoclinic'
loop_
_space_group_symop_operation_xyz
x,y,z
x,-y,1/2+z
1/2+x,1/2+y,z
1/2+x,1/2-y,1/2+z
loop_
_atom_site_type_symbol
_atom_site_label
_atom_site_fract_x
_atom_site_fract_y
_atom_site_fract_z
Si Si1 0.707670 0.087658 0.584890
Si Si2 0.778236 0.102817 0.960179
Si Si3 0.801859 0.339637 0.402039
Si Si4 0.551272 0.264128 0.801268
Si Si5 0.106175 0.357484 0.592410
Si Si6 0.449587 0.739573 0.757314
Si Si7 0.557049 0.514480 0.719511
O O1 0.573255 0.175202 0.428253
O O2 0.848166 0.171118 0.741340
O O3 0.739233 0.002705 0.509467
O O4 0.665262 0.992439 0.634891
O O5 0.628700 0.175468 0.790732
O O6 0.880204 0.211233 0.114833
O O7 0.905752 0.037256 0.018919
O O8 0.720773 0.219687 0.277375
O O9 0.846196 0.318918 0.573432
O O10 0.684807 0.446267 0.269340
O O11 0.951275 0.359629 0.492153
O O12 0.585070 0.207075 0.953322
O O13 0.608845 0.402022 0.846803
O O14 0.518880 0.634563 0.750554
#
# Coordination Sequence:
#
# PCOD9136125 Si02
#       7
#     4   4   4   4   4   4   4
#     4  10  21  39  62  94 124 167 219 252 307 385
#     4   8  18  34  59  91 120 156 213 260 290 365
#     4  12  22  39  62  97 128 157 207 270 331 356
#     4   9  18  37  59  91 124 161 212 252 306 376
#     4  11  23  38  64  98 126 159 207 274 321 364
#     4  11  20  40  64  93 119 172 216 255 303 388
#     4   9  20  35  60  90 121 162 210 253 302 380
#
# _framework density 22.616796999999998
#
# number of rings (size 3 to 8) (size 9 to 14) (size 15 to 20)
#    0.857    1.143    2.857    1.714    0.000    3.429 
#    0.000    0.000    3.143    0.000    0.000    0.000 
#    0.000    0.000    0.000    0.000    0.000    0.000 
#
# Total GULP energy -78069.823892 kJ/mol
# GULP energy per Si atom -5576.415992 kJ/mol
# Density = 2.256532 g / cm^3
# Si number density = 22.616797 Si / 1000 Ang^3
#
#
#
# Elastic Constant Matrix: (Units=GPa)
#
#
# Indices 1 2 3 4 5 6 
#
# 1 90.8623 42.4004 57.3950 0.0000 40.5182 0.0000
# 2 42.4004 93.5502 55.3114 0.0000 22.1124 0.0000
# 3 57.3950 55.3114 99.0285 0.0000 34.5451 0.0000
# 4 0.0000 0.0000 0.0000 37.3707 0.0000 22.5804
# 5 40.5182 22.1124 34.5451 0.0000 40.7002 0.0000
# 6 0.0000 0.0000 0.0000 22.5804 0.0000 53.3399
#
#
#
# Elastic Compliance Matrix: (Units=1/GPa)
#
#
# Indices 1 2 3 4 5 6 
#
# 1 0.023911 -0.003192 -0.006218 0.000000 -0.016793 0.000000
# 2 -0.003192 0.016457 -0.007574 0.000000 0.000665 0.000000
# 3 -0.006218 -0.007574 0.020368 0.000000 -0.006983 0.000000
# 4 0.000000 0.000000 0.000000 0.035956 0.000000 -0.015221
# 5 -0.016793 0.000665 -0.006983 0.000000 0.046853 0.000000
# 6 0.000000 0.000000 0.000000 -0.015221 0.000000 0.025191
#
#
# Mechanical properties :
#
#
# Convention : Reuss Voigt Hill
#
# Bulk Modulus (GPa) = 37.35650 65.96162 51.65906
# Shear Modulus (GPa) = 23.62654 34.83777 29.23215
#
# Velocity S-wave (km/s) = 3.23560 3.92899 3.59903
# Velocity P-wave (km/s) = 5.52375 7.05767 6.33730
#
# Compressibility (1/GPa) = 0.02676910
#
# Stress axis : x y z
#
# Youngs Moduli (GPa) = 41.82182 60.76439 49.09653
#
# Poissons Ratio (x) = 0.19396 0.30526
# Poissons Ratio (y) = 0.13349 0.37185
# Poissons Ratio (z) = 0.26003 0.46023
#
# Static dielectric constant tensor:
#      x y z
#    x 1.942040 0.000000 -0.037670 
#    y 0.000000 1.837570 0.000000 
#    z -0.037670 0.000000 1.862610 
# 
# From -- ./inp_files/26810.got.cif
#   From: 2010.05.17/outbox.cif.g08.bks.cpg/sg9_14_cif.got.tgz:26810.got - 2010.06.03 20:04:27.
