data_PCOD9136390
_publ_section_title
;
Structure prediction by ZEFSAII (Michael W. Deem and Ramdas Pophale) SiO2 
 PCOD9136390
Probable space group: C C
;
_chemical_formula_sum "Si O2"
_cell_formula_units_Z 32
_cell_length_a 5.022741
_cell_length_b 22.737724
_cell_length_c 10.669357
_cell_angle_alpha 90.000000
_cell_angle_beta 77.130896
_cell_angle_gamma 90.000000
_cell_volume 1187.894366
_symmetry_space_group_name_H-M "C C"
_symmetry_group_IT_number 9
_symmetry_cell_setting 'monoclinic'
loop_
_space_group_symop_operation_xyz
x,y,z
x,-y,1/2+z
1/2+x,1/2+y,z
1/2+x,1/2-y,1/2+z
loop_
_atom_site_type_symbol
_atom_site_label
_atom_site_fract_x
_atom_site_fract_y
_atom_site_fract_z
Si Si1 0.171560 0.741773 0.182880
Si Si2 0.468853 0.921185 0.739207
Si Si3 0.577788 0.963072 0.322139
Si Si4 0.887800 0.136090 0.070283
Si Si5 0.312778 0.160131 0.811178
Si Si6 0.124637 0.767284 0.902998
Si Si7 0.894096 0.106160 0.412729
Si Si8 0.007699 0.988225 0.490487
O O1 0.407160 0.690377 0.165854
O O2 0.218791 0.812277 0.190736
O O3 0.919096 0.726027 0.302041
O O4 0.138370 0.737556 0.037321
O O5 0.563768 0.879976 0.614166
O O6 0.159760 0.911081 0.804842
O O7 0.637761 0.902029 0.847205
O O8 0.540627 0.989854 0.714588
O O9 0.499605 0.897060 0.292957
O O10 0.331369 0.986465 0.435647
O O11 0.851190 0.969466 0.376103
O O12 0.054652 0.150513 0.928630
O O13 0.975970 0.068070 0.084005
O O14 0.464881 0.218619 0.840998
O O15 0.950886 0.826712 0.941341
O O16 0.908674 0.055589 0.519086
#
# Coordination Sequence:
#
# PCOD9136390 Si02
#       8
#     4   4   4   4   4   4   4   4
#     4  12  26  46  71 108 148 205 258 312 389 466
#     4  10  21  40  72 102 135 191 242 307 377 454
#     4   9  20  41  66  96 140 179 242 301 378 441
#     4  11  22  44  71  99 144 190 251 301 386 454
#     4  11  26  45  71 107 153 201 252 327 382 470
#     4  12  27  45  73 107 154 200 259 315 389 462
#     4  10  22  43  68 101 145 180 248 308 372 445
#     4   9  20  40  66 100 133 188 236 309 369 446
#
# _framework density 26.938421999999999
#
# number of rings (size 3 to 8) (size 9 to 14) (size 15 to 20)
#    0.000    1.500    2.500    1.500    5.250    2.000 
#    2.250    2.500    0.000    0.000    0.000    0.000 
#    0.000    0.000    0.000    0.000    0.000    0.000 
#
# Total GULP energy -89311.343284 kJ/mol
# GULP energy per Si atom -5581.958955 kJ/mol
# Density = 2.687711 g / cm^3
# Si number density = 26.938422 Si / 1000 Ang^3
#
#
#
# Elastic Constant Matrix: (Units=GPa)
#
#
# Indices 1 2 3 4 5 6 
#
# 1 98.1900 23.4353 18.0138 0.0000 -10.6987 0.0000
# 2 23.4353 232.2025 33.1923 0.0000 -2.8213 0.0000
# 3 18.0138 33.1923 68.6525 0.0000 -17.9710 0.0000
# 4 0.0000 0.0000 0.0000 56.2816 0.0000 -15.6356
# 5 -10.6987 -2.8213 -17.9710 0.0000 33.0529 0.0000
# 6 0.0000 0.0000 0.0000 -15.6356 0.0000 36.2855
#
#
#
# Elastic Compliance Matrix: (Units=1/GPa)
#
#
# Indices 1 2 3 4 5 6 
#
# 1 0.010987 -0.000816 -0.001837 0.000000 0.002488 0.000000
# 2 -0.000816 0.004713 -0.002365 0.000000 -0.001148 0.000000
# 3 -0.001837 -0.002365 0.018635 0.000000 0.009336 0.000000
# 4 0.000000 0.000000 0.000000 0.020184 0.000000 0.008697
# 5 0.002488 -0.001148 0.009336 0.000000 0.036038 0.000000
# 6 0.000000 0.000000 0.000000 0.008697 0.000000 0.031307
#
#
# Mechanical properties :
#
#
# Convention : Reuss Voigt Hill
#
# Bulk Modulus (GPa) = 41.15354 60.92529 51.03941
# Shear Modulus (GPa) = 35.71417 46.75091 41.23254
#
# Velocity S-wave (km/s) = 3.64506 4.17042 3.91656
# Velocity P-wave (km/s) = 5.74677 6.77167 6.28016
#
# Compressibility (1/GPa) = 0.02429925
#
# Stress axis : x y z
#
# Youngs Moduli (GPa) = 91.01477 212.17601 53.66144
#
# Poissons Ratio (x) = 0.17315 0.09858
# Poissons Ratio (y) = 0.07427 0.12691
# Poissons Ratio (z) = 0.16721 0.50179
#
# Static dielectric constant tensor:
#      x y z
#    x 2.223910 0.000000 -0.028850 
#    y 0.000000 3.472720 0.000000 
#    z -0.028850 0.000000 2.238530 
# 
# From -- ./inp_files/13734.got.cif
#   From: 2010.05.17/outbox.cif.g08.bks.cpg/sg9_7_cif.got.tgz:13734.got - 2010.06.03 20:04:27.
