data_PCOD9136552
_publ_section_title
;
Structure prediction by ZEFSAII (Michael W. Deem and Ramdas Pophale) SiO2 
 PCOD9136552
Probable space group: C C
;
_chemical_formula_sum "Si O2"
_cell_formula_units_Z 32
_cell_length_a 10.335317
_cell_length_b 9.503398
_cell_length_c 18.534642
_cell_angle_alpha 90.000000
_cell_angle_beta 139.855692
_cell_angle_gamma 90.000000
_cell_volume 1173.693430
_symmetry_space_group_name_H-M "C C"
_symmetry_group_IT_number 9
_symmetry_cell_setting 'monoclinic'
loop_
_space_group_symop_operation_xyz
x,y,z
x,-y,1/2+z
1/2+x,1/2+y,z
1/2+x,1/2-y,1/2+z
loop_
_atom_site_type_symbol
_atom_site_label
_atom_site_fract_x
_atom_site_fract_y
_atom_site_fract_z
Si Si1 0.334200 0.806900 0.174510
Si Si2 0.654145 0.563137 0.023149
Si Si3 0.700240 0.168754 0.351553
Si Si4 0.690159 0.637778 0.338047
Si Si5 0.356492 0.607516 0.999991
Si Si6 0.407729 0.394881 0.285818
Si Si7 0.463640 0.908872 0.388346
Si Si8 0.064446 0.580948 0.138603
O O1 0.530578 0.730447 0.225346
O O2 0.173490 0.701814 0.140533
O O3 0.234684 0.908231 0.074459
O O4 0.414563 0.886467 0.282082
O O5 0.828693 0.613459 0.042707
O O6 0.590386 0.613238 0.076434
O O7 0.455775 0.593306 0.891535
O O8 0.799220 0.049323 0.443098
O O9 0.510591 0.252917 0.302753
O O10 0.854932 0.284532 0.385967
O O11 0.617899 0.094052 0.245286
O O12 0.545041 0.522200 0.312671
O O13 0.861623 0.552676 0.370669
O O14 0.779257 0.745129 0.433615
O O15 0.203400 0.595724 0.002283
O O16 0.181235 0.437481 0.167387
#
# Coordination Sequence:
#
# PCOD9136552 Si02
#       8
#     4   4   4   4   4   4   4   4
#     4   9  21  39  61  92 127 163 207 261 315 365
#     4  12  25  38  62  99 127 166 208 255 316 377
#     4  10  21  42  69  91 122 172 210 256 316 367
#     4   9  20  44  67  93 121 169 212 256 314 372
#     4  11  23  35  63  95 126 162 208 254 309 371
#     4  10  23  43  70  91 125 168 211 259 316 370
#     4   9  20  41  68  89 125 167 211 257 310 372
#     4  10  21  42  62  90 131 163 209 262 306 372
#
# _framework density 27.26436
#
# number of rings (size 3 to 8) (size 9 to 14) (size 15 to 20)
#    0.000    2.000    1.250    2.250    3.500    0.000 
#    4.500    0.000    5.500    0.000    0.000    0.000 
#    0.000    0.000    0.000    0.000    0.000    0.000 
#
# Total GULP energy -89378.085616 kJ/mol
# GULP energy per Si atom -5586.130351 kJ/mol
# Density = 2.720230 g / cm^3
# Si number density = 27.264360 Si / 1000 Ang^3
#
#
#
# Elastic Constant Matrix: (Units=GPa)
#
#
# Indices 1 2 3 4 5 6 
#
# 1 154.5602 49.7916 23.5720 0.0000 38.5893 0.0000
# 2 49.7916 119.4612 6.6088 0.0000 9.4716 0.0000
# 3 23.5720 6.6088 67.6028 0.0000 22.5468 0.0000
# 4 0.0000 0.0000 0.0000 21.9421 0.0000 6.6481
# 5 38.5893 9.4716 22.5468 0.0000 54.2502 0.0000
# 6 0.0000 0.0000 0.0000 6.6481 0.0000 54.0510
#
#
#
# Elastic Compliance Matrix: (Units=1/GPa)
#
#
# Indices 1 2 3 4 5 6 
#
# 1 0.009039 -0.003280 -0.001019 0.000000 -0.005433 0.000000
# 2 -0.003280 0.009688 -0.000020 0.000000 0.000650 0.000000
# 3 -0.001019 -0.000020 0.017305 0.000000 -0.006464 0.000000
# 4 0.000000 0.000000 0.000000 0.047339 0.000000 -0.005822
# 5 -0.005433 0.000650 -0.006464 0.000000 0.024871 0.000000
# 6 0.000000 0.000000 0.000000 -0.005822 0.000000 0.019217
#
#
# Mechanical properties :
#
#
# Convention : Reuss Voigt Hill
#
# Bulk Modulus (GPa) = 36.50540 55.72989 46.11765
# Shear Modulus (GPa) = 34.42866 43.49210 38.96038
#
# Velocity S-wave (km/s) = 3.55741 3.99833 3.78429
# Velocity P-wave (km/s) = 5.50382 6.46533 6.00385
#
# Compressibility (1/GPa) = 0.02739321
#
# Stress axis : x y z
#
# Youngs Moduli (GPa) = 110.63687 103.22414 57.78543
#
# Poissons Ratio (x) = 0.33859 0.05888
# Poissons Ratio (y) = 0.36291 0.00117
# Poissons Ratio (z) = 0.11272 0.00208
#
# Static dielectric constant tensor:
#      x y z
#    x 2.190570 0.000000 0.054760 
#    y 0.000000 2.104850 0.000000 
#    z 0.054760 0.000000 2.267300 
# 
# From -- ./inp_files/35318.got.cif
#   From: 2010.05.17/outbox.cif.g08.bks.cpg/sg9_18_cif.got.tgz:35318.got - 2010.06.03 20:04:27.
