data_PCOD9136913
_publ_section_title
;
Structure prediction by ZEFSAII (Michael W. Deem and Ramdas Pophale) SiO2 
 PCOD9136913
Probable space group: C C
;
_chemical_formula_sum "Si O2"
_cell_formula_units_Z 32
_cell_length_a 21.334703
_cell_length_b 7.008948
_cell_length_c 17.415387
_cell_angle_alpha 90.000000
_cell_angle_beta 29.589189
_cell_angle_gamma 90.000000
_cell_volume 1285.890906
_symmetry_space_group_name_H-M "C C"
_symmetry_group_IT_number 9
_symmetry_cell_setting 'monoclinic'
loop_
_space_group_symop_operation_xyz
x,y,z
x,-y,1/2+z
1/2+x,1/2+y,z
1/2+x,1/2-y,1/2+z
loop_
_atom_site_type_symbol
_atom_site_label
_atom_site_fract_x
_atom_site_fract_y
_atom_site_fract_z
Si Si1 0.410260 0.334693 0.627530
Si Si2 0.534919 0.893320 0.713826
Si Si3 0.567781 0.976940 0.912682
Si Si4 0.381371 0.854685 0.497530
Si Si5 0.195161 0.918473 0.114520
Si Si6 0.815054 0.505360 0.839293
Si Si7 0.810934 0.073023 0.066248
Si Si8 0.729474 0.876282 0.380271
O O1 0.545888 0.241029 0.464861
O O2 0.356373 0.340538 0.598673
O O3 0.365316 0.529672 0.714689
O O4 0.351431 0.180578 0.748480
O O5 0.471632 0.049147 0.836903
O O6 0.567849 0.698347 0.727193
O O7 0.436707 0.897826 0.746840
O O8 0.666645 0.941022 0.528118
O O9 0.665353 0.979112 0.739072
O O10 0.442629 0.081689 0.013404
O O11 0.636465 0.073767 0.910159
O O12 0.380128 0.628699 0.483550
O O13 0.238894 0.943963 0.637664
O O14 0.295225 0.742077 0.021751
O O15 0.228013 0.046630 0.005800
O O16 0.740154 0.348746 0.872206
#
# Coordination Sequence:
#
# PCOD9136913 Si02
#       8
#     4   4   4   4   4   4   4   4
#     4  11  24  45  68  99 142 187 239 297 349 426
#     4  10  21  45  73 103 142 183 239 300 355 432
#     4  11  23  45  65  99 146 182 235 298 358 422
#     4  11  24  46  72 100 149 188 237 304 361 428
#     4  10  22  45  69 103 145 181 239 295 357 435
#     4  10  23  45  69 100 145 182 233 302 353 428
#     4  11  25  45  69 105 141 190 243 299 354 440
#     4  10  24  44  69 101 142 183 245 293 361 433
#
# _framework density 24.885470999999999
#
# number of rings (size 3 to 8) (size 9 to 14) (size 15 to 20)
#    0.000    1.500    3.750    0.000    3.500    4.000 
#   20.250    2.500    0.000    0.000    0.000    0.000 
#    0.000    0.000    0.000    0.000    0.000    0.000 
#
# Total GULP energy -89193.504329 kJ/mol
# GULP energy per Si atom -5574.594021 kJ/mol
# Density = 2.482883 g / cm^3
# Si number density = 24.885471 Si / 1000 Ang^3
#
#
#
# Elastic Constant Matrix: (Units=GPa)
#
#
# Indices 1 2 3 4 5 6 
#
# 1 98.8805 36.2553 -5.6930 -0.0004 -4.6778 0.0014
# 2 36.2553 94.7687 3.6840 -0.0039 7.9966 0.0038
# 3 -5.6930 3.6840 46.6048 -0.0017 19.5496 0.0022
# 4 -0.0004 -0.0039 -0.0017 3.8143 0.0006 0.9916
# 5 -4.6778 7.9966 19.5496 0.0006 36.1614 -0.0011
# 6 0.0014 0.0038 0.0022 0.9916 -0.0011 36.8087
#
#
#
# Elastic Compliance Matrix: (Units=1/GPa)
#
#
# Indices 1 2 3 4 5 6 
#
# 1 0.012035 -0.004819 0.000971 -0.000004 0.002097 0.000000
# 2 -0.004819 0.012684 -0.000198 0.000014 -0.003321 -0.000002
# 3 0.000971 -0.000198 0.027832 0.000015 -0.014877 -0.000003
# 4 -0.000004 0.000014 0.000015 0.264022 -0.000017 -0.007113
# 5 0.002097 -0.003321 -0.014877 -0.000017 0.036702 0.000003
# 6 0.000000 -0.000002 -0.000003 -0.007113 0.000003 0.027359
#
#
# Mechanical properties :
#
#
# Convention : Reuss Voigt Hill
#
# Bulk Modulus (GPa) = 22.49271 34.30518 28.39894
# Shear Modulus (GPa) = 12.39016 29.09071 20.74044
#
# Velocity S-wave (km/s) = 2.23376 3.42275 2.89006
# Velocity P-wave (km/s) = 3.96371 5.42544 4.75113
#
# Compressibility (1/GPa) = 0.04445885
#
# Stress axis : x y z
#
# Youngs Moduli (GPa) = 83.08894 78.84229 35.93000
#
# Poissons Ratio (x) = 0.37994 -0.03490
# Poissons Ratio (y) = 0.40041 0.00712
# Poissons Ratio (z) = -0.08070 0.01562
#
# Static dielectric constant tensor:
#      x y z
#    x 2.013210 0.000000 -0.045470 
#    y 0.000000 1.982260 0.000000 
#    z -0.045470 0.000000 2.156430 
# 
# From -- ./inp_files/34436.got.cif
#   From: 2010.05.17/outbox.cif.g08.bks.cpg/sg9_18_cif.got.tgz:34436.got - 2010.06.03 20:04:27.
