data_PCOD9136869
_publ_section_title
;
Structure prediction by ZEFSAII (Michael W. Deem and Ramdas Pophale) SiO2 
 PCOD9136869
Probable space group: C C
;
_chemical_formula_sum "Si O2"
_cell_formula_units_Z 32
_cell_length_a 16.973185
_cell_length_b 8.645678
_cell_length_c 9.430774
_cell_angle_alpha 90.000000
_cell_angle_beta 55.903149
_cell_angle_gamma 90.000000
_cell_volume 1146.008609
_symmetry_space_group_name_H-M "C C"
_symmetry_group_IT_number 9
_symmetry_cell_setting 'monoclinic'
loop_
_space_group_symop_operation_xyz
x,y,z
x,-y,1/2+z
1/2+x,1/2+y,z
1/2+x,1/2-y,1/2+z
loop_
_atom_site_type_symbol
_atom_site_label
_atom_site_fract_x
_atom_site_fract_y
_atom_site_fract_z
Si Si1 0.889400 0.463351 0.051410
Si Si2 0.304379 0.751016 0.496571
Si Si3 0.211526 0.745625 0.166473
Si Si4 0.128440 0.298791 0.323594
Si Si5 0.123974 0.737627 0.528259
Si Si6 0.372331 0.560230 0.863970
Si Si7 0.048142 0.047777 0.887480
Si Si8 0.478434 0.855907 0.695966
O O1 0.793185 0.366214 0.133614
O O2 0.919720 0.506081 0.178338
O O3 0.873661 0.628319 0.994273
O O4 0.966296 0.376209 0.876442
O O5 0.241464 0.683282 0.691902
O O6 0.217934 0.825079 0.494250
O O7 0.348582 0.617196 0.355840
O O8 0.166858 0.655147 0.346166
O O9 0.121269 0.851445 0.214555
O O10 0.270465 0.635862 0.005280
O O11 0.076528 0.363006 0.512867
O O12 0.097095 0.118044 0.355631
O O13 0.092237 0.351028 0.201456
O O14 0.052303 0.860842 0.533158
O O15 0.444111 0.540191 0.926213
O O16 0.427731 0.689318 0.717313
#
# Coordination Sequence:
#
# PCOD9136869 Si02
#       8
#     4   4   4   4   4   4   4   4
#     4  11  22  48  75 102 153 202 253 314 395 468
#     4  10  21  44  74 109 153 197 248 331 394 454
#     4   9  20  45  72 107 142 203 253 312 386 468
#     4  10  22  45  69 111 148 199 255 319 384 469
#     4   8  20  41  68 101 147 192 248 310 389 447
#     4  11  25  44  77 117 148 201 269 325 380 478
#     4  10  21  44  79 103 151 212 257 309 400 490
#     4  11  27  47  72 114 148 200 265 318 384 472
#
# _framework density 27.923002
#
# number of rings (size 3 to 8) (size 9 to 14) (size 15 to 20)
#    1.500    0.500    1.250    1.500    1.750    2.000 
#   18.000    0.000    0.000    0.000    0.000    0.000 
#    0.000    0.000    0.000    0.000    0.000    0.000 
#
# Total GULP energy -89395.959733 kJ/mol
# GULP energy per Si atom -5587.247483 kJ/mol
# Density = 2.785945 g / cm^3
# Si number density = 27.923002 Si / 1000 Ang^3
#
#
#
# Elastic Constant Matrix: (Units=GPa)
#
#
# Indices 1 2 3 4 5 6 
#
# 1 114.0514 12.8939 18.3257 0.0000 -6.0027 0.0000
# 2 12.8939 105.9858 31.5855 0.0000 -10.1849 0.0000
# 3 18.3257 31.5855 174.9311 0.0000 -16.8668 0.0000
# 4 0.0000 0.0000 0.0000 45.0838 0.0000 -6.4303
# 5 -6.0027 -10.1849 -16.8668 0.0000 47.9923 0.0000
# 6 0.0000 0.0000 0.0000 -6.4303 0.0000 30.6305
#
#
#
# Elastic Compliance Matrix: (Units=1/GPa)
#
#
# Indices 1 2 3 4 5 6 
#
# 1 0.009014 -0.000812 -0.000730 0.000000 0.000698 0.000000
# 2 -0.000812 0.010155 -0.001605 0.000000 0.001490 0.000000
# 3 -0.000730 -0.001605 0.006253 0.000000 0.001766 0.000000
# 4 0.000000 0.000000 0.000000 0.022866 0.000000 0.004800
# 5 0.000698 0.001490 0.001766 0.000000 0.021861 0.000000
# 6 0.000000 0.000000 0.000000 0.004800 0.000000 0.033655
#
#
# Mechanical properties :
#
#
# Convention : Reuss Voigt Hill
#
# Bulk Modulus (GPa) = 52.27920 57.84203 55.06061
# Shear Modulus (GPa) = 42.92804 46.88553 44.90678
#
# Velocity S-wave (km/s) = 3.92519 4.10213 4.01463
# Velocity P-wave (km/s) = 6.26945 6.57240 6.42271
#
# Compressibility (1/GPa) = 0.01912807
#
# Stress axis : x y z
#
# Youngs Moduli (GPa) = 110.94013 98.46930 159.92092
#
# Poissons Ratio (x) = 0.07994 0.11680
# Poissons Ratio (y) = 0.09006 0.25667
# Poissons Ratio (z) = 0.08103 0.15804
#
# Static dielectric constant tensor:
#      x y z
#    x 2.142370 0.000000 0.040370 
#    y 0.000000 2.193000 0.000000 
#    z 0.040370 0.000000 2.201740 
# 
# From -- ./inp_files/19148.got.cif
#   From: 2010.05.17/outbox.cif.g08.bks.cpg/sg9_10_cif.got.tgz:19148.got - 2010.06.03 20:04:27.
