data_PCOD9136749
_publ_section_title
;
Structure prediction by ZEFSAII (Michael W. Deem and Ramdas Pophale) SiO2 
 PCOD9136749
Probable space group: C C
;
_chemical_formula_sum "Si O2"
_cell_formula_units_Z 28
_cell_length_a 5.105299
_cell_length_b 21.863738
_cell_length_c 11.199272
_cell_angle_alpha 90.000000
_cell_angle_beta 109.111716
_cell_angle_gamma 90.000000
_cell_volume 1181.171493
_symmetry_space_group_name_H-M "C C"
_symmetry_group_IT_number 9
_symmetry_cell_setting 'monoclinic'
loop_
_space_group_symop_operation_xyz
x,y,z
x,-y,1/2+z
1/2+x,1/2+y,z
1/2+x,1/2-y,1/2+z
loop_
_atom_site_type_symbol
_atom_site_label
_atom_site_fract_x
_atom_site_fract_y
_atom_site_fract_z
Si Si1 0.799020 0.548060 0.554970
Si Si2 0.799326 0.419504 0.461441
Si Si3 0.693682 0.328398 0.920758
Si Si4 0.923453 0.078972 0.699593
Si Si5 0.188610 0.831821 0.638162
Si Si6 0.626518 0.194871 0.905880
Si Si7 0.260719 0.702492 0.642405
O O1 0.878155 0.489953 0.485699
O O2 0.646111 0.603388 0.463410
O O3 0.602793 0.535527 0.640253
O O4 0.097829 0.570168 0.643024
O O5 0.509321 0.424947 0.349362
O O6 0.800572 0.392430 0.594215
O O7 0.947919 0.364985 0.410832
O O8 0.666874 0.336844 0.775316
O O9 0.527562 0.264767 0.922284
O O10 0.002225 0.311399 0.016289
O O11 0.979430 0.148345 0.661830
O O12 0.370174 0.771010 0.642253
O O13 0.905046 0.817116 0.524750
O O14 0.674794 0.198202 0.770108
#
# Coordination Sequence:
#
# PCOD9136749 Si02
#       7
#     4   4   4   4   4   4   4
#     4  11  28  45  73 101 145 193 240 296 365 441
#     4  12  26  41  75 101 142 189 245 300 362 436
#     4   9  21  44  65 100 141 185 234 304 357 427
#     4  11  25  48  73  99 143 194 243 287 370 435
#     4  10  22  41  66 105 138 178 244 305 355 418
#     4  10  21  43  70 100 137 185 245 295 363 425
#     4   9  19  44  70  96 140 188 239 291 366 430
#
# _framework density 23.705276999999999
#
# number of rings (size 3 to 8) (size 9 to 14) (size 15 to 20)
#    0.000    1.714    1.429    1.714    6.000    0.000 
#    7.714    0.000    0.000    0.000    0.000    0.000 
#    0.000    0.000    0.000    0.000    0.000    0.000 
#
# Total GULP energy -78070.284990 kJ/mol
# GULP energy per Si atom -5576.448928 kJ/mol
# Density = 2.365132 g / cm^3
# Si number density = 23.705277 Si / 1000 Ang^3
#
#
#
# Elastic Constant Matrix: (Units=GPa)
#
#
# Indices 1 2 3 4 5 6 
#
# 1 41.2806 1.0097 24.4355 0.0000 -10.0191 0.0000
# 2 1.0097 141.1500 32.7489 0.0000 -10.3057 0.0000
# 3 24.4355 32.7489 159.4578 0.0000 -8.3695 0.0000
# 4 0.0000 0.0000 0.0000 5133.8329 0.0000-1293.0432
# 5 -10.0191 -10.3057 -8.3695 0.0000 32.4183 0.0000
# 6 0.0000 0.0000 0.0000-1293.0432 0.0000 353.2524
#
#
#
# Elastic Compliance Matrix: (Units=1/GPa)
#
#
# Indices 1 2 3 4 5 6 
#
# 1 0.028700 0.001380 -0.004250 0.000000 0.008211 0.000000
# 2 0.001380 0.007635 -0.001652 0.000000 0.002427 0.000000
# 3 -0.004250 -0.001652 0.007264 0.000000 0.000036 0.000000
# 4 0.000000 0.000000 0.000000 0.002495 0.000000 0.009133
# 5 0.008211 0.002427 0.000036 0.000000 0.034166 0.000000
# 6 0.000000 0.000000 0.000000 0.009133 0.000000 0.036261
#
#
# Mechanical properties :
#
#
# Convention : Reuss Voigt Hill
#
# Bulk Modulus (GPa) = 28.94008 50.91962 39.92985
# Shear Modulus (GPa) = 36.47406 1122.81368 579.64387
#
# Velocity S-wave (km/s) = 3.92682 21.78724 15.65413
# Velocity P-wave (km/s) = 5.72666 25.58200 18.53690
#
# Compressibility (1/GPa) = 0.03455415
#
# Stress axis : x y z
#
# Youngs Moduli (GPa) = 34.84368 130.96959 137.66811
#
# Poissons Ratio (x) = -0.18079 0.58515
# Poissons Ratio (y) = -0.04810 0.22746
# Poissons Ratio (z) = 0.14810 0.21639
#
# Static dielectric constant tensor:
#      x y z
#    x 1.929210 0.000000 -0.049300 
#    y 0.000000 -9.828720 0.000000 
#    z -0.049300 0.000000 1.910890 
# 
# From -- ./inp_files/13397.got.cif
#   From: 2010.05.17/outbox.cif.g08.bks.cpg/sg9_7_cif.got.tgz:13397.got - 2010.06.03 20:04:27.
