data_PCOD9136188
_publ_section_title
;
Structure prediction by ZEFSAII (Michael W. Deem and Ramdas Pophale) SiO2 
 PCOD9136188
Probable space group: C C
;
_chemical_formula_sum "Si O2"
_cell_formula_units_Z 32
_cell_length_a 9.241914
_cell_length_b 16.834168
_cell_length_c 8.989562
_cell_angle_alpha 90.000000
_cell_angle_beta 66.108188
_cell_angle_gamma 90.000000
_cell_volume 1278.752387
_symmetry_space_group_name_H-M "C C"
_symmetry_group_IT_number 9
_symmetry_cell_setting 'monoclinic'
loop_
_space_group_symop_operation_xyz
x,y,z
x,-y,1/2+z
1/2+x,1/2+y,z
1/2+x,1/2-y,1/2+z
loop_
_atom_site_type_symbol
_atom_site_label
_atom_site_fract_x
_atom_site_fract_y
_atom_site_fract_z
Si Si1 0.671810 0.112874 0.726110
Si Si2 0.953301 0.352510 0.071352
Si Si3 0.210021 0.682025 0.012793
Si Si4 0.479980 0.602070 0.085005
Si Si5 0.729706 0.268022 0.383562
Si Si6 0.762090 0.355610 0.894617
Si Si7 0.869839 0.726781 0.111233
Si Si8 0.467143 0.445582 0.936287
O O1 0.517009 0.102382 0.690438
O O2 0.743028 0.202190 0.676978
O O3 0.801929 0.058998 0.592241
O O4 0.671521 0.113621 0.904683
O O5 0.808284 0.298694 0.198655
O O6 0.873259 0.398272 0.967168
O O7 0.110629 0.307557 0.940801
O O8 0.317579 0.640504 0.090539
O O9 0.041814 0.722817 0.113598
O O10 0.296311 0.761313 0.911481
O O11 0.527946 0.532578 0.950728
O O12 0.459555 0.574244 0.264482
O O13 0.614872 0.667354 0.005959
O O14 0.884375 0.265576 0.426547
O O15 0.802112 0.356175 0.703421
O O16 0.583485 0.384541 0.972943
#
# Coordination Sequence:
#
# PCOD9136188 Si02
#       8
#     4   4   4   4   4   4   4   4
#     4  10  23  40  67 102 143 180 230 290 369 425
#     4  11  25  38  73 106 149 174 236 302 367 425
#     4  11  22  41  68 106 136 182 234 303 350 429
#     4  12  28  46  73  96 147 195 250 290 369 448
#     4  11  24  44  66 108 142 187 233 303 366 430
#     4  11  24  39  70 104 137 184 235 299 354 424
#     4  10  21  39  67 103 137 170 231 302 357 412
#     4  12  27  49  68 101 143 202 241 297 366 451
#
# _framework density 25.02439
#
# number of rings (size 3 to 8) (size 9 to 14) (size 15 to 20)
#    0.000    1.000    5.000    0.750   10.500    0.000 
#    0.000    2.500    0.000    0.000    0.000    0.000 
#    0.000    0.000    0.000    0.000    0.000    0.000 
#
# Total GULP energy -89137.906768 kJ/mol
# GULP energy per Si atom -5571.119173 kJ/mol
# Density = 2.496743 g / cm^3
# Si number density = 25.024390 Si / 1000 Ang^3
#
#
#
# Elastic Constant Matrix: (Units=GPa)
#
#
# Indices 1 2 3 4 5 6 
#
# 1 144.9673 8.5379 39.3606 0.0000 30.0444 0.0000
# 2 8.5379 45.5800 7.6644 0.0000 16.2194 0.0000
# 3 39.3606 7.6644 74.0464 0.0000 16.3126 0.0000
# 4 0.0000 0.0000 0.0000 27.8665 0.0000 4.7788
# 5 30.0444 16.2194 16.3126 0.0000 58.6646 0.0000
# 6 0.0000 0.0000 0.0000 4.7788 0.0000 12.7226
#
#
#
# Elastic Compliance Matrix: (Units=1/GPa)
#
#
# Indices 1 2 3 4 5 6 
#
# 1 0.008642 0.000248 -0.003866 0.000000 -0.003419 0.000000
# 2 0.000248 0.024426 -0.001219 0.000000 -0.006541 0.000000
# 3 -0.003866 -0.001219 0.016166 0.000000 -0.002178 0.000000
# 4 0.000000 0.000000 0.000000 0.038356 0.000000 -0.014407
# 5 -0.003419 -0.006541 -0.002178 0.000000 0.021211 0.000000
# 6 0.000000 0.000000 0.000000 -0.014407 0.000000 0.084011
#
#
# Mechanical properties :
#
#
# Convention : Reuss Voigt Hill
#
# Bulk Modulus (GPa) = 25.27840 41.74660 33.51250
# Shear Modulus (GPa) = 23.18320 33.78613 28.48467
#
# Velocity S-wave (km/s) = 3.04702 3.67840 3.37750
# Velocity P-wave (km/s) = 4.74369 5.89571 5.35079
#
# Compressibility (1/GPa) = 0.03955947
#
# Stress axis : x y z
#
# Youngs Moduli (GPa) = 115.71574 40.94063 61.85747
#
# Poissons Ratio (x) = -0.01016 0.23915
# Poissons Ratio (y) = -0.02871 0.07541
# Poissons Ratio (z) = 0.44737 0.04991
#
# Static dielectric constant tensor:
#      x y z
#    x 2.042930 0.000000 0.091050 
#    y 0.000000 2.055990 0.000000 
#    z 0.091050 0.000000 2.297290 
# 
# From -- ./inp_files/5744.got.cif
#   From: 2010.05.17/outbox.cif.g08.bks.cpg/sg9_3_cif.got.tgz:5744.got - 2010.06.03 20:04:27.
