data_PCOD9136810
_publ_section_title
;
Structure prediction by ZEFSAII (Michael W. Deem and Ramdas Pophale) SiO2 
 PCOD9136810
Probable space group: C C
;
_chemical_formula_sum "Si O2"
_cell_formula_units_Z 32
_cell_length_a 10.761627
_cell_length_b 8.919284
_cell_length_c 13.752860
_cell_angle_alpha 90.000000
_cell_angle_beta 113.053821
_cell_angle_gamma 90.000000
_cell_volume 1214.656949
_symmetry_space_group_name_H-M "C C"
_symmetry_group_IT_number 9
_symmetry_cell_setting 'monoclinic'
loop_
_space_group_symop_operation_xyz
x,y,z
x,-y,1/2+z
1/2+x,1/2+y,z
1/2+x,1/2-y,1/2+z
loop_
_atom_site_type_symbol
_atom_site_label
_atom_site_fract_x
_atom_site_fract_y
_atom_site_fract_z
Si Si1 0.421960 0.392480 0.200880
Si Si2 0.603098 0.552983 0.483756
Si Si3 0.159117 0.205086 0.309991
Si Si4 0.454197 0.654805 0.080298
Si Si5 0.034057 0.681306 0.090436
Si Si6 0.165538 0.778210 0.399363
Si Si7 0.230123 0.515314 0.299690
Si Si8 0.435505 0.911924 0.940527
O O1 0.381475 0.543455 0.131006
O O2 0.417411 0.262494 0.119024
O O3 0.573282 0.358503 0.287333
O O4 0.334362 0.415860 0.269192
O O5 0.574369 0.634693 0.373094
O O6 0.489298 0.450572 0.499797
O O7 0.622253 0.683893 0.569010
O O8 0.702943 0.418566 0.479941
O O9 0.084708 0.197117 0.184175
O O10 0.172495 0.378770 0.345322
O O11 0.297796 0.110735 0.339167
O O12 0.397244 0.808406 0.022763
O O13 0.120280 0.578089 0.189654
O O14 0.977860 0.574330 0.988946
O O15 0.264102 0.662115 0.374430
O O16 0.061149 0.669793 0.426097
#
# Coordination Sequence:
#
# PCOD9136810 Si02
#       8
#     4   4   4   4   4   4   4   4
#     4  10  21  44  68  97 137 193 238 292 375 434
#     4  10  23  44  67 100 140 187 244 297 363 441
#     4  12  23  42  69 103 145 187 244 302 371 443
#     4  10  23  45  69  97 144 184 240 311 358 436
#     4  10  23  44  67 101 145 188 242 309 360 443
#     4  10  21  44  66  97 142 180 241 301 352 445
#     4  11  23  42  73  98 138 194 238 296 376 435
#     4  11  23  43  67 103 139 187 243 300 373 441
#
# _framework density 26.344887
#
# number of rings (size 3 to 8) (size 9 to 14) (size 15 to 20)
#    0.000    1.500    3.750    0.750    1.750    1.000 
#    2.250    1.250    0.000    0.000    0.000    0.000 
#    0.000    0.000    0.000    0.000    0.000    0.000 
#
# Total GULP energy -89306.563761 kJ/mol
# GULP energy per Si atom -5581.660235 kJ/mol
# Density = 2.628493 g / cm^3
# Si number density = 26.344887 Si / 1000 Ang^3
#
#
#
# Elastic Constant Matrix: (Units=GPa)
#
#
# Indices 1 2 3 4 5 6 
#
# 1 66.7545 45.1627 22.6514 0.0000 -17.0658 0.0000
# 2 45.1627 184.6024 54.2978 0.0000 -14.9884 0.0000
# 3 22.6514 54.2978 90.7282 0.0000 -10.2744 0.0000
# 4 0.0000 0.0000 0.0000 67.1972 0.0000 -11.3678
# 5 -17.0658 -14.9884 -10.2744 0.0000 40.2023 0.0000
# 6 0.0000 0.0000 0.0000 -11.3678 0.0000 41.9158
#
#
#
# Elastic Compliance Matrix: (Units=1/GPa)
#
#
# Indices 1 2 3 4 5 6 
#
# 1 0.019854 -0.003746 -0.001976 0.000000 0.006526 0.000000
# 2 -0.003746 0.007369 -0.003443 0.000000 0.000277 0.000000
# 3 -0.001976 -0.003443 0.013733 0.000000 0.001387 0.000000
# 4 0.000000 0.000000 0.000000 0.015597 0.000000 0.004230
# 5 0.006526 0.000277 0.001387 0.000000 0.028102 0.000000
# 6 0.000000 0.000000 0.000000 0.004230 0.000000 0.025005
#
#
# Mechanical properties :
#
#
# Convention : Reuss Voigt Hill
#
# Bulk Modulus (GPa) = 44.19889 65.14544 54.67217
# Shear Modulus (GPa) = 36.89179 44.52795 40.70987
#
# Velocity S-wave (km/s) = 3.74617 4.11566 3.93525
# Velocity P-wave (km/s) = 5.96030 6.88233 6.43784
#
# Compressibility (1/GPa) = 0.02262500
#
# Stress axis : x y z
#
# Youngs Moduli (GPa) = 50.36891 135.70663 72.81721
#
# Poissons Ratio (x) = 0.50838 0.14386
# Poissons Ratio (y) = 0.18869 0.25074
# Poissons Ratio (z) = 0.09951 0.46729
#
# Static dielectric constant tensor:
#      x y z
#    x 2.170940 0.000000 0.032840 
#    y 0.000000 2.066400 0.000000 
#    z 0.032840 0.000000 2.061470 
# 
# From -- ./inp_files/24407.got.cif
#   From: 2010.05.17/outbox.cif.g08.bks.cpg/sg9_13_cif.got.tgz:24407.got - 2010.06.03 20:04:27.
