data_PCOD9136763
_publ_section_title
;
Structure prediction by ZEFSAII (Michael W. Deem and Ramdas Pophale) SiO2 
 PCOD9136763
Probable space group: C C
;
_chemical_formula_sum "Si O2"
_cell_formula_units_Z 32
_cell_length_a 9.583168
_cell_length_b 16.934503
_cell_length_c 15.784333
_cell_angle_alpha 90.000000
_cell_angle_beta 31.365121
_cell_angle_gamma 90.000000
_cell_volume 1333.276198
_symmetry_space_group_name_H-M "C C"
_symmetry_group_IT_number 9
_symmetry_cell_setting 'monoclinic'
loop_
_space_group_symop_operation_xyz
x,y,z
x,-y,1/2+z
1/2+x,1/2+y,z
1/2+x,1/2-y,1/2+z
loop_
_atom_site_type_symbol
_atom_site_label
_atom_site_fract_x
_atom_site_fract_y
_atom_site_fract_z
Si Si1 0.506800 0.691756 0.532380
Si Si2 0.261531 0.090398 0.178315
Si Si3 0.186730 0.146452 0.883705
Si Si4 0.473140 0.253845 0.868338
Si Si5 0.045180 0.534159 0.617799
Si Si6 0.923014 0.011718 0.578254
Si Si7 0.340713 0.328874 0.400940
Si Si8 0.930151 0.017941 0.764525
O O1 0.391268 0.733377 0.507402
O O2 0.256459 0.705891 0.724947
O O3 0.552455 0.598907 0.500474
O O4 0.782098 0.738095 0.408392
O O5 0.045356 0.158035 0.301883
O O6 0.284364 0.019725 0.234520
O O7 0.542119 0.134568 0.045861
O O8 0.187534 0.040032 0.134120
O O9 0.274235 0.210094 0.907857
O O10 0.439080 0.120996 0.693804
O O11 0.959014 0.169014 0.934017
O O12 0.101177 0.066322 0.975732
O O13 0.200177 0.506570 0.620741
O O14 0.231252 0.518587 0.439308
O O15 0.814899 0.014838 0.730537
O O16 0.498107 0.392506 0.260442
#
# Coordination Sequence:
#
# PCOD9136763 Si02
#       8
#     4   4   4   4   4   4   4   4
#     4  11  24  48  70 102 144 195 241 294 375 436
#     4  10  21  43  71 101 146 193 230 300 368 420
#     4  12  24  45  72 107 146 188 245 303 362 438
#     4  11  25  42  74 102 143 195 239 295 366 439
#     4  11  21  45  72 107 144 186 235 309 358 434
#     4  12  25  44  76 111 139 195 251 300 365 438
#     4  10  23  43  69 100 149 186 231 304 363 427
#     4  11  23  42  76 112 139 192 250 299 367 440
#
# _framework density 24.001027000000001
#
# number of rings (size 3 to 8) (size 9 to 14) (size 15 to 20)
#    0.000    1.000    5.000    2.250    3.500    1.000 
#    0.000   10.000    0.000    0.000    0.000    0.000 
#    0.000    0.000    0.000    0.000    0.000    0.000 
#
# Total GULP energy -89324.153464 kJ/mol
# GULP energy per Si atom -5582.759591 kJ/mol
# Density = 2.394640 g / cm^3
# Si number density = 24.001027 Si / 1000 Ang^3
#
#
#
# Elastic Constant Matrix: (Units=GPa)
#
#
# Indices 1 2 3 4 5 6 
#
# 1 162.3561 77.3331 51.0102 -0.0233 22.0468 0.0868
# 2 77.3331 127.7199 27.5579 -0.1539 0.1260 0.0904
# 3 51.0102 27.5579 61.8784 -0.0746 10.9499 0.0159
# 4 -0.0233 -0.1539 -0.0746 22.9995 -0.0215 -14.7366
# 5 22.0468 0.1260 10.9499 -0.0215 35.7262 -0.0168
# 6 0.0868 0.0904 0.0159 -14.7366 -0.0168 50.8613
#
#
#
# Elastic Compliance Matrix: (Units=1/GPa)
#
#
# Indices 1 2 3 4 5 6 
#
# 1 0.011425 -0.005619 -0.005997 -0.000069 -0.005192 -0.000029
# 2 -0.005619 0.011476 -0.001148 0.000080 0.003779 0.000014
# 3 -0.005997 -0.001148 0.022162 0.000071 -0.003088 0.000025
# 4 -0.000069 0.000080 0.000071 0.053392 0.000060 0.015470
# 5 -0.005192 0.003779 -0.003088 0.000060 0.032128 0.000031
# 6 -0.000029 0.000014 0.000025 0.015470 0.000031 0.024144
#
#
# Mechanical properties :
#
#
# Convention : Reuss Voigt Hill
#
# Bulk Modulus (GPa) = 51.18762 73.75076 62.46919
# Shear Modulus (GPa) = 26.77164 34.98761 30.87962
#
# Velocity S-wave (km/s) = 3.34344 3.82220 3.59081
# Velocity P-wave (km/s) = 6.02315 7.09040 6.57846
#
# Compressibility (1/GPa) = 0.01953597
#
# Stress axis : x y z
#
# Youngs Moduli (GPa) = 87.52822 87.14146 45.12204
#
# Poissons Ratio (x) = 0.48961 0.27061
# Poissons Ratio (y) = 0.49179 0.05178
# Poissons Ratio (z) = 0.52492 0.10000
#
# Static dielectric constant tensor:
#      x y z
#    x 1.937330 0.000010 0.001550 
#    y 0.000010 1.954480 0.000060 
#    z 0.001550 0.000060 2.093000 
# 
# From -- ./inp_files/23658.got.cif
#   From: 2010.05.17/outbox.cif.g08.bks.cpg/sg9_12_cif.got.tgz:23658.got - 2010.06.03 20:04:27.
