data_PCOD9136197
_publ_section_title
;
Structure prediction by ZEFSAII (Michael W. Deem and Ramdas Pophale) SiO2 
 PCOD9136197
Probable space group: C C
;
_chemical_formula_sum "Si O2"
_cell_formula_units_Z 32
_cell_length_a 7.878328
_cell_length_b 21.810026
_cell_length_c 14.521515
_cell_angle_alpha 90.000000
_cell_angle_beta 144.577679
_cell_angle_gamma 90.000000
_cell_volume 1446.203999
_symmetry_space_group_name_H-M "C C"
_symmetry_group_IT_number 9
_symmetry_cell_setting 'monoclinic'
loop_
_space_group_symop_operation_xyz
x,y,z
x,-y,1/2+z
1/2+x,1/2+y,z
1/2+x,1/2-y,1/2+z
loop_
_atom_site_type_symbol
_atom_site_label
_atom_site_fract_x
_atom_site_fract_y
_atom_site_fract_z
Si Si1 0.594180 0.984879 0.520640
Si Si2 0.327045 0.799692 0.984702
Si Si3 0.190410 0.066558 0.206328
Si Si4 0.653240 0.297240 0.288396
Si Si5 0.788092 0.713358 0.265749
Si Si6 0.278557 0.399053 0.205459
Si Si7 0.143725 0.298281 0.645036
Si Si8 0.785786 0.589635 0.047623
O O1 0.390919 0.025193 0.362514
O O2 0.752232 0.033474 0.656819
O O3 0.410015 0.944653 0.512049
O O4 0.851317 0.948447 0.580830
O O5 0.422240 0.776469 0.925805
O O6 0.984029 0.810698 0.816705
O O7 0.481972 0.750769 0.120398
O O8 0.471533 0.864527 0.072725
O O9 0.243362 0.140156 0.238613
O O10 0.286282 0.053503 0.143285
O O11 0.500497 0.247509 0.288365
O O12 0.477099 0.359491 0.223370
O O13 0.624854 0.270912 0.174341
O O14 0.977998 0.304703 0.474178
O O15 0.448497 0.395212 0.376348
O O16 0.965224 0.347187 0.628154
#
# Coordination Sequence:
#
# PCOD9136197 Si02
#       8
#     4   4   4   4   4   4   4   4
#     4  12  26  49  70 101 140 186 237 296 342 411
#     4  11  23  39  68  99 139 179 222 286 351 412
#     4  12  27  47  74 103 139 188 242 286 352 417
#     4  10  21  39  67  94 138 174 219 275 348 417
#     4  11  22  42  65 101 135 182 226 281 351 418
#     4  10  23  44  69  92 141 187 216 292 356 401
#     4  11  22  40  65 104 135 178 224 282 348 415
#     4  11  26  46  72 102 139 186 238 290 348 417
#
# _framework density 22.126892999999999
#
# number of rings (size 3 to 8) (size 9 to 14) (size 15 to 20)
#    0.000    1.000    3.750    3.000    5.250    1.000 
#    0.000    0.000    0.000    0.000    0.000    0.000 
#    0.000    0.000    0.000    0.000    0.000    0.000 
#
# Total GULP energy -89305.737346 kJ/mol
# GULP energy per Si atom -5581.608584 kJ/mol
# Density = 2.207653 g / cm^3
# Si number density = 22.126893 Si / 1000 Ang^3
#
#
#
# Elastic Constant Matrix: (Units=GPa)
#
#
# Indices 1 2 3 4 5 6 
#
# 1 46.7866 9.8008 12.7922 0.0000 5.9272 0.0000
# 2 9.8008 90.7333 12.7500 0.0000 6.8507 0.0000
# 3 12.7922 12.7500 112.7351 0.0001 21.5433 -0.0001
# 4 0.0000 0.0000 0.0001 34.4709 0.0000 -5.1522
# 5 5.9272 6.8507 21.5433 0.0000 31.5096 -0.0001
# 6 0.0000 0.0000 -0.0001 -5.1522 -0.0001 28.7643
#
#
#
# Elastic Compliance Matrix: (Units=1/GPa)
#
#
# Indices 1 2 3 4 5 6 
#
# 1 0.022621 -0.001990 -0.001853 0.000000 -0.002555 0.000000
# 2 -0.001990 0.011464 -0.000766 0.000000 -0.001594 0.000000
# 3 -0.001853 -0.000766 0.010432 0.000000 -0.006617 0.000000
# 4 0.000000 0.000000 0.000000 0.029808 0.000000 0.005339
# 5 -0.002555 -0.001594 -0.006617 0.000000 0.037088 0.000000
# 6 0.000000 0.000000 0.000000 0.005339 0.000000 0.035722
#
#
# Mechanical properties :
#
#
# Convention : Reuss Voigt Hill
#
# Bulk Modulus (GPa) = 28.33034 35.66013 31.99523
# Shear Modulus (GPa) = 29.74070 33.27642 31.50856
#
# Velocity S-wave (km/s) = 3.67017 3.88221 3.77768
# Velocity P-wave (km/s) = 5.54902 6.02051 5.78957
#
# Compressibility (1/GPa) = 0.03529785
#
# Stress axis : x y z
#
# Youngs Moduli (GPa) = 44.20674 87.22719 95.86070
#
# Poissons Ratio (x) = 0.17359 0.17767
# Poissons Ratio (y) = 0.08798 0.07344
# Poissons Ratio (z) = 0.08194 0.06682
#
# Static dielectric constant tensor:
#      x y z
#    x 1.925790 0.000000 0.031120 
#    y 0.000000 1.791830 0.000000 
#    z 0.031120 0.000000 1.827630 
# 
# From -- ./inp_files/6152.got.cif
#   From: 2010.05.17/outbox.cif.g08.bks.cpg/sg9_4_cif.got.tgz:6152.got - 2010.06.03 20:04:27.
