data_PCOD9136927
_publ_section_title
;
Structure prediction by ZEFSAII (Michael W. Deem and Ramdas Pophale) SiO2 
 PCOD9136927
Probable space group: C C
;
_chemical_formula_sum "Si O2"
_cell_formula_units_Z 28
_cell_length_a 13.252583
_cell_length_b 6.894000
_cell_length_c 23.261960
_cell_angle_alpha 90.000000
_cell_angle_beta 34.597968
_cell_angle_gamma 90.000000
_cell_volume 1206.770361
_symmetry_space_group_name_H-M "C C"
_symmetry_group_IT_number 9
_symmetry_cell_setting 'monoclinic'
loop_
_space_group_symop_operation_xyz
x,y,z
x,-y,1/2+z
1/2+x,1/2+y,z
1/2+x,1/2-y,1/2+z
loop_
_atom_site_type_symbol
_atom_site_label
_atom_site_fract_x
_atom_site_fract_y
_atom_site_fract_z
Si Si1 0.168070 0.167765 0.991470
Si Si2 0.659482 0.450821 0.376879
Si Si3 0.931206 0.703459 0.959556
Si Si4 0.282605 0.644648 0.851347
Si Si5 0.170768 0.093557 0.637744
Si Si6 0.105843 0.728051 0.050376
Si Si7 0.846466 0.595628 0.674242
O O1 0.363375 0.187630 0.926429
O O2 0.155778 0.203170 0.929504
O O3 0.034213 0.297106 0.090708
O O4 0.098913 0.948833 0.032010
O O5 0.479433 0.576478 0.453820
O O6 0.797912 0.621008 0.332264
O O7 0.721212 0.374003 0.286951
O O8 0.114988 0.596585 0.889325
O O9 0.779617 0.595353 0.066638
O O10 0.465226 0.549962 0.747358
O O11 0.413311 0.872435 0.640453
O O12 0.226445 0.625043 0.944661
O O13 0.177454 0.245596 0.581578
O O14 0.256274 0.159634 0.657427
#
# Coordination Sequence:
#
# PCOD9136927 Si02
#       7
#     4   4   4   4   4   4   4
#     4  10  23  42  69 100 138 187 239 289 363 436
#     4   9  21  46  62 100 151 182 232 312 358 410
#     4   9  20  44  68  98 148 193 227 306 363 413
#     4   9  19  41  68  96 145 192 226 298 370 408
#     4  11  21  39  73 105 131 197 241 278 369 432
#     4  10  21  46  63  97 152 174 228 313 345 419
#     4  12  23  42  69 106 133 191 243 290 366 428
#
# _framework density 23.202427
#
# number of rings (size 3 to 8) (size 9 to 14) (size 15 to 20)
#    0.857    1.143    2.857    0.000    0.000    3.429 
#   10.286   12.857    0.000    0.000    0.000    0.000 
#    0.000    0.000    0.000    0.000    0.000    0.000 
#
# Total GULP energy -78142.803292 kJ/mol
# GULP energy per Si atom -5581.628807 kJ/mol
# Density = 2.314962 g / cm^3
# Si number density = 23.202427 Si / 1000 Ang^3
#
#
#
# Elastic Constant Matrix: (Units=GPa)
#
#
# Indices 1 2 3 4 5 6 
#
# 1 133.1718 30.4739 52.3870 0.0000 2.8784 0.0001
# 2 30.4739 35.9198 14.3007 0.0000 -3.2631 0.0003
# 3 52.3870 14.3007 113.1351 0.0000 -4.7051 0.0000
# 4 0.0000 0.0000 0.0000 22.2402 0.0000 -1.5634
# 5 2.8784 -3.2631 -4.7051 0.0000 39.7608 0.0000
# 6 0.0001 0.0003 0.0000 -1.5634 0.0000 30.1997
#
#
#
# Elastic Compliance Matrix: (Units=1/GPa)
#
#
# Indices 1 2 3 4 5 6 
#
# 1 0.010987 -0.007833 -0.004178 0.000000 -0.001933 0.000000
# 2 -0.007833 0.035056 -0.000664 0.000000 0.003365 0.000000
# 3 -0.004178 -0.000664 0.010921 0.000000 0.001540 0.000000
# 4 0.000000 0.000000 0.000000 0.045128 0.000000 0.002336
# 5 -0.001933 0.003365 0.001540 0.000000 0.025749 0.000000
# 6 0.000000 0.000000 0.000000 0.002336 0.000000 0.033234
#
#
# Mechanical properties :
#
#
# Convention : Reuss Voigt Hill
#
# Bulk Modulus (GPa) = 31.63172 52.95001 42.29086
# Shear Modulus (GPa) = 25.38560 30.77781 28.08171
#
# Velocity S-wave (km/s) = 3.31130 3.64605 3.48270
# Velocity P-wave (km/s) = 5.31809 6.37145 5.86845
#
# Compressibility (1/GPa) = 0.03161384
#
# Stress axis : x y z
#
# Youngs Moduli (GPa) = 91.01852 28.52614 91.56325
#
# Poissons Ratio (x) = 0.22346 0.38252
# Poissons Ratio (y) = 0.71298 0.06080
# Poissons Ratio (z) = 0.38024 0.01894
#
# Static dielectric constant tensor:
#      x y z
#    x 1.900540 0.000000 0.034940 
#    y 0.000000 1.936300 0.000000 
#    z 0.034940 0.000000 1.871720 
# 
# From -- ./inp_files/33754.got.cif
#   From: 2010.05.17/outbox.cif.g08.bks.cpg/sg9_17_cif.got.tgz:33754.got - 2010.06.03 20:04:27.
