data_PCOD9136168
_publ_section_title
;
Structure prediction by ZEFSAII (Michael W. Deem and Ramdas Pophale) SiO2 
 PCOD9136168
Probable space group: C C
;
_chemical_formula_sum "Si O2"
_cell_formula_units_Z 32
_cell_length_a 13.411507
_cell_length_b 21.855867
_cell_length_c 8.888122
_cell_angle_alpha 90.000000
_cell_angle_beta 145.318997
_cell_angle_gamma 90.000000
_cell_volume 1482.426471
_symmetry_space_group_name_H-M "C C"
_symmetry_group_IT_number 9
_symmetry_cell_setting 'monoclinic'
loop_
_space_group_symop_operation_xyz
x,y,z
x,-y,1/2+z
1/2+x,1/2+y,z
1/2+x,1/2-y,1/2+z
loop_
_atom_site_type_symbol
_atom_site_label
_atom_site_fract_x
_atom_site_fract_y
_atom_site_fract_z
Si Si1 0.017350 0.082439 0.733900
Si Si2 0.185361 0.759849 0.172009
Si Si3 0.625457 0.119461 0.184461
Si Si4 0.173585 0.010969 0.658130
Si Si5 0.384011 0.932912 0.150884
Si Si6 0.871779 0.785586 0.634928
Si Si7 0.862882 0.659376 0.109451
Si Si8 0.005036 0.678348 0.610031
O O1 0.818446 0.105362 0.485918
O O2 0.047870 0.043462 0.620321
O O3 0.068146 0.042361 0.942196
O O4 0.175579 0.130986 0.919600
O O5 0.131388 0.689261 0.127552
O O6 0.283669 0.763440 0.136716
O O7 0.311612 0.778539 0.461287
O O8 0.025044 0.806215 0.939263
O O9 0.479602 0.121190 0.135851
O O10 0.561431 0.073484 0.972514
O O11 0.243799 0.054305 0.610141
O O12 0.333075 0.982907 0.959166
O O13 0.393956 0.870391 0.067958
O O14 0.948477 0.746501 0.592673
O O15 0.713914 0.829421 0.395692
O O16 0.968625 0.669757 0.390976
#
# Coordination Sequence:
#
# PCOD9136168 Si02
#       8
#     4   4   4   4   4   4   4   4
#     4  11  25  46  71 101 131 179 234 288 349 412
#     4  11  21  42  65  96 139 184 223 269 338 417
#     4  12  25  43  72 104 135 183 234 275 347 418
#     4  10  24  47  73  93 133 183 229 296 359 395
#     4  11  21  46  71  98 134 179 230 291 350 407
#     4  10  21  39  65  94 135 185 223 267 333 410
#     4  12  25  44  67 103 145 183 222 286 341 408
#     4  11  24  41  64 105 142 180 231 280 339 409
#
# _framework density 21.586231000000002
#
# number of rings (size 3 to 8) (size 9 to 14) (size 15 to 20)
#    0.000    1.000    6.250    0.750    1.750    1.000 
#    2.250    2.500    0.000    0.000    0.000    0.000 
#    0.000    0.000    0.000    0.000    0.000    0.000 
#
# Total GULP energy -89132.608977 kJ/mol
# GULP energy per Si atom -5570.788061 kJ/mol
# Density = 2.153710 g / cm^3
# Si number density = 21.586231 Si / 1000 Ang^3
#
#
#
# Elastic Constant Matrix: (Units=GPa)
#
#
# Indices 1 2 3 4 5 6 
#
# 1 37.5656 5.6396 39.6867 0.0000 -19.9348 0.0000
# 2 5.6396 44.0266 28.4340 0.0000 -3.6707 0.0000
# 3 39.6867 28.4340 157.8803 0.0000 -7.5638 0.0000
# 4 0.0000 0.0000 0.0000 40.8070 0.0000 -4.8146
# 5 -19.9348 -3.6707 -7.5638 0.0000 43.8638 0.0000
# 6 0.0000 0.0000 0.0000 -4.8146 0.0000 22.2386
#
#
#
# Elastic Compliance Matrix: (Units=1/GPa)
#
#
# Indices 1 2 3 4 5 6 
#
# 1 0.050108 0.003185 -0.012166 0.000000 0.020941 0.000000
# 2 0.003185 0.025987 -0.005351 0.000000 0.002699 0.000000
# 3 -0.012166 -0.005351 0.010153 0.000000 -0.004226 0.000000
# 4 0.000000 0.000000 0.000000 0.025148 0.000000 0.005444
# 5 0.020941 0.002699 -0.004226 0.000000 0.031812 0.000000
# 6 0.000000 0.000000 0.000000 0.005444 0.000000 0.046146
#
#
# Mechanical properties :
#
#
# Convention : Reuss Voigt Hill
#
# Bulk Modulus (GPa) = 17.36639 42.99923 30.18281
# Shear Modulus (GPa) = 21.07808 32.42936 26.75372
#
# Velocity S-wave (km/s) = 3.12823 3.88018 3.52431
# Velocity P-wave (km/s) = 4.59460 6.32751 5.52936
#
# Compressibility (1/GPa) = 0.05758250
#
# Stress axis : x y z
#
# Youngs Moduli (GPa) = 19.95702 38.48104 98.48891
#
# Poissons Ratio (x) = -0.12255 1.19822
# Poissons Ratio (y) = -0.06356 0.52705
# Poissons Ratio (z) = 0.24280 0.20593
#
# Static dielectric constant tensor:
#      x y z
#    x 1.814650 0.000000 0.054670 
#    y 0.000000 1.827550 0.000000 
#    z 0.054670 0.000000 1.858950 
# 
# From -- ./inp_files/6166.got.cif
#   From: 2010.05.17/outbox.cif.g08.bks.cpg/sg9_4_cif.got.tgz:6166.got - 2010.06.03 20:04:27.
