data_PCOD9136294
_publ_section_title
;
Structure prediction by ZEFSAII (Michael W. Deem and Ramdas Pophale) SiO2 
 PCOD9136294
Probable space group: C C
;
_chemical_formula_sum "Si O2"
_cell_formula_units_Z 32
_cell_length_a 13.316131
_cell_length_b 20.838586
_cell_length_c 9.615842
_cell_angle_alpha 90.000000
_cell_angle_beta 33.030107
_cell_angle_gamma 90.000000
_cell_volume 1454.432582
_symmetry_space_group_name_H-M "C C"
_symmetry_group_IT_number 9
_symmetry_cell_setting 'monoclinic'
loop_
_space_group_symop_operation_xyz
x,y,z
x,-y,1/2+z
1/2+x,1/2+y,z
1/2+x,1/2-y,1/2+z
loop_
_atom_site_type_symbol
_atom_site_label
_atom_site_fract_x
_atom_site_fract_y
_atom_site_fract_z
Si Si1 0.686010 0.861136 0.097800
Si Si2 0.671329 0.882324 0.792404
Si Si3 0.443561 0.125077 0.301693
Si Si4 0.489262 0.655700 0.453869
Si Si5 0.577586 0.525936 0.502939
Si Si6 0.046436 0.075453 0.829880
Si Si7 0.871631 0.710118 0.116878
Si Si8 0.520656 0.028540 0.980286
O O1 0.551118 0.806683 0.317101
O O2 0.609539 0.926273 0.259203
O O3 0.659879 0.859653 0.963740
O O4 0.895381 0.853513 0.911611
O O5 0.556331 0.850744 0.802167
O O6 0.882457 0.875838 0.500627
O O7 0.603050 0.957299 0.875729
O O8 0.248501 0.103224 0.589742
O O9 0.397667 0.173789 0.231755
O O10 0.540389 0.065135 0.106848
O O11 0.487099 0.588753 0.538979
O O12 0.697141 0.680784 0.237401
O O13 0.364942 0.714259 0.655239
O O14 0.542426 0.526210 0.706524
O O15 0.504092 0.462406 0.518468
O O16 0.798181 0.527430 0.219193
#
# Coordination Sequence:
#
# PCOD9136294 Si02
#       8
#     4   4   4   4   4   4   4   4
#     4  11  25  40  68  99 125 178 221 280 331 400
#     4  12  25  38  65  97 143 173 213 273 346 412
#     4  10  23  43  64  98 135 175 221 277 337 399
#     4  12  23  44  72 100 127 172 239 277 334 400
#     4  11  24  40  66  99 136 172 221 279 339 406
#     4  11  25  39  63 101 133 181 213 274 345 407
#     4  11  24  44  76  95 125 175 235 287 323 394
#     4  10  21  40  64  97 134 176 217 265 335 410
#
# _framework density 22.001707
#
# number of rings (size 3 to 8) (size 9 to 14) (size 15 to 20)
#    0.000    1.000    6.250    1.500   10.500    1.000 
#    0.000    0.000    5.500    0.000    0.000    0.000 
#    0.000    0.000    0.000    0.000    0.000    0.000 
#
# Total GULP energy -89382.932672 kJ/mol
# GULP energy per Si atom -5586.433292 kJ/mol
# Density = 2.195163 g / cm^3
# Si number density = 22.001707 Si / 1000 Ang^3
#
#
#
# Elastic Constant Matrix: (Units=GPa)
#
#
# Indices 1 2 3 4 5 6 
#
# 1 174.6716 -0.7343 40.3389 -0.0001 -2.0640 0.0000
# 2 -0.7343 33.3630 -15.4582 0.0000 1.9990 0.0000
# 3 40.3389 -15.4582 63.9586 -0.0004 -10.2213 0.0003
# 4 -0.0001 0.0000 -0.0004 7.9623 0.0002 -3.6005
# 5 -2.0640 1.9990 -10.2213 0.0002 26.7570 -0.0001
# 6 0.0000 0.0000 0.0003 -3.6005 -0.0001 20.0010
#
#
#
# Elastic Compliance Matrix: (Units=1/GPa)
#
#
# Indices 1 2 3 4 5 6 
#
# 1 0.006865 -0.002109 -0.005037 0.000000 -0.001237 0.000000
# 2 -0.002109 0.034411 0.009809 0.000000 0.001013 0.000000
# 3 -0.005037 0.009809 0.022369 0.000001 0.007424 0.000000
# 4 0.000000 0.000000 0.000001 0.136722 -0.000001 0.024612
# 5 -0.001237 0.001013 0.007424 -0.000001 0.040038 0.000000
# 6 0.000000 0.000000 0.000000 0.024612 0.000000 0.054428
#
#
# Mechanical properties :
#
#
# Convention : Reuss Voigt Hill
#
# Bulk Modulus (GPa) = 14.49891 35.58733 25.04312
# Shear Modulus (GPa) = 16.00019 27.46717 21.73368
#
# Velocity S-wave (km/s) = 2.69964 3.53712 3.14637
# Velocity P-wave (km/s) = 4.04000 5.73511 4.96050
#
# Compressibility (1/GPa) = 0.06897071
#
# Stress axis : x y z
#
# Youngs Moduli (GPa) = 145.67092 29.06066 44.70475
#
# Poissons Ratio (x) = 0.06128 0.22518
# Poissons Ratio (y) = 0.30716 -0.43849
# Poissons Ratio (z) = 0.73374 -0.28504
#
# Static dielectric constant tensor:
#      x y z
#    x 1.837110 0.000000 -0.038230 
#    y 0.000000 1.820170 0.000000 
#    z -0.038230 0.000000 1.789830 
# 
# From -- ./inp_files/8512.got.cif
#   From: 2010.05.17/outbox.cif.g08.bks.cpg/sg9_5_cif.got.tgz:8512.got - 2010.06.03 20:04:27.
