data_PCOD9136734
_publ_section_title
;
Structure prediction by ZEFSAII (Michael W. Deem and Ramdas Pophale) SiO2 
 PCOD9136734
Probable space group: C C
;
_chemical_formula_sum "Si O2"
_cell_formula_units_Z 32
_cell_length_a 6.636464
_cell_length_b 28.608637
_cell_length_c 8.465473
_cell_angle_alpha 90.000000
_cell_angle_beta 121.313406
_cell_angle_gamma 90.000000
_cell_volume 1373.138935
_symmetry_space_group_name_H-M "C C"
_symmetry_group_IT_number 9
_symmetry_cell_setting 'monoclinic'
loop_
_space_group_symop_operation_xyz
x,y,z
x,-y,1/2+z
1/2+x,1/2+y,z
1/2+x,1/2-y,1/2+z
loop_
_atom_site_type_symbol
_atom_site_label
_atom_site_fract_x
_atom_site_fract_y
_atom_site_fract_z
Si Si1 0.161390 0.428727 0.685160
Si Si2 0.635641 0.436677 0.401846
Si Si3 0.366461 0.919323 0.180065
Si Si4 0.754233 0.011605 0.905805
Si Si5 0.762912 0.143425 0.814233
Si Si6 0.164684 0.306028 0.964101
Si Si7 0.518772 0.651240 0.376666
Si Si8 0.666922 0.705238 0.134351
O O1 0.213208 0.456867 0.868097
O O2 0.228484 0.463874 0.566357
O O3 0.307935 0.381609 0.727899
O O4 0.882418 0.421991 0.576510
O O5 0.697846 0.440636 0.244417
O O6 0.511721 0.479625 0.436701
O O7 0.443708 0.397344 0.348562
O O8 0.549465 0.961396 0.218261
O O9 0.545565 0.879169 0.321679
O O10 0.208670 0.889265 0.996487
O O11 0.645059 0.159765 0.604291
O O12 0.940458 0.181216 0.958053
O O13 0.407974 0.320935 0.979061
O O14 0.945193 0.309283 0.752550
O O15 0.169286 0.255658 0.051598
O O16 0.605950 0.690894 0.290973
#
# Coordination Sequence:
#
# PCOD9136734 Si02
#       8
#     4   4   4   4   4   4   4   4
#     4  11  26  44  69 109 142 195 251 296 372 439
#     4  10  21  43  67  99 142 189 236 296 359 434
#     4  10  22  42  72 101 142 190 234 300 365 435
#     4  10  25  43  69 105 143 193 242 310 354 432
#     4  11  22  46  72 101 147 189 241 301 376 433
#     4  12  26  46  73 108 140 198 244 312 380 445
#     4  12  26  46  74 106 147 200 247 302 382 446
#     4  12  26  48  70 107 145 184 253 313 366 448
#
# _framework density 23.304269000000001
#
# number of rings (size 3 to 8) (size 9 to 14) (size 15 to 20)
#    0.000    1.000    3.750    3.000    3.500    2.000 
#    4.500    0.000    0.000    0.000    0.000    0.000 
#    0.000    0.000    0.000    0.000    0.000    0.000 
#
# Total GULP energy -89185.745544 kJ/mol
# GULP energy per Si atom -5574.109096 kJ/mol
# Density = 2.325123 g / cm^3
# Si number density = 23.304269 Si / 1000 Ang^3
#
#
#
# Elastic Constant Matrix: (Units=GPa)
#
#
# Indices 1 2 3 4 5 6 
#
# 1 81.7244 7.7457 25.1655 0.0000 5.9575 0.0000
# 2 7.7457 62.4353 21.0569 0.0000 -7.0013 0.0000
# 3 25.1655 21.0569 80.0234 0.0000 27.8408 0.0000
# 4 0.0000 0.0000 0.0000 -26.0855 0.0000 112.1846
# 5 5.9575 -7.0013 27.8408 0.0000 45.0510 0.0000
# 6 0.0000 0.0000 0.0000 112.1846 0.0000 -169.2816
#
#
#
# Elastic Compliance Matrix: (Units=1/GPa)
#
#
# Indices 1 2 3 4 5 6 
#
# 1 0.013589 0.000003 -0.004648 0.000000 0.001076 0.000000
# 2 0.000003 0.019573 -0.007910 0.000000 0.007930 0.000000
# 3 -0.004648 -0.007910 0.020705 0.000000 -0.013410 0.000000
# 4 0.000000 0.000000 0.000000 0.020721 0.000000 0.013732
# 5 0.001076 0.007930 -0.013410 0.000000 0.031574 0.000000
# 6 0.000000 0.000000 0.000000 0.013732 0.000000 0.003193
#
#
# Mechanical properties :
#
#
# Convention : Reuss Voigt Hill
#
# Bulk Modulus (GPa) = 34.77616 36.90216 35.83916
# Shear Modulus (GPa) = 34.70955 -18.71556 7.99700
#
# Velocity S-wave (km/s) = 3.86347 -2.83697 1.85446
# Velocity P-wave (km/s) = 5.90398 2.26674 4.47186
#
# Compressibility (1/GPa) = 0.02875533
#
# Stress axis : x y z
#
# Youngs Moduli (GPa) = 73.58911 51.09019 48.29738
#
# Poissons Ratio (x) = -0.00013 0.22451
# Poissons Ratio (y) = -0.00019 0.38203
# Poissons Ratio (z) = 0.34208 0.40413
#
# Static dielectric constant tensor:
#      x y z
#    x 1.876980 0.000000 0.003150 
#    y 0.000000 2.526450 0.000000 
#    z 0.003150 0.000000 1.986770 
# 
# From -- ./inp_files/4562.got.cif
#   From: 2010.05.17/outbox.cif.g08.bks.cpg/sg9_3_cif.got.tgz:4562.got - 2010.06.03 20:04:27.
