data_PCOD9136447
_publ_section_title
;
Structure prediction by ZEFSAII (Michael W. Deem and Ramdas Pophale) SiO2 
 PCOD9136447
Probable space group: C C
;
_chemical_formula_sum "Si O2"
_cell_formula_units_Z 32
_cell_length_a 34.892678
_cell_length_b 7.373732
_cell_length_c 12.803252
_cell_angle_alpha 90.000000
_cell_angle_beta 155.830904
_cell_angle_gamma 90.000000
_cell_volume 1348.722694
_symmetry_space_group_name_H-M "C C"
_symmetry_group_IT_number 9
_symmetry_cell_setting 'monoclinic'
loop_
_space_group_symop_operation_xyz
x,y,z
x,-y,1/2+z
1/2+x,1/2+y,z
1/2+x,1/2-y,1/2+z
loop_
_atom_site_type_symbol
_atom_site_label
_atom_site_fract_x
_atom_site_fract_y
_atom_site_fract_z
Si Si1 0.450690 0.732489 0.163300
Si Si2 0.943109 0.612879 0.412448
Si Si3 0.645843 0.256381 0.692497
Si Si4 0.789747 0.610984 0.408021
Si Si5 0.945763 0.183408 0.710508
Si Si6 0.742383 0.748809 0.761959
Si Si7 0.140796 0.521154 0.368136
Si Si8 0.157509 0.188852 0.761857
O O1 0.439227 0.518109 0.151470
O O2 0.555693 0.762131 0.469288
O O3 0.367371 0.821801 0.021693
O O4 0.441795 0.803469 0.023678
O O5 0.853608 0.495973 0.153431
O O6 0.961427 0.776017 0.373739
O O7 0.030863 0.479535 0.617370
O O8 0.537907 0.230656 0.387351
O O9 0.660672 0.114208 0.820728
O O10 0.652319 0.469077 0.747314
O O11 0.726694 0.241289 0.808099
O O12 0.714551 0.461916 0.179149
O O13 0.840971 0.257135 0.445395
O O14 0.686294 0.912462 0.575096
O O15 0.730797 0.765323 0.858498
O O16 0.175732 0.716935 0.418125
#
# Coordination Sequence:
#
# PCOD9136447 Si02
#       8
#     4   4   4   4   4   4   4   4
#     4  11  21  40  68  91 128 172 212 264 338 382
#     4  10  21  41  65  91 128 167 214 275 321 382
#     4   9  22  41  62  89 130 165 207 267 318 375
#     4  10  22  40  62  94 130 164 215 266 318 392
#     4   9  22  41  61  92 127 169 215 271 312 386
#     4  10  22  40  61  92 127 166 210 262 321 381
#     4  11  21  40  68  90 127 170 212 263 328 380
#     4  10  21  41  65  91 129 165 207 268 316 386
#
# _framework density 23.726151999999999
#
# number of rings (size 3 to 8) (size 9 to 14) (size 15 to 20)
#    0.000    2.000    2.500    0.000    3.500    3.000 
#    0.000    0.000    8.250    0.000    0.000    0.000 
#    0.000    0.000    0.000    0.000    0.000    0.000 
#
# Total GULP energy -89242.871505 kJ/mol
# GULP energy per Si atom -5577.679469 kJ/mol
# Density = 2.367215 g / cm^3
# Si number density = 23.726152 Si / 1000 Ang^3
#
#
#
# Elastic Constant Matrix: (Units=GPa)
#
#
# Indices 1 2 3 4 5 6 
#
# 1 112.2932 21.0986 25.0425 0.0000 22.3781 0.0000
# 2 21.0986 78.4223 7.5094 0.0000 -5.1247 0.0000
# 3 25.0425 7.5094 57.8838 0.0000 21.6209 0.0000
# 4 0.0000 0.0000 0.0000 27.1013 0.0000 2.8785
# 5 22.3781 -5.1247 21.6209 0.0000 35.8243 0.0000
# 6 0.0000 0.0000 0.0000 2.8785 0.0000 39.6423
#
#
#
# Elastic Compliance Matrix: (Units=1/GPa)
#
#
# Indices 1 2 3 4 5 6 
#
# 1 0.011216 -0.003218 -0.002125 0.000000 -0.006184 0.000000
# 2 -0.003218 0.014224 -0.002536 0.000000 0.005575 0.000000
# 3 -0.002125 -0.002536 0.023450 0.000000 -0.013188 0.000000
# 4 0.000000 0.000000 0.000000 0.037185 0.000000 -0.002700
# 5 -0.006184 0.005575 -0.013188 0.000000 0.040534 0.000000
# 6 0.000000 0.000000 0.000000 -0.002700 0.000000 0.025422
#
#
# Mechanical properties :
#
#
# Convention : Reuss Voigt Hill
#
# Bulk Modulus (GPa) = 30.18114 39.54449 34.86282
# Shear Modulus (GPa) = 27.95882 33.51017 30.73449
#
# Velocity S-wave (km/s) = 3.43650 3.76223 3.60305
# Velocity P-wave (km/s) = 5.33801 5.96454 5.65995
#
# Compressibility (1/GPa) = 0.03313327
#
# Stress axis : x y z
#
# Youngs Moduli (GPa) = 89.15645 70.30156 42.64312
#
# Poissons Ratio (x) = 0.22625 0.09062
# Poissons Ratio (y) = 0.28693 0.10813
# Poissons Ratio (z) = 0.18947 0.17826
#
# Static dielectric constant tensor:
#      x y z
#    x 1.907250 0.000000 -0.016310 
#    y 0.000000 1.926180 0.000000 
#    z -0.016310 0.000000 1.982200 
# 
# From -- ./inp_files/17740.got.cif
#   From: 2010.05.17/outbox.cif.g08.bks.cpg/sg9_9_cif.got.tgz:17740.got - 2010.06.03 20:04:27.
