data_PCOD9136765
_publ_section_title
;
Structure prediction by ZEFSAII (Michael W. Deem and Ramdas Pophale) SiO2 
 PCOD9136765
Probable space group: C C
;
_chemical_formula_sum "Si O2"
_cell_formula_units_Z 28
_cell_length_a 19.333294
_cell_length_b 5.612884
_cell_length_c 13.508831
_cell_angle_alpha 90.000000
_cell_angle_beta 124.520551
_cell_angle_gamma 90.000000
_cell_volume 1207.803557
_symmetry_space_group_name_H-M "C C"
_symmetry_group_IT_number 9
_symmetry_cell_setting 'monoclinic'
loop_
_space_group_symop_operation_xyz
x,y,z
x,-y,1/2+z
1/2+x,1/2+y,z
1/2+x,1/2-y,1/2+z
loop_
_atom_site_type_symbol
_atom_site_label
_atom_site_fract_x
_atom_site_fract_y
_atom_site_fract_z
Si Si1 0.132340 0.367303 0.070670
Si Si2 0.162573 0.972043 0.218476
Si Si3 0.939557 0.607029 0.426731
Si Si4 0.777482 0.751834 0.660913
Si Si5 0.386279 0.638686 0.690758
Si Si6 0.968806 0.118035 0.554458
Si Si7 0.226532 0.878984 0.482802
O O1 0.199694 0.568062 0.108484
O O2 0.156317 0.168897 0.008836
O O3 0.147803 0.253809 0.191136
O O4 0.037046 0.425168 0.979082
O O5 0.247799 0.920779 0.225176
O O6 0.184485 0.884978 0.344037
O O7 0.069719 0.873157 0.114481
O O8 0.897667 0.664553 0.285969
O O9 0.924198 0.359396 0.474756
O O10 0.935769 0.859624 0.485880
O O11 0.769107 0.625681 0.548639
O O12 0.863986 0.895703 0.730949
O O13 0.456592 0.620253 0.663948
O O14 0.302057 0.694781 0.559816
#
# Coordination Sequence:
#
# PCOD9136765 Si02
#       7
#     4   4   4   4   4   4   4
#     4   9  20  42  64  97 125 176 230 287 340 403
#     4  10  21  43  71  96 132 180 238 286 344 421
#     4  11  25  46  72  98 143 184 229 292 349 421
#     4  10  22  43  64  97 136 180 231 286 354 407
#     4  11  27  42  65 105 142 183 228 292 356 417
#     4  11  26  46  73 104 137 186 239 287 353 414
#     4  10  23  40  65  99 133 179 231 286 348 423
#
# _framework density 23.182579
#
# number of rings (size 3 to 8) (size 9 to 14) (size 15 to 20)
#    0.000    1.714    1.429    0.857    6.000    4.571 
#    5.143    0.000    0.000    0.000    0.000    0.000 
#    0.000    0.000    0.000    0.000    0.000    0.000 
#
# Total GULP energy -78009.746294 kJ/mol
# GULP energy per Si atom -5572.124735 kJ/mol
# Density = 2.312981 g / cm^3
# Si number density = 23.182579 Si / 1000 Ang^3
#
#
#
# Elastic Constant Matrix: (Units=GPa)
#
#
# Indices 1 2 3 4 5 6 
#
# 1 93.6704 6.5907 -4.3546 0.0000 -13.8861 0.0000
# 2 6.5907 82.0171 13.5479 0.0000 -2.1360 0.0000
# 3 -4.3546 13.5479 77.3544 0.0000 -7.5796 0.0000
# 4 0.0000 0.0000 0.0000 16.7624 0.0000 4.7698
# 5 -13.8861 -2.1360 -7.5796 0.0000 24.7016 0.0000
# 6 0.0000 0.0000 0.0000 4.7698 0.0000 28.9501
#
#
#
# Elastic Compliance Matrix: (Units=1/GPa)
#
#
# Indices 1 2 3 4 5 6 
#
# 1 0.011865 -0.001024 0.001538 0.000000 0.007053 0.000000
# 2 -0.001024 0.012648 -0.002291 0.000000 -0.000185 0.000000
# 3 0.001538 -0.002291 0.013899 0.000000 0.004931 0.000000
# 4 0.000000 0.000000 0.000000 0.062592 0.000000 -0.010313
# 5 0.007053 -0.000185 0.004931 0.000000 0.045946 0.000000
# 6 0.000000 0.000000 0.000000 -0.010313 0.000000 0.036241
#
#
# Mechanical properties :
#
#
# Convention : Reuss Voigt Hill
#
# Bulk Modulus (GPa) = 28.68702 31.62334 30.15518
# Shear Modulus (GPa) = 25.20626 29.89998 27.55312
#
# Velocity S-wave (km/s) = 3.30099 3.59522 3.45124
# Velocity P-wave (km/s) = 5.18941 5.55920 5.37749
#
# Compressibility (1/GPa) = 0.03485897
#
# Stress axis : x y z
#
# Youngs Moduli (GPa) = 84.28200 79.06083 71.94987
#
# Poissons Ratio (x) = 0.08095 -0.11069
# Poissons Ratio (y) = 0.08629 0.16484
# Poissons Ratio (z) = -0.12966 0.18113
#
# Static dielectric constant tensor:
#      x y z
#    x 1.870330 0.000000 -0.006640 
#    y 0.000000 2.024220 0.000000 
#    z -0.006640 0.000000 1.913260 
# 
# From -- ./inp_files/19639.got.cif
#   From: 2010.05.17/outbox.cif.g08.bks.cpg/sg9_10_cif.got.tgz:19639.got - 2010.06.03 20:04:27.
