data_PCOD9136550
_publ_section_title
;
Structure prediction by ZEFSAII (Michael W. Deem and Ramdas Pophale) SiO2 
 PCOD9136550
Probable space group: C C
;
_chemical_formula_sum "Si O2"
_cell_formula_units_Z 24
_cell_length_a 23.656823
_cell_length_b 6.634693
_cell_length_c 13.196208
_cell_angle_alpha 90.000000
_cell_angle_beta 148.473181
_cell_angle_gamma 90.000000
_cell_volume 1083.036424
_symmetry_space_group_name_H-M "C C"
_symmetry_group_IT_number 9
_symmetry_cell_setting 'monoclinic'
loop_
_space_group_symop_operation_xyz
x,y,z
x,-y,1/2+z
1/2+x,1/2+y,z
1/2+x,1/2-y,1/2+z
loop_
_atom_site_type_symbol
_atom_site_label
_atom_site_fract_x
_atom_site_fract_y
_atom_site_fract_z
Si Si1 0.443400 0.534105 0.354870
Si Si2 0.838635 0.729947 0.051465
Si Si3 0.279979 0.901503 0.839786
Si Si4 0.644151 0.452210 0.803316
Si Si5 0.609832 0.711677 0.471917
Si Si6 0.282781 0.513543 0.271176
O O1 0.413855 0.329425 0.249870
O O2 0.534840 0.508279 0.579356
O O3 0.495751 0.678168 0.351032
O O4 0.341242 0.609968 0.262598
O O5 0.871945 0.535324 0.034228
O O6 0.727088 0.644391 0.931869
O O7 0.819077 0.895345 0.934016
O O8 0.211059 0.809401 0.828363
O O9 0.310711 0.721539 0.814759
O O10 0.196974 0.058506 0.659718
O O11 0.614511 0.354698 0.863540
O O12 0.657733 0.932063 0.565229
#
# Coordination Sequence:
#
# PCOD9136550 Si02
#       6
#     4   4   4   4   4   4
#     4  11  21  38  69  99 130 189 226 276 358 404
#     4   9  21  40  66  92 136 181 220 288 338 414
#     4   8  20  39  63  89 128 178 222 278 345 400
#     4   9  20  42  62  90 139 174 225 284 337 414
#     4  10  21  42  61  94 140 178 221 296 333 413
#     4  11  21  39  67  96 133 182 228 282 349 413
#
# _framework density 22.15992
#
# number of rings (size 3 to 8) (size 9 to 14) (size 15 to 20)
#    1.000    1.333    1.667    2.000    2.333    0.000 
#    0.000   16.667    0.000    0.000    0.000    0.000 
#    0.000    0.000    0.000    0.000    0.000    0.000 
#
# Total GULP energy -66831.374384 kJ/mol
# GULP energy per Si atom -5569.281199 kJ/mol
# Density = 2.210948 g / cm^3
# Si number density = 22.159920 Si / 1000 Ang^3
#
#
#
# Elastic Constant Matrix: (Units=GPa)
#
#
# Indices 1 2 3 4 5 6 
#
# 1 74.0452 -3.7904 2.1509 0.0000 -8.5091 0.0000
# 2 -3.7904 61.3632 15.3649 0.0000 7.7604 0.0000
# 3 2.1509 15.3649 62.7015 0.0000 -7.5679 0.0000
# 4 0.0000 0.0000 0.0000 30.7716 0.0000 2.2294
# 5 -8.5091 7.7604 -7.5679 0.0000 34.6645 0.0000
# 6 0.0000 0.0000 0.0000 2.2294 0.0000 18.9103
#
#
#
# Elastic Compliance Matrix: (Units=1/GPa)
#
#
# Indices 1 2 3 4 5 6 
#
# 1 0.013911 0.000499 -0.000206 0.000000 0.003258 0.000000
# 2 0.000499 0.018246 -0.005101 0.000000 -0.005076 0.000000
# 3 -0.000206 -0.005101 0.017807 0.000000 0.004979 0.000000
# 4 0.000000 0.000000 0.000000 0.032777 0.000000 -0.003864
# 5 0.003258 -0.005076 0.004979 0.000000 0.031871 0.000000
# 6 0.000000 0.000000 0.000000 -0.003864 0.000000 0.053337
#
#
# Mechanical properties :
#
#
# Convention : Reuss Voigt Hill
#
# Bulk Modulus (GPa) = 24.78468 25.06230 24.92349
# Shear Modulus (GPa) = 26.17588 29.16157 27.66873
#
# Velocity S-wave (km/s) = 3.44063 3.63155 3.53738
# Velocity P-wave (km/s) = 5.19544 5.37759 5.28730
#
# Compressibility (1/GPa) = 0.04034750
#
# Stress axis : x y z
#
# Youngs Moduli (GPa) = 71.88447 54.80518 56.15900
#
# Poissons Ratio (x) = -0.02734 0.01158
# Poissons Ratio (y) = -0.03586 0.28647
# Poissons Ratio (z) = 0.01482 0.27956
#
# Static dielectric constant tensor:
#      x y z
#    x 1.857070 0.000000 0.007690 
#    y 0.000000 1.846360 0.000000 
#    z 0.007690 0.000000 1.828240 
# 
# From -- ./inp_files/20722.got.cif
#   From: 2010.05.17/outbox.cif.g08.bks.cpg/sg9_11_cif.got.tgz:20722.got - 2010.06.03 20:04:27.
