data_PCOD9136208
_publ_section_title
;
Structure prediction by ZEFSAII (Michael W. Deem and Ramdas Pophale) SiO2 
 PCOD9136208
Probable space group: C C
;
_chemical_formula_sum "Si O2"
_cell_formula_units_Z 32
_cell_length_a 18.403894
_cell_length_b 7.205976
_cell_length_c 20.390965
_cell_angle_alpha 90.000000
_cell_angle_beta 149.606498
_cell_angle_gamma 90.000000
_cell_volume 1368.156716
_symmetry_space_group_name_H-M "C C"
_symmetry_group_IT_number 9
_symmetry_cell_setting 'monoclinic'
loop_
_space_group_symop_operation_xyz
x,y,z
x,-y,1/2+z
1/2+x,1/2+y,z
1/2+x,1/2-y,1/2+z
loop_
_atom_site_type_symbol
_atom_site_label
_atom_site_fract_x
_atom_site_fract_y
_atom_site_fract_z
Si Si1 0.266770 0.266894 0.340000
Si Si2 0.161275 0.862357 0.417332
Si Si3 0.927209 0.087486 0.619118
Si Si4 0.682775 0.781512 0.419454
Si Si5 0.987510 0.524684 0.971863
Si Si6 0.478724 0.566676 0.514021
Si Si7 0.966761 0.558294 0.313249
Si Si8 0.689106 0.718977 0.127248
O O1 0.178421 0.246682 0.337617
O O2 0.399176 0.120291 0.447834
O O3 0.320952 0.479113 0.385164
O O4 0.218606 0.232758 0.228746
O O5 0.311528 0.756403 0.519126
O O6 0.044966 0.866862 0.266281
O O7 0.077390 0.731126 0.403553
O O8 0.184942 0.077772 0.453032
O O9 0.011868 0.051752 0.617042
O O10 0.822699 0.906961 0.546921
O O11 0.545100 0.904489 0.331490
O O12 0.925291 0.534763 0.850261
O O13 0.138567 0.427381 0.075064
O O14 0.992514 0.722243 0.006729
O O15 0.569484 0.440666 0.534921
O O16 0.817582 0.656750 0.180655
#
# Coordination Sequence:
#
# PCOD9136208 Si02
#       8
#     4   4   4   4   4   4   4   4
#     4   9  20  40  62  93 128 163 215 284 332 407
#     4  11  24  44  68  98 151 183 226 294 348 425
#     4  10  24  43  69 110 134 183 232 289 357 419
#     4  10  22  41  67  97 134 179 234 278 353 418
#     4  10  22  39  60  91 125 171 220 271 342 406
#     4  10  21  39  68  95 128 169 228 282 343 417
#     4  10  25  41  58  95 130 178 227 281 347 416
#     4  10  22  39  64  89 132 168 222 285 342 408
#
# _framework density 23.389132
#
# number of rings (size 3 to 8) (size 9 to 14) (size 15 to 20)
#    0.000    2.000    0.000    1.500    3.500   12.000 
#    0.000    0.000    0.000    0.000    0.000    0.000 
#    0.000    0.000    0.000    0.000    0.000    0.000 
#
# Total GULP energy -89278.447333 kJ/mol
# GULP energy per Si atom -5579.902958 kJ/mol
# Density = 2.333590 g / cm^3
# Si number density = 23.389132 Si / 1000 Ang^3
#
#
#
# Elastic Constant Matrix: (Units=GPa)
#
#
# Indices 1 2 3 4 5 6 
#
# 1 104.7521 38.4362 4.0736 0.0000 3.7569 0.0000
# 2 38.4362 181.5392 24.1760 0.0000 17.3487 0.0000
# 3 4.0736 24.1760 58.8434 0.0000 -3.9142 0.0000
# 4 0.0000 0.0000 0.0000 18.9537 0.0000 1.3972
# 5 3.7569 17.3487 -3.9142 0.0000 25.7809 0.0000
# 6 0.0000 0.0000 0.0000 1.3972 0.0000 30.2478
#
#
#
# Elastic Compliance Matrix: (Units=1/GPa)
#
#
# Indices 1 2 3 4 5 6 
#
# 1 0.010353 -0.002219 0.000196 0.000000 0.000015 0.000000
# 2 -0.002219 0.006824 -0.002964 0.000000 -0.004719 0.000000
# 3 0.000196 -0.002964 0.018516 0.000000 0.004777 0.000000
# 4 0.000000 0.000000 0.000000 0.052940 0.000000 -0.002445
# 5 0.000015 -0.004719 0.004777 0.000000 0.042687 0.000000
# 6 0.000000 0.000000 0.000000 -0.002445 0.000000 0.033173
#
#
# Mechanical properties :
#
#
# Convention : Reuss Voigt Hill
#
# Bulk Modulus (GPa) = 38.88267 53.16737 46.02502
# Shear Modulus (GPa) = 27.31637 33.55972 30.43805
#
# Velocity S-wave (km/s) = 3.42118 3.79204 3.61137
# Velocity P-wave (km/s) = 5.68034 6.47717 6.09180
#
# Compressibility (1/GPa) = 0.02571840
#
# Stress axis : x y z
#
# Youngs Moduli (GPa) = 96.59450 146.54157 54.00680
#
# Poissons Ratio (x) = 0.32524 -0.01059
# Poissons Ratio (y) = 0.21438 0.16007
# Poissons Ratio (z) = -0.01895 0.43433
#
# Static dielectric constant tensor:
#      x y z
#    x 1.903560 0.000000 -0.036840 
#    y 0.000000 1.845240 0.000000 
#    z -0.036840 0.000000 2.066650 
# 
# From -- ./inp_files/35956.got.cif
#   From: 2010.05.17/outbox.cif.g08.bks.cpg/sg9_18_cif.got.tgz:35956.got - 2010.06.03 20:04:27.
