data_PCOD9136346
_publ_section_title
;
Structure prediction by ZEFSAII (Michael W. Deem and Ramdas Pophale) SiO2 
 PCOD9136346
Probable space group: C C
;
_chemical_formula_sum "Si O2"
_cell_formula_units_Z 28
_cell_length_a 12.856476
_cell_length_b 16.094631
_cell_length_c 10.391758
_cell_angle_alpha 90.000000
_cell_angle_beta 146.618555
_cell_angle_gamma 90.000000
_cell_volume 1183.098073
_symmetry_space_group_name_H-M "C C"
_symmetry_group_IT_number 9
_symmetry_cell_setting 'monoclinic'
loop_
_space_group_symop_operation_xyz
x,y,z
x,-y,1/2+z
1/2+x,1/2+y,z
1/2+x,1/2-y,1/2+z
loop_
_atom_site_type_symbol
_atom_site_label
_atom_site_fract_x
_atom_site_fract_y
_atom_site_fract_z
Si Si1 0.260660 0.854615 0.403420
Si Si2 0.758418 0.649034 0.198448
Si Si3 0.873273 0.810470 0.912845
Si Si4 0.120921 0.664769 0.901316
Si Si5 0.928706 0.197237 0.030924
Si Si6 0.053203 0.499120 0.460904
Si Si7 0.140702 0.432105 0.806110
O O1 0.205026 0.836610 0.493794
O O2 0.388807 0.784904 0.467230
O O3 0.410945 0.928683 0.566516
O O4 0.072522 0.857326 0.124400
O O5 0.583596 0.642354 0.116963
O O6 0.860829 0.732222 0.358845
O O7 0.896242 0.568143 0.335820
O O8 0.756429 0.816501 0.661648
O O9 0.748851 0.847190 0.899506
O O10 0.258262 0.646697 0.921124
O O11 0.013134 0.745421 0.734791
O O12 0.995067 0.588299 0.828297
O O13 0.177469 0.479092 0.712994
O O14 0.192053 0.534590 0.496447
#
# Coordination Sequence:
#
# PCOD9136346 Si02
#       7
#     4   4   4   4   4   4   4
#     4  11  21  38  63  96 126 166 217 273 328 398
#     4  10  22  40  66  96 136 173 223 281 340 401
#     4  11  21  38  63  96 126 166 217 273 328 398
#     4  10  22  40  66  96 136 173 223 281 340 401
#     4  10  21  40  68 101 126 180 230 278 329 416
#     4  10  22  44  62  92 134 176 214 276 344 398
#     4  10  23  42  64  89 132 176 210 274 335 396
#
# _framework density 23.666678000000001
#
# number of rings (size 3 to 8) (size 9 to 14) (size 15 to 20)
#    0.000    1.714    1.429    2.571    4.000    0.000 
#    7.714    2.857    0.000    0.000    0.000    0.000 
#    0.000    0.000    0.000    0.000    0.000    0.000 
#
# Total GULP energy -78030.235993 kJ/mol
# GULP energy per Si atom -5573.588285 kJ/mol
# Density = 2.361281 g / cm^3
# Si number density = 23.666678 Si / 1000 Ang^3
#
#
#
# Elastic Constant Matrix: (Units=GPa)
#
#
# Indices 1 2 3 4 5 6 
#
# 1 116.3878 46.3896 10.1523 0.0000 -8.9751 0.0000
# 2 46.3896 67.1354 9.8364 0.0000 -8.1162 0.0000
# 3 10.1523 9.8364 75.3701 0.0000 -10.7056 0.0000
# 4 0.0000 0.0000 0.0000 14.6193 0.0000 -8.0534
# 5 -8.9751 -8.1162 -10.7056 0.0000 34.2894 0.0000
# 6 0.0000 0.0000 0.0000 -8.0534 0.0000 50.2674
#
#
#
# Elastic Compliance Matrix: (Units=1/GPa)
#
#
# Indices 1 2 3 4 5 6 
#
# 1 0.011917 -0.008044 -0.000401 0.000000 0.001090 0.000000
# 2 -0.008044 0.020940 -0.001302 0.000000 0.002444 0.000000
# 3 -0.000401 -0.001302 0.014056 0.000000 0.003976 0.000000
# 4 0.000000 0.000000 0.000000 0.075024 0.000000 0.012020
# 5 0.001090 0.002444 0.003976 0.000000 0.031269 0.000000
# 6 0.000000 0.000000 0.000000 0.012020 0.000000 0.021819
#
#
# Mechanical properties :
#
#
# Convention : Reuss Voigt Hill
#
# Bulk Modulus (GPa) = 36.46972 43.51665 39.99319
# Shear Modulus (GPa) = 24.55080 32.66955 28.61018
#
# Velocity S-wave (km/s) = 3.22430 3.71941 3.48067
# Velocity P-wave (km/s) = 5.41338 6.07228 5.75227
#
# Compressibility (1/GPa) = 0.02742001
#
# Stress axis : x y z
#
# Youngs Moduli (GPa) = 83.91244 47.75560 71.14180
#
# Poissons Ratio (x) = 0.38415 0.02850
# Poissons Ratio (y) = 0.67500 0.09263
# Poissons Ratio (z) = 0.03361 0.06218
#
# Static dielectric constant tensor:
#      x y z
#    x 1.953290 0.000000 0.008600 
#    y 0.000000 1.863300 0.000000 
#    z 0.008600 0.000000 1.904040 
# 
# From -- ./inp_files/18470.got.cif
#   From: 2010.05.17/outbox.cif.g08.bks.cpg/sg9_10_cif.got.tgz:18470.got - 2010.06.03 20:04:27.
