data_PCOD9136736
_publ_section_title
;
Structure prediction by ZEFSAII (Michael W. Deem and Ramdas Pophale) SiO2 
 PCOD9136736
Probable space group: C C
;
_chemical_formula_sum "Si O2"
_cell_formula_units_Z 32
_cell_length_a 10.095259
_cell_length_b 10.315940
_cell_length_c 20.240852
_cell_angle_alpha 90.000000
_cell_angle_beta 136.522602
_cell_angle_gamma 90.000000
_cell_volume 1450.396225
_symmetry_space_group_name_H-M "C C"
_symmetry_group_IT_number 9
_symmetry_cell_setting 'monoclinic'
loop_
_space_group_symop_operation_xyz
x,y,z
x,-y,1/2+z
1/2+x,1/2+y,z
1/2+x,1/2-y,1/2+z
loop_
_atom_site_type_symbol
_atom_site_label
_atom_site_fract_x
_atom_site_fract_y
_atom_site_fract_z
Si Si1 0.962190 0.523504 0.557580
Si Si2 0.775383 0.275657 0.089898
Si Si3 0.744451 0.648031 0.362336
Si Si4 0.100050 0.240616 0.759753
Si Si5 0.431632 0.813462 0.292874
Si Si6 0.342348 0.240171 0.970830
Si Si7 0.885088 0.005744 0.169433
Si Si8 0.991089 0.393982 0.836801
O O1 0.866593 0.624165 0.572413
O O2 0.898027 0.572555 0.461840
O O3 0.885999 0.375754 0.537223
O O4 0.192261 0.520310 0.641147
O O5 0.858778 0.313793 0.191620
O O6 0.544874 0.281916 0.012924
O O7 0.832163 0.123627 0.100670
O O8 0.649446 0.762770 0.370342
O O9 0.556379 0.565919 0.274987
O O10 0.845186 0.686636 0.329948
O O11 0.277349 0.273542 0.776494
O O12 0.988243 0.354469 0.757939
O O13 0.968276 0.133073 0.677218
O O14 0.208605 0.182977 0.863821
O O15 0.431012 0.957642 0.321535
O O16 0.205564 0.360053 0.940718
#
# Coordination Sequence:
#
# PCOD9136736 Si02
#       8
#     4   4   4   4   4   4   4   4
#     4  11  22  41  69  98 134 181 219 278 343 393
#     4  10  24  39  62 106 135 168 234 274 329 410
#     4  11  22  43  67  99 133 178 224 275 340 400
#     4  10  21  43  68  88 132 179 215 273 338 389
#     4  11  23  40  65  97 135 173 218 281 335 390
#     4   9  21  42  64  91 134 174 223 272 326 404
#     4  10  22  40  68  94 134 172 225 272 330 405
#     4  10  23  42  67  99 129 177 232 265 337 401
#
# _framework density 22.062936000000001
#
# number of rings (size 3 to 8) (size 9 to 14) (size 15 to 20)
#    0.750    1.000    2.500    0.750    3.500    6.000 
#    0.000    2.500    0.000    0.000    0.000    0.000 
#    0.000    0.000    0.000    0.000    0.000    0.000 
#
# Total GULP energy -89180.692149 kJ/mol
# GULP energy per Si atom -5573.793259 kJ/mol
# Density = 2.201272 g / cm^3
# Si number density = 22.062936 Si / 1000 Ang^3
#
#
#
# Elastic Constant Matrix: (Units=GPa)
#
#
# Indices 1 2 3 4 5 6 
#
# 1 115.2100 39.9299 14.3641 0.0000 11.0822 0.0000
# 2 39.9299 58.5646 2.9553 0.0000 9.7491 0.0000
# 3 14.3641 2.9553 60.6875 0.0000 21.4572 0.0000
# 4 0.0000 0.0000 0.0000 25.4011 0.0000 -0.7279
# 5 11.0822 9.7491 21.4572 0.0000 35.3631 0.0000
# 6 0.0000 0.0000 0.0000 -0.7279 0.0000 36.4464
#
#
#
# Elastic Compliance Matrix: (Units=1/GPa)
#
#
# Indices 1 2 3 4 5 6 
#
# 1 0.011701 -0.007847 -0.002363 0.000000 -0.000070 0.000000
# 2 -0.007847 0.023218 0.002699 0.000000 -0.005580 0.000000
# 3 -0.002363 0.002699 0.021525 0.000000 -0.013064 0.000000
# 4 0.000000 0.000000 0.000000 0.039391 0.000000 0.000787
# 5 -0.000070 -0.005580 -0.013064 0.000000 0.037765 0.000000
# 6 0.000000 0.000000 0.000000 0.000787 0.000000 0.027453
#
#
# Mechanical properties :
#
#
# Convention : Reuss Voigt Hill
#
# Bulk Modulus (GPa) = 24.14095 38.77342 31.45718
# Shear Modulus (GPa) = 26.33240 31.25630 28.79435
#
# Velocity S-wave (km/s) = 3.45847 3.76798 3.61654
# Velocity P-wave (km/s) = 5.18784 6.04503 5.63276
#
# Compressibility (1/GPa) = 0.04142339
#
# Stress axis : x y z
#
# Youngs Moduli (GPa) = 85.46531 43.07042 46.45822
#
# Poissons Ratio (x) = 0.33796 0.10976
# Poissons Ratio (y) = 0.67062 -0.12541
# Poissons Ratio (z) = 0.20192 -0.11627
#
# Static dielectric constant tensor:
#      x y z
#    x 1.826020 0.000000 -0.021010 
#    y 0.000000 1.880700 0.000000 
#    z -0.021010 0.000000 1.834130 
# 
# From -- ./inp_files/32597.got.cif
#   From: 2010.05.17/outbox.cif.g08.bks.cpg/sg9_17_cif.got.tgz:32597.got - 2010.06.03 20:04:27.
