data_PCOD9136640
_publ_section_title
;
Structure prediction by ZEFSAII (Michael W. Deem and Ramdas Pophale) SiO2 
 PCOD9136640
Probable space group: C C
;
_chemical_formula_sum "Si O2"
_cell_formula_units_Z 20
_cell_length_a 20.147042
_cell_length_b 9.099832
_cell_length_c 8.220543
_cell_angle_alpha 90.000000
_cell_angle_beta 32.446463
_cell_angle_gamma 90.000000
_cell_volume 808.581973
_symmetry_space_group_name_H-M "C C"
_symmetry_group_IT_number 9
_symmetry_cell_setting 'monoclinic'
loop_
_space_group_symop_operation_xyz
x,y,z
x,-y,1/2+z
1/2+x,1/2+y,z
1/2+x,1/2-y,1/2+z
loop_
_atom_site_type_symbol
_atom_site_label
_atom_site_fract_x
_atom_site_fract_y
_atom_site_fract_z
Si Si1 0.707620 0.675573 0.684580
Si Si2 0.457929 0.664152 0.384615
Si Si3 0.611680 0.218740 0.838531
Si Si4 0.210613 0.477292 0.837681
Si Si5 0.292603 0.914747 0.654901
O O1 0.718886 0.849507 0.683969
O O2 0.806334 0.585246 0.588543
O O3 0.727083 0.625156 0.460431
O O4 0.578524 0.623448 0.032017
O O5 0.343545 0.554709 0.593729
O O6 0.417222 0.822717 0.400086
O O7 0.497199 0.301310 0.989716
O O8 0.667207 0.116110 0.581762
O O9 0.708935 0.343068 0.687875
O O10 0.614712 0.105593 0.983638
#
# Coordination Sequence:
#
# PCOD9136640 Si02
#       5
#     4   4   4   4   4
#     4  11  24  44  69 100 135 174 227 274 327 403
#     4  10  24  46  70  96 135 179 212 280 343 377
#     4  10  22  42  67  99 133 172 225 268 326 400
#     4  10  21  42  69  98 131 173 223 269 325 401
#     4  11  25  44  67 101 136 174 227 275 327 403
#
# _framework density 24.734656999999999
#
# number of rings (size 3 to 8) (size 9 to 14) (size 15 to 20)
#    0.000    1.600    0.000    4.800    0.000   12.800 
#    0.000   14.000    0.000    0.000    0.000    0.000 
#    0.000    0.000    0.000    0.000    0.000    0.000 
#
# Total GULP energy -55923.090855 kJ/mol
# GULP energy per Si atom -5592.309085 kJ/mol
# Density = 2.467836 g / cm^3
# Si number density = 24.734657 Si / 1000 Ang^3
#
#
#
# Elastic Constant Matrix: (Units=GPa)
#
#
# Indices 1 2 3 4 5 6 
#
# 1 135.6922 42.4496 24.1398 0.0000 -10.5346 0.0000
# 2 42.4496 107.2483 10.1424 0.0000 1.8038 0.0000
# 3 24.1398 10.1424 70.5382 0.0000 6.5853 0.0000
# 4 0.0000 0.0000 0.0000 33.4338 0.0000 -6.9415
# 5 -10.5346 1.8038 6.5853 0.0000 42.3750 0.0000
# 6 0.0000 0.0000 0.0000 -6.9415 0.0000 52.9650
#
#
#
# Elastic Compliance Matrix: (Units=1/GPa)
#
#
# Indices 1 2 3 4 5 6 
#
# 1 0.009178 -0.003405 -0.002920 0.000000 0.002880 0.000000
# 2 -0.003405 0.010717 -0.000258 0.000000 -0.001263 0.000000
# 3 -0.002920 -0.000258 0.015505 0.000000 -0.003125 0.000000
# 4 0.000000 0.000000 0.000000 0.030747 0.000000 0.004030
# 5 0.002880 -0.001263 -0.003125 0.000000 0.024854 0.000000
# 6 0.000000 0.000000 0.000000 0.004030 0.000000 0.019409
#
#
# Mechanical properties :
#
#
# Convention : Reuss Voigt Hill
#
# Bulk Modulus (GPa) = 44.97593 51.88250 48.42922
# Shear Modulus (GPa) = 38.17169 41.53788 39.85478
#
# Velocity S-wave (km/s) = 3.93268 4.10242 4.01845
# Velocity P-wave (km/s) = 6.23251 6.59249 6.41503
#
# Compressibility (1/GPa) = 0.02223411
#
# Stress axis : x y z
#
# Youngs Moduli (GPa) = 108.95663 93.30540 64.49589
#
# Poissons Ratio (x) = 0.31770 0.18834
# Poissons Ratio (y) = 0.37099 0.01663
# Poissons Ratio (z) = 0.31818 0.02406
#
# Static dielectric constant tensor:
#      x y z
#    x 2.009350 0.000000 0.021760 
#    y 0.000000 1.969580 0.000000 
#    z 0.021760 0.000000 1.934560 
# 
# From -- ./inp_files/12047.got.cif
#   From: 2010.05.17/outbox.cif.g08.bks.cpg/sg9_7_cif.got.tgz:12047.got - 2010.06.03 20:04:27.
