data_PCOD9136634
_publ_section_title
;
Structure prediction by ZEFSAII (Michael W. Deem and Ramdas Pophale) SiO2 
 PCOD9136634
Probable space group: C C
;
_chemical_formula_sum "Si O2"
_cell_formula_units_Z 24
_cell_length_a 7.148605
_cell_length_b 17.418493
_cell_length_c 9.274616
_cell_angle_alpha 90.000000
_cell_angle_beta 113.458790
_cell_angle_gamma 90.000000
_cell_volume 1059.403223
_symmetry_space_group_name_H-M "C C"
_symmetry_group_IT_number 9
_symmetry_cell_setting 'monoclinic'
loop_
_space_group_symop_operation_xyz
x,y,z
x,-y,1/2+z
1/2+x,1/2+y,z
1/2+x,1/2-y,1/2+z
loop_
_atom_site_type_symbol
_atom_site_label
_atom_site_fract_x
_atom_site_fract_y
_atom_site_fract_z
Si Si1 0.518580 0.602327 0.892180
Si Si2 0.138537 0.300592 0.319500
Si Si3 0.203561 0.402606 0.792412
Si Si4 0.723631 0.748078 0.668992
Si Si5 0.906106 0.994922 0.109552
Si Si6 0.323816 0.196547 0.141754
O O1 0.284659 0.630881 0.816145
O O2 0.551759 0.553512 0.759457
O O3 0.527195 0.550715 0.038955
O O4 0.672523 0.672057 0.968284
O O5 0.201802 0.279367 0.500310
O O6 0.194690 0.229761 0.232579
O O7 0.897927 0.315188 0.231684
O O8 0.306311 0.320014 0.789778
O O9 0.263593 0.456604 0.675911
O O10 0.967763 0.376203 0.721850
O O11 0.278118 0.440914 0.962043
O O12 0.490564 0.739087 0.648150
#
# Coordination Sequence:
#
# PCOD9136634 Si02
#       6
#     4   4   4   4   4   4
#     4  11  23  42  69 101 136 183 234 278 347 405
#     4  12  22  43  68  99 137 181 222 294 344 410
#     4   9  21  42  63  98 133 179 230 278 339 407
#     4  10  25  41  65  97 141 171 230 281 347 405
#     4  10  21  42  69  92 140 182 231 284 326 422
#     4  10  24  42  66  99 137 178 233 283 343 409
#
# _framework density 22.654266
#
# number of rings (size 3 to 8) (size 9 to 14) (size 15 to 20)
#    1.000    0.667    3.333    0.000    4.667    2.667 
#    0.000    0.000    0.000    0.000    0.000    0.000 
#    0.000    0.000    0.000    0.000    0.000    0.000 
#
# Total GULP energy -66993.816761 kJ/mol
# GULP energy per Si atom -5582.818063 kJ/mol
# Density = 2.260270 g / cm^3
# Si number density = 22.654266 Si / 1000 Ang^3
#
#
#
# Elastic Constant Matrix: (Units=GPa)
#
#
# Indices 1 2 3 4 5 6 
#
# 1 107.9583 27.1985 37.5441 0.0000 3.7764 0.0000
# 2 27.1985 52.7884 37.7958 0.0000 0.6578 0.0000
# 3 37.5441 37.7958 127.0760 0.0000 -17.7253 0.0000
# 4 0.0000 0.0000 0.0000 51.3337 0.0000 1.3493
# 5 3.7764 0.6578 -17.7253 0.0000 32.2634 0.0000
# 6 0.0000 0.0000 0.0000 1.3493 0.0000 21.7398
#
#
#
# Elastic Compliance Matrix: (Units=1/GPa)
#
#
# Indices 1 2 3 4 5 6 
#
# 1 0.011221 -0.003958 -0.002502 0.000000 -0.002607 0.000000
# 2 -0.003958 0.026169 -0.007174 0.000000 -0.004011 0.000000
# 3 -0.002502 -0.007174 0.011700 0.000000 0.006867 0.000000
# 4 0.000000 0.000000 0.000000 0.019512 0.000000 -0.001211
# 5 -0.002607 -0.004011 0.006867 0.000000 0.035154 0.000000
# 6 0.000000 0.000000 0.000000 -0.001211 0.000000 0.046074
#
#
# Mechanical properties :
#
#
# Convention : Reuss Voigt Hill
#
# Bulk Modulus (GPa) = 45.82173 54.76662 50.29418
# Shear Modulus (GPa) = 27.11918 33.41965 30.26942
#
# Velocity S-wave (km/s) = 3.46365 3.84500 3.65930
# Velocity P-wave (km/s) = 6.02215 6.62869 6.33269
#
# Compressibility (1/GPa) = 0.02182371
#
# Stress axis : x y z
#
# Youngs Moduli (GPa) = 89.11726 38.21324 85.47096
#
# Poissons Ratio (x) = 0.15124 0.21383
# Poissons Ratio (y) = 0.35271 0.61313
# Poissons Ratio (z) = 0.22295 0.27412
#
# Static dielectric constant tensor:
#      x y z
#    x 1.836350 0.000000 -0.003090 
#    y 0.000000 1.877810 0.000000 
#    z -0.003090 0.000000 1.825300 
# 
# From -- ./inp_files/5279.got.cif
#   From: 2010.05.17/outbox.cif.g08.bks.cpg/sg9_3_cif.got.tgz:5279.got - 2010.06.03 20:04:27.
