data_PCOD9136521
_publ_section_title
;
Structure prediction by ZEFSAII (Michael W. Deem and Ramdas Pophale) SiO2 
 PCOD9136521
Probable space group: C C
;
_chemical_formula_sum "Si O2"
_cell_formula_units_Z 28
_cell_length_a 21.828097
_cell_length_b 7.274647
_cell_length_c 13.238733
_cell_angle_alpha 90.000000
_cell_angle_beta 32.014772
_cell_angle_gamma 90.000000
_cell_volume 1114.456363
_symmetry_space_group_name_H-M "C C"
_symmetry_group_IT_number 9
_symmetry_cell_setting 'monoclinic'
loop_
_space_group_symop_operation_xyz
x,y,z
x,-y,1/2+z
1/2+x,1/2+y,z
1/2+x,1/2-y,1/2+z
loop_
_atom_site_type_symbol
_atom_site_label
_atom_site_fract_x
_atom_site_fract_y
_atom_site_fract_z
Si Si1 0.833390 0.952516 0.059170
Si Si2 0.800123 0.972846 0.841370
Si Si3 0.314276 0.124848 0.958011
Si Si4 0.509219 0.293378 0.040080
Si Si5 0.594466 0.073668 0.340659
Si Si6 0.561640 0.010244 0.106357
Si Si7 0.074052 0.946861 0.276420
O O1 0.816305 0.020042 0.197203
O O2 0.733812 0.055942 0.136248
O O3 0.797571 0.742943 0.084321
O O4 0.970486 0.977113 0.850878
O O5 0.839483 0.787992 0.841884
O O6 0.881687 0.146363 0.753152
O O7 0.661019 0.970709 0.046126
O O8 0.428509 0.008774 0.818021
O O9 0.204336 0.011152 0.072009
O O10 0.578639 0.216025 0.038369
O O11 0.556822 0.462882 0.911574
O O12 0.523915 0.120140 0.941028
O O13 0.578656 0.117707 0.482879
O O14 0.554178 0.232243 0.323267
#
# Coordination Sequence:
#
# PCOD9136521 Si02
#       7
#     4   4   4   4   4   4   4
#     4  10  22  43  65  99 129 171 232 264 336 401
#     4  10  21  41  70  90 135 182 215 281 335 387
#     4  12  22  40  67 101 137 171 224 283 323 404
#     4   9  20  42  64  94 129 172 224 268 323 404
#     4   9  20  43  64  95 129 173 225 268 323 408
#     4   9  20  40  59 100 129 171 229 264 332 399
#     4  11  21  41  67  95 138 176 211 284 334 387
#
# _framework density 25.124358000000001
#
# number of rings (size 3 to 8) (size 9 to 14) (size 15 to 20)
#    0.857    1.143    1.429    2.571    0.000    1.143 
#    7.714    5.714    0.000    0.000    0.000    0.000 
#    0.000    0.000    0.000    0.000    0.000    0.000 
#
# Total GULP energy -78033.360105 kJ/mol
# GULP energy per Si atom -5573.811436 kJ/mol
# Density = 2.506717 g / cm^3
# Si number density = 25.124358 Si / 1000 Ang^3
#
#
#
# Elastic Constant Matrix: (Units=GPa)
#
#
# Indices 1 2 3 4 5 6 
#
# 1 94.3231 10.8692 27.2751 -0.0001 -20.4809 0.0000
# 2 10.8692 89.1497 40.2905 -0.0011 -2.1381 -0.0001
# 3 27.2751 40.2905 144.9654 -0.0005 -37.5900 0.0000
# 4 -0.0001 -0.0011 -0.0005 51.5286 0.0000 -3.9791
# 5 -20.4809 -2.1381 -37.5900 0.0000 48.0753 0.0001
# 6 0.0000 -0.0001 0.0000 -3.9791 0.0001 29.3594
#
#
#
# Elastic Compliance Matrix: (Units=1/GPa)
#
#
# Indices 1 2 3 4 5 6 
#
# 1 0.011905 -0.000969 -0.000836 0.000000 0.004375 0.000000
# 2 -0.000969 0.013211 -0.004320 0.000000 -0.003203 0.000000
# 3 -0.000836 -0.004320 0.010177 0.000000 0.007409 0.000000
# 4 0.000000 0.000000 0.000000 0.019612 0.000000 0.002658
# 5 0.004375 -0.003203 0.007409 0.000000 0.028315 0.000000
# 6 0.000000 0.000000 0.000000 0.002658 0.000000 0.034421
#
#
# Mechanical properties :
#
#
# Convention : Reuss Voigt Hill
#
# Bulk Modulus (GPa) = 43.39594 53.92309 48.65952
# Shear Modulus (GPa) = 36.34444 42.45956 39.40200
#
# Velocity S-wave (km/s) = 3.80752 4.11539 3.96445
# Velocity P-wave (km/s) = 6.05306 6.64011 6.35337
#
# Compressibility (1/GPa) = 0.02304363
#
# Stress axis : x y z
#
# Youngs Moduli (GPa) = 83.99660 75.69602 98.25627
#
# Poissons Ratio (x) = 0.07332 0.08218
# Poissons Ratio (y) = 0.08136 0.42446
# Poissons Ratio (z) = 0.07025 0.32700
#
# Static dielectric constant tensor:
#      x y z
#    x 1.985640 0.000000 0.082880 
#    y 0.000000 1.964900 0.000000 
#    z 0.082880 0.000000 2.158760 
# 
# From -- ./inp_files/27325.got.cif
#   From: 2010.05.17/outbox.cif.g08.bks.cpg/sg9_14_cif.got.tgz:27325.got - 2010.06.03 20:04:27.
