data_PCOD9136181
_publ_section_title
;
Structure prediction by ZEFSAII (Michael W. Deem and Ramdas Pophale) SiO2 
 PCOD9136181
Probable space group: C C
;
_chemical_formula_sum "Si O2"
_cell_formula_units_Z 28
_cell_length_a 14.513571
_cell_length_b 16.246290
_cell_length_c 4.935865
_cell_angle_alpha 90.000000
_cell_angle_beta 112.325963
_cell_angle_gamma 90.000000
_cell_volume 1076.592073
_symmetry_space_group_name_H-M "C C"
_symmetry_group_IT_number 9
_symmetry_cell_setting 'monoclinic'
loop_
_space_group_symop_operation_xyz
x,y,z
x,-y,1/2+z
1/2+x,1/2+y,z
1/2+x,1/2-y,1/2+z
loop_
_atom_site_type_symbol
_atom_site_label
_atom_site_fract_x
_atom_site_fract_y
_atom_site_fract_z
Si Si1 0.710600 0.948737 0.044010
Si Si2 0.859491 0.716887 0.125488
Si Si3 0.776885 0.630269 0.518013
Si Si4 0.558409 0.367246 0.891845
Si Si5 0.066710 0.683469 0.142509
Si Si6 0.978966 0.552516 0.636758
Si Si7 0.926055 0.108343 0.716591
O O1 0.830515 0.945915 0.169272
O O2 0.683373 0.975528 0.315793
O O3 0.659234 0.864821 0.879808
O O4 0.800451 0.705848 0.338385
O O5 0.975534 0.690098 0.254938
O O6 0.872305 0.809536 0.041167
O O7 0.805115 0.660580 0.847435
O O8 0.663832 0.601580 0.397412
O O9 0.859505 0.565707 0.516258
O O10 0.482729 0.366493 0.554997
O O11 0.582141 0.276008 0.044352
O O12 0.505632 0.417306 0.077020
O O13 0.025510 0.629916 0.845636
O O14 0.001858 0.524125 0.360250
#
# Coordination Sequence:
#
# PCOD9136181 Si02
#       7
#     4   4   4   4   4   4   4
#     4  12  27  44  66  97 138 185 219 258 320 404
#     4  10  21  39  66  94 126 159 202 277 330 378
#     4  11  22  40  63  93 125 162 212 261 327 379
#     4  11  24  42  70  96 123 165 218 282 323 365
#     4  10  23  42  68 100 129 163 214 271 337 384
#     4  11  22  38  60  89 127 163 198 250 315 393
#     4  11  23  43  63  93 130 171 223 263 316 377
#
# _framework density 26.007992000000002
#
# number of rings (size 3 to 8) (size 9 to 14) (size 15 to 20)
#    0.000    1.143    0.000    7.714    0.000    8.000 
#    0.000    4.286    0.000    0.000    0.000    0.000 
#    0.000    0.000    0.000    0.000    0.000    0.000 
#
# Total GULP energy -78419.034794 kJ/mol
# GULP energy per Si atom -5601.359628 kJ/mol
# Density = 2.594880 g / cm^3
# Si number density = 26.007992 Si / 1000 Ang^3
#
#
#
# Elastic Constant Matrix: (Units=GPa)
#
#
# Indices 1 2 3 4 5 6 
#
# 1 189.8477 10.2388 55.9610 0.0000 7.2781 0.0000
# 2 10.2388 31.4118 6.2981 0.0000 4.6219 0.0000
# 3 55.9610 6.2981 110.0406 0.0000 -1.1992 0.0000
# 4 0.0000 0.0000 0.0000 22.4919 0.0000 -1.4203
# 5 7.2781 4.6219 -1.1992 0.0000 50.3000 0.0000
# 6 0.0000 0.0000 0.0000 -1.4203 0.0000 45.9650
#
#
#
# Elastic Compliance Matrix: (Units=1/GPa)
#
#
# Indices 1 2 3 4 5 6 
#
# 1 0.006295 -0.001295 -0.003137 0.000000 -0.000867 0.000000
# 2 -0.001295 0.032932 -0.001257 0.000000 -0.002868 0.000000
# 3 -0.003137 -0.001257 0.010764 0.000000 0.000826 0.000000
# 4 0.000000 0.000000 0.000000 0.044547 0.000000 0.001376
# 5 -0.000867 -0.002868 0.000826 0.000000 0.020289 0.000000
# 6 0.000000 0.000000 0.000000 0.001376 0.000000 0.021798
#
#
# Mechanical properties :
#
#
# Convention : Reuss Voigt Hill
#
# Bulk Modulus (GPa) = 25.89902 52.92175 39.41038
# Shear Modulus (GPa) = 31.08011 41.00485 36.04248
#
# Velocity S-wave (km/s) = 3.46066 3.97498 3.72670
# Velocity P-wave (km/s) = 5.09391 6.43892 5.80550
#
# Compressibility (1/GPa) = 0.03861150
#
# Stress axis : x y z
#
# Youngs Moduli (GPa) = 158.85502 30.36600 92.90529
#
# Poissons Ratio (x) = 0.03934 0.29141
# Poissons Ratio (y) = 0.20579 0.11681
# Poissons Ratio (z) = 0.49827 0.03818
#
# Static dielectric constant tensor:
#      x y z
#    x 2.063410 0.000000 0.051740 
#    y 0.000000 2.103900 0.000000 
#    z 0.051740 0.000000 1.985630 
# 
# From -- ./inp_files/2596.got.cif
#   From: 2010.05.17/outbox.cif.g08.bks.cpg/sg9_2_cif.got.tgz:2596.got - 2010.06.03 20:04:27.
