data_PCOD9136990
_publ_section_title
;
Structure prediction by ZEFSAII (Michael W. Deem and Ramdas Pophale) SiO2 
 PCOD9136990
Probable space group: C C
;
_chemical_formula_sum "Si O2"
_cell_formula_units_Z 32
_cell_length_a 15.352194
_cell_length_b 12.280973
_cell_length_c 12.424704
_cell_angle_alpha 90.000000
_cell_angle_beta 145.701382
_cell_angle_gamma 90.000000
_cell_volume 1320.042509
_symmetry_space_group_name_H-M "C C"
_symmetry_group_IT_number 9
_symmetry_cell_setting 'monoclinic'
loop_
_space_group_symop_operation_xyz
x,y,z
x,-y,1/2+z
1/2+x,1/2+y,z
1/2+x,1/2-y,1/2+z
loop_
_atom_site_type_symbol
_atom_site_label
_atom_site_fract_x
_atom_site_fract_y
_atom_site_fract_z
Si Si1 0.650020 0.778280 0.662090
Si Si2 0.270573 0.349733 0.554299
Si Si3 0.564157 0.590876 0.465866
Si Si4 0.992851 0.105059 0.022367
Si Si5 0.960190 0.189246 0.757104
Si Si6 0.288057 0.873736 0.479085
Si Si7 0.235837 0.533713 0.389076
Si Si8 0.754587 0.624529 0.457471
O O1 0.694962 0.817547 0.589225
O O2 0.519111 0.690542 0.498142
O O3 0.761285 0.695759 0.842333
O O4 0.630251 0.886433 0.711096
O O5 0.419869 0.419382 0.739704
O O6 0.162504 0.434327 0.380744
O O7 0.327542 0.245543 0.542953
O O8 0.592535 0.486920 0.564416
O O9 0.705332 0.608611 0.531301
O O10 0.946708 0.179340 0.873144
O O11 0.852892 0.034824 0.930982
O O12 0.107467 0.148511 0.230082
O O13 0.922527 0.312343 0.682182
O O14 0.831368 0.116358 0.563713
O O15 0.126233 0.148213 0.880555
O O16 0.311044 0.002839 0.485432
#
# Coordination Sequence:
#
# PCOD9136990 Si02
#       8
#     4   4   4   4   4   4   4   4
#     4  10  22  34  68  88 122 167 211 270 317 384
#     4  11  22  38  61  96 123 163 216 269 317 389
#     4  11  19  39  63  89 122 166 226 250 324 396
#     4  12  18  38  65  87 119 173 215 261 320 390
#     4  11  23  38  68  97 129 167 225 273 319 393
#     4  11  22  42  62 102 127 169 222 273 324 384
#     4  11  19  38  61  96 120 162 224 269 316 386
#     4  11  23  39  62  91 130 169 213 271 321 398
#
# _framework density 24.241643
#
# number of rings (size 3 to 8) (size 9 to 14) (size 15 to 20)
#    0.000    1.000    7.500    0.000    1.750    1.000 
#    0.000    7.500    0.000    0.000    0.000    0.000 
#    0.000    0.000    0.000    0.000    0.000    0.000 
#
# Total GULP energy -89196.083473 kJ/mol
# GULP energy per Si atom -5574.755217 kJ/mol
# Density = 2.418647 g / cm^3
# Si number density = 24.241643 Si / 1000 Ang^3
#
#
#
# Elastic Constant Matrix: (Units=GPa)
#
#
# Indices 1 2 3 4 5 6 
#
# 1 53.0852 22.9261 27.9604 0.0000 -27.3098 0.0000
# 2 22.9261 166.0024 51.2816 0.0000 -23.0436 0.0000
# 3 27.9604 51.2816 83.4481 0.0000 -29.7036 0.0000
# 4 0.0000 0.0000 0.0000 46.0809 0.0000 -11.4912
# 5 -27.3098 -23.0436 -29.7036 0.0000 35.5812 0.0000
# 6 0.0000 0.0000 0.0000 -11.4912 0.0000 38.8744
#
#
#
# Elastic Compliance Matrix: (Units=1/GPa)
#
#
# Indices 1 2 3 4 5 6 
#
# 1 0.031620 -0.000573 -0.002470 0.000000 0.021836 0.000000
# 2 -0.000573 0.007497 -0.004046 0.000000 0.001038 0.000000
# 3 -0.002470 -0.004046 0.019478 0.000000 0.011744 0.000000
# 4 0.000000 0.000000 0.000000 0.023428 0.000000 0.006925
# 5 0.021836 0.001038 0.011744 0.000000 0.055342 0.000000
# 6 0.000000 0.000000 0.000000 0.006925 0.000000 0.027771
#
#
# Mechanical properties :
#
#
# Convention : Reuss Voigt Hill
#
# Bulk Modulus (GPa) = 22.51341 56.31910 39.41626
# Shear Modulus (GPa) = 25.75756 37.46513 31.61135
#
# Velocity S-wave (km/s) = 3.26319 3.93553 3.61503
# Velocity P-wave (km/s) = 4.84821 6.62828 5.80686
#
# Compressibility (1/GPa) = 0.04441797
#
# Stress axis : x y z
#
# Youngs Moduli (GPa) = 31.62585 133.38596 51.34065
#
# Poissons Ratio (x) = 0.07639 0.12681
# Poissons Ratio (y) = 0.01811 0.20771
# Poissons Ratio (z) = 0.07811 0.53964
#
# Static dielectric constant tensor:
#      x y z
#    x 2.005190 0.000000 0.001770 
#    y 0.000000 1.994990 0.000000 
#    z 0.001770 0.000000 1.930230 
# 
# From -- ./inp_files/18181.got.cif
#   From: 2010.05.17/outbox.cif.g08.bks.cpg/sg9_10_cif.got.tgz:18181.got - 2010.06.03 20:04:27.
