data_PCOD9136109
_publ_section_title
;
Structure prediction by ZEFSAII (Michael W. Deem and Ramdas Pophale) SiO2 
 PCOD9136109
Probable space group: C C
;
_chemical_formula_sum "Si O2"
_cell_formula_units_Z 32
_cell_length_a 7.032020
_cell_length_b 21.890686
_cell_length_c 12.894544
_cell_angle_alpha 90.000000
_cell_angle_beta 42.705450
_cell_angle_gamma 90.000000
_cell_volume 1346.239035
_symmetry_space_group_name_H-M "C C"
_symmetry_group_IT_number 9
_symmetry_cell_setting 'monoclinic'
loop_
_space_group_symop_operation_xyz
x,y,z
x,-y,1/2+z
1/2+x,1/2+y,z
1/2+x,1/2-y,1/2+z
loop_
_atom_site_type_symbol
_atom_site_label
_atom_site_fract_x
_atom_site_fract_y
_atom_site_fract_z
Si Si1 0.601510 0.699491 0.157500
Si Si2 0.935160 0.010560 0.243827
Si Si3 0.838584 0.507445 0.771242
Si Si4 0.175799 0.309596 0.551673
Si Si5 0.236792 0.204335 0.696570
Si Si6 0.534204 0.395115 0.519522
Si Si7 0.687656 0.116302 0.460475
Si Si8 0.408518 0.559852 0.567842
O O1 0.459616 0.763797 0.185902
O O2 0.654050 0.665138 0.027046
O O3 0.372502 0.661081 0.314897
O O4 0.886940 0.696130 0.106768
O O5 0.018274 0.056487 0.118687
O O6 0.702589 0.049504 0.400197
O O7 0.181537 0.004827 0.227780
O O8 0.878239 0.947215 0.204484
O O9 0.169975 0.510084 0.630150
O O10 0.733203 0.573487 0.855463
O O11 0.713758 0.460424 0.905529
O O12 0.189562 0.253627 0.625546
O O13 0.443326 0.306498 0.369399
O O14 0.238959 0.372027 0.590088
O O15 0.382010 0.144611 0.591783
O O16 0.822008 0.113084 0.522737
#
# Coordination Sequence:
#
# PCOD9136109 Si02
#       8
#     4   4   4   4   4   4   4   4
#     4  10  23  43  67  95 133 177 227 286 347 407
#     4   9  21  40  64  95 131 181 219 280 331 399
#     4  10  21  39  61  92 131 173 223 279 330 399
#     4  11  24  40  69  94 134 181 233 280 353 408
#     4  11  23  44  64 100 137 173 229 294 336 415
#     4   9  21  39  60  91 134 169 219 286 331 397
#     4  10  21  42  67  95 140 178 219 293 345 393
#     4  10  22  39  62  92 132 178 227 276 339 404
#
# _framework density 23.769924
#
# number of rings (size 3 to 8) (size 9 to 14) (size 15 to 20)
#    0.000    2.000    1.250    0.750    1.750   11.000 
#    0.000    8.750    0.000    0.000    0.000    0.000 
#    0.000    0.000    0.000    0.000    0.000    0.000 
#
# Total GULP energy -89338.861876 kJ/mol
# GULP energy per Si atom -5583.678867 kJ/mol
# Density = 2.371582 g / cm^3
# Si number density = 23.769924 Si / 1000 Ang^3
#
#
#
# Elastic Constant Matrix: (Units=GPa)
#
#
# Indices 1 2 3 4 5 6 
#
# 1 127.2260 8.1164 27.7574 0.0000 11.8881 0.0000
# 2 8.1164 38.5531 36.1363 0.0000 7.8518 0.0000
# 3 27.7574 36.1363 118.2561 0.0000 0.1249 0.0000
# 4 0.0000 0.0000 0.0000 28.9380 0.0000 4.1255
# 5 11.8881 7.8518 0.1249 0.0000 24.4153 0.0000
# 6 0.0000 0.0000 0.0000 4.1255 0.0000 26.2628
#
#
#
# Elastic Compliance Matrix: (Units=1/GPa)
#
#
# Indices 1 2 3 4 5 6 
#
# 1 0.008752 0.001456 -0.002494 0.000000 -0.004717 0.000000
# 2 0.001456 0.040226 -0.012620 0.000000 -0.013581 0.000000
# 3 -0.002494 -0.012620 0.012892 0.000000 0.005207 0.000000
# 4 0.000000 0.000000 0.000000 0.035348 0.000000 -0.005553
# 5 -0.004717 -0.013581 0.005207 0.000000 0.047596 0.000000
# 6 0.000000 0.000000 0.000000 -0.005553 0.000000 0.038949
#
#
# Mechanical properties :
#
#
# Convention : Reuss Voigt Hill
#
# Bulk Modulus (GPa) = 28.93935 47.56171 38.25053
# Shear Modulus (GPa) = 22.46209 30.05823 26.26016
#
# Velocity S-wave (km/s) = 3.07739 3.55991 3.32741
# Velocity P-wave (km/s) = 4.98280 6.07864 5.55780
#
# Compressibility (1/GPa) = 0.03455503
#
# Stress axis : x y z
#
# Youngs Moduli (GPa) = 114.25850 24.85948 77.56484
#
# Poissons Ratio (x) = -0.03620 0.19347
# Poissons Ratio (y) = -0.16637 0.97884
# Poissons Ratio (z) = 0.28499 0.31372
#
# Static dielectric constant tensor:
#      x y z
#    x 1.909260 0.000000 0.042830 
#    y 0.000000 2.008490 0.000000 
#    z 0.042830 0.000000 1.892120 
# 
# From -- ./inp_files/13918.got.cif
#   From: 2010.05.17/outbox.cif.g08.bks.cpg/sg9_7_cif.got.tgz:13918.got - 2010.06.03 20:04:27.
