data_PCOD9136137
_publ_section_title
;
Structure prediction by ZEFSAII (Michael W. Deem and Ramdas Pophale) SiO2 
 PCOD9136137
Probable space group: C C
;
_chemical_formula_sum "Si O2"
_cell_formula_units_Z 32
_cell_length_a 12.272366
_cell_length_b 7.546202
_cell_length_c 17.542022
_cell_angle_alpha 90.000000
_cell_angle_beta 73.237709
_cell_angle_gamma 90.000000
_cell_volume 1555.533882
_symmetry_space_group_name_H-M "C C"
_symmetry_group_IT_number 9
_symmetry_cell_setting 'monoclinic'
loop_
_space_group_symop_operation_xyz
x,y,z
x,-y,1/2+z
1/2+x,1/2+y,z
1/2+x,1/2-y,1/2+z
loop_
_atom_site_type_symbol
_atom_site_label
_atom_site_fract_x
_atom_site_fract_y
_atom_site_fract_z
Si Si1 0.648900 0.632126 0.529040
Si Si2 0.532087 0.096368 0.467856
Si Si3 0.510267 0.524485 0.925405
Si Si4 0.560245 0.805157 0.799126
Si Si5 0.762879 0.008389 0.000456
Si Si6 0.931595 0.793610 0.178972
Si Si7 0.324232 0.011605 0.099803
Si Si8 0.290232 0.387065 0.665618
O O1 0.593836 0.588247 0.459470
O O2 0.741211 0.782571 0.492048
O O3 0.547967 0.699315 0.605181
O O4 0.716614 0.484537 0.564361
O O5 0.492970 0.300557 0.482047
O O6 0.536333 0.068647 0.376131
O O7 0.654268 0.079645 0.482888
O O8 0.438201 0.978256 0.526381
O O9 0.564056 0.610464 0.838998
O O10 0.383806 0.448078 0.942494
O O11 0.465519 0.785768 0.753645
O O12 0.675846 0.866619 0.737070
O O13 0.766897 0.005329 0.091478
O O14 0.839515 0.664739 0.158332
O O15 0.882823 0.993079 0.190049
O O16 0.322673 0.816118 0.138870
#
# Coordination Sequence:
#
# PCOD9136137 Si02
#       8
#     4   4   4   4   4   4   4   4
#     4  11  20  40  65  94 124 161 227 262 302 401
#     4  10  21  39  63  90 130 166 209 268 323 376
#     4  10  23  39  62  91 128 169 209 267 322 377
#     4  10  23  42  59  98 138 161 213 281 325 384
#     4  11  20  40  65  90 125 168 217 261 315 389
#     4  12  23  41  69  93 131 173 215 268 332 378
#     4  11  22  44  68  95 128 175 225 264 320 401
#     4  11  22  43  63  95 132 167 217 273 317 390
#
# _framework density 20.571715000000001
#
# number of rings (size 3 to 8) (size 9 to 14) (size 15 to 20)
#    0.750    0.500    7.500    0.000    3.500    0.000 
#    6.750    1.250    0.000    0.000    0.000    0.000 
#    0.000    0.000    0.000    0.000    0.000    0.000 
#
# Total GULP energy -89171.654018 kJ/mol
# GULP energy per Si atom -5573.228376 kJ/mol
# Density = 2.052489 g / cm^3
# Si number density = 20.571715 Si / 1000 Ang^3
#
#
#
# Elastic Constant Matrix: (Units=GPa)
#
#
# Indices 1 2 3 4 5 6 
#
# 1 112.2448 23.8274 25.0840 0.0000 19.8313 0.0000
# 2 23.8274 42.3847 20.0086 0.0000 10.1531 0.0000
# 3 25.0840 20.0086 75.3243 0.0000 6.3142 0.0000
# 4 0.0000 0.0000 0.0000 19.6179 0.0000 9.7951
# 5 19.8313 10.1531 6.3142 0.0000 28.4354 0.0000
# 6 0.0000 0.0000 0.0000 9.7951 0.0000 37.7884
#
#
#
# Elastic Compliance Matrix: (Units=1/GPa)
#
#
# Indices 1 2 3 4 5 6 
#
# 1 0.011286 -0.003854 -0.002232 0.000000 -0.005999 0.000000
# 2 -0.003854 0.030305 -0.006200 0.000000 -0.006756 0.000000
# 3 -0.002232 -0.006200 0.015641 0.000000 0.000297 0.000000
# 4 0.000000 0.000000 0.000000 0.058552 0.000000 -0.015177
# 5 -0.005999 -0.006756 0.000297 0.000000 0.041698 0.000000
# 6 0.000000 0.000000 0.000000 -0.015177 0.000000 0.030397
#
#
# Mechanical properties :
#
#
# Convention : Reuss Voigt Hill
#
# Bulk Modulus (GPa) = 30.61796 40.86595 35.74196
# Shear Modulus (GPa) = 22.38759 27.90393 25.14576
#
# Velocity S-wave (km/s) = 3.30247 3.68696 3.50000
# Velocity P-wave (km/s) = 5.42749 6.16710 5.80908
#
# Compressibility (1/GPa) = 0.03266057
#
# Stress axis : x y z
#
# Youngs Moduli (GPa) = 88.60615 32.99739 63.93364
#
# Poissons Ratio (x) = 0.12717 0.14268
# Poissons Ratio (y) = 0.34148 0.39641
# Poissons Ratio (z) = 0.19774 0.20459
#
# Static dielectric constant tensor:
#      x y z
#    x 1.756780 0.000000 0.014510 
#    y 0.000000 1.790070 0.000000 
#    z 0.014510 0.000000 1.751030 
# 
# From -- ./inp_files/29835.got.cif
#   From: 2010.05.17/outbox.cif.g08.bks.cpg/sg9_15_cif.got.tgz:29835.got - 2010.06.03 20:04:27.
