data_PCOD9136198
_publ_section_title
;
Structure prediction by ZEFSAII (Michael W. Deem and Ramdas Pophale) SiO2 
 PCOD9136198
Probable space group: C C
;
_chemical_formula_sum "Si O2"
_cell_formula_units_Z 28
_cell_length_a 31.642815
_cell_length_b 7.865488
_cell_length_c 9.541443
_cell_angle_alpha 90.000000
_cell_angle_beta 153.438029
_cell_angle_gamma 90.000000
_cell_volume 1061.898837
_symmetry_space_group_name_H-M "C C"
_symmetry_group_IT_number 9
_symmetry_cell_setting 'monoclinic'
loop_
_space_group_symop_operation_xyz
x,y,z
x,-y,1/2+z
1/2+x,1/2+y,z
1/2+x,1/2-y,1/2+z
loop_
_atom_site_type_symbol
_atom_site_label
_atom_site_fract_x
_atom_site_fract_y
_atom_site_fract_z
Si Si1 0.510770 0.818924 0.966940
Si Si2 0.849022 0.616873 0.197566
Si Si3 0.853196 0.104211 0.944276
Si Si4 0.630701 0.658084 0.536637
Si Si5 0.128640 0.642739 0.290604
Si Si6 0.620786 0.712597 0.048530
Si Si7 0.339252 0.712278 0.215608
O O1 0.412430 0.855188 0.748924
O O2 0.534122 0.796159 0.872619
O O3 0.563672 0.668672 0.205466
O O4 0.574847 0.982617 0.189751
O O5 0.742341 0.670484 0.837429
O O6 0.851091 0.418417 0.249732
O O7 0.879637 0.742755 0.415365
O O8 0.739673 0.112469 0.613069
O O9 0.877480 0.142461 0.178453
O O10 0.876854 0.920983 0.945289
O O11 0.598963 0.804155 0.548644
O O12 0.623846 0.482761 0.599043
O O13 0.110922 0.786081 0.352762
O O14 0.723003 0.799609 0.379468
#
# Coordination Sequence:
#
# PCOD9136198 Si02
#       7
#     4   4   4   4   4   4   4
#     4  12  23  43  71 100 138 182 231 293 356 417
#     4  10  26  45  68 106 145 186 237 296 360 426
#     4  10  22  42  70 101 141 191 240 291 354 428
#     4  10  23  45  70  94 138 184 236 285 351 425
#     4  10  21  39  67  98 134 181 232 284 349 417
#     4  10  21  41  67 101 135 183 230 289 350 418
#     4  10  22  43  71 102 143 189 240 292 358 425
#
# _framework density 26.36786
#
# number of rings (size 3 to 8) (size 9 to 14) (size 15 to 20)
#    0.000    1.714    1.429    1.714    6.000    6.857 
#    7.714    0.000    0.000    0.000    0.000    0.000 
#    0.000    0.000    0.000    0.000    0.000    0.000 
#
# Total GULP energy -78379.786722 kJ/mol
# GULP energy per Si atom -5598.556194 kJ/mol
# Density = 2.630785 g / cm^3
# Si number density = 26.367860 Si / 1000 Ang^3
#
#
#
# Elastic Constant Matrix: (Units=GPa)
#
#
# Indices 1 2 3 4 5 6 
#
# 1 196.9789 77.9980 49.0958 0.0000 10.4334 0.0000
# 2 77.9980 139.9927 7.8085 0.0000 -0.6424 0.0000
# 3 49.0958 7.8085 69.7824 0.0000 18.2934 0.0000
# 4 0.0000 0.0000 0.0000 8.4452 0.0000 8.2861
# 5 10.4334 -0.6424 18.2934 0.0000 55.4001 0.0000
# 6 0.0000 0.0000 0.0000 8.2861 0.0000 36.5722
#
#
#
# Elastic Compliance Matrix: (Units=1/GPa)
#
#
# Indices 1 2 3 4 5 6 
#
# 1 0.008024 -0.004179 -0.005221 0.000000 0.000164 0.000000
# 2 -0.004179 0.009372 0.001813 0.000000 0.000297 0.000000
# 3 -0.005221 0.001813 0.019199 0.000000 -0.005335 0.000000
# 4 0.000000 0.000000 0.000000 0.152256 0.000000 -0.034496
# 5 0.000164 0.000297 -0.005335 0.000000 0.019785 0.000000
# 6 0.000000 0.000000 0.000000 -0.034496 0.000000 0.035159
#
#
# Mechanical properties :
#
#
# Convention : Reuss Voigt Hill
#
# Bulk Modulus (GPa) = 46.67949 75.17320 60.92634
# Shear Modulus (GPa) = 18.78946 38.20695 28.49821
#
# Velocity S-wave (km/s) = 2.67233 3.81070 3.29111
# Velocity P-wave (km/s) = 5.22144 6.92338 6.13175
#
# Compressibility (1/GPa) = 0.02142269
#
# Stress axis : x y z
#
# Youngs Moduli (GPa) = 124.62913 106.70572 52.08578
#
# Poissons Ratio (x) = 0.44588 0.27192
# Poissons Ratio (y) = 0.52077 -0.09445
# Poissons Ratio (z) = 0.65065 -0.19350
#
# Static dielectric constant tensor:
#      x y z
#    x 1.972830 0.000000 -0.030070 
#    y 0.000000 2.047930 0.000000 
#    z -0.030070 0.000000 2.117620 
# 
# From -- ./inp_files/11310.got.cif
#   From: 2010.05.17/outbox.cif.g08.bks.cpg/sg9_6_cif.got.tgz:11310.got - 2010.06.03 20:04:27.
