data_PCOD9136516
_publ_section_title
;
Structure prediction by ZEFSAII (Michael W. Deem and Ramdas Pophale) SiO2 
 PCOD9136516
Probable space group: C C
;
_chemical_formula_sum "Si O2"
_cell_formula_units_Z 32
_cell_length_a 13.564677
_cell_length_b 12.094875
_cell_length_c 25.078065
_cell_angle_alpha 90.000000
_cell_angle_beta 158.558081
_cell_angle_gamma 90.000000
_cell_volume 1504.045598
_symmetry_space_group_name_H-M "C C"
_symmetry_group_IT_number 9
_symmetry_cell_setting 'monoclinic'
loop_
_space_group_symop_operation_xyz
x,y,z
x,-y,1/2+z
1/2+x,1/2+y,z
1/2+x,1/2-y,1/2+z
loop_
_atom_site_type_symbol
_atom_site_label
_atom_site_fract_x
_atom_site_fract_y
_atom_site_fract_z
Si Si1 0.891270 0.672744 0.040050
Si Si2 0.191293 0.424522 0.937179
Si Si3 0.199932 0.848225 0.324850
Si Si4 0.960284 0.817930 0.877020
Si Si5 0.055707 0.280413 0.150646
Si Si6 0.294416 0.176122 0.162768
Si Si7 0.649458 0.454707 0.724680
Si Si8 0.987295 0.063288 0.918467
O O1 0.206961 0.672252 0.210334
O O2 0.789650 0.799022 0.996902
O O3 0.822339 0.639347 0.945122
O O4 0.728904 0.596322 0.999487
O O5 0.024384 0.411236 0.797994
O O6 0.958032 0.460773 0.860598
O O7 0.446710 0.502928 0.075766
O O8 0.402043 0.784439 0.386897
O O9 0.945132 0.766786 0.202864
O O10 0.113640 0.962979 0.255482
O O11 0.967431 0.932334 0.912990
O O12 0.241768 0.805361 0.988696
O O13 0.184128 0.238938 0.159599
O O14 0.089557 0.172908 0.205326
O O15 0.223478 0.381214 0.259645
O O16 0.064161 0.118053 0.013104
#
# Coordination Sequence:
#
# PCOD9136516 Si02
#       8
#     4   4   4   4   4   4   4   4
#     4  11  23  49  67  98 144 185 225 273 362 418
#     4  10  21  41  69  97 135 178 221 286 334 404
#     4  11  23  44  74 100 131 190 225 277 354 410
#     4  12  26  46  71 105 141 173 240 291 333 410
#     4  11  26  47  68 109 134 178 234 293 336 406
#     4  10  23  45  73  98 140 189 227 266 367 413
#     4  11  21  42  71  98 138 168 233 285 336 398
#     4  12  23  50  71  97 143 189 225 285 348 419
#
# _framework density 21.275950999999999
#
# number of rings (size 3 to 8) (size 9 to 14) (size 15 to 20)
#    0.000    1.000    6.250    1.500    0.000    5.000 
#    9.000    0.000    0.000    0.000    0.000    0.000 
#    0.000    0.000    0.000    0.000    0.000    0.000 
#
# Total GULP energy -89467.656405 kJ/mol
# GULP energy per Si atom -5591.728525 kJ/mol
# Density = 2.122753 g / cm^3
# Si number density = 21.275951 Si / 1000 Ang^3
#
#
#
# Elastic Constant Matrix: (Units=GPa)
#
#
# Indices 1 2 3 4 5 6 
#
# 1 40.1074 -1.0628 32.0880 -0.0005 -5.7745 -0.0008
# 2 -1.0628 52.5168 4.2033 -0.0001 7.9835 0.0021
# 3 32.0880 4.2033 123.1317 -0.0083 18.2967 0.0005
# 4 -0.0005 -0.0001 -0.0083 27.2035 0.0003 0.8075
# 5 -5.7745 7.9835 18.2967 0.0003 36.8306 -0.0020
# 6 -0.0008 0.0021 0.0005 0.8075 -0.0020 23.7333
#
#
#
# Elastic Compliance Matrix: (Units=1/GPa)
#
#
# Indices 1 2 3 4 5 6 
#
# 1 0.035104 -0.000080 -0.010760 -0.000003 0.010867 0.000002
# 2 -0.000080 0.019691 -0.000016 0.000000 -0.004273 -0.000002
# 3 -0.010760 -0.000016 0.012067 0.000004 -0.007678 -0.000001
# 4 -0.000003 0.000000 0.000004 0.036797 -0.000003 -0.001252
# 5 0.010867 -0.004273 -0.007678 -0.000003 0.033595 0.000004
# 6 0.000002 -0.000002 -0.000001 -0.001252 0.000004 0.042178
#
#
# Mechanical properties :
#
#
# Convention : Reuss Voigt Hill
#
# Bulk Modulus (GPa) = 22.14925 31.80143 26.97534
# Shear Modulus (GPa) = 23.12731 29.58865 26.35798
#
# Velocity S-wave (km/s) = 3.30057 3.73327 3.52357
# Velocity P-wave (km/s) = 4.99581 5.79332 5.40928
#
# Compressibility (1/GPa) = 0.04514826
#
# Stress axis : x y z
#
# Youngs Moduli (GPa) = 28.48678 50.78530 82.87130
#
# Poissons Ratio (x) = 0.00408 0.89170
# Poissons Ratio (y) = 0.00229 0.00135
# Poissons Ratio (z) = 0.30652 0.00083
#
# Static dielectric constant tensor:
#      x y z
#    x 1.761590 0.000000 -0.005420 
#    y 0.000000 1.760530 0.000000 
#    z -0.005420 0.000000 1.774120 
# 
# From -- ./inp_files/36767.got.cif
#   From: 2010.05.17/outbox.cif.g08.bks.cpg/sg9_19_cif.got.tgz:36767.got - 2010.06.03 20:04:27.
