data_PCOD9136571
_publ_section_title
;
Structure prediction by ZEFSAII (Michael W. Deem and Ramdas Pophale) SiO2 
 PCOD9136571
Probable space group: C C
;
_chemical_formula_sum "Si O2"
_cell_formula_units_Z 28
_cell_length_a 27.800373
_cell_length_b 5.165550
_cell_length_c 12.612290
_cell_angle_alpha 90.000000
_cell_angle_beta 138.885157
_cell_angle_gamma 90.000000
_cell_volume 1190.977134
_symmetry_space_group_name_H-M "C C"
_symmetry_group_IT_number 9
_symmetry_cell_setting 'monoclinic'
loop_
_space_group_symop_operation_xyz
x,y,z
x,-y,1/2+z
1/2+x,1/2+y,z
1/2+x,1/2-y,1/2+z
loop_
_atom_site_type_symbol
_atom_site_label
_atom_site_fract_x
_atom_site_fract_y
_atom_site_fract_z
Si Si1 0.491890 0.471581 0.560300
Si Si2 0.111758 0.179946 0.623071
Si Si3 0.851160 0.907420 0.937751
Si Si4 0.515319 0.097770 0.790375
Si Si5 0.652318 0.812545 0.087197
Si Si6 0.290834 0.086340 0.232397
Si Si7 0.896158 0.693685 0.222108
O O1 0.561545 0.641565 0.642270
O O2 0.430941 0.643386 0.518045
O O3 0.509536 0.234159 0.668117
O O4 0.452866 0.342390 0.393118
O O5 0.052180 0.191985 0.429216
O O6 0.159773 0.430768 0.673824
O O7 0.154189 0.917418 0.674939
O O8 0.797799 0.693078 0.798478
O O9 0.831630 0.196773 0.871054
O O10 0.858193 0.880548 0.074372
O O11 0.441581 0.007222 0.725719
O O12 0.575409 0.870024 0.901574
O O13 0.710639 0.714684 0.097596
O O14 0.333903 0.074538 0.193557
#
# Coordination Sequence:
#
# PCOD9136571 Si02
#       7
#     4   4   4   4   4   4   4
#     4  11  21  40  70 108 137 185 225 298 367 410
#     4  10  21  42  64  99 138 172 224 284 343 414
#     4  11  25  41  70 100 135 180 237 283 346 426
#     4  10  23  41  71 103 144 175 240 292 356 420
#     4  10  23  45  67  95 145 177 231 289 339 425
#     4  11  25  47  70  94 141 188 230 288 352 413
#     4  11  22  44  68 103 134 177 233 294 347 418
#
# _framework density 23.510110000000001
#
# number of rings (size 3 to 8) (size 9 to 14) (size 15 to 20)
#    0.857    0.571    1.429    4.286    0.000    4.571 
#    2.571    1.429    0.000    0.000    0.000    0.000 
#    0.000    0.000    0.000    0.000    0.000    0.000 
#
# Total GULP energy -78161.345709 kJ/mol
# GULP energy per Si atom -5582.953265 kJ/mol
# Density = 2.345660 g / cm^3
# Si number density = 23.510110 Si / 1000 Ang^3
#
#
#
# Elastic Constant Matrix: (Units=GPa)
#
#
# Indices 1 2 3 4 5 6 
#
# 1 113.0712 27.6043 20.3293 0.0006 14.2972 0.0000
# 2 27.6043 118.7510 7.8334 -0.0002 0.4371 -0.0002
# 3 20.3293 7.8334 40.7158 0.0000 -19.5906 0.0000
# 4 0.0006 -0.0002 0.0000 23.1566 -0.0001 1.1117
# 5 14.2972 0.4371 -19.5906 -0.0001 37.4222 0.0000
# 6 0.0000 -0.0002 0.0000 1.1117 0.0000 40.9817
#
#
#
# Elastic Compliance Matrix: (Units=1/GPa)
#
#
# Indices 1 2 3 4 5 6 
#
# 1 0.012698 -0.002186 -0.011016 0.000000 -0.010592 0.000000
# 2 -0.002186 0.008952 -0.000373 0.000000 0.000535 0.000000
# 3 -0.011016 -0.000373 0.042988 0.000000 0.026717 0.000000
# 4 0.000000 0.000000 0.000000 0.043241 0.000000 -0.001173
# 5 -0.010592 0.000535 0.026717 0.000000 0.044749 0.000000
# 6 0.000000 0.000000 0.000000 -0.001173 0.000000 0.024433
#
#
# Mechanical properties :
#
#
# Convention : Reuss Voigt Hill
#
# Bulk Modulus (GPa) = 26.67622 42.67468 34.67545
# Shear Modulus (GPa) = 23.07275 34.76348 28.91811
#
# Velocity S-wave (km/s) = 3.13612 3.84951 3.51098
# Velocity P-wave (km/s) = 4.94824 6.16030 5.58723
#
# Compressibility (1/GPa) = 0.03748657
#
# Stress axis : x y z
#
# Youngs Moduli (GPa) = 78.75506 111.70968 23.26248
#
# Poissons Ratio (x) = 0.24419 0.25626
# Poissons Ratio (y) = 0.17216 0.00868
# Poissons Ratio (z) = 0.86756 0.04170
#
# Static dielectric constant tensor:
#      x y z
#    x 1.974640 0.000000 0.061390 
#    y 0.000000 1.899620 0.000000 
#    z 0.061390 0.000000 1.914480 
# 
# From -- ./inp_files/20513.got.cif
#   From: 2010.05.17/outbox.cif.g08.bks.cpg/sg9_11_cif.got.tgz:20513.got - 2010.06.03 20:04:27.
