data_PCOD9136907
_publ_section_title
;
Structure prediction by ZEFSAII (Michael W. Deem and Ramdas Pophale) SiO2 
 PCOD9136907
Probable space group: C C
;
_chemical_formula_sum "Si O2"
_cell_formula_units_Z 28
_cell_length_a 5.560285
_cell_length_b 25.483658
_cell_length_c 9.776672
_cell_angle_alpha 90.000000
_cell_angle_beta 73.223220
_cell_angle_gamma 90.000000
_cell_volume 1326.355278
_symmetry_space_group_name_H-M "C C"
_symmetry_group_IT_number 9
_symmetry_cell_setting 'monoclinic'
loop_
_space_group_symop_operation_xyz
x,y,z
x,-y,1/2+z
1/2+x,1/2+y,z
1/2+x,1/2-y,1/2+z
loop_
_atom_site_type_symbol
_atom_site_label
_atom_site_fract_x
_atom_site_fract_y
_atom_site_fract_z
Si Si1 0.040900 0.698001 0.428590
Si Si2 0.941726 0.533065 0.554986
Si Si3 0.853989 0.558025 0.267718
Si Si4 0.062819 0.337411 0.637382
Si Si5 0.160974 0.141649 0.672593
Si Si6 0.645422 0.686116 0.976268
Si Si7 0.366950 0.395254 0.987522
O O1 0.173312 0.751951 0.442949
O O2 0.212105 0.646822 0.425741
O O3 0.964466 0.696445 0.282720
O O4 0.807994 0.687020 0.566578
O O5 0.933410 0.528171 0.392864
O O6 0.828987 0.484195 0.652585
O O7 0.796059 0.585858 0.623727
O O8 0.227457 0.549796 0.539145
O O9 0.047013 0.601645 0.183463
O O10 0.612076 0.590523 0.359335
O O11 0.866881 0.330091 0.544437
O O12 0.354775 0.322421 0.569535
O O13 0.158832 0.155270 0.830641
O O14 0.909055 0.132863 0.626778
#
# Coordination Sequence:
#
# PCOD9136907 Si02
#       7
#     4   4   4   4   4   4   4
#     4  11  24  47  72  97 143 194 236 288 377 421
#     4  10  24  42  69  99 132 196 233 299 357 432
#     4  11  24  43  69 101 139 188 241 295 367 420
#     4  12  27  48  69 110 146 184 240 308 354 426
#     4  10  24  46  66 100 139 188 239 295 356 435
#     4  12  30  41  76 109 144 187 244 303 351 437
#     4  10  21  45  71  94 141 189 239 294 358 433
#
# _framework density 21.110481
#
# number of rings (size 3 to 8) (size 9 to 14) (size 15 to 20)
#    0.000    1.143    4.286    1.714   10.000    3.429 
#    0.000    0.000    0.000    0.000    0.000    0.000 
#    0.000    0.000    0.000    0.000    0.000    0.000 
#
# Total GULP energy -78121.190719 kJ/mol
# GULP energy per Si atom -5580.085051 kJ/mol
# Density = 2.106243 g / cm^3
# Si number density = 21.110481 Si / 1000 Ang^3
#
#
#
# Elastic Constant Matrix: (Units=GPa)
#
#
# Indices 1 2 3 4 5 6 
#
# 1 75.0643 -0.6256 37.9306 0.0000 17.0629 0.0000
# 2 -0.6256 67.9550 35.8973 0.0000 5.9639 0.0000
# 3 37.9306 35.8973 134.1355 0.0000 27.8549 0.0000
# 4 0.0000 0.0000 0.0000 24.3756 0.0000 -10.2739
# 5 17.0629 5.9639 27.8549 0.0000 35.5452 0.0000
# 6 0.0000 0.0000 0.0000 -10.2739 0.0000 12.8341
#
#
#
# Elastic Compliance Matrix: (Units=1/GPa)
#
#
# Indices 1 2 3 4 5 6 
#
# 1 0.016757 0.002967 -0.004489 0.000000 -0.005024 0.000000
# 2 0.002967 0.017686 -0.005566 0.000000 -0.000030 0.000000
# 3 -0.004489 -0.005566 0.011433 0.000000 -0.005871 0.000000
# 4 0.000000 0.000000 0.000000 0.061915 0.000000 0.049564
# 5 -0.005024 -0.000030 -0.005871 0.000000 0.035150 0.000000
# 6 0.000000 0.000000 0.000000 0.049564 0.000000 0.117594
#
#
# Mechanical properties :
#
#
# Convention : Reuss Voigt Hill
#
# Bulk Modulus (GPa) = 31.54652 47.06216 39.30434
# Shear Modulus (GPa) = 17.52672 28.14780 22.83726
#
# Velocity S-wave (km/s) = 2.88451 3.65548 3.29264
# Velocity P-wave (km/s) = 5.10586 6.33706 5.75449
#
# Compressibility (1/GPa) = 0.03169921
#
# Stress axis : x y z
#
# Youngs Moduli (GPa) = 59.67661 56.54304 87.46434
#
# Poissons Ratio (x) = -0.16774 0.39264
# Poissons Ratio (y) = -0.17703 0.48680
# Poissons Ratio (z) = 0.26790 0.31470
#
# Static dielectric constant tensor:
#      x y z
#    x 1.899680 0.000000 0.006650 
#    y 0.000000 1.740240 0.000000 
#    z 0.006650 0.000000 1.771710 
# 
# From -- ./inp_files/4112.got.cif
#   From: 2010.05.17/outbox.cif.g08.bks.cpg/sg9_3_cif.got.tgz:4112.got - 2010.06.03 20:04:27.
