data_PCOD9136026
_publ_section_title
;
Structure prediction by ZEFSAII (Michael W. Deem and Ramdas Pophale) SiO2 
 PCOD9136026
Probable space group: C C
;
_chemical_formula_sum "Si O2"
_cell_formula_units_Z 32
_cell_length_a 7.921089
_cell_length_b 16.217490
_cell_length_c 19.283891
_cell_angle_alpha 90.000000
_cell_angle_beta 43.555956
_cell_angle_gamma 90.000000
_cell_volume 1706.954387
_symmetry_space_group_name_H-M "C C"
_symmetry_group_IT_number 9
_symmetry_cell_setting 'monoclinic'
loop_
_space_group_symop_operation_xyz
x,y,z
x,-y,1/2+z
1/2+x,1/2+y,z
1/2+x,1/2-y,1/2+z
loop_
_atom_site_type_symbol
_atom_site_label
_atom_site_fract_x
_atom_site_fract_y
_atom_site_fract_z
Si Si1 0.828390 0.718315 0.143600
Si Si2 0.353954 0.670980 0.517120
Si Si3 0.040524 0.767598 0.227606
Si Si4 0.559097 0.016329 0.406708
Si Si5 0.908143 0.590224 0.589282
Si Si6 0.368940 0.100198 0.331101
Si Si7 0.129460 0.947499 0.755708
Si Si8 0.563830 0.832310 0.439197
O O1 0.740592 0.794778 0.122528
O O2 0.935354 0.752440 0.182326
O O3 0.647882 0.643677 0.215881
O O4 0.032353 0.678765 0.031323
O O5 0.628841 0.636708 0.441593
O O6 0.397551 0.756030 0.460678
O O7 0.184677 0.604000 0.532555
O O8 0.047652 0.676535 0.258638
O O9 0.836815 0.816694 0.332053
O O10 0.274680 0.824897 0.149792
O O11 0.415144 0.072339 0.505328
O O12 0.504232 0.041303 0.344403
O O13 0.846747 0.025603 0.339371
O O14 0.481975 0.922038 0.441601
O O15 0.779628 0.514107 0.666162
O O16 0.259047 0.061795 0.292683
#
# Coordination Sequence:
#
# PCOD9136026 Si02
#       8
#     4   4   4   4   4   4   4   4
#     4   9  20  40  61  84 129 162 199 262 310 369
#     4   9  20  40  60  88 123 163 206 256 301 373
#     4  10  21  38  63  90 122 167 206 255 311 369
#     4  12  23  42  64  91 128 168 205 263 317 374
#     4  12  22  38  66  93 128 163 215 254 321 373
#     4  10  23  42  62  90 128 163 212 255 314 371
#     4  11  23  42  61  93 125 167 205 264 313 380
#     4   9  20  40  61  87 125 161 204 255 311 369
#
# _framework density 18.746839999999999
#
# number of rings (size 3 to 8) (size 9 to 14) (size 15 to 20)
#    0.750    1.000    3.750    0.750    1.750    1.000 
#    2.250    3.750    0.000    0.000    0.000    0.000 
#    0.000    0.000    0.000    0.000    0.000    0.000 
#
# Total GULP energy -89091.471874 kJ/mol
# GULP energy per Si atom -5568.216992 kJ/mol
# Density = 1.870417 g / cm^3
# Si number density = 18.746840 Si / 1000 Ang^3
#
#
#
# Elastic Constant Matrix: (Units=GPa)
#
#
# Indices 1 2 3 4 5 6 
#
# 1 45.3367 5.1900 14.4394 -0.0007 6.1530 0.0004
# 2 5.1900 3.5031 2.5490 -0.0009 -18.3743 0.0006
# 3 14.4394 2.5490 60.3697 -0.0028 3.2852 0.0000
# 4 -0.0007 -0.0009 -0.0028 32.2060 0.0004 -3.3998
# 5 6.1530 -18.3743 3.2852 0.0004 17.8999 0.0000
# 6 0.0004 0.0006 0.0000 -3.3998 0.0000 11.8888
#
#
#
# Elastic Compliance Matrix: (Units=1/GPa)
#
#
# Indices 1 2 3 4 5 6 
#
# 1 0.021383 0.013662 -0.006116 0.000000 0.007796 -0.000001
# 2 0.013662 -0.053987 0.002306 0.000000 -0.060538 0.000002
# 3 -0.006116 0.002306 0.017865 0.000002 0.001191 0.000001
# 4 0.000000 0.000000 0.000002 0.032017 -0.000001 0.009156
# 5 0.007796 -0.060538 0.001191 -0.000001 -0.009174 0.000002
# 6 -0.000001 0.000002 0.000001 0.009156 0.000002 0.086731
#
#
# Mechanical properties :
#
#
# Convention : Reuss Voigt Hill
#
# Bulk Modulus (GPa) = 201.37214 17.06295 109.21754
# Shear Modulus (GPa) = 65.11750 18.20101 41.65926
#
# Velocity S-wave (km/s) = 5.90005 3.11928 4.71914
# Velocity P-wave (km/s) = 12.41225 4.70051 9.38506
#
# Compressibility (1/GPa) = 0.00496593
#
# Stress axis : x y z
#
# Youngs Moduli (GPa) = 46.76639 -18.52290 55.97486
#
# Poissons Ratio (x) = 0.25306 0.34232
# Poissons Ratio (y) = -0.63892 -0.12909
# Poissons Ratio (z) = 0.28600 0.04272
#
# Static dielectric constant tensor:
#      x y z
#    x 1.621890 0.000000 0.009850 
#    y 0.000000 1.661280 0.000000 
#    z 0.009850 0.000000 1.670530 
# 
# From -- ./inp_files/23550.got.cif
#   From: 2010.05.17/outbox.cif.g08.bks.cpg/sg9_12_cif.got.tgz:23550.got - 2010.06.03 20:04:27.
