data_PCOD9136822
_publ_section_title
;
Structure prediction by ZEFSAII (Michael W. Deem and Ramdas Pophale) SiO2 
 PCOD9136822
Probable space group: C C
;
_chemical_formula_sum "Si O2"
_cell_formula_units_Z 32
_cell_length_a 13.875949
_cell_length_b 10.682416
_cell_length_c 14.626911
_cell_angle_alpha 90.000000
_cell_angle_beta 138.479923
_cell_angle_gamma 90.000000
_cell_volume 1437.213608
_symmetry_space_group_name_H-M "C C"
_symmetry_group_IT_number 9
_symmetry_cell_setting 'monoclinic'
loop_
_space_group_symop_operation_xyz
x,y,z
x,-y,1/2+z
1/2+x,1/2+y,z
1/2+x,1/2-y,1/2+z
loop_
_atom_site_type_symbol
_atom_site_label
_atom_site_fract_x
_atom_site_fract_y
_atom_site_fract_z
Si Si1 0.508880 0.986780 0.962110
Si Si2 0.983719 0.262208 0.367740
Si Si3 0.142110 0.783822 0.167269
Si Si4 0.552166 0.230164 0.714876
Si Si5 0.455356 0.944788 0.607363
Si Si6 0.037212 0.047014 0.072193
Si Si7 0.285332 0.394069 0.264517
Si Si8 0.831617 0.662592 0.200447
O O1 0.450249 0.873160 0.862485
O O2 0.528363 0.092021 0.901078
O O3 0.652324 0.968221 0.124168
O O4 0.398799 0.034481 0.963287
O O5 0.812872 0.261163 0.270655
O O6 0.030018 0.218011 0.300948
O O7 0.074150 0.211966 0.516826
O O8 0.075871 0.667383 0.177649
O O9 0.084408 0.920332 0.158385
O O10 0.491446 0.338231 0.605661
O O11 0.712106 0.199921 0.787357
O O12 0.485541 0.089243 0.660047
O O13 0.361340 0.886439 0.620938
O O14 0.181496 0.098283 0.124457
O O15 0.909196 0.032119 0.905966
O O16 0.333003 0.310984 0.212426
#
# Coordination Sequence:
#
# PCOD9136822 Si02
#       8
#     4   4   4   4   4   4   4   4
#     4  10  21  44  68  91 142 178 232 276 351 416
#     4  11  24  47  71  97 140 188 224 290 358 420
#     4  11  26  46  68 104 142 175 235 297 344 418
#     4  10  22  44  74  96 135 190 231 274 357 420
#     4  10  22  43  73  98 135 187 228 280 357 409
#     4  11  24  46  68 103 142 175 240 290 337 420
#     4  10  23  40  67 104 136 177 232 295 331 416
#     4  11  20  46  69  99 138 188 230 282 351 417
#
# _framework density 22.265305999999999
#
# number of rings (size 3 to 8) (size 9 to 14) (size 15 to 20)
#    0.000    1.500    2.500    2.250    7.000    0.000 
#   18.000    0.000    0.000    0.000    0.000    0.000 
#    0.000    0.000    0.000    0.000    0.000    0.000 
#
# Total GULP energy -89067.890772 kJ/mol
# GULP energy per Si atom -5566.743173 kJ/mol
# Density = 2.221463 g / cm^3
# Si number density = 22.265306 Si / 1000 Ang^3
#
#
#
# Elastic Constant Matrix: (Units=GPa)
#
#
# Indices 1 2 3 4 5 6 
#
# 1 66.2652 16.6786 14.9092 0.0000 -25.3537 0.0000
# 2 16.6786 85.2161 12.8926 0.0000 0.7226 0.0000
# 3 14.9092 12.8926 98.9739 0.0000 9.3073 0.0000
# 4 0.0000 0.0000 0.0000 22.6723 0.0000 -5.1852
# 5 -25.3537 0.7226 9.3073 0.0000 28.6007 0.0000
# 6 0.0000 0.0000 0.0000 -5.1852 0.0000 22.0860
#
#
#
# Elastic Compliance Matrix: (Units=1/GPa)
#
#
# Indices 1 2 3 4 5 6 
#
# 1 0.027961 -0.004775 -0.006120 0.000000 0.026899 0.000000
# 2 -0.004775 0.012787 -0.000534 0.000000 -0.004382 0.000000
# 3 -0.006120 -0.000534 0.011970 0.000000 -0.009307 0.000000
# 4 0.000000 0.000000 0.000000 0.046609 0.000000 0.010943
# 5 0.026899 -0.004382 -0.009307 0.000000 0.061949 0.000000
# 6 0.000000 0.000000 0.000000 0.010943 0.000000 0.047847
#
#
# Mechanical properties :
#
#
# Convention : Reuss Voigt Hill
#
# Bulk Modulus (GPa) = 33.48800 37.71289 35.60045
# Shear Modulus (GPa) = 20.66668 28.40346 24.53507
#
# Velocity S-wave (km/s) = 3.04994 3.57554 3.32315
# Velocity P-wave (km/s) = 5.24175 5.83273 5.54512
#
# Compressibility (1/GPa) = 0.02986144
#
# Stress axis : x y z
#
# Youngs Moduli (GPa) = 35.76358 78.20185 83.53996
#
# Poissons Ratio (x) = 0.37340 0.51123
# Poissons Ratio (y) = 0.17077 0.04464
# Poissons Ratio (z) = 0.21886 0.04179
#
# Static dielectric constant tensor:
#      x y z
#    x 1.879490 0.000000 0.030820 
#    y 0.000000 1.998400 0.000000 
#    z 0.030820 0.000000 1.814470 
# 
# From -- ./inp_files/25907.got.cif
#   From: 2010.05.17/outbox.cif.g08.bks.cpg/sg9_13_cif.got.tgz:25907.got - 2010.06.03 20:04:27.
