data_PCOD9136438
_publ_section_title
;
Structure prediction by ZEFSAII (Michael W. Deem and Ramdas Pophale) SiO2 
 PCOD9136438
Probable space group: C C
;
_chemical_formula_sum "Si O2"
_cell_formula_units_Z 32
_cell_length_a 8.085465
_cell_length_b 13.677965
_cell_length_c 13.105652
_cell_angle_alpha 90.000000
_cell_angle_beta 75.204345
_cell_angle_gamma 90.000000
_cell_volume 1401.331775
_symmetry_space_group_name_H-M "C C"
_symmetry_group_IT_number 9
_symmetry_cell_setting 'monoclinic'
loop_
_space_group_symop_operation_xyz
x,y,z
x,-y,1/2+z
1/2+x,1/2+y,z
1/2+x,1/2-y,1/2+z
loop_
_atom_site_type_symbol
_atom_site_label
_atom_site_fract_x
_atom_site_fract_y
_atom_site_fract_z
Si Si1 0.478330 0.789625 0.553080
Si Si2 0.498906 0.046606 0.388928
Si Si3 0.757586 0.880977 0.380453
Si Si4 0.912947 0.072591 0.063531
Si Si5 0.274493 0.991671 0.586424
Si Si6 0.844255 0.606783 0.762680
Si Si7 0.679327 0.794259 0.727610
Si Si8 0.737926 0.127380 0.648614
O O1 0.610355 0.804436 0.439408
O O2 0.392191 0.895883 0.582139
O O3 0.587355 0.764270 0.636641
O O4 0.330485 0.709636 0.567055
O O5 0.551865 0.134362 0.308258
O O6 0.670140 0.988449 0.391941
O O7 0.383876 0.069958 0.504037
O O8 0.387890 0.962758 0.349866
O O9 0.803903 0.861814 0.256020
O O10 0.889782 0.885138 0.453118
O O11 0.791002 0.978349 0.098514
O O12 0.844510 0.147546 0.159501
O O13 0.102463 0.038644 0.058029
O O14 0.241039 0.040177 0.699732
O O15 0.741019 0.706309 0.788903
O O16 0.033346 0.632268 0.688799
#
# Coordination Sequence:
#
# PCOD9136438 Si02
#       8
#     4   4   4   4   4   4   4   4
#     4  10  21  41  64  92 135 171 221 283 331 409
#     4  10  21  45  65  94 137 177 220 286 339 400
#     4   9  21  42  65  92 134 177 219 274 345 398
#     4  11  22  41  66  95 133 177 224 277 338 409
#     4  11  23  42  64  96 134 171 220 281 341 400
#     4  11  22  43  69  96 132 177 223 272 345 404
#     4  11  21  43  67  93 131 177 221 279 337 401
#     4  11  21  43  66  96 136 173 222 284 336 405
#
# _framework density 22.835422999999999
#
# number of rings (size 3 to 8) (size 9 to 14) (size 15 to 20)
#    0.000    1.500    3.750    3.000    0.000    2.000 
#   22.500    0.000    0.000    0.000    0.000    0.000 
#    0.000    0.000    0.000    0.000    0.000    0.000 
#
# Total GULP energy -89454.687769 kJ/mol
# GULP energy per Si atom -5590.917986 kJ/mol
# Density = 2.278345 g / cm^3
# Si number density = 22.835423 Si / 1000 Ang^3
#
#
#
# Elastic Constant Matrix: (Units=GPa)
#
#
# Indices 1 2 3 4 5 6 
#
# 1 70.7935 8.2456 21.9181 0.0000 5.0284 0.0000
# 2 8.2456 75.3431 21.7720 0.0000 0.2165 0.0000
# 3 21.9181 21.7720 80.9164 0.0000 13.6131 0.0000
# 4 0.0000 0.0000 0.0000 16.7500 0.0000 -5.7280
# 5 5.0284 0.2165 13.6131 0.0000 31.3106 0.0000
# 6 0.0000 0.0000 0.0000 -5.7280 0.0000 37.0163
#
#
#
# Elastic Compliance Matrix: (Units=1/GPa)
#
#
# Indices 1 2 3 4 5 6 
#
# 1 0.015455 -0.000561 -0.003904 0.000000 -0.000781 0.000000
# 2 -0.000561 0.014497 -0.004043 0.000000 0.001748 0.000000
# 3 -0.003904 -0.004043 0.015529 0.000000 -0.006097 0.000000
# 4 0.000000 0.000000 0.000000 0.063037 0.000000 0.009755
# 5 -0.000781 0.001748 -0.006097 0.000000 0.034702 0.000000
# 6 0.000000 0.000000 0.000000 0.009755 0.000000 0.028525
#
#
# Mechanical properties :
#
#
# Convention : Reuss Voigt Hill
#
# Bulk Modulus (GPa) = 35.12956 36.76939 35.94947
# Shear Modulus (GPa) = 25.22065 28.68987 26.95526
#
# Velocity S-wave (km/s) = 3.32694 3.54838 3.43944
# Velocity P-wave (km/s) = 5.49320 5.73802 5.61694
#
# Compressibility (1/GPa) = 0.02846606
#
# Stress axis : x y z
#
# Youngs Moduli (GPa) = 64.70348 68.97866 64.39380
#
# Poissons Ratio (x) = 0.03870 0.25140
# Poissons Ratio (y) = 0.03630 0.26033
# Poissons Ratio (z) = 0.25261 0.27887
#
# Static dielectric constant tensor:
#      x y z
#    x 1.854430 0.000000 0.005530 
#    y 0.000000 1.839440 0.000000 
#    z 0.005530 0.000000 1.849510 
# 
# From -- ./inp_files/23206.got.cif
#   From: 2010.05.17/outbox.cif.g08.bks.cpg/sg9_12_cif.got.tgz:23206.got - 2010.06.03 20:04:27.
