data_PCOD9136606
_publ_section_title
;
Structure prediction by ZEFSAII (Michael W. Deem and Ramdas Pophale) SiO2 
 PCOD9136606
Probable space group: C C
;
_chemical_formula_sum "Si O2"
_cell_formula_units_Z 32
_cell_length_a 9.440868
_cell_length_b 19.396666
_cell_length_c 8.828154
_cell_angle_alpha 90.000000
_cell_angle_beta 110.319244
_cell_angle_gamma 90.000000
_cell_volume 1516.024919
_symmetry_space_group_name_H-M "C C"
_symmetry_group_IT_number 9
_symmetry_cell_setting 'monoclinic'
loop_
_space_group_symop_operation_xyz
x,y,z
x,-y,1/2+z
1/2+x,1/2+y,z
1/2+x,1/2-y,1/2+z
loop_
_atom_site_type_symbol
_atom_site_label
_atom_site_fract_x
_atom_site_fract_y
_atom_site_fract_z
Si Si1 0.913110 0.649385 0.705830
Si Si2 0.224131 0.190036 0.238564
Si Si3 0.408634 0.716970 0.027925
Si Si4 0.237852 0.546232 0.312230
Si Si5 0.729755 0.470761 0.210333
Si Si6 0.073510 0.935759 0.859037
Si Si7 0.459068 0.088615 0.380913
Si Si8 0.700822 0.092309 0.968401
O O1 0.883915 0.728672 0.655418
O O2 0.778771 0.608916 0.741874
O O3 0.945261 0.614496 0.550221
O O4 0.060761 0.637346 0.860255
O O5 0.308984 0.252241 0.354143
O O6 0.138624 0.137363 0.324856
O O7 0.362199 0.141427 0.240358
O O8 0.090467 0.213122 0.077749
O O9 0.344299 0.642001 0.037631
O O10 0.410049 0.570876 0.370136
O O11 0.233207 0.466815 0.358908
O O12 0.129855 0.584806 0.390072
O O13 0.172271 0.557389 0.119930
O O14 0.584824 0.507415 0.231037
O O15 0.874711 0.516206 0.313653
O O16 0.687402 0.471551 0.019068
#
# Coordination Sequence:
#
# PCOD9136606 Si02
#       8
#     4   4   4   4   4   4   4   4
#     4  11  22  41  69  96 130 187 227 277 343 422
#     4  10  21  42  67  95 126 185 222 278 334 421
#     4  11  21  42  69  93 135 181 237 263 352 419
#     4  12  25  41  65 102 136 175 223 296 350 402
#     4  11  20  39  61  96 126 169 218 280 333 400
#     4  11  23  38  64  95 134 164 221 277 343 397
#     4  10  23  40  66  95 137 170 227 283 348 404
#     4  12  25  39  69 100 136 179 225 284 347 413
#
# _framework density 21.107831999999998
#
# number of rings (size 3 to 8) (size 9 to 14) (size 15 to 20)
#    0.000    1.000    7.500    1.500    3.500    0.000 
#    0.000    0.000   16.500    0.000    0.000    0.000 
#    0.000    0.000    0.000    0.000    0.000    0.000 
#
# Total GULP energy -89183.836714 kJ/mol
# GULP energy per Si atom -5573.989795 kJ/mol
# Density = 2.105979 g / cm^3
# Si number density = 21.107832 Si / 1000 Ang^3
#
#
#
# Elastic Constant Matrix: (Units=GPa)
#
#
# Indices 1 2 3 4 5 6 
#
# 1 121.7522 32.0285 14.9890 0.0000 0.1526 0.0000
# 2 32.0285 80.0107 10.5598 0.0000 7.3092 0.0000
# 3 14.9890 10.5598 78.6130 0.0000 20.2404 0.0000
# 4 0.0000 0.0000 0.0000 29.5146 0.0000 10.8303
# 5 0.1526 7.3092 20.2404 0.0000 20.7965 0.0000
# 6 0.0000 0.0000 0.0000 10.8303 0.0000 29.2450
#
#
#
# Elastic Compliance Matrix: (Units=1/GPa)
#
#
# Indices 1 2 3 4 5 6 
#
# 1 0.009480 -0.003818 -0.002165 0.000000 0.003379 0.000000
# 2 -0.003818 0.014484 0.000115 0.000000 -0.005174 0.000000
# 3 -0.002165 0.000115 0.017513 0.000000 -0.017069 0.000000
# 4 0.000000 0.000000 0.000000 0.039210 0.000000 -0.014521
# 5 0.003379 -0.005174 -0.017069 0.000000 0.066491 0.000000
# 6 0.000000 0.000000 0.000000 -0.014521 0.000000 0.039571
#
#
# Mechanical properties :
#
#
# Convention : Reuss Voigt Hill
#
# Bulk Modulus (GPa) = 33.62406 43.94782 38.78594
# Shear Modulus (GPa) = 23.99248 30.76446 27.37847
#
# Velocity S-wave (km/s) = 3.37510 3.82185 3.60540
# Velocity P-wave (km/s) = 5.58146 6.35147 5.97887
#
# Compressibility (1/GPa) = 0.02974061
#
# Stress axis : x y z
#
# Youngs Moduli (GPa) = 105.48528 69.04089 57.10196
#
# Poissons Ratio (x) = 0.26359 0.12361
# Poissons Ratio (y) = 0.40273 -0.00654
# Poissons Ratio (z) = 0.22834 -0.00791
#
# Static dielectric constant tensor:
#      x y z
#    x 1.796220 0.000000 0.045510 
#    y 0.000000 1.811560 0.000000 
#    z 0.045510 0.000000 1.791490 
# 
# From -- ./inp_files/5809.got.cif
#   From: 2010.05.17/outbox.cif.g08.bks.cpg/sg9_3_cif.got.tgz:5809.got - 2010.06.03 20:04:27.
