data_PCOD9136737
_publ_section_title
;
Structure prediction by ZEFSAII (Michael W. Deem and Ramdas Pophale) SiO2 
 PCOD9136737
Probable space group: C C
;
_chemical_formula_sum "Si O2"
_cell_formula_units_Z 32
_cell_length_a 7.560983
_cell_length_b 14.036777
_cell_length_c 13.061814
_cell_angle_alpha 90.000000
_cell_angle_beta 97.827296
_cell_angle_gamma 90.000000
_cell_volume 1373.358436
_symmetry_space_group_name_H-M "C C"
_symmetry_group_IT_number 9
_symmetry_cell_setting 'monoclinic'
loop_
_space_group_symop_operation_xyz
x,y,z
x,-y,1/2+z
1/2+x,1/2+y,z
1/2+x,1/2-y,1/2+z
loop_
_atom_site_type_symbol
_atom_site_label
_atom_site_fract_x
_atom_site_fract_y
_atom_site_fract_z
Si Si1 0.737100 0.008578 0.089260
Si Si2 0.730093 0.130953 0.294620
Si Si3 0.593951 0.367515 0.907536
Si Si4 0.629759 0.141606 0.906652
Si Si5 0.763724 0.642716 0.793573
Si Si6 0.833723 0.638034 0.232657
Si Si7 0.335573 0.967522 0.089886
Si Si8 0.873223 0.859428 0.232800
O O1 0.753484 0.075725 0.190595
O O2 0.540410 0.961981 0.071508
O O3 0.866211 0.922473 0.130238
O O4 0.741184 0.078900 0.994236
O O5 0.764108 0.243194 0.282104
O O6 0.522394 0.113749 0.304009
O O7 0.885349 0.105321 0.386201
O O8 0.629251 0.254628 0.933083
O O9 0.674931 0.378206 0.799581
O O10 0.703412 0.432167 0.993025
O O11 0.420652 0.114255 0.883269
O O12 0.714583 0.124148 0.801273
O O13 0.807619 0.596766 0.688284
O O14 0.559993 0.619031 0.803807
O O15 0.808747 0.573956 0.131130
O O16 0.856148 0.748223 0.205143
#
# Coordination Sequence:
#
# PCOD9136737 Si02
#       8
#     4   4   4   4   4   4   4   4
#     4  11  23  40  68  96 135 167 216 272 326 383
#     4   9  21  42  67  95 131 170 216 268 324 382
#     4  10  22  43  71  94 127 176 220 262 327 388
#     4  10  22  45  68  95 130 173 218 271 323 384
#     4  10  21  43  68  92 132 172 215 270 323 389
#     4   9  22  44  68  92 135 171 215 273 321 381
#     4  11  23  40  68  98 132 171 214 270 330 381
#     4  10  22  45  68  94 130 176 218 268 324 386
#
# _framework density 23.300543000000001
#
# number of rings (size 3 to 8) (size 9 to 14) (size 15 to 20)
#    0.000    2.000    1.250    0.750    3.500    0.000 
#    6.750    0.000   11.000    0.000    0.000    0.000 
#    0.000    0.000    0.000    0.000    0.000    0.000 
#
# Total GULP energy -89500.732959 kJ/mol
# GULP energy per Si atom -5593.795810 kJ/mol
# Density = 2.324751 g / cm^3
# Si number density = 23.300543 Si / 1000 Ang^3
#
#
#
# Elastic Constant Matrix: (Units=GPa)
#
#
# Indices 1 2 3 4 5 6 
#
# 1 88.3622 39.5631 24.3502 0.0000 25.2937 0.0000
# 2 39.5631 88.8993 51.9078 0.0000 21.9619 0.0000
# 3 24.3502 51.9078 86.8200 0.0000 32.7182 0.0000
# 4 0.0000 0.0000 0.0000 35.7642 0.0000 12.1353
# 5 25.2937 21.9619 32.7182 0.0000 29.3911 0.0000
# 6 0.0000 0.0000 0.0000 12.1353 0.0000 26.1324
#
#
#
# Elastic Compliance Matrix: (Units=1/GPa)
#
#
# Indices 1 2 3 4 5 6 
#
# 1 0.017446 -0.006895 0.005075 0.000000 -0.015510 0.000000
# 2 -0.006895 0.020108 -0.011477 0.000000 0.003685 0.000000
# 3 0.005075 -0.011477 0.026479 0.000000 -0.025267 0.000000
# 4 0.000000 0.000000 0.000000 0.033191 0.000000 -0.015413
# 5 -0.015510 0.003685 -0.025267 0.000000 0.072746 0.000000
# 6 0.000000 0.000000 0.000000 -0.015413 0.000000 0.045424
#
#
# Mechanical properties :
#
#
# Convention : Reuss Voigt Hill
#
# Bulk Modulus (GPa) = 26.71122 55.08041 40.89581
# Shear Modulus (GPa) = 19.64883 28.14159 23.89521
#
# Velocity S-wave (km/s) = 2.90708 3.47906 3.20585
# Velocity P-wave (km/s) = 4.77041 6.31102 5.59400
#
# Compressibility (1/GPa) = 0.03743745
#
# Stress axis : x y z
#
# Youngs Moduli (GPa) = 57.32063 49.73046 37.76635
#
# Poissons Ratio (x) = 0.34290 -0.19165
# Poissons Ratio (y) = 0.39524 0.43345
# Poissons Ratio (z) = -0.29088 0.57076
#
# Static dielectric constant tensor:
#      x y z
#    x 1.889010 0.000000 0.013740 
#    y 0.000000 1.889090 0.000000 
#    z 0.013740 0.000000 1.823840 
# 
# From -- ./inp_files/14782.got.cif
#   From: 2010.05.17/outbox.cif.g08.bks.cpg/sg9_8_cif.got.tgz:14782.got - 2010.06.03 20:04:27.
