data_PCOD9136350
_publ_section_title
;
Structure prediction by ZEFSAII (Michael W. Deem and Ramdas Pophale) SiO2 
 PCOD9136350
Probable space group: C C
;
_chemical_formula_sum "Si O2"
_cell_formula_units_Z 32
_cell_length_a 8.999892
_cell_length_b 20.108423
_cell_length_c 8.977255
_cell_angle_alpha 90.000000
_cell_angle_beta 98.402577
_cell_angle_gamma 90.000000
_cell_volume 1607.207130
_symmetry_space_group_name_H-M "C C"
_symmetry_group_IT_number 9
_symmetry_cell_setting 'monoclinic'
loop_
_space_group_symop_operation_xyz
x,y,z
x,-y,1/2+z
1/2+x,1/2+y,z
1/2+x,1/2-y,1/2+z
loop_
_atom_site_type_symbol
_atom_site_label
_atom_site_fract_x
_atom_site_fract_y
_atom_site_fract_z
Si Si1 0.079500 0.955591 0.840160
Si Si2 0.833166 0.560138 0.948824
Si Si3 0.499778 0.379701 0.081783
Si Si4 0.818064 0.960550 0.293086
Si Si5 0.928132 0.127008 0.071591
Si Si6 0.525341 0.030649 0.258921
Si Si7 0.733502 0.158633 0.331417
Si Si8 0.150149 0.809591 0.374749
O O1 0.047512 0.921104 0.677213
O O2 0.185081 0.018767 0.877582
O O3 0.911184 0.976294 0.863317
O O4 0.120835 0.905093 0.978363
O O5 0.789539 0.637800 0.917832
O O6 0.957548 0.520318 0.870202
O O7 0.893635 0.549477 0.124926
O O8 0.422037 0.434186 0.176388
O O9 0.576805 0.331643 0.209195
O O10 0.364797 0.348279 0.971314
O O11 0.826358 0.910619 0.433201
O O12 0.660262 0.986032 0.211150
O O13 0.817101 0.154574 0.182286
O O14 0.033392 0.176070 0.992347
O O15 0.608317 0.099426 0.321115
O O16 0.674738 0.231868 0.358254
#
# Coordination Sequence:
#
# PCOD9136350 Si02
#       8
#     4   4   4   4   4   4   4   4
#     4  11  20  38  71  95 122 164 223 263 326 401
#     4  12  25  39  64 101 135 159 211 290 339 371
#     4  10  21  40  68  90 117 170 222 262 311 408
#     4  11  20  38  71  95 122 164 223 263 326 401
#     4  10  21  42  72  92 121 180 228 264 317 408
#     4  12  25  39  64 101 135 159 211 290 339 371
#     4  11  25  44  64  92 134 177 222 268 329 402
#     4  11  25  44  64  92 134 177 222 268 329 402
#
# _framework density 19.910314
#
# number of rings (size 3 to 8) (size 9 to 14) (size 15 to 20)
#    0.000    1.000    5.000    3.750    1.750    0.000 
#    6.750    2.500    0.000    0.000    0.000    0.000 
#    0.000    0.000    0.000    0.000    0.000    0.000 
#
# Total GULP energy -89125.929221 kJ/mol
# GULP energy per Si atom -5570.370576 kJ/mol
# Density = 1.986500 g / cm^3
# Si number density = 19.910314 Si / 1000 Ang^3
#
#
#
# Elastic Constant Matrix: (Units=GPa)
#
#
# Indices 1 2 3 4 5 6 
#
# 1 62.1420 28.5880 4.7433 0.0000 2.8507 0.0000
# 2 28.5880 104.6157 19.7366 0.0000 -7.5926 0.0000
# 3 4.7433 19.7366 91.3909 0.0000 4.1785 0.0000
# 4 0.0000 0.0000 0.0000 11.5537 0.0000 2.4699
# 5 2.8507 -7.5926 4.1785 0.0000 21.7110 0.0000
# 6 0.0000 0.0000 0.0000 2.4699 0.0000 29.9814
#
#
#
# Elastic Compliance Matrix: (Units=1/GPa)
#
#
# Indices 1 2 3 4 5 6 
#
# 1 0.018819 -0.005549 0.000427 0.000000 -0.004494 0.000000
# 2 -0.005549 0.011946 -0.002538 0.000000 0.005395 0.000000
# 3 0.000427 -0.002538 0.011613 0.000000 -0.003179 0.000000
# 4 0.000000 0.000000 0.000000 0.088104 0.000000 -0.007258
# 5 -0.004494 0.005395 -0.003179 0.000000 0.049148 0.000000
# 6 0.000000 0.000000 0.000000 -0.007258 0.000000 0.033952
#
#
# Mechanical properties :
#
#
# Convention : Reuss Voigt Hill
#
# Bulk Modulus (GPa) = 36.95946 40.47604 38.71775
# Shear Modulus (GPa) = 21.01538 26.32128 23.66833
#
# Velocity S-wave (km/s) = 3.25237 3.63987 3.45156
# Velocity P-wave (km/s) = 5.71902 6.16751 5.94749
#
# Compressibility (1/GPa) = 0.02705667
#
# Stress axis : x y z
#
# Youngs Moduli (GPa) = 53.13891 83.71267 86.10764
#
# Poissons Ratio (x) = 0.46454 -0.03678
# Poissons Ratio (y) = 0.29488 0.21858
# Poissons Ratio (z) = -0.02270 0.21250
#
# Static dielectric constant tensor:
#      x y z
#    x 1.744590 0.000000 -0.001700 
#    y 0.000000 1.773950 0.000000 
#    z -0.001700 0.000000 1.758850 
# 
# From -- ./inp_files/5736.got.cif
#   From: 2010.05.17/outbox.cif.g08.bks.cpg/sg9_3_cif.got.tgz:5736.got - 2010.06.03 20:04:27.
