data_PCOD9136092
_publ_section_title
;
Structure prediction by ZEFSAII (Michael W. Deem and Ramdas Pophale) SiO2 
 PCOD9136092
Probable space group: C C
;
_chemical_formula_sum "Si O2"
_cell_formula_units_Z 32
_cell_length_a 21.541166
_cell_length_b 13.855507
_cell_length_c 9.028571
_cell_angle_alpha 90.000000
_cell_angle_beta 31.713314
_cell_angle_gamma 90.000000
_cell_volume 1416.521911
_symmetry_space_group_name_H-M "C C"
_symmetry_group_IT_number 9
_symmetry_cell_setting 'monoclinic'
loop_
_space_group_symop_operation_xyz
x,y,z
x,-y,1/2+z
1/2+x,1/2+y,z
1/2+x,1/2-y,1/2+z
loop_
_atom_site_type_symbol
_atom_site_label
_atom_site_fract_x
_atom_site_fract_y
_atom_site_fract_z
Si Si1 0.065160 0.723750 0.638940
Si Si2 0.662706 0.794869 0.471145
Si Si3 0.728554 0.107279 0.105500
Si Si4 0.689297 0.600928 0.047990
Si Si5 0.879063 0.919622 0.566402
Si Si6 0.636744 0.568034 0.481611
Si Si7 0.925956 0.715928 0.626926
Si Si8 0.643005 0.919197 0.219173
O O1 0.177006 0.694816 0.309948
O O2 0.103189 0.820950 0.645615
O O3 0.059850 0.637021 0.771845
O O4 0.962240 0.732092 0.725373
O O5 0.755189 0.845264 0.393071
O O6 0.667363 0.679084 0.457646
O O7 0.666638 0.843692 0.302794
O O8 0.538724 0.821294 0.804132
O O9 0.840722 0.075280 0.973091
O O10 0.623697 0.025355 0.326387
O O11 0.632906 0.563258 0.313774
O O12 0.720963 0.512461 0.876826
O O13 0.811188 0.651254 0.847264
O O14 0.895289 0.814139 0.603864
O O15 0.009605 0.961246 0.307824
O O16 0.763044 0.952295 0.889990
#
# Coordination Sequence:
#
# PCOD9136092 Si02
#       8
#     4   4   4   4   4   4   4   4
#     4  10  22  44  70  94 142 179 227 290 346 411
#     4  10  21  43  69 107 140 179 237 285 351 420
#     4  10  21  38  72  98 134 171 226 296 349 403
#     4  12  25  50  67 100 143 185 241 288 349 423
#     4  10  22  42  67 105 133 178 230 284 361 398
#     4  11  27  43  67 101 140 187 232 288 346 427
#     4  10  22  44  72  95 143 193 219 286 358 411
#     4  11  20  42  70 104 135 168 236 295 342 413
#
# _framework density 22.590544000000001
#
# number of rings (size 3 to 8) (size 9 to 14) (size 15 to 20)
#    0.000    1.500    3.750    1.500    7.000    0.000 
#   13.500    0.000    0.000    0.000    0.000    0.000 
#    0.000    0.000    0.000    0.000    0.000    0.000 
#
# Total GULP energy -89242.673204 kJ/mol
# GULP energy per Si atom -5577.667075 kJ/mol
# Density = 2.253913 g / cm^3
# Si number density = 22.590544 Si / 1000 Ang^3
#
#
#
# Elastic Constant Matrix: (Units=GPa)
#
#
# Indices 1 2 3 4 5 6 
#
# 1 180.8379 76.9470 12.9742 0.0000 20.7339 0.0000
# 2 76.9470 112.3943 2.4295 0.0000 14.0983 0.0000
# 3 12.9742 2.4295 49.0342 0.0000 12.5903 0.0000
# 4 0.0000 0.0000 0.0000 17.2784 0.0000 8.0263
# 5 20.7339 14.0983 12.5903 0.0000 28.6834 0.0000
# 6 0.0000 0.0000 0.0000 8.0263 0.0000 43.0892
#
#
#
# Elastic Compliance Matrix: (Units=1/GPa)
#
#
# Indices 1 2 3 4 5 6 
#
# 1 0.008150 -0.005201 -0.001175 0.000000 -0.002820 0.000000
# 2 -0.005201 0.012830 0.001571 0.000000 -0.003236 0.000000
# 3 -0.001175 0.001571 0.023225 0.000000 -0.010117 0.000000
# 4 0.000000 0.000000 0.000000 0.063358 0.000000 -0.011802
# 5 -0.002820 -0.003236 -0.010117 0.000000 0.042933 0.000000
# 6 0.000000 0.000000 0.000000 -0.011802 0.000000 0.025406
#
#
# Mechanical properties :
#
#
# Convention : Reuss Voigt Hill
#
# Bulk Modulus (GPa) = 28.90482 58.55199 43.72841
# Shear Modulus (GPa) = 25.37522 34.47125 29.92323
#
# Velocity S-wave (km/s) = 3.35515 3.91053 3.64344
# Velocity P-wave (km/s) = 5.27563 6.80917 6.09086
#
# Compressibility (1/GPa) = 0.03459630
#
# Stress axis : x y z
#
# Youngs Moduli (GPa) = 122.69444 77.94366 43.05757
#
# Poissons Ratio (x) = 0.40537 0.05059
# Poissons Ratio (y) = 0.63811 -0.06766
# Poissons Ratio (z) = 0.14415 -0.12248
#
# Static dielectric constant tensor:
#      x y z
#    x 1.861630 0.000000 -0.012320 
#    y 0.000000 1.958260 0.000000 
#    z -0.012320 0.000000 1.933490 
# 
# From -- ./inp_files/11710.got.cif
#   From: 2010.05.17/outbox.cif.g08.bks.cpg/sg9_6_cif.got.tgz:11710.got - 2010.06.03 20:04:27.
