data_PCOD9136930
_publ_section_title
;
Structure prediction by ZEFSAII (Michael W. Deem and Ramdas Pophale) SiO2 
 PCOD9136930
Probable space group: C C
;
_chemical_formula_sum "Si O2"
_cell_formula_units_Z 32
_cell_length_a 11.571392
_cell_length_b 9.380474
_cell_length_c 23.708582
_cell_angle_alpha 90.000000
_cell_angle_beta 25.791373
_cell_angle_gamma 90.000000
_cell_volume 1119.697209
_symmetry_space_group_name_H-M "C C"
_symmetry_group_IT_number 9
_symmetry_cell_setting 'monoclinic'
loop_
_space_group_symop_operation_xyz
x,y,z
x,-y,1/2+z
1/2+x,1/2+y,z
1/2+x,1/2-y,1/2+z
loop_
_atom_site_type_symbol
_atom_site_label
_atom_site_fract_x
_atom_site_fract_y
_atom_site_fract_z
Si Si1 0.827500 0.348783 0.911290
Si Si2 0.305645 0.417398 0.755182
Si Si3 0.395226 0.866802 0.422123
Si Si4 0.963189 0.546830 0.569596
Si Si5 0.485585 0.344913 0.787748
Si Si6 0.163767 0.191093 0.603865
Si Si7 0.427656 0.370182 0.996096
Si Si8 0.904245 0.490676 0.726915
O O1 0.732153 0.515276 0.958867
O O2 0.640071 0.296469 0.944646
O O3 0.150491 0.358674 0.768629
O O4 0.784245 0.272025 0.989745
O O5 0.357343 0.310704 0.783353
O O6 0.534410 0.534439 0.649159
O O7 0.079777 0.527087 0.876325
O O8 0.531038 0.780143 0.311778
O O9 0.314129 0.747692 0.501937
O O10 0.761595 0.415990 0.649498
O O11 0.840877 0.668479 0.581845
O O12 0.272450 0.551217 0.414104
O O13 0.920800 0.552333 0.656042
O O14 0.962837 0.320205 0.701379
O O15 0.611825 0.488191 0.882938
O O16 0.171115 0.442896 0.137103
#
# Coordination Sequence:
#
# PCOD9136930 Si02
#       8
#     4   4   4   4   4   4   4   4
#     4  10  25  42  67 100 139 188 234 284 362 418
#     4   9  21  41  66  94 140 178 230 286 359 396
#     4  10  21  46  66  95 149 174 227 301 345 404
#     4  11  21  41  72 100 135 179 241 282 359 411
#     4  11  20  39  73  98 133 185 226 289 348 417
#     4  11  23  43  74 101 139 191 236 300 352 426
#     4  12  26  45  72 102 147 193 231 297 362 422
#     4  12  25  47  70 106 146 182 245 297 351 430
#
# _framework density 28.579156000000001
#
# number of rings (size 3 to 8) (size 9 to 14) (size 15 to 20)
#    0.750    0.500    5.000    0.000    3.500    2.000 
#    2.250    5.000    0.000    0.000    0.000    0.000 
#    0.000    0.000    0.000    0.000    0.000    0.000 
#
# Total GULP energy -89240.955524 kJ/mol
# GULP energy per Si atom -5577.559720 kJ/mol
# Density = 2.851411 g / cm^3
# Si number density = 28.579156 Si / 1000 Ang^3
#
#
#
# Elastic Constant Matrix: (Units=GPa)
#
#
# Indices 1 2 3 4 5 6 
#
# 1 163.7666 33.0105 25.3810 -0.0020 12.0890 0.0001
# 2 33.0105 93.9802 46.6893 -0.0019 2.1507 0.0010
# 3 25.3810 46.6893 152.9364 -0.0174 7.4214 0.0030
# 4 -0.0020 -0.0019 -0.0174 43.4596 0.0024 5.5616
# 5 12.0890 2.1507 7.4214 0.0024 36.4824 -0.0002
# 6 0.0001 0.0010 0.0030 5.5616 -0.0002 34.1784
#
#
#
# Elastic Compliance Matrix: (Units=1/GPa)
#
#
# Indices 1 2 3 4 5 6 
#
# 1 0.006745 -0.002140 -0.000367 0.000000 -0.002034 0.000000
# 2 -0.002140 0.013222 -0.003715 -0.000001 0.000685 0.000000
# 3 -0.000367 -0.003715 0.007794 0.000003 -0.001245 -0.000001
# 4 0.000000 -0.000001 0.000003 0.023499 -0.000002 -0.003824
# 5 -0.002034 0.000685 -0.001245 -0.000002 0.028297 0.000001
# 6 0.000000 0.000000 -0.000001 -0.003824 0.000001 0.029880
#
#
# Mechanical properties :
#
#
# Convention : Reuss Voigt Hill
#
# Bulk Modulus (GPa) = 65.28763 68.98275 67.13519
# Shear Modulus (GPa) = 39.37408 43.19759 41.28583
#
# Velocity S-wave (km/s) = 3.71579 3.89203 3.80493
# Velocity P-wave (km/s) = 6.42679 6.66236 6.54563
#
# Compressibility (1/GPa) = 0.01531684
#
# Stress axis : x y z
#
# Youngs Moduli (GPa) = 148.26461 75.63183 128.30321
#
# Poissons Ratio (x) = 0.16186 0.04713
# Poissons Ratio (y) = 0.31729 0.47659
# Poissons Ratio (z) = 0.05446 0.28094
#
# Static dielectric constant tensor:
#      x y z
#    x 2.218730 0.000000 -0.052740 
#    y 0.000000 2.263260 0.000000 
#    z -0.052740 0.000000 2.382620 
# 
# From -- ./inp_files/35388.got.cif
#   From: 2010.05.17/outbox.cif.g08.bks.cpg/sg9_18_cif.got.tgz:35388.got - 2010.06.03 20:04:27.
