data_PCOD9136757
_publ_section_title
;
Structure prediction by ZEFSAII (Michael W. Deem and Ramdas Pophale) SiO2 
 PCOD9136757
Probable space group: C C
;
_chemical_formula_sum "Si O2"
_cell_formula_units_Z 32
_cell_length_a 14.783133
_cell_length_b 15.169338
_cell_length_c 10.432334
_cell_angle_alpha 90.000000
_cell_angle_beta 38.351053
_cell_angle_gamma 90.000000
_cell_volume 1451.580153
_symmetry_space_group_name_H-M "C C"
_symmetry_group_IT_number 9
_symmetry_cell_setting 'monoclinic'
loop_
_space_group_symop_operation_xyz
x,y,z
x,-y,1/2+z
1/2+x,1/2+y,z
1/2+x,1/2-y,1/2+z
loop_
_atom_site_type_symbol
_atom_site_label
_atom_site_fract_x
_atom_site_fract_y
_atom_site_fract_z
Si Si1 0.730720 0.943004 0.691490
Si Si2 0.342904 0.748949 0.120953
Si Si3 0.062749 0.984349 0.366947
Si Si4 0.559212 0.319829 0.845438
Si Si5 0.581457 0.664104 0.030584
Si Si6 0.750826 0.217764 0.801641
Si Si7 0.291945 0.124919 0.450130
Si Si8 0.089634 0.542889 0.078219
O O1 0.760756 0.838148 0.659592
O O2 0.643796 0.974342 0.662776
O O3 0.892782 0.985318 0.516216
O O4 0.646016 0.971135 0.914142
O O5 0.486587 0.714589 0.029716
O O6 0.243142 0.798661 0.335262
O O7 0.366995 0.816736 0.979274
O O8 0.074074 0.936959 0.492443
O O9 0.120608 0.082999 0.304950
O O10 0.157445 0.925766 0.164178
O O11 0.522459 0.319883 0.736698
O O12 0.674139 0.245531 0.754812
O O13 0.417946 0.305008 0.089682
O O14 0.742023 0.303387 0.902034
O O15 0.667333 0.134582 0.951857
O O16 0.416565 0.058754 0.263285
#
# Coordination Sequence:
#
# PCOD9136757 Si02
#       8
#     4   4   4   4   4   4   4   4
#     4  11  25  42  74 101 143 184 234 295 351 426
#     4  10  21  43  70  96 128 184 228 280 349 420
#     4  10  26  43  73 103 133 187 237 290 352 427
#     4  12  26  45  69 103 142 183 234 296 357 427
#     4  10  23  42  67  99 134 174 231 287 353 416
#     4  12  26  44  72 100 140 187 236 287 360 423
#     4  11  25  47  73 101 139 182 240 288 352 426
#     4  12  26  46  68 109 143 185 238 295 360 421
#
# _framework density 22.044943
#
# number of rings (size 3 to 8) (size 9 to 14) (size 15 to 20)
#    0.000    1.000    3.750    1.500   10.500    2.000 
#    6.750    0.000    0.000    0.000    0.000    0.000 
#    0.000    0.000    0.000    0.000    0.000    0.000 
#
# Total GULP energy -89553.464828 kJ/mol
# GULP energy per Si atom -5597.091552 kJ/mol
# Density = 2.199477 g / cm^3
# Si number density = 22.044943 Si / 1000 Ang^3
#
#
#
# Elastic Constant Matrix: (Units=GPa)
#
#
# Indices 1 2 3 4 5 6 
#
# 1 53.6337 4.2342 9.1104 0.0000 13.0026 0.0000
# 2 4.2342 46.5602 6.5887 0.0000 3.4788 0.0000
# 3 9.1104 6.5887 77.2096 0.0000 3.8250 0.0000
# 4 0.0000 0.0000 0.0000 31.4464 0.0000 3.4319
# 5 13.0026 3.4788 3.8250 0.0000 29.7787 0.0000
# 6 0.0000 0.0000 0.0000 3.4319 0.0000 22.3702
#
#
#
# Elastic Compliance Matrix: (Units=1/GPa)
#
#
# Indices 1 2 3 4 5 6 
#
# 1 0.021215 -0.000985 -0.001979 0.000000 -0.008894 0.000000
# 2 -0.000985 0.021946 -0.001661 0.000000 -0.001920 0.000000
# 3 -0.001979 -0.001661 0.013360 0.000000 -0.000658 0.000000
# 4 0.000000 0.000000 0.000000 0.032342 0.000000 -0.004962
# 5 -0.008894 -0.001920 -0.000658 0.000000 0.037773 0.000000
# 6 0.000000 0.000000 0.000000 -0.004962 0.000000 0.045463
#
#
# Mechanical properties :
#
#
# Convention : Reuss Voigt Hill
#
# Bulk Modulus (GPa) = 21.15471 24.14111 22.64791
# Shear Modulus (GPa) = 25.36713 27.21708 26.29211
#
# Velocity S-wave (km/s) = 3.39588 3.51753 3.45724
# Velocity P-wave (km/s) = 4.99930 5.24137 5.12176
#
# Compressibility (1/GPa) = 0.04727081
#
# Stress axis : x y z
#
# Youngs Moduli (GPa) = 47.13621 45.56698 74.85257
#
# Poissons Ratio (x) = 0.04487 0.14811
# Poissons Ratio (y) = 0.04642 0.12436
# Poissons Ratio (z) = 0.09327 0.07571
#
# Static dielectric constant tensor:
#      x y z
#    x 1.813030 0.000000 0.002350 
#    y 0.000000 1.793960 0.000000 
#    z 0.002350 0.000000 1.768380 
# 
# From -- ./inp_files/7550.got.cif
#   From: 2010.05.17/outbox.cif.g08.bks.cpg/sg9_4_cif.got.tgz:7550.got - 2010.06.03 20:04:27.
