data_PCOD9136871
_publ_section_title
;
Structure prediction by ZEFSAII (Michael W. Deem and Ramdas Pophale) SiO2 
 PCOD9136871
Probable space group: C C
;
_chemical_formula_sum "Si O2"
_cell_formula_units_Z 24
_cell_length_a 11.655392
_cell_length_b 9.357546
_cell_length_c 11.869669
_cell_angle_alpha 90.000000
_cell_angle_beta 46.229847
_cell_angle_gamma 90.000000
_cell_volume 934.839922
_symmetry_space_group_name_H-M "C C"
_symmetry_group_IT_number 9
_symmetry_cell_setting 'monoclinic'
loop_
_space_group_symop_operation_xyz
x,y,z
x,-y,1/2+z
1/2+x,1/2+y,z
1/2+x,1/2-y,1/2+z
loop_
_atom_site_type_symbol
_atom_site_label
_atom_site_fract_x
_atom_site_fract_y
_atom_site_fract_z
Si Si1 0.100380 0.439170 0.385730
Si Si2 0.401639 0.755587 0.672872
Si Si3 0.387453 0.395822 0.955773
Si Si4 0.423595 0.701289 0.909593
Si Si5 0.754095 0.744487 0.739315
Si Si6 0.548982 0.206815 0.697684
O O1 0.223726 0.305861 0.316487
O O2 0.194293 0.590851 0.311246
O O3 0.029837 0.411231 0.309031
O O4 0.963818 0.401098 0.570200
O O5 0.438609 0.638917 0.548461
O O6 0.464190 0.756197 0.758241
O O7 0.332231 0.552819 0.965096
O O8 0.526094 0.356203 0.777302
O O9 0.230074 0.303010 0.036132
O O10 0.587744 0.663857 0.862593
O O11 0.317035 0.786365 0.069597
O O12 0.905901 0.703185 0.708726
#
# Coordination Sequence:
#
# PCOD9136871 Si02
#       6
#     4   4   4   4   4   4
#     4  10  22  47  75 107 145 197 250 310 371 461
#     4  10  21  44  76 100 147 197 243 305 386 430
#     4  10  22  44  76 102 141 200 255 303 375 457
#     4  12  25  45  69 113 154 192 249 324 370 451
#     4  12  25  46  71 114 151 194 248 316 379 448
#     4  10  21  44  75 102 142 194 249 302 379 445
#
# _framework density 25.672844999999999
#
# number of rings (size 3 to 8) (size 9 to 14) (size 15 to 20)
#    0.000    1.333    3.333    3.000    0.000    0.000 
#   15.000    0.000    0.000    0.000    0.000    0.000 
#    0.000    0.000    0.000    0.000    0.000    0.000 
#
# Total GULP energy -66859.665215 kJ/mol
# GULP energy per Si atom -5571.638768 kJ/mol
# Density = 2.561441 g / cm^3
# Si number density = 25.672845 Si / 1000 Ang^3
#
#
#
# Elastic Constant Matrix: (Units=GPa)
#
#
# Indices 1 2 3 4 5 6 
#
# 1 125.5955 32.2732 39.7870 0.0000 5.6153 0.0000
# 2 32.2732 72.2128 34.7191 0.0000 10.5110 0.0000
# 3 39.7870 34.7191 122.1579 0.0000 12.8148 0.0000
# 4 0.0000 0.0000 0.0000 37.7680 0.0000 -2.3066
# 5 5.6153 10.5110 12.8148 0.0000 46.6875 0.0000
# 6 0.0000 0.0000 0.0000 -2.3066 0.0000 20.9806
#
#
#
# Elastic Compliance Matrix: (Units=1/GPa)
#
#
# Indices 1 2 3 4 5 6 
#
# 1 0.009472 -0.003206 -0.002193 0.000000 0.000184 0.000000
# 2 -0.003206 0.017397 -0.003635 0.000000 -0.002533 0.000000
# 3 -0.002193 -0.003635 0.010111 0.000000 -0.001693 0.000000
# 4 0.000000 0.000000 0.000000 0.026656 0.000000 0.002931
# 5 0.000184 -0.002533 -0.001693 0.000000 0.022432 0.000000
# 6 0.000000 0.000000 0.000000 0.002931 0.000000 0.047985
#
#
# Mechanical properties :
#
#
# Convention : Reuss Voigt Hill
#
# Bulk Modulus (GPa) = 52.87352 59.28054 56.07703
# Shear Modulus (GPa) = 31.56054 35.29969 33.43012
#
# Velocity S-wave (km/s) = 3.50999 3.71210 3.61246
# Velocity P-wave (km/s) = 6.08823 6.44312 6.26819
#
# Compressibility (1/GPa) = 0.01891306
#
# Stress axis : x y z
#
# Youngs Moduli (GPa) = 105.56992 57.48163 98.90064
#
# Poissons Ratio (x) = 0.18427 0.21693
# Poissons Ratio (y) = 0.33842 0.35946
# Poissons Ratio (z) = 0.23156 0.20892
#
# Static dielectric constant tensor:
#      x y z
#    x 2.126090 0.000000 0.071790 
#    y 0.000000 2.106680 0.000000 
#    z 0.071790 0.000000 2.049420 
# 
# From -- ./inp_files/16344.got.cif
#   From: 2010.05.17/outbox.cif.g08.bks.cpg/sg9_9_cif.got.tgz:16344.got - 2010.06.03 20:04:27.
