data_PCOD9136048
_publ_section_title
;
Structure prediction by ZEFSAII (Michael W. Deem and Ramdas Pophale) SiO2 
 PCOD9136048
Probable space group: C C
;
_chemical_formula_sum "Si O2"
_cell_formula_units_Z 28
_cell_length_a 17.338000
_cell_length_b 5.172414
_cell_length_c 18.924257
_cell_angle_alpha 90.000000
_cell_angle_beta 42.159682
_cell_angle_gamma 90.000000
_cell_volume 1139.101702
_symmetry_space_group_name_H-M "C C"
_symmetry_group_IT_number 9
_symmetry_cell_setting 'monoclinic'
loop_
_space_group_symop_operation_xyz
x,y,z
x,-y,1/2+z
1/2+x,1/2+y,z
1/2+x,1/2-y,1/2+z
loop_
_atom_site_type_symbol
_atom_site_label
_atom_site_fract_x
_atom_site_fract_y
_atom_site_fract_z
Si Si1 0.794390 0.431245 0.054530
Si Si2 0.309318 0.102451 0.848959
Si Si3 0.210821 0.568741 0.525932
Si Si4 0.970910 0.574633 0.612433
Si Si5 0.627166 0.600516 0.270492
Si Si6 0.999464 0.397323 0.826046
Si Si7 0.063641 0.926656 0.977989
O O1 0.750742 0.488747 0.162994
O O2 0.742106 0.674476 0.048087
O O3 0.928805 0.425893 0.947090
O O4 0.747431 0.174067 0.048143
O O5 0.280751 0.378554 0.905142
O O6 0.188069 0.951591 0.931743
O O7 0.359090 0.113680 0.736513
O O8 0.406766 0.968253 0.829924
O O9 0.078153 0.566186 0.595213
O O10 0.994903 0.817194 0.545918
O O11 0.989990 0.311389 0.556656
O O12 0.543991 0.392482 0.288942
O O13 0.595709 0.589171 0.373972
O O14 0.598948 0.888174 0.262838
#
# Coordination Sequence:
#
# PCOD9136048 Si02
#       7
#     4   4   4   4   4   4   4
#     4  11  22  40  65  94 130 165 208 270 323 373
#     4  10  23  43  69  96 127 168 215 268 320 377
#     4  10  21  38  65 101 126 156 216 271 319 380
#     4  11  22  41  65  91 130 172 209 264 320 375
#     4  12  25  43  63  94 132 169 209 266 321 378
#     4  11  24  41  68  95 121 164 220 262 318 388
#     4  11  27  42  61  95 132 168 217 257 315 393
#
# _framework density 24.580770999999999
#
# number of rings (size 3 to 8) (size 9 to 14) (size 15 to 20)
#    0.000    1.143    0.000    7.714    0.000    9.143 
#    0.000    0.000    0.000    0.000    0.000    0.000 
#    0.000    0.000    0.000    0.000    0.000    0.000 
#
# Total GULP energy -78395.579710 kJ/mol
# GULP energy per Si atom -5599.684265 kJ/mol
# Density = 2.452482 g / cm^3
# Si number density = 24.580771 Si / 1000 Ang^3
#
#
#
# Elastic Constant Matrix: (Units=GPa)
#
#
# Indices 1 2 3 4 5 6 
#
# 1 50.5854 22.4365 12.8683 -0.0196 15.7093 0.0193
# 2 22.4365 179.5194 51.8574 -0.0301 15.3722 0.0587
# 3 12.8683 51.8574 201.9570 -0.0046 18.4704 0.0128
# 4 -0.0196 -0.0301 -0.0046 33.5179 0.0017 1.0815
# 5 15.7093 15.3722 18.4704 0.0017 36.2791 -0.0081
# 6 0.0193 0.0587 0.0128 1.0815 -0.0081 24.6239
#
#
#
# Elastic Compliance Matrix: (Units=1/GPa)
#
#
# Indices 1 2 3 4 5 6 
#
# 1 0.023618 -0.002126 -0.000111 0.000013 -0.009270 -0.000017
# 2 -0.002126 0.006329 -0.001393 0.000005 -0.001052 -0.000013
# 3 -0.000111 -0.001393 0.005515 0.000000 -0.002169 0.000000
# 4 0.000013 0.000005 0.000000 0.029877 -0.000009 -0.001312
# 5 -0.009270 -0.001052 -0.002169 -0.000009 0.033128 0.000022
# 6 -0.000017 -0.000013 0.000000 -0.001312 0.000022 0.040669
#
#
# Mechanical properties :
#
#
# Convention : Reuss Voigt Hill
#
# Bulk Modulus (GPa) = 35.46005 67.37625 51.41815
# Shear Modulus (GPa) = 32.09301 41.87749 36.98525
#
# Velocity S-wave (km/s) = 3.61725 4.13203 3.88318
# Velocity P-wave (km/s) = 5.64829 7.08763 6.40850
#
# Compressibility (1/GPa) = 0.02820075
#
# Stress axis : x y z
#
# Youngs Moduli (GPa) = 42.33974 158.01032 181.32993
#
# Poissons Ratio (x) = 0.33592 0.02017
# Poissons Ratio (y) = 0.09001 0.25267
# Poissons Ratio (z) = 0.00471 0.22017
#
# Static dielectric constant tensor:
#      x y z
#    x 1.976220 -0.000020 0.031580 
#    y -0.000020 1.898130 0.000030 
#    z 0.031580 0.000030 2.062230 
# 
# From -- ./inp_files/34192.got.cif
#   From: 2010.05.17/outbox.cif.g08.bks.cpg/sg9_18_cif.got.tgz:34192.got - 2010.06.03 20:04:27.
