data_PCOD9136735
_publ_section_title
;
Structure prediction by ZEFSAII (Michael W. Deem and Ramdas Pophale) SiO2 
 PCOD9136735
Probable space group: C C
;
_chemical_formula_sum "Si O2"
_cell_formula_units_Z 32
_cell_length_a 6.988555
_cell_length_b 23.843285
_cell_length_c 9.093224
_cell_angle_alpha 90.000000
_cell_angle_beta 113.585597
_cell_angle_gamma 90.000000
_cell_volume 1388.629746
_symmetry_space_group_name_H-M "C C"
_symmetry_group_IT_number 9
_symmetry_cell_setting 'monoclinic'
loop_
_space_group_symop_operation_xyz
x,y,z
x,-y,1/2+z
1/2+x,1/2+y,z
1/2+x,1/2-y,1/2+z
loop_
_atom_site_type_symbol
_atom_site_label
_atom_site_fract_x
_atom_site_fract_y
_atom_site_fract_z
Si Si1 0.590540 0.354805 0.996900
Si Si2 0.253703 0.675117 0.030567
Si Si3 0.870848 0.022300 0.879983
Si Si4 0.861554 0.254333 0.327654
Si Si5 0.756298 0.926775 0.053255
Si Si6 0.404709 0.721402 0.798997
Si Si7 0.480104 0.575419 0.193421
Si Si8 0.996321 0.675710 0.515054
O O1 0.446613 0.299661 0.946540
O O2 0.476306 0.398441 0.069806
O O3 0.602402 0.381782 0.835813
O O4 0.631418 0.275736 0.297030
O O5 0.029169 0.698028 0.915642
O O6 0.397303 0.677360 0.930311
O O7 0.343121 0.722719 0.166340
O O8 0.269538 0.613287 0.104602
O O9 0.753715 0.062198 0.727686
O O10 0.735100 0.982979 0.948966
O O11 0.969295 0.978752 0.794264
O O12 0.023753 0.053698 0.041927
O O13 0.831202 0.339488 0.092136
O O14 0.582031 0.880664 0.966749
O O15 0.202906 0.706574 0.640996
O O16 0.382942 0.782188 0.868497
#
# Coordination Sequence:
#
# PCOD9136735 Si02
#       8
#     4   4   4   4   4   4   4   4
#     4  10  22  41  66  98 140 183 226 283 344 413
#     4  11  23  39  63  99 142 179 226 285 335 420
#     4   9  19  42  73  95 131 178 231 300 348 403
#     4  11  23  41  63  95 143 189 227 271 341 416
#     4  10  21  43  68 100 135 180 234 288 354 404
#     4  12  25  41  64  99 144 189 226 272 338 427
#     4   9  20  40  67  99 133 175 225 289 353 399
#     4  12  25  41  68 103 146 183 227 280 349 418
#
# _framework density 23.044298999999999
#
# number of rings (size 3 to 8) (size 9 to 14) (size 15 to 20)
#    0.000    1.500    2.500    2.250    1.750    0.000 
#    0.000    5.000    0.000    9.000    0.000    0.000 
#    0.000    0.000    0.000    0.000    0.000    0.000 
#
# Total GULP energy -89218.740273 kJ/mol
# GULP energy per Si atom -5576.171267 kJ/mol
# Density = 2.299185 g / cm^3
# Si number density = 23.044299 Si / 1000 Ang^3
#
#
#
# Elastic Constant Matrix: (Units=GPa)
#
#
# Indices 1 2 3 4 5 6 
#
# 1 118.0332 36.2962 35.1273 0.0000 1.2402 0.0000
# 2 36.2962 98.4043 39.7237 0.0000 8.4379 0.0000
# 3 35.1273 39.7237 133.8910 0.0000 -2.8639 0.0000
# 4 0.0000 0.0000 0.0000 37.8160 0.0000 -6.0562
# 5 1.2402 8.4379 -2.8639 0.0000 29.1784 0.0000
# 6 0.0000 0.0000 0.0000 -6.0562 0.0000 19.2776
#
#
#
# Elastic Compliance Matrix: (Units=1/GPa)
#
#
# Indices 1 2 3 4 5 6 
#
# 1 0.009894 -0.002985 -0.001704 0.000000 0.000275 0.000000
# 2 -0.002985 0.012854 -0.003114 0.000000 -0.003896 0.000000
# 3 -0.001704 -0.003114 0.008879 0.000000 0.001844 0.000000
# 4 0.000000 0.000000 0.000000 0.027845 0.000000 0.008748
# 5 0.000275 -0.003896 0.001844 0.000000 0.035568 0.000000
# 6 0.000000 0.000000 0.000000 0.008748 0.000000 0.054622
#
#
# Mechanical properties :
#
#
# Convention : Reuss Voigt Hill
#
# Bulk Modulus (GPa) = 62.41710 63.62477 63.02094
# Shear Modulus (GPa) = 29.30670 33.19984 31.25327
#
# Velocity S-wave (km/s) = 3.57004 3.79977 3.68669
# Velocity P-wave (km/s) = 6.64365 6.84987 6.74755
#
# Compressibility (1/GPa) = 0.01602125
#
# Stress axis : x y z
#
# Youngs Moduli (GPa) = 101.06647 77.79510 112.62279
#
# Poissons Ratio (x) = 0.23223 0.19195
# Poissons Ratio (y) = 0.30170 0.35069
# Poissons Ratio (z) = 0.17225 0.24224
#
# Static dielectric constant tensor:
#      x y z
#    x 1.866190 0.000000 -0.048930 
#    y 0.000000 1.932270 0.000000 
#    z -0.048930 0.000000 2.000320 
# 
# From -- ./inp_files/6236.got.cif
#   From: 2010.05.17/outbox.cif.g08.bks.cpg/sg9_4_cif.got.tgz:6236.got - 2010.06.03 20:04:27.
