data_PCOD9136835
_publ_section_title
;
Structure prediction by ZEFSAII (Michael W. Deem and Ramdas Pophale) SiO2 
 PCOD9136835
Probable space group: C C
;
_chemical_formula_sum "Si O2"
_cell_formula_units_Z 28
_cell_length_a 8.754711
_cell_length_b 14.530406
_cell_length_c 11.342504
_cell_angle_alpha 90.000000
_cell_angle_beta 129.080794
_cell_angle_gamma 90.000000
_cell_volume 1120.042405
_symmetry_space_group_name_H-M "C C"
_symmetry_group_IT_number 9
_symmetry_cell_setting 'monoclinic'
loop_
_space_group_symop_operation_xyz
x,y,z
x,-y,1/2+z
1/2+x,1/2+y,z
1/2+x,1/2-y,1/2+z
loop_
_atom_site_type_symbol
_atom_site_label
_atom_site_fract_x
_atom_site_fract_y
_atom_site_fract_z
Si Si1 0.193350 0.745881 0.186540
Si Si2 0.367687 0.560267 0.379772
Si Si3 0.798146 0.030807 0.089702
Si Si4 0.449137 0.187036 0.596918
Si Si5 0.704891 0.357770 0.743996
Si Si6 0.813175 0.507972 0.611350
Si Si7 0.394778 0.872298 0.448526
O O1 0.294430 0.659818 0.302044
O O2 0.233797 0.836272 0.281224
O O3 0.302602 0.760853 0.115810
O O4 0.971130 0.714572 0.061202
O O5 0.316685 0.499391 0.236703
O O6 0.286398 0.534074 0.469158
O O7 0.600811 0.555550 0.509676
O O8 0.000340 0.088262 0.170116
O O9 0.596061 0.089427 0.990040
O O10 0.630240 0.256758 0.663845
O O11 0.336542 0.163266 0.421882
O O12 0.472886 0.089053 0.675401
O O13 0.818885 0.429059 0.713919
O O14 0.817976 0.451140 0.493422
#
# Coordination Sequence:
#
# PCOD9136835 Si02
#       7
#     4   4   4   4   4   4   4
#     4  11  24  44  75 100 139 196 245 301 379 461
#     4  10  21  44  69 103 142 191 248 302 372 456
#     4  10  22  44  72 103 145 187 258 299 375 463
#     4  12  23  48  75 101 145 196 244 313 374 458
#     4  11  25  46  74 106 141 200 255 297 393 454
#     4  11  26  44  70 108 146 189 242 312 376 452
#     4  11  25  44  69 107 142 187 246 298 387 444
#
# _framework density 24.999054999999998
#
# number of rings (size 3 to 8) (size 9 to 14) (size 15 to 20)
#    0.000    1.143    4.286    1.714    2.000    4.571 
#    7.714    0.000    0.000    0.000    0.000    0.000 
#    0.000    0.000    0.000    0.000    0.000    0.000 
#
# Total GULP energy -78252.963691 kJ/mol
# GULP energy per Si atom -5589.497407 kJ/mol
# Density = 2.494216 g / cm^3
# Si number density = 24.999055 Si / 1000 Ang^3
#
#
#
# Elastic Constant Matrix: (Units=GPa)
#
#
# Indices 1 2 3 4 5 6 
#
# 1 75.4781 62.5019 36.9638 0.0000 -8.9904 0.0000
# 2 62.5019 129.6856 84.5375 0.0000 -23.8525 0.0000
# 3 36.9638 84.5375 164.2988 0.0000 -28.5026 0.0000
# 4 0.0000 0.0000 0.0000 57.4088 0.0000 -20.2340
# 5 -8.9904 -23.8525 -28.5026 0.0000 39.2060 0.0000
# 6 0.0000 0.0000 0.0000 -20.2340 0.0000 33.4344
#
#
#
# Elastic Compliance Matrix: (Units=1/GPa)
#
#
# Indices 1 2 3 4 5 6 
#
# 1 0.022174 -0.011333 0.000605 0.000000 -0.001370 0.000000
# 2 -0.011333 0.017736 -0.005899 0.000000 0.003903 0.000000
# 3 0.000605 -0.005899 0.009598 0.000000 0.003527 0.000000
# 4 0.000000 0.000000 0.000000 0.022142 0.000000 0.013400
# 5 -0.001370 0.003903 0.003527 0.000000 0.030131 0.000000
# 6 0.000000 0.000000 0.000000 0.013400 0.000000 0.038019
#
#
# Mechanical properties :
#
#
# Convention : Reuss Voigt Hill
#
# Bulk Modulus (GPa) = 61.52641 81.94097 71.73369
# Shear Modulus (GPa) = 28.01561 38.37380 33.19470
#
# Velocity S-wave (km/s) = 3.35127 3.92217 3.64790
# Velocity P-wave (km/s) = 6.29600 7.30479 6.81908
#
# Compressibility (1/GPa) = 0.01625318
#
# Stress axis : x y z
#
# Youngs Moduli (GPa) = 45.09752 56.38179 104.19300
#
# Poissons Ratio (x) = 0.63898 -0.06302
# Poissons Ratio (y) = 0.51110 0.61464
# Poissons Ratio (z) = -0.02728 0.33260
#
# Static dielectric constant tensor:
#      x y z
#    x 1.969570 0.000000 -0.050370 
#    y 0.000000 2.053010 0.000000 
#    z -0.050370 0.000000 2.001000 
# 
# From -- ./inp_files/15146.got.cif
#   From: 2010.05.17/outbox.cif.g08.bks.cpg/sg9_8_cif.got.tgz:15146.got - 2010.06.03 20:04:27.
