data_PCOD9136851
_publ_section_title
;
Structure prediction by ZEFSAII (Michael W. Deem and Ramdas Pophale) SiO2 
 PCOD9136851
Probable space group: C C
;
_chemical_formula_sum "Si O2"
_cell_formula_units_Z 32
_cell_length_a 11.801373
_cell_length_b 8.327792
_cell_length_c 16.558116
_cell_angle_alpha 90.000000
_cell_angle_beta 63.954128
_cell_angle_gamma 90.000000
_cell_volume 1462.055152
_symmetry_space_group_name_H-M "C C"
_symmetry_group_IT_number 9
_symmetry_cell_setting 'monoclinic'
loop_
_space_group_symop_operation_xyz
x,y,z
x,-y,1/2+z
1/2+x,1/2+y,z
1/2+x,1/2-y,1/2+z
loop_
_atom_site_type_symbol
_atom_site_label
_atom_site_fract_x
_atom_site_fract_y
_atom_site_fract_z
Si Si1 0.771580 0.781687 0.591750
Si Si2 0.983167 0.803310 0.154507
Si Si3 0.888865 0.618070 0.407445
Si Si4 0.953094 0.038811 0.492337
Si Si5 0.510266 0.219597 0.831655
Si Si6 0.625909 0.687475 0.856554
Si Si7 0.860340 0.136068 0.243112
Si Si8 0.257492 0.867685 0.784940
O O1 0.623815 0.743200 0.636841
O O2 0.836607 0.651448 0.512803
O O3 0.827462 0.802758 0.663717
O O4 0.818125 0.950631 0.538003
O O5 0.978817 0.853148 0.061956
O O6 0.889558 0.656180 0.200351
O O7 0.918920 0.957817 0.219071
O O8 0.783322 0.642488 0.372568
O O9 0.947779 0.443510 0.379676
O O10 0.003512 0.739349 0.352548
O O11 0.966042 0.141355 0.407137
O O12 0.061011 0.899034 0.454146
O O13 0.463115 0.258247 0.757156
O O14 0.660844 0.229981 0.788213
O O15 0.730430 0.826344 0.833043
O O16 0.694235 0.540231 0.789940
#
# Coordination Sequence:
#
# PCOD9136851 Si02
#       8
#     4   4   4   4   4   4   4   4
#     4  10  23  43  71  99 141 180 222 286 355 403
#     4  11  24  43  69 100 141 183 226 288 351 407
#     4  11  23  45  72  97 135 184 229 283 346 410
#     4   9  23  45  65 100 140 176 232 286 337 419
#     4  11  24  44  69 102 134 181 235 280 339 418
#     4  10  21  44  70  94 136 177 229 284 337 403
#     4  11  24  41  68 105 136 177 230 286 340 414
#     4  11  24  41  70  99 133 178 235 279 339 414
#
# _framework density 21.886998999999999
#
# number of rings (size 3 to 8) (size 9 to 14) (size 15 to 20)
#    0.000    1.500    1.250    3.000    8.750    2.000 
#    2.250    0.000    0.000    0.000    0.000    0.000 
#    0.000    0.000    0.000    0.000    0.000    0.000 
#
# Total GULP energy -89351.868850 kJ/mol
# GULP energy per Si atom -5584.491803 kJ/mol
# Density = 2.183718 g / cm^3
# Si number density = 21.886999 Si / 1000 Ang^3
#
#
#
# Elastic Constant Matrix: (Units=GPa)
#
#
# Indices 1 2 3 4 5 6 
#
# 1 160.9258 57.1469 46.8850 0.0000 -21.1791 0.0000
# 2 57.1469 79.9642 45.6311 0.0000 -9.4286 0.0000
# 3 46.8850 45.6311 80.2741 0.0000 -20.5799 0.0000
# 4 0.0000 0.0000 0.0000 38.5303 0.0000 -10.5278
# 5 -21.1791 -9.4286 -20.5799 0.0000 31.5611 0.0000
# 6 0.0000 0.0000 0.0000 -10.5278 0.0000 36.2846
#
#
#
# Elastic Compliance Matrix: (Units=1/GPa)
#
#
# Indices 1 2 3 4 5 6 
#
# 1 0.008915 -0.005182 -0.001350 0.000000 0.003554 0.000000
# 2 -0.005182 0.021589 -0.010186 0.000000 -0.003670 0.000000
# 3 -0.001350 -0.010186 0.021642 0.000000 0.010163 0.000000
# 4 0.000000 0.000000 0.000000 0.028188 0.000000 0.008179
# 5 0.003554 -0.003670 0.010163 0.000000 0.039600 0.000000
# 6 0.000000 0.000000 0.000000 0.008179 0.000000 0.029933
#
#
# Mechanical properties :
#
#
# Convention : Reuss Voigt Hill
#
# Bulk Modulus (GPa) = 53.45056 68.94333 61.19695
# Shear Modulus (GPa) = 26.37960 32.70862 29.54411
#
# Velocity S-wave (km/s) = 3.47546 3.86998 3.67801
# Velocity P-wave (km/s) = 6.37018 7.17893 6.78662
#
# Compressibility (1/GPa) = 0.01870888
#
# Stress axis : x y z
#
# Youngs Moduli (GPa) = 112.16648 46.32027 46.20677
#
# Poissons Ratio (x) = 0.24002 0.06240
# Poissons Ratio (y) = 0.58121 0.47068
# Poissons Ratio (z) = 0.15148 0.47184
#
# Static dielectric constant tensor:
#      x y z
#    x 1.809470 0.000000 -0.017700 
#    y 0.000000 1.822610 0.000000 
#    z -0.017700 0.000000 1.829240 
# 
# From -- ./inp_files/29908.got.cif
#   From: 2010.05.17/outbox.cif.g08.bks.cpg/sg9_15_cif.got.tgz:29908.got - 2010.06.03 20:04:27.
