data_PCOD9136055
_publ_section_title
;
Structure prediction by ZEFSAII (Michael W. Deem and Ramdas Pophale) SiO2 
 PCOD9136055
Probable space group: C C
;
_chemical_formula_sum "Si O2"
_cell_formula_units_Z 32
_cell_length_a 16.405348
_cell_length_b 11.295157
_cell_length_c 11.874247
_cell_angle_alpha 90.000000
_cell_angle_beta 137.861327
_cell_angle_gamma 90.000000
_cell_volume 1476.247746
_symmetry_space_group_name_H-M "C C"
_symmetry_group_IT_number 9
_symmetry_cell_setting 'monoclinic'
loop_
_space_group_symop_operation_xyz
x,y,z
x,-y,1/2+z
1/2+x,1/2+y,z
1/2+x,1/2-y,1/2+z
loop_
_atom_site_type_symbol
_atom_site_label
_atom_site_fract_x
_atom_site_fract_y
_atom_site_fract_z
Si Si1 0.969000 0.540479 0.315340
Si Si2 0.704074 0.063312 0.687369
Si Si3 0.748620 0.281164 0.593242
Si Si4 0.091235 0.973759 0.314966
Si Si5 0.081598 0.184144 0.585237
Si Si6 0.773769 0.655522 0.582834
Si Si7 0.658736 0.105920 0.319206
Si Si8 0.872578 0.103006 0.208138
O O1 0.871290 0.645142 0.222508
O O2 0.894947 0.419544 0.229599
O O3 0.061765 0.547177 0.513514
O O4 0.052497 0.561848 0.291957
O O5 0.732736 0.198929 0.686280
O O6 0.724735 0.004641 0.829297
O O7 0.779892 0.982834 0.677205
O O8 0.641711 0.375956 0.456533
O O9 0.743297 0.191177 0.481550
O O10 0.082395 0.910167 0.186818
O O11 0.191338 0.077955 0.414595
O O12 0.965991 0.028943 0.228728
O O13 0.192091 0.162927 0.612081
O O14 0.103193 0.310372 0.665454
O O15 0.957838 0.166635 0.389746
O O16 0.804824 0.788270 0.579113
#
# Coordination Sequence:
#
# PCOD9136055 Si02
#       8
#     4   4   4   4   4   4   4   4
#     4  10  23  40  65  91 131 168 212 260 321 378
#     4  11  23  36  64  97 127 157 218 267 313 360
#     4   9  22  42  66  92 126 171 212 263 317 384
#     4   9  22  42  67  91 128 173 213 256 325 381
#     4  10  21  40  67  92 121 173 221 252 309 390
#     4  10  21  41  65  96 124 167 212 269 315 376
#     4  10  21  38  65  99 119 165 224 256 305 384
#     4  11  23  37  67  96 130 160 214 271 315 367
#
# _framework density 21.676579
#
# number of rings (size 3 to 8) (size 9 to 14) (size 15 to 20)
#    0.000    2.000    1.250    0.750    8.750    5.000 
#    0.000    3.750   13.750    0.000    0.000    0.000 
#    0.000    0.000    0.000    0.000    0.000    0.000 
#
# Total GULP energy -89465.861882 kJ/mol
# GULP energy per Si atom -5591.616368 kJ/mol
# Density = 2.162724 g / cm^3
# Si number density = 21.676579 Si / 1000 Ang^3
#
#
#
# Elastic Constant Matrix: (Units=GPa)
#
#
# Indices 1 2 3 4 5 6 
#
# 1 36.1764 55.6652 25.3292 0.0000 7.7015 0.0000
# 2 55.6652 158.3197 48.0483 0.0000 4.4549 0.0000
# 3 25.3292 48.0483 63.1247 0.0000 11.9736 0.0000
# 4 0.0000 0.0000 0.0000 26.7844 0.0000 -8.7960
# 5 7.7015 4.4549 11.9736 0.0000 27.3122 0.0000
# 6 0.0000 0.0000 0.0000 -8.7960 0.0000 582.8022
#
#
#
# Elastic Compliance Matrix: (Units=1/GPa)
#
#
# Indices 1 2 3 4 5 6 
#
# 1 0.069451 -0.021215 -0.009447 0.000000 -0.011982 0.000000
# 2 -0.021215 0.014753 -0.003703 0.000000 0.005199 0.000000
# 3 -0.009447 -0.003703 0.023811 0.000000 -0.007171 0.000000
# 4 0.000000 0.000000 0.000000 0.037521 0.000000 0.000566
# 5 -0.011982 0.005199 -0.007171 0.000000 0.042288 0.000000
# 6 0.000000 0.000000 0.000000 0.000566 0.000000 0.001724
#
#
# Mechanical properties :
#
#
# Convention : Reuss Voigt Hill
#
# Bulk Modulus (GPa) = 25.45470 57.30071 41.37771
# Shear Modulus (GPa) = 18.42479 135.95165 77.18822
#
# Velocity S-wave (km/s) = 2.91861 7.92808 5.97380
# Velocity P-wave (km/s) = 4.80897 10.50227 8.16774
#
# Compressibility (1/GPa) = 0.03928547
#
# Stress axis : x y z
#
# Youngs Moduli (GPa) = 14.39864 67.78280 41.99710
#
# Poissons Ratio (x) = 1.43800 0.39675
# Poissons Ratio (y) = 0.30546 0.15552
# Poissons Ratio (z) = 0.13602 0.25101
#
# Static dielectric constant tensor:
#      x y z
#    x 1.742810 0.000000 -0.018040 
#    y 0.000000 1.749120 0.000000 
#    z -0.018040 0.000000 1.827040 
# 
# From -- ./inp_files/18299.got.cif
#   From: 2010.05.17/outbox.cif.g08.bks.cpg/sg9_10_cif.got.tgz:18299.got - 2010.06.03 20:04:27.
