data_PCOD9136589
_publ_section_title
;
Structure prediction by ZEFSAII (Michael W. Deem and Ramdas Pophale) SiO2 
 PCOD9136589
Probable space group: C C
;
_chemical_formula_sum "Si O2"
_cell_formula_units_Z 32
_cell_length_a 17.754044
_cell_length_b 8.109676
_cell_length_c 24.254821
_cell_angle_alpha 90.000000
_cell_angle_beta 20.108491
_cell_angle_gamma 90.000000
_cell_volume 1200.613721
_symmetry_space_group_name_H-M "C C"
_symmetry_group_IT_number 9
_symmetry_cell_setting 'monoclinic'
loop_
_space_group_symop_operation_xyz
x,y,z
x,-y,1/2+z
1/2+x,1/2+y,z
1/2+x,1/2-y,1/2+z
loop_
_atom_site_type_symbol
_atom_site_label
_atom_site_fract_x
_atom_site_fract_y
_atom_site_fract_z
Si Si1 0.810470 0.760025 0.035390
Si Si2 0.851280 0.731820 0.721194
Si Si3 0.090507 0.059090 0.517961
Si Si4 0.241224 0.764552 0.814280
Si Si5 0.946833 0.240332 0.924548
Si Si6 0.615612 0.059426 0.461233
Si Si7 0.678339 0.566631 0.682138
Si Si8 0.474440 0.042967 0.830299
O O1 0.681353 0.600770 0.147225
O O2 0.662791 0.910206 0.157729
O O3 0.881420 0.705441 0.925658
O O4 0.034149 0.769192 0.916218
O O5 0.620484 0.689133 0.851469
O O6 0.788606 0.798234 0.824362
O O7 0.026371 0.594219 0.583527
O O8 0.942937 0.895600 0.626277
O O9 0.205592 0.082943 0.379854
O O10 0.940948 0.216275 0.637240
O O11 0.276168 0.041025 0.435437
O O12 0.227788 0.608993 0.865621
O O13 0.967605 0.105058 0.863166
O O14 0.036198 0.411470 0.835422
O O15 0.722547 0.289622 0.107358
O O16 0.394519 0.067598 0.574009
#
# Coordination Sequence:
#
# PCOD9136589 Si02
#       8
#     4   4   4   4   4   4   4   4
#     4  10  21  42  66  90 125 177 227 267 322 406
#     4   9  17  33  54  81 115 156 204 257 312 376
#     4  11  24  39  60  93 129 166 214 278 335 385
#     4  10  21  42  66  90 125 177 227 267 322 406
#     4   9  17  33  54  81 115 156 204 257 312 376
#     4   8  16  30  54  82 109 145 199 254 300 359
#     4   8  16  30  54  82 109 145 199 254 300 359
#     4  11  24  39  60  93 129 166 214 278 335 385
#
# _framework density 26.653037000000001
#
# number of rings (size 3 to 8) (size 9 to 14) (size 15 to 20)
#    0.000    2.500    0.000    3.750    0.000    6.000 
#    0.000    6.250    0.000    0.000    0.000    0.000 
#    0.000    0.000    0.000    0.000    0.000    0.000 
#
# Total GULP energy -89532.388082 kJ/mol
# GULP energy per Si atom -5595.774255 kJ/mol
# Density = 2.659237 g / cm^3
# Si number density = 26.653037 Si / 1000 Ang^3
#
#
#
# Elastic Constant Matrix: (Units=GPa)
#
#
# Indices 1 2 3 4 5 6 
#
# 1 52.5963 -1.9199 27.3300 -0.0028 -4.1849 -0.0016
# 2 -1.9199 73.2749 7.2007 -0.0061 -2.1977 -0.0080
# 3 27.3300 7.2007 111.8948 -0.0026 33.8390 -0.0131
# 4 -0.0028 -0.0061 -0.0026 35.9950 -0.0017 16.3890
# 5 -4.1849 -2.1977 33.8390 -0.0017 38.9871 0.0039
# 6 -0.0016 -0.0080 -0.0131 16.3890 0.0039 1.0824
#
#
#
# Elastic Compliance Matrix: (Units=1/GPa)
#
#
# Indices 1 2 3 4 5 6 
#
# 1 0.024938 0.001926 -0.009569 -0.000009 0.011091 0.000023
# 2 0.001926 0.014010 -0.002269 0.000005 0.002966 -0.000005
# 3 -0.009569 -0.002269 0.015958 0.000017 -0.015006 -0.000039
# 4 -0.000009 0.000005 0.000017 -0.004714 -0.000023 0.071369
# 5 0.011091 0.002966 -0.015006 -0.000023 0.040032 0.000054
# 6 0.000023 -0.000005 -0.000039 0.071369 0.000054 -0.156746
#
#
# Mechanical properties :
#
#
# Convention : Reuss Voigt Hill
#
# Bulk Modulus (GPa) = 28.50429 33.66527 31.08478
# Shear Modulus (GPa) = -142.83585 28.88993 -56.97296
#
# Velocity S-wave (km/s) = -7.32852 3.29588 -4.62841
# Velocity P-wave (km/s) = 7.80332 5.20981 4.10790
#
# Compressibility (1/GPa) = 0.03508244
#
# Stress axis : x y z
#
# Youngs Moduli (GPa) = 40.09985 71.37941 62.66346
#
# Poissons Ratio (x) = -0.13750 0.59963
# Poissons Ratio (y) = -0.07725 0.14218
# Poissons Ratio (z) = 0.38372 0.16196
#
# Static dielectric constant tensor:
#      x y z
#    x 2.026230 0.000000 0.022280 
#    y 0.000000 2.234030 0.000020 
#    z 0.022280 0.000020 2.045180 
# 
# From -- ./inp_files/36942.got.cif
#   From: 2010.05.17/outbox.cif.g08.bks.cpg/sg9_19_cif.got.tgz:36942.got - 2010.06.03 20:04:27.
