data_PCOD9136812
_publ_section_title
;
Structure prediction by ZEFSAII (Michael W. Deem and Ramdas Pophale) SiO2 
 PCOD9136812
Probable space group: C C
;
_chemical_formula_sum "Si O2"
_cell_formula_units_Z 28
_cell_length_a 17.337345
_cell_length_b 5.377269
_cell_length_c 19.776847
_cell_angle_alpha 90.000000
_cell_angle_beta 39.775037
_cell_angle_gamma 90.000000
_cell_volume 1179.583288
_symmetry_space_group_name_H-M "C C"
_symmetry_group_IT_number 9
_symmetry_cell_setting 'monoclinic'
loop_
_space_group_symop_operation_xyz
x,y,z
x,-y,1/2+z
1/2+x,1/2+y,z
1/2+x,1/2-y,1/2+z
loop_
_atom_site_type_symbol
_atom_site_label
_atom_site_fract_x
_atom_site_fract_y
_atom_site_fract_z
Si Si1 0.712750 0.341674 0.908730
Si Si2 0.973134 0.384648 0.524030
Si Si3 0.869591 0.685646 0.948900
Si Si4 0.152647 0.758874 0.356570
Si Si5 0.616311 0.520303 0.605620
Si Si6 0.010272 0.172741 0.817356
Si Si7 0.875174 0.070059 0.708816
O O1 0.723507 0.617978 0.872590
O O2 0.828552 0.193902 0.809105
O O3 0.599128 0.265118 0.938683
O O4 0.671655 0.295678 0.011855
O O5 0.029291 0.657014 0.475353
O O6 0.896783 0.318156 0.510349
O O7 0.907198 0.293044 0.635526
O O8 0.938915 0.436607 0.873767
O O9 0.726075 0.669225 0.038176
O O10 0.923474 0.933764 0.880782
O O11 0.100809 0.860591 0.320670
O O12 0.260706 0.577723 0.258299
O O13 0.583528 0.647411 0.698138
O O14 0.495847 0.425296 0.648709
#
# Coordination Sequence:
#
# PCOD9136812 Si02
#       7
#     4   4   4   4   4   4   4
#     4  10  21  44  66  99 141 185 246 294 359 434
#     4   9  21  41  68  99 139 185 244 293 365 419
#     4  11  25  47  73 106 146 187 241 300 359 445
#     4  10  22  42  72 101 140 191 249 303 348 446
#     4  11  26  44  70 106 146 193 234 305 375 430
#     4  11  26  49  73 105 146 190 242 303 363 426
#     4  10  23  43  70 104 142 191 242 304 361 436
#
# _framework density 23.737195
#
# number of rings (size 3 to 8) (size 9 to 14) (size 15 to 20)
#    0.000    1.714    1.429    0.857    4.000    4.571 
#   10.286    0.000    0.000    0.000    0.000    0.000 
#    0.000    0.000    0.000    0.000    0.000    0.000 
#
# Total GULP energy -78058.224599 kJ/mol
# GULP energy per Si atom -5575.587471 kJ/mol
# Density = 2.368317 g / cm^3
# Si number density = 23.737195 Si / 1000 Ang^3
#
#
#
# Elastic Constant Matrix: (Units=GPa)
#
#
# Indices 1 2 3 4 5 6 
#
# 1 132.1779 38.9840 83.6549 0.0002 6.7496 0.0088
# 2 38.9840 73.4415 48.6016 -0.0029 6.1318 0.0256
# 3 83.6549 48.6016 169.7285 -0.0013 9.1507 -0.0009
# 4 0.0002 -0.0029 -0.0013 17.7916 -0.0003 -2.3046
# 5 6.7496 6.1318 9.1507 -0.0003 36.3098 0.0042
# 6 0.0088 0.0256 -0.0009 -2.3046 0.0042 24.7064
#
#
#
# Elastic Compliance Matrix: (Units=1/GPa)
#
#
# Indices 1 2 3 4 5 6 
#
# 1 0.011481 -0.002873 -0.004812 -0.000001 -0.000436 -0.000001
# 2 -0.002873 0.017617 -0.003545 0.000000 -0.001548 -0.000017
# 3 -0.004812 -0.003545 0.009325 0.000001 -0.000857 0.000006
# 4 -0.000001 0.000000 0.000001 0.056894 0.000000 0.005307
# 5 -0.000436 -0.001548 -0.000857 0.000000 0.028099 -0.000003
# 6 -0.000001 -0.000017 0.000006 0.005307 -0.000003 0.040970
#
#
# Mechanical properties :
#
#
# Convention : Reuss Voigt Hill
#
# Bulk Modulus (GPa) = 62.65095 79.75877 71.20486
# Shear Modulus (GPa) = 26.01897 29.36872 27.69385
#
# Velocity S-wave (km/s) = 3.31437 3.52126 3.41938
# Velocity P-wave (km/s) = 6.41074 7.08563 6.75662
#
# Compressibility (1/GPa) = 0.01596145
#
# Stress axis : x y z
#
# Youngs Moduli (GPa) = 87.10029 56.76476 107.23873
#
# Poissons Ratio (x) = 0.16309 0.51608
# Poissons Ratio (y) = 0.25025 0.38016
# Poissons Ratio (z) = 0.41917 0.20123
#
# Static dielectric constant tensor:
#      x y z
#    x 1.932310 0.000000 -0.001390 
#    y 0.000000 2.444000 0.000020 
#    z -0.001390 0.000020 1.864540 
# 
# From -- ./inp_files/33941.got.cif
#   From: 2010.05.17/outbox.cif.g08.bks.cpg/sg9_17_cif.got.tgz:33941.got - 2010.06.03 20:04:27.
