data_PCOD9136854
_publ_section_title
;
Structure prediction by ZEFSAII (Michael W. Deem and Ramdas Pophale) SiO2 
 PCOD9136854
Probable space group: C C
;
_chemical_formula_sum "Si O2"
_cell_formula_units_Z 32
_cell_length_a 12.796670
_cell_length_b 9.583314
_cell_length_c 24.752822
_cell_angle_alpha 90.000000
_cell_angle_beta 25.236315
_cell_angle_gamma 90.000000
_cell_volume 1294.214989
_symmetry_space_group_name_H-M "C C"
_symmetry_group_IT_number 9
_symmetry_cell_setting 'monoclinic'
loop_
_space_group_symop_operation_xyz
x,y,z
x,-y,1/2+z
1/2+x,1/2+y,z
1/2+x,1/2-y,1/2+z
loop_
_atom_site_type_symbol
_atom_site_label
_atom_site_fract_x
_atom_site_fract_y
_atom_site_fract_z
Si Si1 0.996340 0.386394 0.841410
Si Si2 0.391295 0.435365 0.734342
Si Si3 0.419805 0.783095 0.382651
Si Si4 0.023664 0.624206 0.500839
Si Si5 0.808922 0.342019 0.617913
Si Si6 0.136882 0.214932 0.593191
Si Si7 0.439887 0.379398 0.985503
Si Si8 0.953293 0.457830 0.740117
O O1 0.927698 0.549651 0.886678
O O2 0.252311 0.353978 0.751926
O O3 0.011078 0.385153 0.770518
O O4 0.798165 0.290946 0.964177
O O5 0.206596 0.444342 0.871061
O O6 0.633656 0.373824 0.647948
O O7 0.457671 0.584070 0.678907
O O8 0.176997 0.732758 0.464279
O O9 0.644382 0.732715 0.239715
O O10 0.428562 0.697855 0.433830
O O11 0.912701 0.493197 0.585294
O O12 0.819257 0.694261 0.558792
O O13 0.002269 0.234154 0.502440
O O14 0.986931 0.352169 0.675125
O O15 0.662673 0.492099 0.879429
O O16 0.172219 0.434548 0.127602
#
# Coordination Sequence:
#
# PCOD9136854 Si02
#       8
#     4   4   4   4   4   4   4   4
#     4  11  24  44  74 104 141 198 246 309 378 449
#     4   9  19  40  69 102 134 187 247 298 370 446
#     4  11  23  42  75 101 147 199 241 305 385 447
#     4   9  20  38  69 105 140 181 246 303 362 448
#     4  10  21  44  71 102 143 191 249 308 371 454
#     4  10  22  42  68 103 142 183 249 302 365 449
#     4  12  28  48  70 104 154 194 248 314 380 445
#     4  12  29  46  70 109 151 191 248 317 375 440
#
# _framework density 24.725414000000001
#
# number of rings (size 3 to 8) (size 9 to 14) (size 15 to 20)
#    0.000    1.500    1.250    3.750    5.250    3.000 
#    6.750    0.000    0.000    0.000    0.000    0.000 
#    0.000    0.000    0.000    0.000    0.000    0.000 
#
# Total GULP energy -89554.745971 kJ/mol
# GULP energy per Si atom -5597.171623 kJ/mol
# Density = 2.466914 g / cm^3
# Si number density = 24.725414 Si / 1000 Ang^3
#
#
#
# Elastic Constant Matrix: (Units=GPa)
#
#
# Indices 1 2 3 4 5 6 
#
# 1 119.8895 12.9708 38.8928 -0.0012 5.9438 -0.0001
# 2 12.9708 52.8276 40.3775 -0.0006 4.4760 0.0000
# 3 38.8928 40.3775 94.0388 -0.0096 4.7713 -0.0014
# 4 -0.0012 -0.0006 -0.0096 40.1364 -0.0011 15.0176
# 5 5.9438 4.4760 4.7713 -0.0011 43.4280 0.0008
# 6 -0.0001 0.0000 -0.0014 15.0176 0.0008 25.2481
#
#
#
# Elastic Compliance Matrix: (Units=1/GPa)
#
#
# Indices 1 2 3 4 5 6 
#
# 1 0.009709 0.001085 -0.004433 -0.000001 -0.000954 0.000000
# 2 0.001085 0.028407 -0.012560 -0.000003 -0.001696 0.000001
# 3 -0.004433 -0.012560 0.017863 0.000005 -0.000061 -0.000002
# 4 -0.000001 -0.000003 0.000005 0.032047 0.000001 -0.019062
# 5 -0.000954 -0.001696 -0.000061 0.000001 0.023339 -0.000001
# 6 0.000000 0.000001 -0.000002 -0.019062 -0.000001 0.050945
#
#
# Mechanical properties :
#
#
# Convention : Reuss Voigt Hill
#
# Bulk Modulus (GPa) = 41.38437 50.13756 45.76096
# Shear Modulus (GPa) = 24.73053 33.39682 29.06368
#
# Velocity S-wave (km/s) = 3.16604 3.67919 3.43221
# Velocity P-wave (km/s) = 5.48990 6.19438 5.85275
#
# Compressibility (1/GPa) = 0.02416371
#
# Stress axis : x y z
#
# Youngs Moduli (GPa) = 102.99739 35.20320 55.98089
#
# Poissons Ratio (x) = -0.03820 0.24817
# Poissons Ratio (y) = -0.11178 0.70310
# Poissons Ratio (z) = 0.45659 0.44214
#
# Static dielectric constant tensor:
#      x y z
#    x 1.951080 0.000000 -0.080290 
#    y 0.000000 2.015810 0.000000 
#    z -0.080290 0.000000 1.972190 
# 
# From -- ./inp_files/35389.got.cif
#   From: 2010.05.17/outbox.cif.g08.bks.cpg/sg9_18_cif.got.tgz:35389.got - 2010.06.03 20:04:27.
