data_PCOD9136750
_publ_section_title
;
Structure prediction by ZEFSAII (Michael W. Deem and Ramdas Pophale) SiO2 
 PCOD9136750
Probable space group: C C
;
_chemical_formula_sum "Si O2"
_cell_formula_units_Z 28
_cell_length_a 6.996776
_cell_length_b 14.343131
_cell_length_c 11.935757
_cell_angle_alpha 90.000000
_cell_angle_beta 112.147129
_cell_angle_gamma 90.000000
_cell_volume 1109.444343
_symmetry_space_group_name_H-M "C C"
_symmetry_group_IT_number 9
_symmetry_cell_setting 'monoclinic'
loop_
_space_group_symop_operation_xyz
x,y,z
x,-y,1/2+z
1/2+x,1/2+y,z
1/2+x,1/2-y,1/2+z
loop_
_atom_site_type_symbol
_atom_site_label
_atom_site_fract_x
_atom_site_fract_y
_atom_site_fract_z
Si Si1 0.484670 0.542695 0.498630
Si Si2 0.591411 0.996734 0.304099
Si Si3 0.582351 0.793123 0.279780
Si Si4 0.276153 0.048896 0.921312
Si Si5 0.856086 0.835171 0.557963
Si Si6 0.102244 0.166307 0.721672
Si Si7 0.960383 0.655156 0.134839
O O1 0.294659 0.555420 0.373162
O O2 0.695423 0.534815 0.476752
O O3 0.433123 0.439752 0.540599
O O4 0.514000 0.628881 0.586014
O O5 0.443471 0.061299 0.200777
O O6 0.630678 0.899160 0.251124
O O7 0.479440 0.975659 0.397475
O O8 0.745360 0.785981 0.422386
O O9 0.534524 0.721501 0.166352
O O10 0.345322 0.807059 0.273664
O O11 0.096367 0.076085 0.796965
O O12 0.293685 0.141752 0.001393
O O13 0.671582 0.844452 0.608434
O O14 0.972519 0.257268 0.718713
#
# Coordination Sequence:
#
# PCOD9136750 Si02
#       7
#     4   4   4   4   4   4   4
#     4  11  24  43  70  98 135 180 228 280 345 419
#     4  10  23  43  70  97 134 180 228 282 343 409
#     4   9  19  43  68  97 141 179 230 286 346 414
#     4  11  22  45  64  96 136 171 232 280 342 412
#     4  10  21  43  70 101 138 185 232 281 356 412
#     4  10  23  40  66 102 129 179 225 279 349 402
#     4  11  22  43  68  91 141 172 223 288 339 408
#
# _framework density 25.237860999999999
#
# number of rings (size 3 to 8) (size 9 to 14) (size 15 to 20)
#    0.000    1.714    4.286    1.714    4.000    1.143 
#    7.714    4.286    0.000    0.000    0.000    0.000 
#    0.000    0.000    0.000    0.000    0.000    0.000 
#
# Total GULP energy -78059.910406 kJ/mol
# GULP energy per Si atom -5575.707886 kJ/mol
# Density = 2.518042 g / cm^3
# Si number density = 25.237861 Si / 1000 Ang^3
#
#
#
# Elastic Constant Matrix: (Units=GPa)
#
#
# Indices 1 2 3 4 5 6 
#
# 1 73.1441 -8.9533 -0.3758 0.0000 24.8876 0.0000
# 2 -8.9533 51.1304 24.2361 0.0000 -0.7366 0.0000
# 3 -0.3758 24.2361 102.9565 0.0000 20.1650 0.0000
# 4 0.0000 0.0000 0.0000 47.7679 0.0000 -5.4844
# 5 24.8876 -0.7366 20.1650 0.0000 18.0483 0.0000
# 6 0.0000 0.0000 0.0000 -5.4844 0.0000 9.1887
#
#
#
# Elastic Compliance Matrix: (Units=1/GPa)
#
#
# Indices 1 2 3 4 5 6 
#
# 1 0.034562 -0.000673 0.012320 0.000000 -0.061451 0.000000
# 2 -0.000673 0.023112 -0.007437 0.000000 0.010181 0.000000
# 3 0.012320 -0.007437 0.019068 0.000000 -0.038597 0.000000
# 4 0.000000 0.000000 0.000000 0.022475 0.000000 0.013414
# 5 -0.061451 0.010181 -0.038597 0.000000 0.183684 0.000000
# 6 0.000000 0.000000 0.000000 0.013414 0.000000 0.116835
#
#
# Mechanical properties :
#
#
# Convention : Reuss Voigt Hill
#
# Bulk Modulus (GPa) = 11.74235 28.56053 20.15144
# Shear Modulus (GPa) = 11.91320 29.15593 20.53456
#
# Velocity S-wave (km/s) = 2.17500 3.40258 2.85553
# Velocity P-wave (km/s) = 3.31214 5.17473 4.34443
#
# Compressibility (1/GPa) = 0.08516185
#
# Stress axis : x y z
#
# Youngs Moduli (GPa) = 28.93389 43.26788 52.44348
#
# Poissons Ratio (x) = 0.02913 -0.64613
# Poissons Ratio (y) = 0.01948 0.39002
# Poissons Ratio (z) = -0.35648 0.32179
#
# Static dielectric constant tensor:
#      x y z
#    x 2.064470 0.000000 -0.026230 
#    y 0.000000 1.955910 0.000000 
#    z -0.026230 0.000000 2.047820 
# 
# From -- ./inp_files/14376.got.cif
#   From: 2010.05.17/outbox.cif.g08.bks.cpg/sg9_8_cif.got.tgz:14376.got - 2010.06.03 20:04:27.
