data_PCOD9136968
_publ_section_title
;
Structure prediction by ZEFSAII (Michael W. Deem and Ramdas Pophale) SiO2 
 PCOD9136968
Probable space group: C C
;
_chemical_formula_sum "Si O2"
_cell_formula_units_Z 28
_cell_length_a 4.677664
_cell_length_b 24.009243
_cell_length_c 8.643952
_cell_angle_alpha 90.000000
_cell_angle_beta 93.038579
_cell_angle_gamma 90.000000
_cell_volume 969.412954
_symmetry_space_group_name_H-M "C C"
_symmetry_group_IT_number 9
_symmetry_cell_setting 'monoclinic'
loop_
_space_group_symop_operation_xyz
x,y,z
x,-y,1/2+z
1/2+x,1/2+y,z
1/2+x,1/2-y,1/2+z
loop_
_atom_site_type_symbol
_atom_site_label
_atom_site_fract_x
_atom_site_fract_y
_atom_site_fract_z
Si Si1 0.008320 0.713746 0.765600
Si Si2 0.945904 0.948062 0.074276
Si Si3 0.894168 0.608588 0.817531
Si Si4 0.162142 0.214092 0.468699
Si Si5 0.436962 0.972016 0.585197
Si Si6 0.120693 0.888172 0.788332
Si Si7 0.559005 0.692919 0.026317
O O1 0.876501 0.765775 0.877548
O O2 0.158702 0.758608 0.645675
O O3 0.116250 0.647947 0.734760
O O4 0.718699 0.705948 0.645854
O O5 0.145903 0.918963 0.209187
O O6 0.144574 0.999175 0.024850
O O7 0.661461 0.978765 0.124992
O O8 0.918792 0.912254 0.917263
O O9 0.026037 0.566072 0.943506
O O10 0.779508 0.661439 0.920126
O O11 0.280332 0.161300 0.382823
O O12 0.291736 0.277450 0.429182
O O13 0.337348 0.933549 0.724694
O O14 0.969104 0.858262 0.637697
#
# Coordination Sequence:
#
# PCOD9136968 Si02
#       7
#     4   4   4   4   4   4   4
#     4   9  19  40  68 104 148 193 247 305 390 477
#     4  12  26  51  79 109 150 208 272 324 391 457
#     4  11  23  46  74 104 156 204 258 323 402 456
#     4   9  18  41  69 106 153 196 251 306 395 478
#     4  11  29  48  75 113 152 201 274 331 378 455
#     4  10  21  47  74 107 157 199 251 327 397 453
#     4   8  20  41  69 105 148 189 245 314 387 478
#
# _framework density 28.883458999999998
#
# number of rings (size 3 to 8) (size 9 to 14) (size 15 to 20)
#    0.857    1.143    1.429    0.857    0.000    8.000 
#    7.714    8.571    0.000    0.000    0.000    0.000 
#    0.000    0.000    0.000    0.000    0.000    0.000 
#
# Total GULP energy -78070.283802 kJ/mol
# GULP energy per Si atom -5576.448843 kJ/mol
# Density = 2.881772 g / cm^3
# Si number density = 28.883459 Si / 1000 Ang^3
#
#
#
# Elastic Constant Matrix: (Units=GPa)
#
#
# Indices 1 2 3 4 5 6 
#
# 1 111.2089 59.9127 33.1786 0.0000 7.3903 0.0000
# 2 59.9127 119.0464 31.3437 0.0000 1.4462 0.0000
# 3 33.1786 31.3437 133.9066 0.0000 7.7238 0.0000
# 4 0.0000 0.0000 0.0000 64.4589 0.0000 7.9061
# 5 7.3903 1.4462 7.7238 0.0000 29.7960 0.0000
# 6 0.0000 0.0000 0.0000 7.9061 0.0000 54.7535
#
#
#
# Elastic Compliance Matrix: (Units=1/GPa)
#
#
# Indices 1 2 3 4 5 6 
#
# 1 0.012893 -0.006027 -0.001641 0.000000 -0.002480 0.000000
# 2 -0.006027 0.011769 -0.001335 0.000000 0.001270 0.000000
# 3 -0.001641 -0.001335 0.008284 0.000000 -0.001676 0.000000
# 4 0.000000 0.000000 0.000000 0.015793 0.000000 -0.002280
# 5 -0.002480 0.001270 -0.001676 0.000000 0.034549 0.000000
# 6 0.000000 0.000000 0.000000 -0.002280 0.000000 0.018593
#
#
# Mechanical properties :
#
#
# Convention : Reuss Voigt Hill
#
# Bulk Modulus (GPa) = 66.92884 68.11466 67.52175
# Shear Modulus (GPa) = 40.04264 45.78348 42.91306
#
# Velocity S-wave (km/s) = 3.72741 3.98566 3.85870
# Velocity P-wave (km/s) = 6.46120 6.69436 6.57882
#
# Compressibility (1/GPa) = 0.01494124
#
# Stress axis : x y z
#
# Youngs Moduli (GPa) = 77.55997 84.96795 120.72129
#
# Poissons Ratio (x) = 0.51207 0.19809
# Poissons Ratio (y) = 0.46743 0.16114
# Poissons Ratio (z) = 0.12727 0.11342
#
# Static dielectric constant tensor:
#      x y z
#    x 2.473620 0.000000 -0.267340 
#    y 0.000000 2.578230 0.000000 
#    z -0.267340 0.000000 2.493020 
# 
# From -- ./inp_files/6199.got.cif
#   From: 2010.05.17/outbox.cif.g08.bks.cpg/sg9_4_cif.got.tgz:6199.got - 2010.06.03 20:04:27.
