data_PCOD9136410
_publ_section_title
;
Structure prediction by ZEFSAII (Michael W. Deem and Ramdas Pophale) SiO2 
 PCOD9136410
Probable space group: C C
;
_chemical_formula_sum "Si O2"
_cell_formula_units_Z 32
_cell_length_a 11.024763
_cell_length_b 25.565150
_cell_length_c 5.258591
_cell_angle_alpha 90.000000
_cell_angle_beta 97.062387
_cell_angle_gamma 90.000000
_cell_volume 1470.887261
_symmetry_space_group_name_H-M "C C"
_symmetry_group_IT_number 9
_symmetry_cell_setting 'monoclinic'
loop_
_space_group_symop_operation_xyz
x,y,z
x,-y,1/2+z
1/2+x,1/2+y,z
1/2+x,1/2-y,1/2+z
loop_
_atom_site_type_symbol
_atom_site_label
_atom_site_fract_x
_atom_site_fract_y
_atom_site_fract_z
Si Si1 0.861080 0.184814 0.067890
Si Si2 0.538489 0.113251 0.465135
Si Si3 0.778324 0.962544 0.073503
Si Si4 0.644797 0.520955 0.047463
Si Si5 0.005332 0.890141 0.293782
Si Si6 0.920459 0.482098 0.114045
Si Si7 0.470817 0.281666 0.099160
Si Si8 0.579969 0.826671 0.470016
O O1 0.876918 0.209329 0.346358
O O2 0.724491 0.166853 0.997960
O O3 0.945558 0.134606 0.033683
O O4 0.902190 0.223655 0.851191
O O5 0.660455 0.076779 0.531113
O O6 0.426326 0.075344 0.503141
O O7 0.531650 0.136067 0.181770
O O8 0.536577 0.157886 0.678674
O O9 0.898652 0.925364 0.138748
O O10 0.777628 0.001255 0.319643
O O11 0.590813 0.517734 0.316554
O O12 0.785456 0.504936 0.120862
O O13 0.619934 0.575645 0.906485
O O14 0.037353 0.838000 0.144320
O O15 0.981654 0.483831 0.406433
O O16 0.550372 0.232371 0.044671
#
# Coordination Sequence:
#
# PCOD9136410 Si02
#       8
#     4   4   4   4   4   4   4   4
#     4  10  22  42  66  93 133 162 220 280 327 384
#     4  12  23  40  66  96 134 171 223 271 334 394
#     4  12  24  36  63  99 127 167 216 273 341 391
#     4  10  22  38  62  86 127 172 212 259 326 389
#     4  10  23  40  64  94 129 166 214 280 329 395
#     4  10  21  41  61  86 129 177 213 263 316 391
#     4  10  24  41  68  94 132 166 222 275 338 393
#     4  12  23  44  70  96 131 179 216 281 337 391
#
# _framework density 21.755578
#
# number of rings (size 3 to 8) (size 9 to 14) (size 15 to 20)
#    0.750    0.500    1.250    5.250    3.500    0.000 
#    0.000    7.500    0.000    0.000    0.000    0.000 
#    0.000    0.000    0.000    0.000    0.000    0.000 
#
# Total GULP energy -89222.250599 kJ/mol
# GULP energy per Si atom -5576.390662 kJ/mol
# Density = 2.170606 g / cm^3
# Si number density = 21.755578 Si / 1000 Ang^3
#
#
#
# Elastic Constant Matrix: (Units=GPa)
#
#
# Indices 1 2 3 4 5 6 
#
# 1 45.0656 15.9494 -9.7045 0.0000 1.0179 0.0000
# 2 15.9494 92.4459 9.8285 0.0000 -1.7471 0.0000
# 3 -9.7045 9.8285 90.0545 0.0000 -12.8409 0.0000
# 4 0.0000 0.0000 0.0000 34.3099 0.0000 -9.5044
# 5 1.0179 -1.7471 -12.8409 0.0000 22.6243 0.0000
# 6 0.0000 0.0000 0.0000 -9.5044 0.0000 29.6326
#
#
#
# Elastic Compliance Matrix: (Units=1/GPa)
#
#
# Indices 1 2 3 4 5 6 
#
# 1 0.024480 -0.004555 0.003186 0.000000 0.000355 0.000000
# 2 -0.004555 0.011793 -0.001761 0.000000 0.000116 0.000000
# 3 0.003186 -0.001761 0.012622 0.000000 0.006884 0.000000
# 4 0.000000 0.000000 0.000000 0.031988 0.000000 0.010260
# 5 0.000355 0.000116 0.006884 0.000000 0.048101 0.000000
# 6 0.000000 0.000000 0.000000 0.010260 0.000000 0.037037
#
#
# Mechanical properties :
#
#
# Convention : Reuss Voigt Hill
#
# Bulk Modulus (GPa) = 23.45649 28.85701 26.15675
# Shear Modulus (GPa) = 26.81059 31.41285 29.11172
#
# Velocity S-wave (km/s) = 3.51430 3.80399 3.66201
# Velocity P-wave (km/s) = 5.22229 5.70848 5.47079
#
# Compressibility (1/GPa) = 0.04263212
#
# Stress axis : x y z
#
# Youngs Moduli (GPa) = 40.84941 84.79937 79.22944
#
# Poissons Ratio (x) = 0.38630 -0.25241
# Poissons Ratio (y) = 0.18609 0.13956
# Poissons Ratio (z) = -0.13014 0.14937
#
# Static dielectric constant tensor:
#      x y z
#    x 1.836730 0.000000 -0.012350 
#    y 0.000000 1.751300 0.000000 
#    z -0.012350 0.000000 1.893550 
# 
# From -- ./inp_files/2065.got.cif
#   From: 2010.05.17/outbox.cif.g08.bks.cpg/sg9_2_cif.got.tgz:2065.got - 2010.06.03 20:04:27.
