data_PCOD9136849
_publ_section_title
;
Structure prediction by ZEFSAII (Michael W. Deem and Ramdas Pophale) SiO2 
 PCOD9136849
Probable space group: C C
;
_chemical_formula_sum "Si O2"
_cell_formula_units_Z 28
_cell_length_a 10.980755
_cell_length_b 9.081310
_cell_length_c 22.500430
_cell_angle_alpha 90.000000
_cell_angle_beta 27.206214
_cell_angle_gamma 90.000000
_cell_volume 1025.822946
_symmetry_space_group_name_H-M "C C"
_symmetry_group_IT_number 9
_symmetry_cell_setting 'monoclinic'
loop_
_space_group_symop_operation_xyz
x,y,z
x,-y,1/2+z
1/2+x,1/2+y,z
1/2+x,1/2-y,1/2+z
loop_
_atom_site_type_symbol
_atom_site_label
_atom_site_fract_x
_atom_site_fract_y
_atom_site_fract_z
Si Si1 0.908550 0.389072 0.173820
Si Si2 0.664284 0.679612 0.908654
Si Si3 0.034131 0.321982 0.769871
Si Si4 0.628973 0.355945 0.729002
Si Si5 0.324632 0.416401 0.079007
Si Si6 0.319052 0.414179 0.279212
Si Si7 0.310932 0.107699 0.492488
O O1 0.796221 0.335996 0.286116
O O2 0.801746 0.270682 0.172906
O O3 0.789943 0.545666 0.205116
O O4 0.215754 0.406929 0.058342
O O5 0.413102 0.782451 0.000378
O O6 0.877698 0.757951 0.858674
O O7 0.579867 0.520032 0.966552
O O8 0.129606 0.476220 0.701908
O O9 0.859323 0.237117 0.796726
O O10 0.878296 0.322929 0.899900
O O11 0.480442 0.468453 0.749347
O O12 0.814513 0.244668 0.611714
O O13 0.016610 0.469954 0.406302
O O14 0.499062 0.416122 0.141314
#
# Coordination Sequence:
#
# PCOD9136849 Si02
#       7
#     4   4   4   4   4   4   4
#     4   9  21  42  64  91 129 173 225 268 337 409
#     4   9  19  40  67  90 137 177 216 285 338 406
#     4  10  22  43  69  95 134 187 218 284 349 401
#     4   9  21  42  63  97 134 176 223 278 350 402
#     4  11  21  41  64  97 131 168 231 279 331 410
#     4  10  21  46  71 100 141 180 230 287 340 420
#     4  10  21  44  70 102 138 181 231 283 347 410
#
# _framework density 27.295159000000002
#
# number of rings (size 3 to 8) (size 9 to 14) (size 15 to 20)
#    0.000    2.286    1.429    0.857    0.000    2.286 
#   25.714    0.000    0.000    0.000    0.000    0.000 
#    0.000    0.000    0.000    0.000    0.000    0.000 
#
# Total GULP energy -78426.961648 kJ/mol
# GULP energy per Si atom -5601.925832 kJ/mol
# Density = 2.723303 g / cm^3
# Si number density = 27.295159 Si / 1000 Ang^3
#
#
#
# Elastic Constant Matrix: (Units=GPa)
#
#
# Indices 1 2 3 4 5 6 
#
# 1 133.4945 50.8824 21.1972 -0.0011 -5.3070 0.0002
# 2 50.8824 113.2720 -9.9172 -0.0006 1.0330 0.0006
# 3 21.1972 -9.9172 85.6460 -0.0141 15.2566 0.0028
# 4 -0.0011 -0.0006 -0.0141 34.9357 0.0042 6.5998
# 5 -5.3070 1.0330 15.2566 0.0042 41.2509 -0.0004
# 6 0.0002 0.0006 0.0028 6.5998 -0.0004 61.1233
#
#
#
# Elastic Compliance Matrix: (Units=1/GPa)
#
#
# Indices 1 2 3 4 5 6 
#
# 1 0.009994 -0.004822 -0.003514 -0.000002 0.002706 0.000000
# 2 -0.004822 0.011261 0.002846 0.000002 -0.001955 0.000000
# 3 -0.003514 0.002846 0.013883 0.000006 -0.005658 -0.000001
# 4 -0.000002 0.000002 0.000006 0.029220 -0.000006 -0.003155
# 5 0.002706 -0.001955 -0.005658 -0.000006 0.026732 0.000001
# 6 0.000000 0.000000 -0.000001 -0.003155 0.000001 0.016701
#
#
# Mechanical properties :
#
#
# Convention : Reuss Voigt Hill
#
# Bulk Modulus (GPa) = 41.39384 50.74859 46.07122
# Shear Modulus (GPa) = 39.42449 45.47865 42.45157
#
# Velocity S-wave (km/s) = 3.80462 4.08632 3.94798
# Velocity P-wave (km/s) = 5.87353 6.39506 6.13984
#
# Compressibility (1/GPa) = 0.02415819
#
# Stress axis : x y z
#
# Youngs Moduli (GPa) = 100.05601 88.79982 72.03017
#
# Poissons Ratio (x) = 0.42818 0.25311
# Poissons Ratio (y) = 0.48246 -0.20497
# Poissons Ratio (z) = 0.35160 -0.25269
#
# Static dielectric constant tensor:
#      x y z
#    x 2.203010 0.000000 -0.153200 
#    y 0.000000 2.107170 0.000000 
#    z -0.153200 0.000000 2.303500 
# 
# From -- ./inp_files/35299.got.cif
#   From: 2010.05.17/outbox.cif.g08.bks.cpg/sg9_18_cif.got.tgz:35299.got - 2010.06.03 20:04:27.
