data_PCOD9136281
_publ_section_title
;
Structure prediction by ZEFSAII (Michael W. Deem and Ramdas Pophale) SiO2 
 PCOD9136281
Probable space group: C C
;
_chemical_formula_sum "Si O2"
_cell_formula_units_Z 32
_cell_length_a 11.900203
_cell_length_b 7.788252
_cell_length_c 23.462338
_cell_angle_alpha 90.000000
_cell_angle_beta 144.262035
_cell_angle_gamma 90.000000
_cell_volume 1270.098429
_symmetry_space_group_name_H-M "C C"
_symmetry_group_IT_number 9
_symmetry_cell_setting 'monoclinic'
loop_
_space_group_symop_operation_xyz
x,y,z
x,-y,1/2+z
1/2+x,1/2+y,z
1/2+x,1/2-y,1/2+z
loop_
_atom_site_type_symbol
_atom_site_label
_atom_site_fract_x
_atom_site_fract_y
_atom_site_fract_z
Si Si1 0.417230 0.396907 0.748250
Si Si2 0.301447 0.978322 0.147453
Si Si3 0.677621 0.978263 0.056653
Si Si4 0.208451 0.520718 0.947260
Si Si5 0.657062 0.186385 0.246241
Si Si6 0.926416 0.203199 0.467149
Si Si7 0.307683 0.785437 0.889385
Si Si8 0.758742 0.553697 0.253739
O O1 0.382901 0.205816 0.705643
O O2 0.330774 0.534398 0.669182
O O3 0.292462 0.398543 0.753848
O O4 0.645846 0.417269 0.848254
O O5 0.239195 0.085415 0.178534
O O6 0.463600 0.080838 0.179740
O O7 0.110096 0.922379 0.035686
O O8 0.760951 0.065301 0.033397
O O9 0.520619 0.113557 0.013798
O O10 0.535814 0.822499 0.983991
O O11 0.308334 0.341878 0.974816
O O12 0.273289 0.632732 0.919989
O O13 0.979383 0.510695 0.851828
O O14 0.783497 0.193259 0.355528
O O15 0.634552 0.384046 0.216867
O O16 0.246176 0.798353 0.796766
#
# Coordination Sequence:
#
# PCOD9136281 Si02
#       8
#     4   4   4   4   4   4   4   4
#     4  10  22  40  63  92 125 173 206 261 319 371
#     4  10  22  40  64  91 126 171 212 256 319 373
#     4  10  24  42  62  93 129 167 208 264 320 370
#     4  11  21  42  63  90 128 161 210 261 313 377
#     4  11  19  41  63  90 128 166 211 257 313 377
#     4  11  21  40  67  91 123 172 207 262 313 370
#     4  11  20  41  66  90 126 166 205 261 317 375
#     4  10  21  40  64  87 129 166 203 262 320 369
#
# _framework density 25.194898999999999
#
# number of rings (size 3 to 8) (size 9 to 14) (size 15 to 20)
#    0.000    1.500    6.250    0.000    1.750    3.000 
#    2.250   13.750    0.000    0.000    0.000    0.000 
#    0.000    0.000    0.000    0.000    0.000    0.000 
#
# Total GULP energy -89379.432738 kJ/mol
# GULP energy per Si atom -5586.214546 kJ/mol
# Density = 2.513755 g / cm^3
# Si number density = 25.194899 Si / 1000 Ang^3
#
#
#
# Elastic Constant Matrix: (Units=GPa)
#
#
# Indices 1 2 3 4 5 6 
#
# 1 128.3228 28.4759 -1.1876 0.0000 10.5853 0.0000
# 2 28.4759 61.9714 5.3360 0.0000 2.4102 0.0000
# 3 -1.1876 5.3360 74.5735 0.0000 16.2416 0.0000
# 4 0.0000 0.0000 0.0000 25.1222 0.0000 3.1614
# 5 10.5853 2.4102 16.2416 0.0000 39.3872 0.0000
# 6 0.0000 0.0000 0.0000 3.1614 0.0000 48.0861
#
#
#
# Elastic Compliance Matrix: (Units=1/GPa)
#
#
# Indices 1 2 3 4 5 6 
#
# 1 0.008919 -0.004084 0.000991 0.000000 -0.002556 0.000000
# 2 -0.004084 0.018118 -0.001493 0.000000 0.000605 0.000000
# 3 0.000991 -0.001493 0.014909 0.000000 -0.006323 0.000000
# 4 0.000000 0.000000 0.000000 0.040137 0.000000 -0.002639
# 5 -0.002556 0.000605 -0.006323 0.000000 0.028646 0.000000
# 6 0.000000 0.000000 0.000000 -0.002639 0.000000 0.020970
#
#
# Mechanical properties :
#
#
# Convention : Reuss Voigt Hill
#
# Bulk Modulus (GPa) = 30.51236 36.67959 33.59597
# Shear Modulus (GPa) = 32.93862 38.00199 35.47031
#
# Velocity S-wave (km/s) = 3.61966 3.88792 3.75619
# Velocity P-wave (km/s) = 5.44114 5.89445 5.67233
#
# Compressibility (1/GPa) = 0.03277361
#
# Stress axis : x y z
#
# Youngs Moduli (GPa) = 112.11796 55.19292 67.07227
#
# Poissons Ratio (x) = 0.22542 -0.06646
# Poissons Ratio (y) = 0.45792 0.10015
# Poissons Ratio (z) = -0.11110 0.08241
#
# Static dielectric constant tensor:
#      x y z
#    x 1.979200 0.000000 0.008280 
#    y 0.000000 2.194960 0.000000 
#    z 0.008280 0.000000 2.031690 
# 
# From -- ./inp_files/35313.got.cif
#   From: 2010.05.17/outbox.cif.g08.bks.cpg/sg9_18_cif.got.tgz:35313.got - 2010.06.03 20:04:27.
