data_PCOD9136101
_publ_section_title
;
Structure prediction by ZEFSAII (Michael W. Deem and Ramdas Pophale) SiO2 
 PCOD9136101
Probable space group: C C
;
_chemical_formula_sum "Si O2"
_cell_formula_units_Z 28
_cell_length_a 24.422120
_cell_length_b 7.303219
_cell_length_c 20.903100
_cell_angle_alpha 90.000000
_cell_angle_beta 15.994983
_cell_angle_gamma 90.000000
_cell_volume 1027.339097
_symmetry_space_group_name_H-M "C C"
_symmetry_group_IT_number 9
_symmetry_cell_setting 'monoclinic'
loop_
_space_group_symop_operation_xyz
x,y,z
x,-y,1/2+z
1/2+x,1/2+y,z
1/2+x,1/2-y,1/2+z
loop_
_atom_site_type_symbol
_atom_site_label
_atom_site_fract_x
_atom_site_fract_y
_atom_site_fract_z
Si Si1 0.844780 0.916713 0.856570
Si Si2 0.520252 0.500917 0.980489
Si Si3 0.640942 0.087599 0.960118
Si Si4 0.918697 0.569528 0.587491
Si Si5 0.602963 0.552103 0.750484
Si Si6 0.167260 0.484963 0.687671
Si Si7 0.278735 0.992437 0.423298
O O1 0.742171 0.999912 0.909414
O O2 0.873029 0.705611 0.805492
O O3 0.058858 0.994555 0.639356
O O4 0.694895 0.928121 0.086343
O O5 0.687170 0.516821 0.847288
O O6 0.628975 0.468453 0.791021
O O7 0.348875 0.357927 0.191013
O O8 0.432141 0.707267 0.068739
O O9 0.540970 0.984403 0.012099
O O10 0.429063 0.148235 0.229896
O O11 0.018345 0.475245 0.413282
O O12 0.619476 0.770937 0.730910
O O13 0.755861 0.496787 0.524920
O O14 0.384301 0.496785 0.974541
#
# Coordination Sequence:
#
# PCOD9136101 Si02
#       7
#     4   4   4   4   4   4   4
#     4  11  24  37  59  91 121 155 194 236 298 350
#     4  11  20  32  57  85 115 150 195 243 294 335
#     4  12  22  36  54  88 122 156 182 258 284 356
#     4  11  20  32  57  85 115 150 195 243 294 335
#     4  10  21  39  60  91 115 155 201 241 286 348
#     4  10  21  39  60  91 115 155 201 241 286 348
#     4  11  24  37  59  91 121 155 194 236 298 350
#
# _framework density 27.254878000000001
#
# number of rings (size 3 to 8) (size 9 to 14) (size 15 to 20)
#    0.000    1.143    4.286    4.286    4.000    0.000 
#    0.000    0.000    0.000    1.714    7.429    0.000 
#    0.000    0.000    0.000    0.000    0.000    0.000 
#
# Total GULP energy -78243.001724 kJ/mol
# GULP energy per Si atom -5588.785837 kJ/mol
# Density = 2.719284 g / cm^3
# Si number density = 27.254878 Si / 1000 Ang^3
#
#
#
# Elastic Constant Matrix: (Units=GPa)
#
#
# Indices 1 2 3 4 5 6 
#
# 1 184.3369 30.5631 72.3806 -0.0031 14.4489 0.0011
# 2 30.5631 91.1458 23.7655 -0.0022 -2.1095 0.0007
# 3 72.3806 23.7655 189.7942 -0.0042 5.4276 0.0018
# 4 -0.0031 -0.0022 -0.0042 -2.0684 0.0026 20.1508
# 5 14.4489 -2.1095 5.4276 0.0026 64.4327 -0.0008
# 6 0.0011 0.0007 0.0018 20.1508 -0.0008 16.3650
#
#
#
# Elastic Compliance Matrix: (Units=1/GPa)
#
#
# Indices 1 2 3 4 5 6 
#
# 1 0.006719 -0.001682 -0.002313 -0.000001 -0.001367 0.000000
# 2 -0.001682 0.011778 -0.000857 -0.000001 0.000835 0.000001
# 3 -0.002313 -0.000857 0.006259 -0.000001 -0.000037 0.000001
# 4 -0.000001 -0.000001 -0.000001 -0.037202 0.000002 0.045807
# 5 -0.001367 0.000835 -0.000037 0.000002 0.015857 -0.000002
# 6 0.000000 0.000001 0.000001 0.045807 -0.000002 0.004702
#
#
# Mechanical properties :
#
#
# Convention : Reuss Voigt Hill
#
# Bulk Modulus (GPa) = 66.43221 79.85503 73.14362
# Shear Modulus (GPa) = 218.96416 38.31705 128.64061
#
# Velocity S-wave (km/s) = 8.97295 3.75357 6.87761
# Velocity P-wave (km/s) = 11.47951 6.93893 9.48493
#
# Compressibility (1/GPa) = 0.01505294
#
# Stress axis : x y z
#
# Youngs Moduli (GPa) = 148.83418 84.90268 159.76356
#
# Poissons Ratio (x) = 0.14277 0.36948
# Poissons Ratio (y) = 0.25028 0.13698
# Poissons Ratio (z) = 0.34421 0.07280
#
# Static dielectric constant tensor:
#      x y z
#    x 2.064450 0.000000 0.073160 
#    y 0.000000 2.192580 0.000000 
#    z 0.073160 0.000000 2.175440 
# 
# From -- ./inp_files/31271.got.cif
#   From: 2010.05.17/outbox.cif.g08.bks.cpg/sg9_16_cif.got.tgz:31271.got - 2010.06.03 20:04:27.
