data_PCOD9136112
_publ_section_title
;
Structure prediction by ZEFSAII (Michael W. Deem and Ramdas Pophale) SiO2 
 PCOD9136112
Probable space group: C C
;
_chemical_formula_sum "Si O2"
_cell_formula_units_Z 32
_cell_length_a 5.765510
_cell_length_b 22.329032
_cell_length_c 11.159936
_cell_angle_alpha 90.000000
_cell_angle_beta 114.619147
_cell_angle_gamma 90.000000
_cell_volume 1306.109321
_symmetry_space_group_name_H-M "C C"
_symmetry_group_IT_number 9
_symmetry_cell_setting 'monoclinic'
loop_
_space_group_symop_operation_xyz
x,y,z
x,-y,1/2+z
1/2+x,1/2+y,z
1/2+x,1/2-y,1/2+z
loop_
_atom_site_type_symbol
_atom_site_label
_atom_site_fract_x
_atom_site_fract_y
_atom_site_fract_z
Si Si1 0.238100 0.696289 0.899890
Si Si2 0.225035 0.406940 0.006479
Si Si3 0.844558 0.078545 0.251168
Si Si4 0.420521 0.008134 0.594045
Si Si5 0.175683 0.966955 0.253506
Si Si6 0.050685 0.683556 0.110786
Si Si7 0.689907 0.777090 0.112948
Si Si8 0.621835 0.594489 0.984035
O O1 0.147164 0.712912 0.746514
O O2 0.360259 0.629725 0.922358
O O3 0.465854 0.739259 0.999282
O O4 0.040366 0.697174 0.966927
O O5 0.270968 0.416434 0.875357
O O6 0.462972 0.434002 0.128986
O O7 0.201524 0.338616 0.041961
O O8 0.984621 0.442167 0.011789
O O9 0.812277 0.147358 0.197479
O O10 0.632021 0.042671 0.129741
O O11 0.077702 0.032405 0.278377
O O12 0.432676 0.032026 0.731402
O O13 0.152445 0.972065 0.543229
O O14 0.211571 0.922216 0.371028
O O15 0.963003 0.743103 0.159533
O O16 0.821391 0.637700 0.092684
#
# Coordination Sequence:
#
# PCOD9136112 Si02
#       8
#     4   4   4   4   4   4   4   4
#     4  11  24  44  71  93 133 177 224 284 340 399
#     4  11  23  39  61  95 135 168 220 280 329 398
#     4  10  22  40  61  93 132 171 214 273 332 398
#     4  10  22  37  60  94 128 175 210 268 332 404
#     4  11  21  36  63  94 130 168 215 265 332 404
#     4  10  24  43  68  88 131 178 219 277 339 395
#     4  11  25  44  65 101 129 173 235 281 330 411
#     4  10  21  39  61  94 130 168 223 262 334 407
#
# _framework density 24.500243000000001
#
# number of rings (size 3 to 8) (size 9 to 14) (size 15 to 20)
#    0.000    1.500    1.250    3.000    1.750    6.000 
#    0.000    1.250    0.000    0.000    0.000    0.000 
#    0.000    0.000    0.000    0.000    0.000    0.000 
#
# Total GULP energy -89257.244879 kJ/mol
# GULP energy per Si atom -5578.577805 kJ/mol
# Density = 2.444448 g / cm^3
# Si number density = 24.500243 Si / 1000 Ang^3
#
#
#
# Elastic Constant Matrix: (Units=GPa)
#
#
# Indices 1 2 3 4 5 6 
#
# 1 43.9006 33.3622 19.1281 0.0000 -21.4861 0.0000
# 2 33.3622 137.3295 34.2883 0.0000 -2.4454 0.0000
# 3 19.1281 34.2883 123.7383 0.0000 -24.8418 0.0000
# 4 0.0000 0.0000 0.0000 34.6618 0.0000 -6.6703
# 5 -21.4861 -2.4454 -24.8418 0.0000 53.7390 0.0000
# 6 0.0000 0.0000 0.0000 -6.6703 0.0000 9.8265
#
#
#
# Elastic Compliance Matrix: (Units=1/GPa)
#
#
# Indices 1 2 3 4 5 6 
#
# 1 0.036168 -0.008421 -0.000475 0.000000 0.013858 0.000000
# 2 -0.008421 0.009808 -0.002207 0.000000 -0.003941 0.000000
# 3 -0.000475 -0.002207 0.009599 0.000000 0.004147 0.000000
# 4 0.000000 0.000000 0.000000 0.033185 0.000000 0.022527
# 5 0.013858 -0.003941 0.004147 0.000000 0.025887 0.000000
# 6 0.000000 0.000000 0.000000 0.022527 0.000000 0.117057
#
#
# Mechanical properties :
#
#
# Convention : Reuss Voigt Hill
#
# Bulk Modulus (GPa) = 29.96892 53.16952 41.56922
# Shear Modulus (GPa) = 18.86546 34.19144 26.52845
#
# Velocity S-wave (km/s) = 2.77792 3.73977 3.29414
# Velocity P-wave (km/s) = 4.74845 6.35583 5.61000
#
# Compressibility (1/GPa) = 0.03336791
#
# Stress axis : x y z
#
# Youngs Moduli (GPa) = 27.64895 101.95266 104.17444
#
# Poissons Ratio (x) = 0.85854 0.04953
# Poissons Ratio (y) = 0.23283 0.22995
# Poissons Ratio (z) = 0.01315 0.22505
#
# Static dielectric constant tensor:
#      x y z
#    x 2.044540 0.000000 0.024490 
#    y 0.000000 2.014330 0.000000 
#    z 0.024490 0.000000 2.105230 
# 
# From -- ./inp_files/13458.got.cif
#   From: 2010.05.17/outbox.cif.g08.bks.cpg/sg9_7_cif.got.tgz:13458.got - 2010.06.03 20:04:27.
