data_PCOD9136000
_publ_section_title
;
Structure prediction by ZEFSAII (Michael W. Deem and Ramdas Pophale) SiO2 
 PCOD9136000
Probable space group: C C
;
_chemical_formula_sum "Si O2"
_cell_formula_units_Z 24
_cell_length_a 13.016169
_cell_length_b 9.113648
_cell_length_c 9.077585
_cell_angle_alpha 90.000000
_cell_angle_beta 92.458824
_cell_angle_gamma 90.000000
_cell_volume 1075.835125
_symmetry_space_group_name_H-M "C C"
_symmetry_group_IT_number 9
_symmetry_cell_setting 'monoclinic'
loop_
_space_group_symop_operation_xyz
x,y,z
x,-y,1/2+z
1/2+x,1/2+y,z
1/2+x,1/2-y,1/2+z
loop_
_atom_site_type_symbol
_atom_site_label
_atom_site_fract_x
_atom_site_fract_y
_atom_site_fract_z
Si Si1 0.928760 0.868654 0.522130
Si Si2 0.536006 0.823498 0.521003
Si Si3 0.254005 0.909894 0.403046
Si Si4 0.859666 0.862824 0.845312
Si Si5 0.133074 0.956566 0.128174
Si Si6 0.965469 0.424857 0.840219
O O1 0.867397 0.848269 0.670445
O O2 0.956571 0.719233 0.440899
O O3 0.867192 0.972716 0.405022
O O4 0.031482 0.952927 0.583194
O O5 0.455222 0.720314 0.429262
O O6 0.625279 0.709473 0.567452
O O7 0.490385 0.880759 0.674116
O O8 0.549069 0.963240 0.415895
O O9 0.265411 0.735593 0.393827
O O10 0.154652 0.953991 0.302109
O O11 0.230650 0.965149 0.563006
O O12 0.356884 0.988426 0.349963
#
# Coordination Sequence:
#
# PCOD9136000 Si02
#       6
#     4   4   4   4   4   4
#     4  11  21  39  64  89 122 166 206 247 303 378
#     4  10  21  38  60  88 119 162 205 242 302 378
#     4  11  22  39  61  89 121 156 203 261 308 352
#     4  10  21  38  60  88 119 162 205 242 302 378
#     4  11  22  39  61  89 121 156 203 261 308 352
#     4  11  21  39  64  89 122 166 206 247 303 378
#
# _framework density 22.308252
#
# number of rings (size 3 to 8) (size 9 to 14) (size 15 to 20)
#    0.000    1.333    0.000   10.000    0.000    0.000 
#    0.000    8.333    0.000    0.000    0.000    0.000 
#    0.000    0.000    0.000    0.000    0.000    0.000 
#
# Total GULP energy -67049.805943 kJ/mol
# GULP energy per Si atom -5587.483829 kJ/mol
# Density = 2.225748 g / cm^3
# Si number density = 22.308252 Si / 1000 Ang^3
#
#
#
# Elastic Constant Matrix: (Units=GPa)
#
#
# Indices 1 2 3 4 5 6 
#
# 1 30.9535 4.0003 -12.7428 0.0000 1.8524 0.0000
# 2 4.0003 121.9549 16.6665 0.0000 2.9842 0.0000
# 3 -12.7428 16.6665 66.5753 0.0000 1.8089 0.0000
# 4 0.0000 0.0000 0.0000 37.3834 0.0000 -3.8084
# 5 1.8524 2.9842 1.8089 0.0000 31.7196 0.0000
# 6 0.0000 0.0000 0.0000 -3.8084 0.0000 33.1418
#
#
#
# Elastic Compliance Matrix: (Units=1/GPa)
#
#
# Indices 1 2 3 4 5 6 
#
# 1 0.035787 -0.002135 0.007447 0.000000 -0.002314 0.000000
# 2 -0.002135 0.008632 -0.002555 0.000000 -0.000542 0.000000
# 3 0.007447 -0.002555 0.017117 0.000000 -0.001171 0.000000
# 4 0.000000 0.000000 0.000000 0.027067 0.000000 0.003110
# 5 -0.002314 -0.000542 -0.001171 0.000000 0.031779 0.000000
# 6 0.000000 0.000000 0.000000 0.003110 0.000000 0.030531
#
#
# Mechanical properties :
#
#
# Convention : Reuss Voigt Hill
#
# Bulk Modulus (GPa) = 14.91411 26.14798 20.53105
# Shear Modulus (GPa) = 29.80651 34.55295 32.17973
#
# Velocity S-wave (km/s) = 3.65926 3.93986 3.80215
# Velocity P-wave (km/s) = 4.95516 5.69590 5.33839
#
# Compressibility (1/GPa) = 0.06705060
#
# Stress axis : x y z
#
# Youngs Moduli (GPa) = 27.94338 115.84538 58.42010
#
# Poissons Ratio (x) = 0.24733 -0.43506
# Poissons Ratio (y) = 0.05966 0.14926
# Poissons Ratio (z) = -0.20810 0.29598
#
# Static dielectric constant tensor:
#      x y z
#    x 1.859740 0.000000 0.025230 
#    y 0.000000 1.831250 0.000000 
#    z 0.025230 0.000000 1.768130 
# 
# From -- ./inp_files/6720.got.cif
#   From: 2010.05.17/outbox.cif.g08.bks.cpg/sg9_4_cif.got.tgz:6720.got - 2010.06.03 20:04:27.
