data_PCOD9136674
_publ_section_title
;
Structure prediction by ZEFSAII (Michael W. Deem and Ramdas Pophale) SiO2 
 PCOD9136674
Probable space group: C C
;
_chemical_formula_sum "Si O2"
_cell_formula_units_Z 32
_cell_length_a 5.051794
_cell_length_b 18.856028
_cell_length_c 11.937820
_cell_angle_alpha 90.000000
_cell_angle_beta 86.832902
_cell_angle_gamma 90.000000
_cell_volume 1135.421331
_symmetry_space_group_name_H-M "C C"
_symmetry_group_IT_number 9
_symmetry_cell_setting 'monoclinic'
loop_
_space_group_symop_operation_xyz
x,y,z
x,-y,1/2+z
1/2+x,1/2+y,z
1/2+x,1/2-y,1/2+z
loop_
_atom_site_type_symbol
_atom_site_label
_atom_site_fract_x
_atom_site_fract_y
_atom_site_fract_z
Si Si1 0.542210 0.835870 0.412420
Si Si2 0.171039 0.349505 0.927551
Si Si3 0.070449 0.823827 0.279411
Si Si4 0.305961 0.301903 0.629443
Si Si5 0.678692 0.947525 0.563958
Si Si6 0.895362 0.587660 0.613324
Si Si7 0.686590 0.649604 0.287679
Si Si8 0.034457 0.030776 0.421251
O O1 0.250194 0.812031 0.385648
O O2 0.712299 0.795889 0.503919
O O3 0.504824 0.913841 0.468194
O O4 0.759313 0.835424 0.307167
O O5 0.945169 0.327459 0.847736
O O6 0.448975 0.322364 0.874507
O O7 0.240397 0.433930 0.916833
O O8 0.073824 0.347269 0.058008
O O9 0.159343 0.762276 0.192820
O O10 0.212632 0.892625 0.221485
O O11 0.603277 0.315578 0.671522
O O12 0.698164 0.883215 0.651623
O O13 0.574293 0.018057 0.624823
O O14 0.951435 0.959416 0.487542
O O15 0.697471 0.571167 0.514667
O O16 0.662721 0.563327 0.304233
#
# Coordination Sequence:
#
# PCOD9136674 Si02
#       8
#     4   4   4   4   4   4   4   4
#     4  10  29  50  71 109 159 191 260 331 383 455
#     4   8  18  35  64 103 139 175 247 302 351 446
#     4  12  28  50  77 110 151 215 253 319 402 466
#     4  10  26  49  76 109 153 206 260 323 391 472
#     4   9  22  47  71 113 151 199 239 341 367 457
#     4  10  21  42  76 108 155 197 252 304 388 455
#     4   9  18  37  65 102 135 194 242 295 374 448
#     4   8  18  38  66 110 147 185 243 307 364 447
#
# _framework density 28.18337
#
# number of rings (size 3 to 8) (size 9 to 14) (size 15 to 20)
#    1.500    1.000    0.000    0.000    5.250    7.000 
#    4.500    0.000    0.000    0.000    0.000    0.000 
#    0.000    0.000    0.000    0.000    0.000    0.000 
#
# Total GULP energy -89142.650290 kJ/mol
# GULP energy per Si atom -5571.415643 kJ/mol
# Density = 2.811922 g / cm^3
# Si number density = 28.183370 Si / 1000 Ang^3
#
#
#
# Elastic Constant Matrix: (Units=GPa)
#
#
# Indices 1 2 3 4 5 6 
#
# 1 179.2900 11.4536 37.5511 0.0000 -0.6766 0.0000
# 2 11.4536 92.2672 10.1141 0.0000 -3.8626 0.0000
# 3 37.5511 10.1141 87.5988 0.0000 7.6566 0.0000
# 4 0.0000 0.0000 0.0000 46.5396 0.0000 -5.4167
# 5 -0.6766 -3.8626 7.6566 0.0000 38.1692 0.0000
# 6 0.0000 0.0000 0.0000 -5.4167 0.0000 20.6326
#
#
#
# Elastic Compliance Matrix: (Units=1/GPa)
#
#
# Indices 1 2 3 4 5 6 
#
# 1 0.006162 -0.000451 -0.002641 0.000000 0.000593 0.000000
# 2 -0.000451 0.011083 -0.001205 0.000000 0.001355 0.000000
# 3 -0.002641 -0.001205 0.012928 0.000000 -0.002762 0.000000
# 4 0.000000 0.000000 0.000000 0.022164 0.000000 0.005819
# 5 0.000593 0.001355 -0.002762 0.000000 0.026901 0.000000
# 6 0.000000 0.000000 0.000000 0.005819 0.000000 0.049994
#
#
# Mechanical properties :
#
#
# Convention : Reuss Voigt Hill
#
# Bulk Modulus (GPa) = 46.33993 53.04372 49.69183
# Shear Modulus (GPa) = 34.47817 41.07078 37.77448
#
# Velocity S-wave (km/s) = 3.50144 3.82156 3.66500
# Velocity P-wave (km/s) = 5.72929 6.19146 5.96486
#
# Compressibility (1/GPa) = 0.02157966
#
# Stress axis : x y z
#
# Youngs Moduli (GPa) = 162.29127 90.22966 77.34883
#
# Poissons Ratio (x) = 0.04065 0.20430
# Poissons Ratio (y) = 0.07312 0.09320
# Poissons Ratio (z) = 0.42865 0.10872
#
# Static dielectric constant tensor:
#      x y z
#    x 2.249410 0.000000 -0.065000 
#    y 0.000000 2.421040 0.000000 
#    z -0.065000 0.000000 2.283170 
# 
# From -- ./inp_files/13743.got.cif
#   From: 2010.05.17/outbox.cif.g08.bks.cpg/sg9_7_cif.got.tgz:13743.got - 2010.06.03 20:04:27.
