data_PCOD9136889
_publ_section_title
;
Structure prediction by ZEFSAII (Michael W. Deem and Ramdas Pophale) SiO2 
 PCOD9136889
Probable space group: C C
;
_chemical_formula_sum "Si O2"
_cell_formula_units_Z 32
_cell_length_a 12.110241
_cell_length_b 8.064311
_cell_length_c 28.696368
_cell_angle_alpha 90.000000
_cell_angle_beta 27.522284
_cell_angle_gamma 90.000000
_cell_volume 1295.021282
_symmetry_space_group_name_H-M "C C"
_symmetry_group_IT_number 9
_symmetry_cell_setting 'monoclinic'
loop_
_space_group_symop_operation_xyz
x,y,z
x,-y,1/2+z
1/2+x,1/2+y,z
1/2+x,1/2-y,1/2+z
loop_
_atom_site_type_symbol
_atom_site_label
_atom_site_fract_x
_atom_site_fract_y
_atom_site_fract_z
Si Si1 0.956660 0.234163 0.631190
Si Si2 0.036297 0.850266 0.965895
Si Si3 0.575955 0.931686 0.225924
Si Si4 0.437766 0.082266 0.451798
Si Si5 0.573399 0.256159 0.857998
Si Si6 0.035677 0.269473 0.814716
Si Si7 0.673547 0.711615 0.936091
Si Si8 0.025543 0.426183 0.140452
O O1 0.772034 0.236784 0.743751
O O2 0.152643 0.091800 0.559972
O O3 0.072782 0.416324 0.589514
O O4 0.805331 0.189538 0.642462
O O5 0.111606 0.889859 0.883773
O O6 0.255609 0.739954 0.904665
O O7 0.057785 0.029268 0.984061
O O8 0.757485 0.806581 0.059122
O O9 0.599690 0.076198 0.256099
O O10 0.369508 0.814042 0.322480
O O11 0.529721 0.992869 0.191790
O O12 0.514679 0.186881 0.377120
O O13 0.502738 0.154932 0.477720
O O14 0.558412 0.909695 0.394455
O O15 0.320340 0.267864 0.926068
O O16 0.264187 0.146818 0.725475
#
# Coordination Sequence:
#
# PCOD9136889 Si02
#       8
#     4   4   4   4   4   4   4   4
#     4  11  24  41  71 102 134 189 238 289 354 424
#     4  11  24  46  69 105 142 187 237 294 359 424
#     4  10  22  43  69  98 142 184 233 289 357 421
#     4  12  22  43  72  98 140 181 239 289 356 423
#     4  11  26  45  67 100 143 182 235 299 356 418
#     4  11  24  45  74 104 142 188 236 301 360 425
#     4  10  21  45  67  94 138 185 225 291 354 408
#     4  12  25  44  73 105 145 188 241 292 360 429
#
# _framework density 24.710018000000002
#
# number of rings (size 3 to 8) (size 9 to 14) (size 15 to 20)
#    0.000    1.000    6.250    2.250    1.750    2.000 
#    2.250    0.000    0.000    0.000    0.000    0.000 
#    0.000    0.000    0.000    0.000    0.000    0.000 
#
# Total GULP energy -89203.384559 kJ/mol
# GULP energy per Si atom -5575.211535 kJ/mol
# Density = 2.465378 g / cm^3
# Si number density = 24.710018 Si / 1000 Ang^3
#
#
#
# Elastic Constant Matrix: (Units=GPa)
#
#
# Indices 1 2 3 4 5 6 
#
# 1 137.2717 34.2943 6.2373 -0.0070 -10.8181 -0.0013
# 2 34.2943 40.2681 18.3851 0.0076 -10.6494 -0.0126
# 3 6.2373 18.3851 84.5912 0.0826 -29.8585 -0.0069
# 4 -0.0070 0.0076 0.0826 36.3585 0.0099 -0.0124
# 5 -10.8181 -10.6494 -29.8585 0.0099 45.4606 -0.0097
# 6 -0.0013 -0.0126 -0.0069 -0.0124 -0.0097 33.5322
#
#
#
# Elastic Compliance Matrix: (Units=1/GPa)
#
#
# Indices 1 2 3 4 5 6 
#
# 1 0.009414 -0.008397 0.001598 0.000000 0.001323 -0.000002
# 2 -0.008397 0.035442 -0.006325 0.000005 0.002150 0.000012
# 3 0.001598 -0.006325 0.016519 -0.000039 0.009749 0.000004
# 4 0.000000 0.000005 -0.000039 0.027504 -0.000030 0.000010
# 5 0.001323 0.002150 0.009749 -0.000030 0.029218 0.000011
# 6 -0.000002 0.000012 0.000004 0.000010 0.000011 0.029822
#
#
# Mechanical properties :
#
#
# Convention : Reuss Voigt Hill
#
# Bulk Modulus (GPa) = 28.46872 42.21827 35.34350
# Shear Modulus (GPa) = 26.89941 36.61787 31.75864
#
# Velocity S-wave (km/s) = 3.30298 3.85373 3.58893
# Velocity P-wave (km/s) = 5.10807 6.07653 5.61322
#
# Compressibility (1/GPa) = 0.03512627
#
# Stress axis : x y z
#
# Youngs Moduli (GPa) = 106.22053 28.21544 60.53475
#
# Poissons Ratio (x) = 0.23694 -0.09672
# Poissons Ratio (y) = 0.89199 0.38287
# Poissons Ratio (z) = -0.16972 0.17846
#
# Static dielectric constant tensor:
#      x y z
#    x 1.944100 0.000000 -0.023880 
#    y 0.000000 2.037320 0.000050 
#    z -0.023880 0.000050 2.115610 
# 
# From -- ./inp_files/37303.got.cif
#   From: 2010.05.17/outbox.cif.g08.bks.cpg/sg9_19_cif.got.tgz:37303.got - 2010.06.03 20:04:27.
