data_PCOD9136468
_publ_section_title
;
Structure prediction by ZEFSAII (Michael W. Deem and Ramdas Pophale) SiO2 
 PCOD9136468
Probable space group: C C
;
_chemical_formula_sum "Si O2"
_cell_formula_units_Z 28
_cell_length_a 8.539957
_cell_length_b 27.298325
_cell_length_c 4.860910
_cell_angle_alpha 90.000000
_cell_angle_beta 80.642922
_cell_angle_gamma 90.000000
_cell_volume 1118.128856
_symmetry_space_group_name_H-M "C C"
_symmetry_group_IT_number 9
_symmetry_cell_setting 'monoclinic'
loop_
_space_group_symop_operation_xyz
x,y,z
x,-y,1/2+z
1/2+x,1/2+y,z
1/2+x,1/2-y,1/2+z
loop_
_atom_site_type_symbol
_atom_site_label
_atom_site_fract_x
_atom_site_fract_y
_atom_site_fract_z
Si Si1 0.759390 0.470362 0.167950
Si Si2 0.662116 0.661500 0.288688
Si Si3 0.125803 0.535821 0.617125
Si Si4 0.938902 0.692368 0.544277
Si Si5 0.024393 0.888895 0.328978
Si Si6 0.942193 0.760024 0.023353
Si Si7 0.744756 0.140142 0.666310
O O1 0.753090 0.520437 0.345024
O O2 0.608259 0.440731 0.320893
O O3 0.937041 0.450584 0.172955
O O4 0.550834 0.625919 0.502804
O O5 0.605471 0.716997 0.358277
O O6 0.829394 0.657105 0.390510
O O7 0.629675 0.645893 0.990275
O O8 0.156076 0.492925 0.390096
O O9 0.227721 0.584916 0.546439
O O10 0.068366 0.660197 0.665820
O O11 0.869634 0.724011 0.816549
O O12 0.981867 0.732513 0.295947
O O13 0.839501 0.875387 0.421591
O O14 0.832783 0.807901 0.077421
#
# Coordination Sequence:
#
# PCOD9136468 Si02
#       7
#     4   4   4   4   4   4   4
#     4  10  21  41  66  94 129 172 220 277 336 406
#     4  11  23  41  61  88 126 169 215 268 327 405
#     4  10  24  43  68 101 138 179 230 280 339 410
#     4  12  24  42  68  95 130 179 231 281 341 411
#     4  11  24  41  63  94 130 171 220 270 338 404
#     4  11  24  42  64  98 132 175 228 284 341 409
#     4  11  26  44  70 102 141 183 228 292 348 395
#
# _framework density 25.041840000000001
#
# number of rings (size 3 to 8) (size 9 to 14) (size 15 to 20)
#    0.000    1.143    0.000    6.000    0.000   10.286 
#    0.000    0.000    0.000    0.000    0.000    0.000 
#    0.000    0.000    0.000    0.000    0.000    0.000 
#
# Total GULP energy -77997.996561 kJ/mol
# GULP energy per Si atom -5571.285469 kJ/mol
# Density = 2.498484 g / cm^3
# Si number density = 25.041840 Si / 1000 Ang^3
#
#
#
# Elastic Constant Matrix: (Units=GPa)
#
#
# Indices 1 2 3 4 5 6 
#
# 1 116.6782 48.8057 27.0596 0.0000 36.7550 0.0000
# 2 48.8057 117.4357 22.6398 0.0000 7.5302 0.0000
# 3 27.0596 22.6398 88.5439 0.0000 11.0653 0.0000
# 4 0.0000 0.0000 0.0000 28.3850 0.0000 -0.0446
# 5 36.7550 7.5302 11.0653 0.0000 24.8781 0.0000
# 6 0.0000 0.0000 0.0000 -0.0446 0.0000 47.3604
#
#
#
# Elastic Compliance Matrix: (Units=1/GPa)
#
#
# Indices 1 2 3 4 5 6 
#
# 1 0.020078 -0.006386 -0.001099 0.000000 -0.027241 0.000000
# 2 -0.006386 0.011064 -0.001734 0.000000 0.006857 0.000000
# 3 -0.001099 -0.001734 0.012499 0.000000 -0.003411 0.000000
# 4 0.000000 0.000000 0.000000 0.035230 0.000000 0.000033
# 5 -0.027241 0.006857 -0.003411 0.000000 0.079884 0.000000
# 6 0.000000 0.000000 0.000000 0.000033 0.000000 0.021115
#
#
# Mechanical properties :
#
#
# Convention : Reuss Voigt Hill
#
# Bulk Modulus (GPa) = 39.67702 57.74091 48.70896
# Shear Modulus (GPa) = 24.18863 35.06822 29.62842
#
# Velocity S-wave (km/s) = 3.11131 3.74623 3.44344
# Velocity P-wave (km/s) = 5.36523 6.46685 5.94163
#
# Compressibility (1/GPa) = 0.02520351
#
# Stress axis : x y z
#
# Youngs Moduli (GPa) = 49.80607 90.38466 80.00406
#
# Poissons Ratio (x) = 0.57717 0.08791
# Poissons Ratio (y) = 0.31804 0.13875
# Poissons Ratio (z) = 0.05473 0.15675
#
# Static dielectric constant tensor:
#      x y z
#    x 2.286090 0.000000 -0.125340 
#    y 0.000000 1.971530 0.000000 
#    z -0.125340 0.000000 1.957880 
# 
# From -- ./inp_files/1054.got.cif
#   From: 2010.05.17/outbox.cif.g08.bks.cpg/sg9_1_cif.got.tgz:1054.got - 2010.06.03 20:04:27.
