data_PCOD9136152
_publ_section_title
;
Structure prediction by ZEFSAII (Michael W. Deem and Ramdas Pophale) SiO2 
 PCOD9136152
Probable space group: C C
;
_chemical_formula_sum "Si O2"
_cell_formula_units_Z 32
_cell_length_a 9.400730
_cell_length_b 11.588371
_cell_length_c 14.370126
_cell_angle_alpha 90.000000
_cell_angle_beta 47.445511
_cell_angle_gamma 90.000000
_cell_volume 1153.178685
_symmetry_space_group_name_H-M "C C"
_symmetry_group_IT_number 9
_symmetry_cell_setting 'monoclinic'
loop_
_space_group_symop_operation_xyz
x,y,z
x,-y,1/2+z
1/2+x,1/2+y,z
1/2+x,1/2-y,1/2+z
loop_
_atom_site_type_symbol
_atom_site_label
_atom_site_fract_x
_atom_site_fract_y
_atom_site_fract_z
Si Si1 0.959830 0.021267 0.558770
Si Si2 0.998323 0.020087 0.742461
Si Si3 0.921088 0.384157 0.708857
Si Si4 0.980213 0.228856 0.861223
Si Si5 0.359754 0.747630 0.112753
Si Si6 0.470405 0.025631 0.529522
Si Si7 0.406787 0.944251 0.365151
Si Si8 0.470374 0.676880 0.378360
O O1 0.923228 0.068494 0.678441
O O2 0.888272 0.889075 0.594642
O O3 0.189512 0.994820 0.456285
O O4 0.903144 0.110244 0.502828
O O5 0.928369 0.894677 0.802671
O O6 0.935117 0.098140 0.856076
O O7 0.232650 0.025223 0.638600
O O8 0.976271 0.296675 0.765568
O O9 0.017280 0.410522 0.567137
O O10 0.972077 0.506688 0.737435
O O11 0.702564 0.343668 0.785143
O O12 0.213895 0.228545 0.763159
O O13 0.845378 0.267979 0.004663
O O14 0.522269 0.848947 0.049350
O O15 0.517491 0.007782 0.400945
O O16 0.415753 0.809937 0.387325
#
# Coordination Sequence:
#
# PCOD9136152 Si02
#       8
#     4   4   4   4   4   4   4   4
#     4  10  22  40  62  93 131 179 214 279 342 391
#     4   9  20  39  61  87 125 171 211 260 339 406
#     4  10  22  40  62  93 131 179 214 279 342 391
#     4  11  23  43  66  94 131 173 220 270 337 408
#     4  11  23  43  66  94 131 173 220 270 337 408
#     4   9  20  39  61  87 125 171 211 260 339 406
#     4  10  21  39  64  91 130 170 228 270 337 408
#     4  10  21  39  64  91 130 170 228 270 337 408
#
# _framework density 27.749385
#
# number of rings (size 3 to 8) (size 9 to 14) (size 15 to 20)
#    0.000    2.000    2.500    0.000    7.000    0.000 
#    4.500    2.500    0.000    0.000    0.000    0.000 
#    0.000    0.000    0.000    0.000    0.000    0.000 
#
# Total GULP energy -89179.101841 kJ/mol
# GULP energy per Si atom -5573.693865 kJ/mol
# Density = 2.768623 g / cm^3
# Si number density = 27.749385 Si / 1000 Ang^3
#
#
#
# Elastic Constant Matrix: (Units=GPa)
#
#
# Indices 1 2 3 4 5 6 
#
# 1 70.7682 21.8868 38.3858 0.0000 7.1370 0.0000
# 2 21.8868 132.4398 -9.4608 0.0000 9.5105 0.0000
# 3 38.3858 -9.4608 86.9909 0.0000 -11.2497 0.0000
# 4 0.0000 0.0000 0.0000 38.4716 0.0000 15.2676
# 5 7.1370 9.5105 -11.2497 0.0000 44.3949 0.0000
# 6 0.0000 0.0000 0.0000 15.2676 0.0000 43.8305
#
#
#
# Elastic Compliance Matrix: (Units=1/GPa)
#
#
# Indices 1 2 3 4 5 6 
#
# 1 0.021700 -0.003966 -0.010699 0.000000 -0.005350 0.000000
# 2 -0.003966 0.008428 0.002601 0.000000 -0.000509 0.000000
# 3 -0.010699 0.002601 0.017214 0.000000 0.005525 0.000000
# 4 0.000000 0.000000 0.000000 0.030163 0.000000 -0.010507
# 5 -0.005350 -0.000509 0.005525 0.000000 0.024894 0.000000
# 6 0.000000 0.000000 0.000000 -0.010507 0.000000 0.026475
#
#
# Mechanical properties :
#
#
# Convention : Reuss Voigt Hill
#
# Bulk Modulus (GPa) = 43.07669 43.53583 43.30626
# Shear Modulus (GPa) = 31.10623 41.29854 36.20239
#
# Velocity S-wave (km/s) = 3.35172 3.86199 3.61587
# Velocity P-wave (km/s) = 5.52593 5.96738 5.75089
#
# Compressibility (1/GPa) = 0.02321441
#
# Stress axis : x y z
#
# Youngs Moduli (GPa) = 46.08323 118.64680 58.09346
#
# Poissons Ratio (x) = 0.47057 0.62151
# Poissons Ratio (y) = 0.18277 -0.15110
# Poissons Ratio (z) = 0.49302 -0.30859
#
# Static dielectric constant tensor:
#      x y z
#    x 2.391700 0.000000 -0.099980 
#    y 0.000000 2.213710 0.000000 
#    z -0.099980 0.000000 2.154780 
# 
# From -- ./inp_files/16468.got.cif
#   From: 2010.05.17/outbox.cif.g08.bks.cpg/sg9_9_cif.got.tgz:16468.got - 2010.06.03 20:04:27.
