data_PCOD9136646
_publ_section_title
;
Structure prediction by ZEFSAII (Michael W. Deem and Ramdas Pophale) SiO2 
 PCOD9136646
Probable space group: C C
;
_chemical_formula_sum "Si O2"
_cell_formula_units_Z 28
_cell_length_a 9.683054
_cell_length_b 9.415323
_cell_length_c 15.263145
_cell_angle_alpha 90.000000
_cell_angle_beta 113.188562
_cell_angle_gamma 90.000000
_cell_volume 1279.110961
_symmetry_space_group_name_H-M "C C"
_symmetry_group_IT_number 9
_symmetry_cell_setting 'monoclinic'
loop_
_space_group_symop_operation_xyz
x,y,z
x,-y,1/2+z
1/2+x,1/2+y,z
1/2+x,1/2-y,1/2+z
loop_
_atom_site_type_symbol
_atom_site_label
_atom_site_fract_x
_atom_site_fract_y
_atom_site_fract_z
Si Si1 0.339120 0.415747 0.833770
Si Si2 0.239170 0.586101 0.642084
Si Si3 0.451704 0.531406 0.045014
Si Si4 0.744745 0.603273 0.192054
Si Si5 0.935522 0.637216 0.500653
Si Si6 0.635579 0.718049 0.353234
Si Si7 0.055218 0.540700 0.341771
O O1 0.305759 0.531930 0.750507
O O2 0.461345 0.313396 0.823372
O O3 0.176818 0.359591 0.824030
O O4 0.418286 0.465447 0.942855
O O5 0.328175 0.512516 0.585424
O O6 0.266937 0.754846 0.640032
O O7 0.058498 0.557865 0.592339
O O8 0.618811 0.500055 0.121965
O O9 0.451110 0.700077 0.032363
O O10 0.681040 0.668923 0.267293
O O11 0.902684 0.529634 0.249160
O O12 0.754291 0.629087 0.443444
O O13 0.004934 0.603586 0.422217
O O14 0.639339 0.888162 0.369424
#
# Coordination Sequence:
#
# PCOD9136646 Si02
#       7
#     4   4   4   4   4   4   4
#     4  12  23  40  67  96 132 172 227 276 329 395
#     4  11  21  41  72  96 130 179 222 278 332 403
#     4  11  22  44  68  97 133 178 225 275 333 404
#     4  10  23  41  69  94 135 176 215 276 345 389
#     4  10  21  42  70  93 135 175 217 274 344 388
#     4  11  22  42  67 100 131 177 220 274 338 405
#     4  11  22  44  65 102 134 171 222 279 329 406
#
# _framework density 21.890203
#
# number of rings (size 3 to 8) (size 9 to 14) (size 15 to 20)
#    0.000    1.143    5.714    0.857    0.000    2.286 
#    5.143    2.857    0.000    0.000    0.000    0.000 
#    0.000    0.000    0.000    0.000    0.000    0.000 
#
# Total GULP energy -78064.298998 kJ/mol
# GULP energy per Si atom -5576.021357 kJ/mol
# Density = 2.184038 g / cm^3
# Si number density = 21.890203 Si / 1000 Ang^3
#
#
#
# Elastic Constant Matrix: (Units=GPa)
#
#
# Indices 1 2 3 4 5 6 
#
# 1 140.5037 33.7086 45.2251 0.0000 19.5683 0.0000
# 2 33.7086 32.4206 20.7281 0.0000 -5.6028 0.0000
# 3 45.2251 20.7281 111.7767 0.0000 15.4453 0.0000
# 4 0.0000 0.0000 0.0000 22.1042 0.0000 4.4029
# 5 19.5683 -5.6028 15.4453 0.0000 48.9180 0.0000
# 6 0.0000 0.0000 0.0000 4.4029 0.0000 37.9550
#
#
#
# Elastic Compliance Matrix: (Units=1/GPa)
#
#
# Indices 1 2 3 4 5 6 
#
# 1 0.011114 -0.011397 -0.001661 0.000000 -0.005227 0.000000
# 2 -0.011397 0.048663 -0.006078 0.000000 0.012052 0.000000
# 3 -0.001661 -0.006078 0.011240 0.000000 -0.003581 0.000000
# 4 0.000000 0.000000 0.000000 0.046310 0.000000 -0.005372
# 5 -0.005227 0.012052 -0.003581 0.000000 0.025044 0.000000
# 6 0.000000 0.000000 0.000000 -0.005372 0.000000 0.026970
#
#
# Mechanical properties :
#
#
# Convention : Reuss Voigt Hill
#
# Bulk Modulus (GPa) = 30.53892 53.78051 42.15971
# Shear Modulus (GPa) = 22.88015 34.13137 28.50576
#
# Velocity S-wave (km/s) = 3.23650 3.95296 3.61254
# Velocity P-wave (km/s) = 5.28657 6.74212 6.05822
#
# Compressibility (1/GPa) = 0.03274510
#
# Stress axis : x y z
#
# Youngs Moduli (GPa) = 89.97551 20.54945 88.96438
#
# Poissons Ratio (x) = 0.23420 0.14778
# Poissons Ratio (y) = 1.02544 0.54075
# Poissons Ratio (z) = 0.14946 0.12491
#
# Static dielectric constant tensor:
#      x y z
#    x 1.834590 0.000000 0.062560 
#    y 0.000000 1.787710 0.000000 
#    z 0.062560 0.000000 1.868210 
# 
# From -- ./inp_files/22648.got.cif
#   From: 2010.05.17/outbox.cif.g08.bks.cpg/sg9_12_cif.got.tgz:22648.got - 2010.06.03 20:04:27.
