data_PCOD9136699
_publ_section_title
;
Structure prediction by ZEFSAII (Michael W. Deem and Ramdas Pophale) SiO2 
 PCOD9136699
Probable space group: C C
;
_chemical_formula_sum "Si O2"
_cell_formula_units_Z 28
_cell_length_a 19.428413
_cell_length_b 5.573828
_cell_length_c 14.583975
_cell_angle_alpha 90.000000
_cell_angle_beta 139.597059
_cell_angle_gamma 90.000000
_cell_volume 1023.642597
_symmetry_space_group_name_H-M "C C"
_symmetry_group_IT_number 9
_symmetry_cell_setting 'monoclinic'
loop_
_space_group_symop_operation_xyz
x,y,z
x,-y,1/2+z
1/2+x,1/2+y,z
1/2+x,1/2-y,1/2+z
loop_
_atom_site_type_symbol
_atom_site_label
_atom_site_fract_x
_atom_site_fract_y
_atom_site_fract_z
Si Si1 0.110760 0.144250 0.545090
Si Si2 0.101544 0.646409 0.637497
Si Si3 0.006879 0.246089 0.242385
Si Si4 0.853343 0.909174 0.349338
Si Si5 0.818959 0.025800 0.603408
Si Si6 0.827978 0.590310 0.858367
Si Si7 0.790644 0.517165 0.521894
O O1 0.080190 0.383797 0.570828
O O2 0.239422 0.118969 0.689267
O O3 0.067585 0.189306 0.398755
O O4 0.074571 0.888077 0.550722
O O5 0.231934 0.627600 0.761755
O O6 0.066469 0.693874 0.707972
O O7 0.918574 0.457246 0.168808
O O8 0.925111 0.018695 0.150546
O O9 0.854940 0.963392 0.244013
O O10 0.898223 0.645231 0.414049
O O11 0.887099 0.158987 0.426671
O O12 0.753440 0.270480 0.528699
O O13 0.756756 0.783561 0.514967
O O14 0.771178 0.543138 0.896782
#
# Coordination Sequence:
#
# PCOD9136699 Si02
#       7
#     4   4   4   4   4   4   4
#     4  10  24  44  67 101 140 185 234 288 351 426
#     4  10  24  44  67 101 140 185 234 288 351 426
#     4  10  26  44  72 100 148 182 234 292 372 420
#     4  10  21  43  64  99 134 180 230 289 339 417
#     4  10  23  41  66 100 136 179 233 288 353 421
#     4  10  21  43  64  99 134 180 230 289 339 417
#     4  10  23  41  66 100 136 179 233 288 353 421
#
# _framework density 27.353294999999999
#
# number of rings (size 3 to 8) (size 9 to 14) (size 15 to 20)
#    0.857    1.143    0.000    1.714    4.000    2.286 
#   30.857    0.000    0.000    0.000    0.000    0.000 
#    0.000    0.000    0.000    0.000    0.000    0.000 
#
# Total GULP energy -78152.301489 kJ/mol
# GULP energy per Si atom -5582.307249 kJ/mol
# Density = 2.729104 g / cm^3
# Si number density = 27.353295 Si / 1000 Ang^3
#
#
#
# Elastic Constant Matrix: (Units=GPa)
#
#
# Indices 1 2 3 4 5 6 
#
# 1 105.6243 55.4800 25.4428 0.0000 -9.8974 0.0000
# 2 55.4800 283.0169 69.3535 0.0001 -17.5108 0.0002
# 3 25.4428 69.3535 144.6672 0.0000 -22.8630 0.0000
# 4 0.0000 0.0001 0.0000 38.7518 0.0000 -6.4980
# 5 -9.8974 -17.5108 -22.8630 0.0000 39.9573 0.0000
# 6 0.0000 0.0002 0.0000 -6.4980 0.0000 47.7625
#
#
#
# Elastic Compliance Matrix: (Units=1/GPa)
#
#
# Indices 1 2 3 4 5 6 
#
# 1 0.010749 -0.001826 -0.000793 0.000000 0.001409 0.000000
# 2 -0.001826 0.004333 -0.001679 0.000000 0.000486 0.000000
# 3 -0.000793 -0.001679 0.008476 0.000000 0.003918 0.000000
# 4 0.000000 0.000000 0.000000 0.026408 0.000000 0.003593
# 5 0.001409 0.000486 0.003918 0.000000 0.027830 0.000000
# 6 0.000000 0.000000 0.000000 0.003593 0.000000 0.021426
#
#
# Mechanical properties :
#
#
# Convention : Reuss Voigt Hill
#
# Bulk Modulus (GPa) = 66.83168 92.65122 79.74145
# Shear Modulus (GPa) = 44.32433 50.82980 47.57706
#
# Velocity S-wave (km/s) = 4.02983 4.31544 4.17508
# Velocity P-wave (km/s) = 6.79254 7.66657 7.24275
#
# Compressibility (1/GPa) = 0.01496296
#
# Stress axis : x y z
#
# Youngs Moduli (GPa) = 93.02768 230.79541 117.98033
#
# Poissons Ratio (x) = 0.42140 0.09350
# Poissons Ratio (y) = 0.16985 0.19812
# Poissons Ratio (z) = 0.07373 0.38757
#
# Static dielectric constant tensor:
#      x y z
#    x 2.248450 0.000000 0.153970 
#    y 0.000000 2.212750 0.000000 
#    z 0.153970 0.000000 2.177990 
# 
# From -- ./inp_files/27846.got.cif
#   From: 2010.05.17/outbox.cif.g08.bks.cpg/sg9_14_cif.got.tgz:27846.got - 2010.06.03 20:04:27.
