data_PCOD9136867
_publ_section_title
;
Structure prediction by ZEFSAII (Michael W. Deem and Ramdas Pophale) SiO2 
 PCOD9136867
Probable space group: C C
;
_chemical_formula_sum "Si O2"
_cell_formula_units_Z 24
_cell_length_a 9.015302
_cell_length_b 12.442613
_cell_length_c 8.831427
_cell_angle_alpha 90.000000
_cell_angle_beta 65.628465
_cell_angle_gamma 90.000000
_cell_volume 902.377193
_symmetry_space_group_name_H-M "C C"
_symmetry_group_IT_number 9
_symmetry_cell_setting 'monoclinic'
loop_
_space_group_symop_operation_xyz
x,y,z
x,-y,1/2+z
1/2+x,1/2+y,z
1/2+x,1/2-y,1/2+z
loop_
_atom_site_type_symbol
_atom_site_label
_atom_site_fract_x
_atom_site_fract_y
_atom_site_fract_z
Si Si1 0.878210 0.613286 0.352540
Si Si2 0.424392 0.690288 0.329599
Si Si3 0.980977 0.956707 0.329957
Si Si4 0.968110 0.418955 0.161460
Si Si5 0.761805 0.039387 0.200166
Si Si6 0.065918 0.775821 0.081681
O O1 0.765449 0.854604 0.807896
O O2 0.738188 0.703344 0.426935
O O3 0.941881 0.583219 0.493048
O O4 0.016993 0.668953 0.190346
O O5 0.532702 0.580481 0.280783
O O6 0.430241 0.712889 0.506593
O O7 0.469408 0.799026 0.226321
O O8 0.918191 0.940276 0.524845
O O9 0.081594 0.865773 0.206389
O O10 0.814670 0.951015 0.300938
O O11 0.129542 0.477194 0.156623
O O12 0.833213 0.498851 0.294935
#
# Coordination Sequence:
#
# PCOD9136867 Si02
#       6
#     4   4   4   4   4   4
#     4  12  32  50  84 118 177 222 288 362 425 515
#     4  10  24  47  81 117 164 217 279 360 425 518
#     4  10  21  44  73 116 157 214 278 336 429 506
#     4  12  27  51  78 124 165 219 291 350 425 519
#     4  10  22  43  79 118 156 221 269 349 428 502
#     4  12  28  51  79 125 167 225 287 355 438 512
#
# _framework density 26.596418
#
# number of rings (size 3 to 8) (size 9 to 14) (size 15 to 20)
#    1.000    0.000    1.667    3.000    9.333    0.000 
#    3.000    0.000    0.000    0.000    0.000    0.000 
#    0.000    0.000    0.000    0.000    0.000    0.000 
#
# Total GULP energy -66919.712478 kJ/mol
# GULP energy per Si atom -5576.642707 kJ/mol
# Density = 2.653588 g / cm^3
# Si number density = 26.596418 Si / 1000 Ang^3
#
#
#
# Elastic Constant Matrix: (Units=GPa)
#
#
# Indices 1 2 3 4 5 6 
#
# 1 90.0593 36.4048 45.6335 0.0000 13.7193 0.0000
# 2 36.4048 203.8275 61.4421 0.0000 21.8963 0.0000
# 3 45.6335 61.4421 157.3436 0.0000 57.4981 0.0000
# 4 0.0000 0.0000 0.0000 58.1158 0.0000 0.6086
# 5 13.7193 21.8963 57.4981 0.0000 46.3293 0.0000
# 6 0.0000 0.0000 0.0000 0.6086 0.0000 25.9336
#
#
#
# Elastic Compliance Matrix: (Units=1/GPa)
#
#
# Indices 1 2 3 4 5 6 
#
# 1 0.013410 -0.001381 -0.003911 0.000000 0.001536 0.000000
# 2 -0.001381 0.005703 -0.001813 0.000000 -0.000036 0.000000
# 3 -0.003911 -0.001813 0.013654 0.000000 -0.014930 0.000000
# 4 0.000000 0.000000 0.000000 0.017211 0.000000 -0.000404
# 5 0.001536 -0.000036 -0.014930 0.000000 0.039676 0.000000
# 6 0.000000 0.000000 0.000000 -0.000404 0.000000 0.038570
#
#
# Mechanical properties :
#
#
# Convention : Reuss Voigt Hill
#
# Bulk Modulus (GPa) = 53.89100 82.02122 67.95611
# Shear Modulus (GPa) = 33.64265 46.59240 40.11753
#
# Velocity S-wave (km/s) = 3.56045 4.19003 3.88800
# Velocity P-wave (km/s) = 6.09991 7.36984 6.76474
#
# Compressibility (1/GPa) = 0.01855598
#
# Stress axis : x y z
#
# Youngs Moduli (GPa) = 74.57183 175.33756 73.23893
#
# Poissons Ratio (x) = 0.24216 0.28644
# Poissons Ratio (y) = 0.10299 0.13281
# Poissons Ratio (z) = 0.29165 0.31796
#
# Static dielectric constant tensor:
#      x y z
#    x 2.490720 0.000000 -0.156880 
#    y 0.000000 2.068020 0.000000 
#    z -0.156880 0.000000 2.097550 
# 
# From -- ./inp_files/8830.got.cif
#   From: 2010.05.17/outbox.cif.g08.bks.cpg/sg9_5_cif.got.tgz:8830.got - 2010.06.03 20:04:27.
