data_PCOD9136331
_publ_section_title
;
Structure prediction by ZEFSAII (Michael W. Deem and Ramdas Pophale) SiO2 
 PCOD9136331
Probable space group: C C
;
_chemical_formula_sum "Si O2"
_cell_formula_units_Z 28
_cell_length_a 14.143313
_cell_length_b 17.602851
_cell_length_c 7.464097
_cell_angle_alpha 90.000000
_cell_angle_beta 144.441941
_cell_angle_gamma 90.000000
_cell_volume 1080.641856
_symmetry_space_group_name_H-M "C C"
_symmetry_group_IT_number 9
_symmetry_cell_setting 'monoclinic'
loop_
_space_group_symop_operation_xyz
x,y,z
x,-y,1/2+z
1/2+x,1/2+y,z
1/2+x,1/2-y,1/2+z
loop_
_atom_site_type_symbol
_atom_site_label
_atom_site_fract_x
_atom_site_fract_y
_atom_site_fract_z
Si Si1 0.202740 0.228456 0.356910
Si Si2 0.668704 0.375638 0.337651
Si Si3 0.306181 0.382428 0.675977
Si Si4 0.217487 0.978371 0.758960
Si Si5 0.476531 0.117421 0.836015
Si Si6 0.164294 0.293498 0.915367
Si Si7 0.936387 0.893575 0.494162
O O1 0.247974 0.296043 0.556098
O O2 0.371557 0.184461 0.576027
O O3 0.128251 0.264635 0.061684
O O4 0.073698 0.170633 0.240096
O O5 0.726117 0.421873 0.602733
O O6 0.725114 0.430506 0.263036
O O7 0.711877 0.286829 0.395878
O O8 0.473047 0.378079 0.039426
O O9 0.146704 0.415145 0.521510
O O10 0.347185 0.413582 0.541125
O O11 0.039157 0.961045 0.567587
O O12 0.354081 0.951518 0.109652
O O13 0.527981 0.159973 0.098341
O O14 0.309785 0.353206 0.167845
#
# Coordination Sequence:
#
# PCOD9136331 Si02
#       7
#     4   4   4   4   4   4   4
#     4  10  21  40  67 109 142 173 229 298 343 410
#     4  12  24  46  70 101 137 191 232 289 355 423
#     4  11  22  40  71 104 138 185 227 290 352 419
#     4  11  26  50  67 101 145 188 233 291 359 424
#     4  11  23  43  70 107 144 178 234 297 348 417
#     4  11  22  41  73 107 132 182 237 291 344 414
#     4  10  22  44  70 105 144 177 232 294 351 419
#
# _framework density 25.910525
#
# number of rings (size 3 to 8) (size 9 to 14) (size 15 to 20)
#    0.000    1.143    4.286    3.429    0.000    0.000 
#    5.143    4.286    0.000    0.000    0.000    0.000 
#    0.000    0.000    0.000    0.000    0.000    0.000 
#
# Total GULP energy -78281.640185 kJ/mol
# GULP energy per Si atom -5591.545728 kJ/mol
# Density = 2.585155 g / cm^3
# Si number density = 25.910525 Si / 1000 Ang^3
#
#
#
# Elastic Constant Matrix: (Units=GPa)
#
#
# Indices 1 2 3 4 5 6 
#
# 1 78.7382 10.8849 48.8570 0.0000 -6.5711 0.0000
# 2 10.8849 120.9386 69.6402 0.0000 -15.4953 0.0000
# 3 48.8570 69.6402 185.5305 0.0000 -14.3202 0.0000
# 4 0.0000 0.0000 0.0000 19.1022 0.0000 -7.6654
# 5 -6.5711 -15.4953 -14.3202 0.0000 32.1818 0.0000
# 6 0.0000 0.0000 0.0000 -7.6654 0.0000 26.8924
#
#
#
# Elastic Compliance Matrix: (Units=1/GPa)
#
#
# Indices 1 2 3 4 5 6 
#
# 1 0.015419 0.001410 -0.004447 0.000000 0.001848 0.000000
# 2 0.001410 0.011057 -0.004234 0.000000 0.003728 0.000000
# 3 -0.004447 -0.004234 0.008205 0.000000 0.000704 0.000000
# 4 0.000000 0.000000 0.000000 0.059111 0.000000 0.016849
# 5 0.001848 0.003728 0.000704 0.000000 0.033559 0.000000
# 6 0.000000 0.000000 0.000000 0.016849 0.000000 0.041988
#
#
# Mechanical properties :
#
#
# Convention : Reuss Voigt Hill
#
# Bulk Modulus (GPa) = 49.65553 71.55236 60.60395
# Shear Modulus (GPa) = 26.23370 32.69030 29.46200
#
# Velocity S-wave (km/s) = 3.18539 3.55584 3.37570
# Velocity P-wave (km/s) = 5.72143 6.67336 6.21565
#
# Compressibility (1/GPa) = 0.02013874
#
# Stress axis : x y z
#
# Youngs Moduli (GPa) = 64.85521 90.43653 121.88311
#
# Poissons Ratio (x) = -0.12749 0.54200
# Poissons Ratio (y) = -0.09143 0.51605
# Poissons Ratio (z) = 0.28840 0.38291
#
# Static dielectric constant tensor:
#      x y z
#    x 2.128280 0.000000 -0.031310 
#    y 0.000000 2.037760 0.000000 
#    z -0.031310 0.000000 1.996640 
# 
# From -- ./inp_files/10096.got.cif
#   From: 2010.05.17/outbox.cif.g08.bks.cpg/sg9_6_cif.got.tgz:10096.got - 2010.06.03 20:04:27.
