data_PCOD9136573
_publ_section_title
;
Structure prediction by ZEFSAII (Michael W. Deem and Ramdas Pophale) SiO2 
 PCOD9136573
Probable space group: C C
;
_chemical_formula_sum "Si O2"
_cell_formula_units_Z 32
_cell_length_a 14.855785
_cell_length_b 12.237366
_cell_length_c 19.219979
_cell_angle_alpha 90.000000
_cell_angle_beta 22.735643
_cell_angle_gamma 90.000000
_cell_volume 1350.402828
_symmetry_space_group_name_H-M "C C"
_symmetry_group_IT_number 9
_symmetry_cell_setting 'monoclinic'
loop_
_space_group_symop_operation_xyz
x,y,z
x,-y,1/2+z
1/2+x,1/2+y,z
1/2+x,1/2-y,1/2+z
loop_
_atom_site_type_symbol
_atom_site_label
_atom_site_fract_x
_atom_site_fract_y
_atom_site_fract_z
Si Si1 0.586730 0.902725 0.293550
Si Si2 0.356448 0.061143 0.092237
Si Si3 0.361069 0.902107 0.869847
Si Si4 0.407831 0.185931 0.718170
Si Si5 0.831591 0.674579 0.620857
Si Si6 0.322425 0.689533 0.991592
Si Si7 0.622569 0.463637 0.906344
Si Si8 0.425666 0.675856 0.337968
O O1 0.546031 0.883594 0.405574
O O2 0.513877 0.787907 0.311391
O O3 0.416976 0.996378 0.381174
O O4 0.848150 0.943800 0.088901
O O5 0.273989 0.080406 0.231571
O O6 0.122875 0.089161 0.214785
O O7 0.461403 0.938568 0.019359
O O8 0.308900 0.794087 0.951552
O O9 0.595324 0.882149 0.657724
O O10 0.166938 0.911466 0.949839
O O11 0.384684 0.228371 0.656231
O O12 0.391386 0.285636 0.782990
O O13 0.668813 0.140968 0.545051
O O14 0.224834 0.086061 0.848047
O O15 0.565373 0.632273 0.804208
O O16 0.858413 0.760776 0.542219
#
# Coordination Sequence:
#
# PCOD9136573 Si02
#       8
#     4   4   4   4   4   4   4   4
#     4  12  25  50  74 102 153 199 242 313 389 449
#     4  11  25  47  71 105 144 197 240 309 383 453
#     4  11  23  47  68 104 137 192 248 303 374 446
#     4  11  23  41  69 111 141 190 245 316 363 453
#     4  10  21  42  65 105 139 185 239 303 376 436
#     4  10  22  41  71  92 141 188 233 305 368 448
#     4  11  27  47  72 105 148 196 247 306 373 450
#     4  12  24  45  74 106 151 197 252 315 384 449
#
# _framework density 23.696631
#
# number of rings (size 3 to 8) (size 9 to 14) (size 15 to 20)
#    0.000    1.000    3.750    3.000    1.750    2.000 
#   13.500    0.000    0.000    0.000    0.000    0.000 
#    0.000    0.000    0.000    0.000    0.000    0.000 
#
# Total GULP energy -89280.751148 kJ/mol
# GULP energy per Si atom -5580.046947 kJ/mol
# Density = 2.364270 g / cm^3
# Si number density = 23.696631 Si / 1000 Ang^3
#
#
#
# Elastic Constant Matrix: (Units=GPa)
#
#
# Indices 1 2 3 4 5 6 
#
# 1 144.5413 41.8625 11.3693 0.0088 4.9556 -0.0110
# 2 41.8625 78.9666 21.5748 0.0325 -1.9510 0.0079
# 3 11.3693 21.5748 101.4336 0.0171 -7.1611 -0.0130
# 4 0.0088 0.0325 0.0171 20.5895 -0.0097 -8.7658
# 5 4.9556 -1.9510 -7.1611 -0.0097 31.3870 0.0172
# 6 -0.0110 0.0079 -0.0130 -8.7658 0.0172 24.3375
#
#
#
# Elastic Compliance Matrix: (Units=1/GPa)
#
#
# Indices 1 2 3 4 5 6 
#
# 1 0.008252 -0.004385 -0.000105 0.000006 -0.001599 0.000009
# 2 -0.004385 0.015776 -0.002791 -0.000029 0.001036 -0.000020
# 3 -0.000105 -0.002791 0.010624 -0.000001 0.002267 0.000004
# 4 0.000006 -0.000029 -0.000001 0.057365 0.000003 0.020662
# 5 -0.001599 0.001036 0.002267 0.000003 0.032694 -0.000022
# 6 0.000009 -0.000020 0.000004 0.020662 -0.000022 0.048531
#
#
# Mechanical properties :
#
#
# Convention : Reuss Voigt Hill
#
# Bulk Modulus (GPa) = 49.77679 52.72832 51.25256
# Shear Modulus (GPa) = 25.70673 31.93845 28.82259
#
# Velocity S-wave (km/s) = 3.29724 3.67523 3.49136
# Velocity P-wave (km/s) = 5.96215 6.34897 6.15860
#
# Compressibility (1/GPa) = 0.02008968
#
# Stress axis : x y z
#
# Youngs Moduli (GPa) = 121.18862 63.38559 94.12535
#
# Poissons Ratio (x) = 0.27796 0.00989
# Poissons Ratio (y) = 0.53144 0.26270
# Poissons Ratio (z) = 0.01273 0.17691
#
# Static dielectric constant tensor:
#      x y z
#    x 1.925160 0.000000 0.025180 
#    y 0.000000 1.900990 0.000010 
#    z 0.025180 0.000010 2.021280 
# 
# From -- ./inp_files/33834.got.cif
#   From: 2010.05.17/outbox.cif.g08.bks.cpg/sg9_17_cif.got.tgz:33834.got - 2010.06.03 20:04:27.
