data_PCOD9136863
_publ_section_title
;
Structure prediction by ZEFSAII (Michael W. Deem and Ramdas Pophale) SiO2 
 PCOD9136863
Probable space group: C C
;
_chemical_formula_sum "Si O2"
_cell_formula_units_Z 24
_cell_length_a 15.400841
_cell_length_b 11.347374
_cell_length_c 9.860946
_cell_angle_alpha 90.000000
_cell_angle_beta 33.361540
_cell_angle_gamma 90.000000
_cell_volume 947.672060
_symmetry_space_group_name_H-M "C C"
_symmetry_group_IT_number 9
_symmetry_cell_setting 'monoclinic'
loop_
_space_group_symop_operation_xyz
x,y,z
x,-y,1/2+z
1/2+x,1/2+y,z
1/2+x,1/2-y,1/2+z
loop_
_atom_site_type_symbol
_atom_site_label
_atom_site_fract_x
_atom_site_fract_y
_atom_site_fract_z
Si Si1 0.492430 0.871315 0.392630
Si Si2 0.385416 0.094581 0.658972
Si Si3 0.842414 0.859365 0.008205
Si Si4 0.614929 0.451791 0.125696
Si Si5 0.413226 0.685663 0.706711
Si Si6 0.678311 0.249350 0.250761
O O1 0.681223 0.875822 0.138570
O O2 0.408341 0.774120 0.408370
O O3 0.460114 0.811599 0.583224
O O4 0.421337 0.000200 0.492514
O O5 0.554378 0.153304 0.463004
O O6 0.276273 0.197938 0.745388
O O7 0.278912 0.020937 0.901869
O O8 0.827588 0.875530 0.191209
O O9 0.978191 0.951020 0.796365
O O10 0.576023 0.374420 0.042216
O O11 0.604714 0.361758 0.265062
O O12 0.298235 0.695086 0.983745
#
# Coordination Sequence:
#
# PCOD9136863 Si02
#       6
#     4   4   4   4   4   4
#     4  10  22  45  70 101 134 189 241 284 359 431
#     4  12  27  45  72 105 142 189 244 291 366 425
#     4  10  24  40  74 102 139 189 245 285 368 427
#     4  12  23  45  70 105 147 186 238 308 346 436
#     4  10  21  44  73 100 139 188 236 290 365 418
#     4  12  25  45  73 103 141 189 246 298 354 431
#
# _framework density 25.325216000000001
#
# number of rings (size 3 to 8) (size 9 to 14) (size 15 to 20)
#    1.000    0.000    3.333    4.000    2.333    1.333 
#    0.000    1.667    0.000    0.000    0.000    0.000 
#    0.000    0.000    0.000    0.000    0.000    0.000 
#
# Total GULP energy -67132.366978 kJ/mol
# GULP energy per Si atom -5594.363915 kJ/mol
# Density = 2.526757 g / cm^3
# Si number density = 25.325216 Si / 1000 Ang^3
#
#
#
# Elastic Constant Matrix: (Units=GPa)
#
#
# Indices 1 2 3 4 5 6 
#
# 1 64.3850 3.7842 18.5097 0.0000 -4.6171 0.0000
# 2 3.7842 101.6807 46.4003 0.0000 -15.2350 0.0000
# 3 18.5097 46.4003 123.6695 0.0000 -15.4308 0.0000
# 4 0.0000 0.0000 0.0000 52.4815 0.0000 -23.2752
# 5 -4.6171 -15.2350 -15.4308 0.0000 37.9819 0.0000
# 6 0.0000 0.0000 0.0000 -23.2752 0.0000 32.4081
#
#
#
# Elastic Compliance Matrix: (Units=1/GPa)
#
#
# Indices 1 2 3 4 5 6 
#
# 1 0.016315 0.000751 -0.002569 0.000000 0.001241 0.000000
# 2 0.000751 0.012260 -0.004306 0.000000 0.003260 0.000000
# 3 -0.002569 -0.004306 0.010357 0.000000 0.002168 0.000000
# 4 0.000000 0.000000 0.000000 0.027960 0.000000 0.020081
# 5 0.001241 0.003260 0.002168 0.000000 0.028668 0.000000
# 6 0.000000 0.000000 0.000000 0.020081 0.000000 0.045278
#
#
# Mechanical properties :
#
#
# Convention : Reuss Voigt Hill
#
# Bulk Modulus (GPa) = 37.47481 47.45817 42.46649
# Shear Modulus (GPa) = 30.86829 39.31037 35.08933
#
# Velocity S-wave (km/s) = 3.49503 3.94410 3.72633
# Velocity P-wave (km/s) = 5.57822 6.28661 5.94298
#
# Compressibility (1/GPa) = 0.02668459
#
# Stress axis : x y z
#
# Youngs Moduli (GPa) = 61.29367 81.56653 96.55765
#
# Poissons Ratio (x) = -0.06125 0.24804
# Poissons Ratio (y) = -0.04603 0.41573
# Poissons Ratio (z) = 0.15745 0.35119
#
# Static dielectric constant tensor:
#      x y z
#    x 1.984980 0.000000 0.034620 
#    y 0.000000 1.981540 0.000000 
#    z 0.034620 0.000000 1.997240 
# 
# From -- ./inp_files/16064.got.cif
#   From: 2010.05.17/outbox.cif.g08.bks.cpg/sg9_9_cif.got.tgz:16064.got - 2010.06.03 20:04:27.
