data_PCOD9136470
_publ_section_title
;
Structure prediction by ZEFSAII (Michael W. Deem and Ramdas Pophale) SiO2 
 PCOD9136470
Probable space group: C C
;
_chemical_formula_sum "Si O2"
_cell_formula_units_Z 24
_cell_length_a 26.771532
_cell_length_b 5.234744
_cell_length_c 12.579123
_cell_angle_alpha 90.000000
_cell_angle_beta 139.288456
_cell_angle_gamma 90.000000
_cell_volume 1149.830655
_symmetry_space_group_name_H-M "C C"
_symmetry_group_IT_number 9
_symmetry_cell_setting 'monoclinic'
loop_
_space_group_symop_operation_xyz
x,y,z
x,-y,1/2+z
1/2+x,1/2+y,z
1/2+x,1/2-y,1/2+z
loop_
_atom_site_type_symbol
_atom_site_label
_atom_site_fract_x
_atom_site_fract_y
_atom_site_fract_z
Si Si1 0.886670 0.167742 0.208150
Si Si2 0.716669 0.335875 0.334712
Si Si3 0.974622 0.350025 0.797381
Si Si4 0.651216 0.155928 0.631981
Si Si5 0.858794 0.463965 0.959872
Si Si6 0.280217 0.666743 0.660258
O O1 0.941333 0.412047 0.312538
O O2 0.936959 0.914307 0.273186
O O3 0.821648 0.091258 0.187030
O O4 0.847891 0.244107 0.033167
O O5 0.671275 0.592414 0.232421
O O6 0.791175 0.339674 0.378173
O O7 0.749919 0.310997 0.506588
O O8 0.665324 0.092542 0.225952
O O9 0.939695 0.413903 0.623583
O O10 0.065027 0.336471 0.950429
O O11 0.710206 0.139025 0.628563
O O12 0.843563 0.332802 0.824445
#
# Coordination Sequence:
#
# PCOD9136470 Si02
#       6
#     4   4   4   4   4   4
#     4  10  21  41  66  95 126 168 220 262 323 381
#     4  11  23  42  65 100 129 175 218 267 323 390
#     4  10  22  46  63  93 138 166 206 283 327 365
#     4  11  26  43  68  94 141 168 213 278 325 382
#     4   9  23  40  71  90 132 167 221 270 311 385
#     4  11  21  42  69 100 122 180 226 260 317 399
#
# _framework density 20.872641000000002
#
# number of rings (size 3 to 8) (size 9 to 14) (size 15 to 20)
#    1.000    0.667    1.667    3.000    0.000    8.000 
#    3.000    1.667    0.000    0.000    0.000    0.000 
#    0.000    0.000    0.000    0.000    0.000    0.000 
#
# Total GULP energy -66993.440932 kJ/mol
# GULP energy per Si atom -5582.786744 kJ/mol
# Density = 2.082513 g / cm^3
# Si number density = 20.872641 Si / 1000 Ang^3
#
#
#
# Elastic Constant Matrix: (Units=GPa)
#
#
# Indices 1 2 3 4 5 6 
#
# 1 76.2954 36.1560 39.3957 0.0000 2.4632 0.0000
# 2 36.1560 138.2573 39.9407 0.0000 12.6651 0.0000
# 3 39.3957 39.9407 134.3470 0.0000 20.8262 0.0000
# 4 0.0000 0.0000 0.0000 37.0615 0.0000 -3.5526
# 5 2.4632 12.6651 20.8262 0.0000 38.5824 0.0000
# 6 0.0000 0.0000 0.0000 -3.5526 0.0000 21.3916
#
#
#
# Elastic Compliance Matrix: (Units=1/GPa)
#
#
# Indices 1 2 3 4 5 6 
#
# 1 0.016855 -0.003381 -0.004303 0.000000 0.002356 0.000000
# 2 -0.003381 0.008665 -0.001285 0.000000 -0.001935 0.000000
# 3 -0.004303 -0.001285 0.009799 0.000000 -0.004593 0.000000
# 4 0.000000 0.000000 0.000000 0.027419 0.000000 0.004554
# 5 0.002356 -0.001935 -0.004593 0.000000 0.028883 0.000000
# 6 0.000000 0.000000 0.000000 0.004554 0.000000 0.047504
#
#
# Mechanical properties :
#
#
# Convention : Reuss Voigt Hill
#
# Bulk Modulus (GPa) = 57.52771 64.43161 60.97966
# Shear Modulus (GPa) = 30.70229 34.96758 32.83493
#
# Velocity S-wave (km/s) = 3.83944 4.09746 3.97055
# Velocity P-wave (km/s) = 6.87577 7.30216 7.09217
#
# Compressibility (1/GPa) = 0.01738293
#
# Stress axis : x y z
#
# Youngs Moduli (GPa) = 59.33099 115.40141 102.05031
#
# Poissons Ratio (x) = 0.39012 0.43909
# Poissons Ratio (y) = 0.20057 0.13112
# Poissons Ratio (z) = 0.25528 0.14828
#
# Static dielectric constant tensor:
#      x y z
#    x 1.738860 0.000000 -0.014950 
#    y 0.000000 1.780010 0.000000 
#    z -0.014950 0.000000 1.745970 
# 
# From -- ./inp_files/20639.got.cif
#   From: 2010.05.17/outbox.cif.g08.bks.cpg/sg9_11_cif.got.tgz:20639.got - 2010.06.03 20:04:27.
