data_PCOD9136702
_publ_section_title
;
Structure prediction by ZEFSAII (Michael W. Deem and Ramdas Pophale) SiO2 
 PCOD9136702
Probable space group: C C
;
_chemical_formula_sum "Si O2"
_cell_formula_units_Z 28
_cell_length_a 27.035984
_cell_length_b 8.131994
_cell_length_c 15.631320
_cell_angle_alpha 90.000000
_cell_angle_beta 158.666878
_cell_angle_gamma 90.000000
_cell_volume 1250.216901
_symmetry_space_group_name_H-M "C C"
_symmetry_group_IT_number 9
_symmetry_cell_setting 'monoclinic'
loop_
_space_group_symop_operation_xyz
x,y,z
x,-y,1/2+z
1/2+x,1/2+y,z
1/2+x,1/2-y,1/2+z
loop_
_atom_site_type_symbol
_atom_site_label
_atom_site_fract_x
_atom_site_fract_y
_atom_site_fract_z
Si Si1 0.150030 0.333773 0.465560
Si Si2 0.660988 0.729755 0.677643
Si Si3 0.914074 0.559629 0.363831
Si Si4 0.703064 0.888763 0.282141
Si Si5 0.425075 0.068152 0.065342
Si Si6 0.868593 0.268632 0.193018
Si Si7 0.190321 0.308471 0.063215
O O1 0.149483 0.256069 0.557153
O O2 0.232323 0.232347 0.530119
O O3 0.230348 0.507834 0.598067
O O4 0.998432 0.393901 0.200290
O O5 0.781681 0.599154 0.879467
O O6 0.506422 0.686325 0.453454
O O7 0.704679 0.910025 0.783382
O O8 0.917246 0.432790 0.449528
O O9 0.908902 0.460911 0.265549
O O10 0.057863 0.651696 0.591712
O O11 0.787463 0.675696 0.177912
O O12 0.823143 0.817569 0.533126
O O13 0.700708 0.816504 0.182531
O O14 0.534593 0.199233 0.278597
#
# Coordination Sequence:
#
# PCOD9136702 Si02
#       7
#     4   4   4   4   4   4   4
#     4   9  20  44  60  92 134 166 210 269 319 381
#     4  10  22  41  66  95 128 175 215 265 330 383
#     4  11  22  42  66  97 129 175 212 269 327 379
#     4  10  22  42  64  96 136 162 221 273 312 396
#     4  10  21  43  65  88 136 165 214 270 316 386
#     4  11  22  40  70  98 128 171 221 270 328 388
#     4   9  23  42  65  90 131 174 209 266 326 377
#
# _framework density 22.396113
#
# number of rings (size 3 to 8) (size 9 to 14) (size 15 to 20)
#    0.857    1.143    2.857    0.000    2.000    1.143 
#   15.429    0.000    0.000    0.000    0.000    0.000 
#    0.000    0.000    0.000    0.000    0.000    0.000 
#
# Total GULP energy -78005.067686 kJ/mol
# GULP energy per Si atom -5571.790549 kJ/mol
# Density = 2.234514 g / cm^3
# Si number density = 22.396113 Si / 1000 Ang^3
#
#
#
# Elastic Constant Matrix: (Units=GPa)
#
#
# Indices 1 2 3 4 5 6 
#
# 1 10.1588 6.6185 1.8143 0.0000 1.6035 0.0000
# 2 6.6185 20.9159 36.3789 0.0000 3.7355 0.0000
# 3 1.8143 36.3789 124.5550 0.0000 12.8281 0.0000
# 4 0.0000 0.0000 0.0000 43.8458 0.0000 7.6195
# 5 1.6035 3.7355 12.8281 0.0000 43.7991 0.0000
# 6 0.0000 0.0000 0.0000 7.6195 0.0000 32.1871
#
#
#
# Elastic Compliance Matrix: (Units=1/GPa)
#
#
# Indices 1 2 3 4 5 6 
#
# 1 0.154266 -0.091278 0.024945 0.000000 -0.005169 0.000000
# 2 -0.091278 0.151185 -0.043145 0.000000 0.003084 0.000000
# 3 0.024945 -0.043145 0.020603 0.000000 -0.003268 0.000000
# 4 0.000000 0.000000 0.000000 0.023786 0.000000 -0.005631
# 5 -0.005169 0.003084 -0.003268 0.000000 0.023715 0.000000
# 6 0.000000 0.000000 0.000000 -0.005631 0.000000 0.032401
#
#
# Mechanical properties :
#
#
# Convention : Reuss Voigt Hill
#
# Bulk Modulus (GPa) = 9.33730 27.25035 18.29382
# Shear Modulus (GPa) = 7.56875 31.35425 19.46150
#
# Velocity S-wave (km/s) = 1.84033 3.74570 2.95102
# Velocity P-wave (km/s) = 2.94856 5.55885 4.44943
#
# Compressibility (1/GPa) = 0.10709733
#
# Stress axis : x y z
#
# Youngs Moduli (GPa) = 6.48233 6.61440 48.53620
#
# Poissons Ratio (x) = 0.60375 -1.21074
# Poissons Ratio (y) = 0.59170 2.09409
# Poissons Ratio (z) = -0.16170 0.28538
#
# Static dielectric constant tensor:
#      x y z
#    x 1.857710 0.000000 -0.033480 
#    y 0.000000 1.843990 0.000000 
#    z -0.033480 0.000000 1.877340 
# 
# From -- ./inp_files/31810.got.cif
#   From: 2010.05.17/outbox.cif.g08.bks.cpg/sg9_16_cif.got.tgz:31810.got - 2010.06.03 20:04:27.
