data_PCOD9136497
_publ_section_title
;
Structure prediction by ZEFSAII (Michael W. Deem and Ramdas Pophale) SiO2 
 PCOD9136497
Probable space group: C C
;
_chemical_formula_sum "Si O2"
_cell_formula_units_Z 32
_cell_length_a 8.799587
_cell_length_b 29.758957
_cell_length_c 5.110270
_cell_angle_alpha 90.000000
_cell_angle_beta 100.087806
_cell_angle_gamma 90.000000
_cell_volume 1317.520615
_symmetry_space_group_name_H-M "C C"
_symmetry_group_IT_number 9
_symmetry_cell_setting 'monoclinic'
loop_
_space_group_symop_operation_xyz
x,y,z
x,-y,1/2+z
1/2+x,1/2+y,z
1/2+x,1/2-y,1/2+z
loop_
_atom_site_type_symbol
_atom_site_label
_atom_site_fract_x
_atom_site_fract_y
_atom_site_fract_z
Si Si1 0.904430 0.627150 0.589560
Si Si2 0.333713 0.205798 0.199514
Si Si3 0.837334 0.115187 0.657470
Si Si4 0.984262 0.471279 0.896530
Si Si5 0.860363 0.024922 0.463401
Si Si6 0.635441 0.235987 0.006844
Si Si7 0.668343 0.136102 0.095950
Si Si8 0.627641 0.668409 0.763174
O O1 0.931809 0.674595 0.434938
O O2 0.927734 0.578987 0.454703
O O3 0.729316 0.634371 0.627064
O O4 0.008021 0.628681 0.889147
O O5 0.228291 0.246244 0.279670
O O6 0.454991 0.223378 0.016495
O O7 0.206791 0.169659 0.067870
O O8 0.924624 0.071735 0.582299
O O9 0.777949 0.108407 0.932891
O O10 0.951214 0.156680 0.695138
O O11 0.702233 0.123418 0.404549
O O12 0.937190 0.492815 0.605693
O O13 0.172888 0.470852 0.939433
O O14 0.904559 0.012664 0.185719
O O15 0.711713 0.188440 0.092027
O O16 0.653712 0.280448 0.183840
#
# Coordination Sequence:
#
# PCOD9136497 Si02
#       8
#     4   4   4   4   4   4   4   4
#     4  11  25  47  70 108 145 194 238 314 372 441
#     4  11  26  46  75 103 153 195 257 305 373 446
#     4  12  27  45  71 111 142 192 240 302 370 444
#     4  10  23  39  72 107 140 181 244 307 367 443
#     4  10  21  41  68 102 139 179 236 299 358 436
#     4  11  26  44  70 106 142 202 245 311 361 441
#     4  12  26  43  76 102 145 193 247 295 362 440
#     4  11  28  45  72 101 154 188 243 307 371 439
#
# _framework density 24.288042999999998
#
# number of rings (size 3 to 8) (size 9 to 14) (size 15 to 20)
#    0.000    1.000    2.500    2.250   14.000    0.000 
#    0.000    1.250    0.000    0.000    0.000    0.000 
#    0.000    0.000    0.000    0.000    0.000    0.000 
#
# Total GULP energy -89225.588398 kJ/mol
# GULP energy per Si atom -5576.599275 kJ/mol
# Density = 2.423276 g / cm^3
# Si number density = 24.288043 Si / 1000 Ang^3
#
#
#
# Elastic Constant Matrix: (Units=GPa)
#
#
# Indices 1 2 3 4 5 6 
#
# 1 67.9343 28.7321 35.2908 0.0000 1.5163 0.0000
# 2 28.7321 107.0128 21.0500 0.0000 -3.1028 0.0000
# 3 35.2908 21.0500 66.0563 0.0000 2.8992 0.0000
# 4 0.0000 0.0000 0.0000 31.5554 0.0000 -8.9509
# 5 1.5163 -3.1028 2.8992 0.0000 18.1044 0.0000
# 6 0.0000 0.0000 0.0000 -8.9509 0.0000 38.1504
#
#
#
# Elastic Compliance Matrix: (Units=1/GPa)
#
#
# Indices 1 2 3 4 5 6 
#
# 1 0.021736 -0.003822 -0.010359 0.000000 -0.000817 0.000000
# 2 -0.003822 0.010732 -0.001483 0.000000 0.002397 0.000000
# 3 -0.010359 -0.001483 0.021268 0.000000 -0.002792 0.000000
# 4 0.000000 0.000000 0.000000 0.033950 0.000000 0.007965
# 5 -0.000817 0.002397 -0.002792 0.000000 0.056162 0.000000
# 6 0.000000 0.000000 0.000000 0.007965 0.000000 0.028081
#
#
# Mechanical properties :
#
#
# Convention : Reuss Voigt Hill
#
# Bulk Modulus (GPa) = 44.62666 45.68325 45.15496
# Shear Modulus (GPa) = 23.72753 27.95740 25.84247
#
# Velocity S-wave (km/s) = 3.12897 3.39643 3.26544
# Velocity P-wave (km/s) = 5.60961 5.85071 5.73143
#
# Compressibility (1/GPa) = 0.02240813
#
# Stress axis : x y z
#
# Youngs Moduli (GPa) = 46.00664 93.17817 47.01900
#
# Poissons Ratio (x) = 0.35613 0.48706
# Poissons Ratio (y) = 0.17584 0.06974
# Poissons Ratio (z) = 0.47657 0.13821
#
# Static dielectric constant tensor:
#      x y z
#    x 1.940080 0.000000 -0.014470 
#    y 0.000000 1.916950 0.000000 
#    z -0.014470 0.000000 2.030720 
# 
# From -- ./inp_files/1242.got.cif
#   From: 2010.05.17/outbox.cif.g08.bks.cpg/sg9_1_cif.got.tgz:1242.got - 2010.06.03 20:04:27.
