data_PCOD9136865
_publ_section_title
;
Structure prediction by ZEFSAII (Michael W. Deem and Ramdas Pophale) SiO2 
 PCOD9136865
Probable space group: C C
;
_chemical_formula_sum "Si O2"
_cell_formula_units_Z 28
_cell_length_a 8.978404
_cell_length_b 31.459935
_cell_length_c 5.366003
_cell_angle_alpha 90.000000
_cell_angle_beta 119.011558
_cell_angle_gamma 90.000000
_cell_volume 1325.496425
_symmetry_space_group_name_H-M "C C"
_symmetry_group_IT_number 9
_symmetry_cell_setting 'monoclinic'
loop_
_space_group_symop_operation_xyz
x,y,z
x,-y,1/2+z
1/2+x,1/2+y,z
1/2+x,1/2-y,1/2+z
loop_
_atom_site_type_symbol
_atom_site_label
_atom_site_fract_x
_atom_site_fract_y
_atom_site_fract_z
Si Si1 0.431760 0.472058 0.634580
Si Si2 0.611759 0.609893 0.165478
Si Si3 0.432019 0.657886 0.635408
Si Si4 0.682827 0.277703 0.137297
Si Si5 0.252271 0.609920 0.105294
Si Si6 0.431969 0.159753 0.635331
Si Si7 0.680941 0.222265 0.632709
O O1 0.431691 0.499933 0.384269
O O2 0.591796 0.439787 0.718450
O O3 0.271963 0.439746 0.551590
O O4 0.432046 0.625435 0.135451
O O5 0.780527 0.631260 0.403635
O O6 0.578663 0.626324 0.858161
O O7 0.521561 0.691047 0.521277
O O8 0.285470 0.626286 0.412796
O O9 0.342311 0.691038 0.749295
O O10 0.846635 0.308324 0.263363
O O11 0.681906 0.249955 0.384913
O O12 0.681815 0.250012 0.884840
O O13 0.083537 0.631337 0.867418
O O14 0.517191 0.191625 0.506807
#
# Coordination Sequence:
#
# PCOD9136865 Si02
#       7
#     4   4   4   4   4   4   4
#     4  10  21  44  73 104 146 180 214 288 367 426
#     4  10  24  44  71 101 135 183 234 277 356 421
#     4  12  23  46  64  94 144 180 236 296 338 432
#     4  12  26  42  65 100 136 185 240 299 358 397
#     4  10  24  44  71 101 135 183 234 277 356 421
#     4  12  24  48  71 100 136 190 242 294 333 434
#     4  12  26  42  65 100 136 185 240 299 358 397
#
# _framework density 21.124162999999999
#
# number of rings (size 3 to 8) (size 9 to 14) (size 15 to 20)
#    0.857    0.000    2.857    4.286    0.000    3.429 
#    0.000    1.429    0.000    0.000    0.000    0.000 
#    0.000    0.000    0.000    0.000    0.000    0.000 
#
# Total GULP energy -78032.532386 kJ/mol
# GULP energy per Si atom -5573.752313 kJ/mol
# Density = 2.107608 g / cm^3
# Si number density = 21.124163 Si / 1000 Ang^3
#
#
#
# Elastic Constant Matrix: (Units=GPa)
#
#
# Indices 1 2 3 4 5 6 
#
# 1 106.9691 74.8258 55.5700 0.0000 5.0466 0.0000
# 2 74.8258 176.4573 100.5735 0.0000 -9.0099 0.0000
# 3 55.5700 100.5735 157.7530 0.0000 1.0607 0.0000
# 4 0.0000 0.0000 0.0000 17.4567 0.0000 -2.5978
# 5 5.0466 -9.0099 1.0607 0.0000 44.8693 0.0000
# 6 0.0000 0.0000 0.0000 -2.5978 0.0000 50.5208
#
#
#
# Elastic Compliance Matrix: (Units=1/GPa)
#
#
# Indices 1 2 3 4 5 6 
#
# 1 0.013870 -0.005084 -0.001628 0.000000 -0.002542 0.000000
# 2 -0.005084 0.010934 -0.005199 0.000000 0.002890 0.000000
# 3 -0.001628 -0.005199 0.010235 0.000000 -0.001103 0.000000
# 4 0.000000 0.000000 0.000000 0.057726 0.000000 0.002968
# 5 -0.002542 0.002890 -0.001103 0.000000 0.023179 0.000000
# 6 0.000000 0.000000 0.000000 0.002968 0.000000 0.019946
#
#
# Mechanical properties :
#
#
# Convention : Reuss Voigt Hill
#
# Bulk Modulus (GPa) = 89.15055 100.34644 94.74849
# Shear Modulus (GPa) = 30.59021 36.58337 33.58679
#
# Velocity S-wave (km/s) = 3.80954 4.16604 3.99177
# Velocity P-wave (km/s) = 7.85142 8.41115 8.13610
#
# Compressibility (1/GPa) = 0.01121698
#
# Stress axis : x y z
#
# Youngs Moduli (GPa) = 72.09770 91.45987 97.70717
#
# Poissons Ratio (x) = 0.46494 0.15905
# Poissons Ratio (y) = 0.36651 0.50802
# Poissons Ratio (z) = 0.11736 0.47554
#
# Static dielectric constant tensor:
#      x y z
#    x 2.155650 0.000000 -0.290940 
#    y 0.000000 1.790420 0.000000 
#    z -0.290940 0.000000 2.075430 
# 
# From -- ./inp_files/1430.got.cif
#   From: 2010.05.17/outbox.cif.g08.bks.cpg/sg9_1_cif.got.tgz:1430.got - 2010.06.03 20:04:27.
