data_PCOD9136586
_publ_section_title
;
Structure prediction by ZEFSAII (Michael W. Deem and Ramdas Pophale) SiO2 
 PCOD9136586
Probable space group: C C
;
_chemical_formula_sum "Si O2"
_cell_formula_units_Z 32
_cell_length_a 14.181713
_cell_length_b 8.636433
_cell_length_c 23.987330
_cell_angle_alpha 90.000000
_cell_angle_beta 29.600022
_cell_angle_gamma 90.000000
_cell_volume 1451.179526
_symmetry_space_group_name_H-M "C C"
_symmetry_group_IT_number 9
_symmetry_cell_setting 'monoclinic'
loop_
_space_group_symop_operation_xyz
x,y,z
x,-y,1/2+z
1/2+x,1/2+y,z
1/2+x,1/2-y,1/2+z
loop_
_atom_site_type_symbol
_atom_site_label
_atom_site_fract_x
_atom_site_fract_y
_atom_site_fract_z
Si Si1 0.432590 0.930772 0.739670
Si Si2 0.599874 0.839860 0.965137
Si Si3 0.112807 0.973169 0.986030
Si Si4 0.273298 0.118042 0.719397
Si Si5 0.671341 0.884170 0.202416
Si Si6 0.025111 0.952857 0.769192
Si Si7 0.163346 0.449156 0.814794
Si Si8 0.547190 0.608086 0.643943
O O1 0.272024 0.885614 0.867776
O O2 0.558266 0.787668 0.653946
O O3 0.320846 0.008364 0.746251
O O4 0.568457 0.055147 0.699883
O O5 0.621913 0.654561 0.963280
O O6 0.552123 0.890431 0.926276
O O7 0.802770 0.914618 0.876675
O O8 0.437005 0.899401 0.089440
O O9 0.896466 0.918602 0.084921
O O10 0.139611 0.943022 0.038258
O O11 0.273904 0.294537 0.738937
O O12 0.076020 0.077241 0.790194
O O13 0.631243 0.704582 0.230938
O O14 0.579475 0.977722 0.301818
O O15 0.100935 0.009114 0.670286
O O16 0.320695 0.574253 0.752352
#
# Coordination Sequence:
#
# PCOD9136586 Si02
#       8
#     4   4   4   4   4   4   4   4
#     4  12  25  45  69 103 141 177 230 292 337 416
#     4  11  23  46  72  97 141 188 224 281 354 403
#     4  11  23  46  72  98 136 189 224 286 354 402
#     4  12  23  43  70 100 141 177 231 287 338 409
#     4  11  23  43  69 101 138 175 235 282 341 408
#     4  11  25  45  68 107 135 182 231 284 340 408
#     4  10  21  42  66 100 136 176 227 285 332 409
#     4  10  23  42  68  98 140 174 232 283 336 411
#
# _framework density 22.051027000000001
#
# number of rings (size 3 to 8) (size 9 to 14) (size 15 to 20)
#    0.000    1.000    5.000    3.000    0.000    6.000 
#    0.000    0.000    0.000    0.000    0.000    0.000 
#    0.000    0.000    0.000    0.000    0.000    0.000 
#
# Total GULP energy -89472.992007 kJ/mol
# GULP energy per Si atom -5592.062000 kJ/mol
# Density = 2.200084 g / cm^3
# Si number density = 22.051027 Si / 1000 Ang^3
#
#
#
# Elastic Constant Matrix: (Units=GPa)
#
#
# Indices 1 2 3 4 5 6 
#
# 1 86.9758 2.8296 25.0166 0.0000 20.6417 -0.0001
# 2 2.8296 48.0892 -6.7501 -0.0001 11.2750 0.0000
# 3 25.0166 -6.7501 68.2442 -0.0004 14.2407 -0.0002
# 4 0.0000 -0.0001 -0.0004 24.0396 0.0000 -6.8337
# 5 20.6417 11.2750 14.2407 0.0000 48.3321 0.0000
# 6 -0.0001 0.0000 -0.0002 -6.8337 0.0000 31.4617
#
#
#
# Elastic Compliance Matrix: (Units=1/GPa)
#
#
# Indices 1 2 3 4 5 6 
#
# 1 0.013785 -0.000312 -0.004124 0.000000 -0.004600 0.000000
# 2 -0.000312 0.022799 0.003678 0.000000 -0.006269 0.000000
# 3 -0.004124 0.003678 0.017411 0.000000 -0.004226 0.000000
# 4 0.000000 0.000000 0.000000 0.044336 0.000000 0.009630
# 5 -0.004600 -0.006269 -0.004226 0.000000 0.025362 0.000000
# 6 0.000000 0.000000 0.000000 0.009630 0.000000 0.033876
#
#
# Mechanical properties :
#
#
# Convention : Reuss Voigt Hill
#
# Bulk Modulus (GPa) = 19.05550 27.27794 23.16672
# Shear Modulus (GPa) = 28.31584 32.91422 30.61503
#
# Velocity S-wave (km/s) = 3.58733 3.86766 3.73013
# Velocity P-wave (km/s) = 5.08123 5.68703 5.39264
#
# Compressibility (1/GPa) = 0.05247829
#
# Stress axis : x y z
#
# Youngs Moduli (GPa) = 72.54007 43.86140 57.43537
#
# Poissons Ratio (x) = 0.01367 0.23689
# Poissons Ratio (y) = 0.02261 -0.21122
# Poissons Ratio (z) = 0.29919 -0.16130
#
# Static dielectric constant tensor:
#      x y z
#    x 1.818810 0.000000 -0.004170 
#    y 0.000000 1.757710 0.000000 
#    z -0.004170 0.000000 1.825440 
# 
# From -- ./inp_files/17742.got.cif
#   From: 2010.05.17/outbox.cif.g08.bks.cpg/sg9_9_cif.got.tgz:17742.got - 2010.06.03 20:04:27.
