data_PCOD9136034
_publ_section_title
;
Structure prediction by ZEFSAII (Michael W. Deem and Ramdas Pophale) SiO2 
 PCOD9136034
Probable space group: C C
;
_chemical_formula_sum "Si O2"
_cell_formula_units_Z 20
_cell_length_a 8.916072
_cell_length_b 11.945482
_cell_length_c 7.662128
_cell_angle_alpha 90.000000
_cell_angle_beta 117.852112
_cell_angle_gamma 90.000000
_cell_volume 721.532258
_symmetry_space_group_name_H-M "C C"
_symmetry_group_IT_number 9
_symmetry_cell_setting 'monoclinic'
loop_
_space_group_symop_operation_xyz
x,y,z
x,-y,1/2+z
1/2+x,1/2+y,z
1/2+x,1/2-y,1/2+z
loop_
_atom_site_type_symbol
_atom_site_label
_atom_site_fract_x
_atom_site_fract_y
_atom_site_fract_z
Si Si1 0.592380 0.896815 0.933330
Si Si2 0.098925 0.886400 0.884290
Si Si3 0.257915 0.902077 0.591866
Si Si4 0.422538 0.391384 0.268901
Si Si5 0.622611 0.146824 0.840737
O O1 0.450197 0.863296 0.716310
O O2 0.587985 0.031877 0.921021
O O3 0.619411 0.644471 0.878473
O O4 0.541249 0.860318 0.101483
O O5 0.174262 0.876628 0.731709
O O6 0.074209 0.758002 0.918052
O O7 0.942473 0.973316 0.793107
O O8 0.232692 0.963595 0.061838
O O9 0.320636 0.353084 0.385577
O O10 0.292138 0.365610 0.042280
#
# Coordination Sequence:
#
# PCOD9136034 Si02
#       5
#     4   4   4   4   4
#     4  10  21  38  63  95 132 170 229 272 325 422
#     4  10  22  43  69  95 135 181 218 283 346 390
#     4  10  21  38  63  95 132 170 229 272 325 422
#     4   8  22  36  64  88 138 162 232 262 336 402
#     4  10  22  43  69  95 135 181 218 283 346 390
#
# _framework density 27.718791
#
# number of rings (size 3 to 8) (size 9 to 14) (size 15 to 20)
#    2.400    0.000    0.000    2.400    0.000    6.400 
#    0.000    2.000    8.800    0.000    0.000    0.000 
#    0.000    0.000    0.000    0.000    0.000    0.000 
#
# Total GULP energy -55761.978494 kJ/mol
# GULP energy per Si atom -5576.197849 kJ/mol
# Density = 2.765570 g / cm^3
# Si number density = 27.718791 Si / 1000 Ang^3
#
#
#
# Elastic Constant Matrix: (Units=GPa)
#
#
# Indices 1 2 3 4 5 6 
#
# 1 68.8877 42.9020 66.0025 0.0000 18.2867 0.0000
# 2 42.9020 201.7611 67.3039 0.0000 18.6548 0.0000
# 3 66.0025 67.3039 210.6520 0.0000 82.4846 0.0000
# 4 0.0000 0.0000 0.0000 -22.1303 0.0000 105.6110
# 5 18.2867 18.6548 82.4846 0.0000 66.5379 0.0000
# 6 0.0000 0.0000 0.0000 105.6110 0.0000 -104.2033
#
#
#
# Elastic Compliance Matrix: (Units=1/GPa)
#
#
# Indices 1 2 3 4 5 6 
#
# 1 0.022587 -0.002545 -0.007992 0.000000 0.004413 0.000000
# 2 -0.002545 0.005888 -0.001382 0.000000 0.000762 0.000000
# 3 -0.007992 -0.001382 0.012984 0.000000 -0.013511 0.000000
# 4 0.000000 0.000000 0.000000 0.011778 0.000000 0.011937
# 5 0.004413 0.000762 -0.013511 0.000000 0.030352 0.000000
# 6 0.000000 0.000000 0.000000 0.011937 0.000000 0.002501
#
#
# Mechanical properties :
#
#
# Convention : Reuss Voigt Hill
#
# Bulk Modulus (GPa) = 56.75404 92.63528 74.69466
# Shear Modulus (GPa) = 43.17735 8.38037 25.77886
#
# Velocity S-wave (km/s) = 3.95104 1.74067 3.05292
# Velocity P-wave (km/s) = 6.42913 6.12635 6.27956
#
# Compressibility (1/GPa) = 0.01761989
#
# Stress axis : x y z
#
# Youngs Moduli (GPa) = 44.27292 169.83249 77.02076
#
# Poissons Ratio (x) = 0.43221 0.61556
# Poissons Ratio (y) = 0.11267 0.10647
# Poissons Ratio (z) = 0.35384 0.23477
#
# Static dielectric constant tensor:
#      x y z
#    x 2.093290 0.000000 0.111270 
#    y 0.000000 2.334070 0.000000 
#    z 0.111270 0.000000 2.198570 
# 
# From -- ./inp_files/15983.got.cif
#   From: 2010.05.17/outbox.cif.g08.bks.cpg/sg9_8_cif.got.tgz:15983.got - 2010.06.03 20:04:27.
