data_PCOD9136070
_publ_section_title
;
Structure prediction by ZEFSAII (Michael W. Deem and Ramdas Pophale) SiO2 
 PCOD9136070
Probable space group: C C
;
_chemical_formula_sum "Si O2"
_cell_formula_units_Z 32
_cell_length_a 19.088487
_cell_length_b 5.920617
_cell_length_c 26.514315
_cell_angle_alpha 90.000000
_cell_angle_beta 153.226860
_cell_angle_gamma 90.000000
_cell_volume 1349.814855
_symmetry_space_group_name_H-M "C C"
_symmetry_group_IT_number 9
_symmetry_cell_setting 'monoclinic'
loop_
_space_group_symop_operation_xyz
x,y,z
x,-y,1/2+z
1/2+x,1/2+y,z
1/2+x,1/2-y,1/2+z
loop_
_atom_site_type_symbol
_atom_site_label
_atom_site_fract_x
_atom_site_fract_y
_atom_site_fract_z
Si Si1 0.387860 0.342919 0.190730
Si Si2 0.665684 0.456529 0.179272
Si Si3 0.775552 0.076893 0.028749
Si Si4 0.171000 0.041427 0.520248
Si Si5 0.765911 0.518921 0.857431
Si Si6 0.812806 0.026672 0.934621
Si Si7 0.977465 0.291611 0.847253
Si Si8 0.124346 0.603296 0.078254
O O1 0.406228 0.501084 0.153758
O O2 0.513690 0.291208 0.313540
O O3 0.254440 0.437674 0.141879
O O4 0.318924 0.111524 0.127023
O O5 0.676818 0.477425 0.246641
O O6 0.501533 0.540195 0.050752
O O7 0.667314 0.198113 0.160888
O O8 0.816289 0.582909 0.253428
O O9 0.729673 0.333128 0.007972
O O10 0.797579 0.020376 0.985396
O O11 0.620187 0.957494 0.950044
O O12 0.141650 0.194765 0.549366
O O13 0.011633 0.913635 0.406273
O O14 0.742231 0.268967 0.869226
O O15 0.951022 0.513586 0.965020
O O16 0.753219 0.778568 0.874356
#
# Coordination Sequence:
#
# PCOD9136070 Si02
#       8
#     4   4   4   4   4   4   4   4
#     4  10  21  38  67 100 131 173 224 278 348 411
#     4  11  24  44  71 105 137 188 229 293 348 420
#     4  10  25  44  64  96 140 181 221 291 342 404
#     4  10  21  40  64  95 138 167 218 283 345 405
#     4  11  26  44  71 101 139 190 238 286 345 416
#     4  11  28  50  68  99 146 189 238 287 343 417
#     4  11  23  38  72 103 129 175 227 284 345 414
#     4  10  22  40  65 103 142 171 223 294 350 411
#
# _framework density 23.706954
#
# number of rings (size 3 to 8) (size 9 to 14) (size 15 to 20)
#    0.000    1.500    1.250    3.000   12.250    3.000 
#    2.250    0.000    0.000    0.000    0.000    0.000 
#    0.000    0.000    0.000    0.000    0.000    0.000 
#
# Total GULP energy -89209.338357 kJ/mol
# GULP energy per Si atom -5575.583647 kJ/mol
# Density = 2.365300 g / cm^3
# Si number density = 23.706954 Si / 1000 Ang^3
#
#
#
# Elastic Constant Matrix: (Units=GPa)
#
#
# Indices 1 2 3 4 5 6 
#
# 1 73.4806 16.4992 5.2383 -0.0016 -14.8922 -0.0010
# 2 16.4992 97.2340 37.5000 -0.0047 -13.6134 0.0027
# 3 5.2383 37.5000 68.0374 -0.0088 -31.2700 -0.0045
# 4 -0.0016 -0.0047 -0.0088 35.4420 -0.0019 -10.8049
# 5 -14.8922 -13.6134 -31.2700 -0.0019 34.4231 -0.0004
# 6 -0.0010 0.0027 -0.0045 -10.8049 -0.0004 30.2959
#
#
#
# Elastic Compliance Matrix: (Units=1/GPa)
#
#
# Indices 1 2 3 4 5 6 
#
# 1 0.016132 -0.003372 0.005513 0.000003 0.010654 0.000003
# 2 -0.003372 0.013878 -0.009506 -0.000002 -0.004606 -0.000004
# 3 0.005513 -0.009506 0.032414 0.000012 0.028070 0.000010
# 4 0.000003 -0.000002 0.000012 0.031657 0.000013 0.011290
# 5 0.010654 -0.004606 0.028070 0.000013 0.057337 0.000010
# 6 0.000003 -0.000004 0.000010 0.011290 0.000010 0.037034
#
#
# Mechanical properties :
#
#
# Convention : Reuss Voigt Hill
#
# Bulk Modulus (GPa) = 20.96729 39.69190 30.32960
# Shear Modulus (GPa) = 22.82249 31.99983 27.41116
#
# Velocity S-wave (km/s) = 3.10609 3.67796 3.40406
# Velocity P-wave (km/s) = 4.66126 5.90047 5.31709
#
# Compressibility (1/GPa) = 0.04769333
#
# Stress axis : x y z
#
# Youngs Moduli (GPa) = 61.98745 72.05596 30.85069
#
# Poissons Ratio (x) = 0.24297 -0.17007
# Poissons Ratio (y) = 0.20902 0.29328
# Poissons Ratio (z) = -0.34172 0.68500
#
# Static dielectric constant tensor:
#      x y z
#    x 1.938700 0.000000 0.012620 
#    y 0.000000 1.991700 0.000000 
#    z 0.012620 0.000000 1.929120 
# 
# From -- ./inp_files/27030.got.cif
#   From: 2010.05.17/outbox.cif.g08.bks.cpg/sg9_14_cif.got.tgz:27030.got - 2010.06.03 20:04:27.
