data_PCOD9136120
_publ_section_title
;
Structure prediction by ZEFSAII (Michael W. Deem and Ramdas Pophale) SiO2 
 PCOD9136120
Probable space group: C C
;
_chemical_formula_sum "Si O2"
_cell_formula_units_Z 32
_cell_length_a 10.529202
_cell_length_b 10.014655
_cell_length_c 19.138970
_cell_angle_alpha 90.000000
_cell_angle_beta 42.922736
_cell_angle_gamma 90.000000
_cell_volume 1374.372506
_symmetry_space_group_name_H-M "C C"
_symmetry_group_IT_number 9
_symmetry_cell_setting 'monoclinic'
loop_
_space_group_symop_operation_xyz
x,y,z
x,-y,1/2+z
1/2+x,1/2+y,z
1/2+x,1/2-y,1/2+z
loop_
_atom_site_type_symbol
_atom_site_label
_atom_site_fract_x
_atom_site_fract_y
_atom_site_fract_z
Si Si1 0.590110 0.844388 0.346180
Si Si2 0.142693 0.754569 0.669595
Si Si3 0.184844 0.151063 0.953240
Si Si4 0.659892 0.442197 0.850005
Si Si5 0.230549 0.498693 0.041231
Si Si6 0.724851 0.138674 0.319223
Si Si7 0.861338 0.497680 0.621459
Si Si8 0.779554 0.201841 0.143823
O O1 0.659311 0.817779 0.238420
O O2 0.367132 0.829448 0.425904
O O3 0.663512 0.716257 0.358344
O O4 0.443262 0.327651 0.743985
O O5 0.171537 0.638591 0.602650
O O6 0.161732 0.514763 0.845606
O O7 0.289862 0.872902 0.607236
O O8 0.143695 0.266994 0.912542
O O9 0.230061 0.021252 0.888791
O O10 0.989096 0.142109 0.071572
O O11 0.773717 0.481150 0.734985
O O12 0.443079 0.486820 0.930501
O O13 0.082381 0.512742 0.039938
O O14 0.206894 0.616172 0.107926
O O15 0.677702 0.185131 0.259107
O O16 0.793851 0.641233 0.622535
#
# Coordination Sequence:
#
# PCOD9136120 Si02
#       8
#     4   4   4   4   4   4   4   4
#     4  10  21  39  62  88 120 163 205 255 311 365
#     4  10  22  38  61  91 122 163 209 252 307 368
#     4  10  22  42  61  91 125 163 207 254 315 369
#     4  10  22  39  64  90 124 164 206 255 306 373
#     4  11  22  42  63  91 127 166 207 256 315 369
#     4  11  21  41  65  91 124 162 209 259 310 371
#     4  11  22  42  64  89 127 166 207 261 314 364
#     4  11  22  39  66  91 125 167 204 258 312 367
#
# _framework density 23.283352000000001
#
# number of rings (size 3 to 8) (size 9 to 14) (size 15 to 20)
#    0.000    1.500    3.750    1.500    0.000    3.000 
#    0.000    5.000    0.000    0.000    0.000    0.000 
#    0.000    0.000    0.000    0.000    0.000    0.000 
#
# Total GULP energy -89538.232541 kJ/mol
# GULP energy per Si atom -5596.139534 kJ/mol
# Density = 2.323036 g / cm^3
# Si number density = 23.283352 Si / 1000 Ang^3
#
#
#
# Elastic Constant Matrix: (Units=GPa)
#
#
# Indices 1 2 3 4 5 6 
#
# 1 48.3146 54.1291 18.7687 0.0000 5.3339 0.0000
# 2 54.1291 142.2977 9.8940 0.0000 1.1019 0.0000
# 3 18.7687 9.8940 75.8379 0.0000 12.8324 0.0000
# 4 0.0000 0.0000 0.0000 20.5533 0.0000 3.5544
# 5 5.3339 1.1019 12.8324 0.0000 19.0466 0.0000
# 6 0.0000 0.0000 0.0000 3.5544 0.0000 41.8710
#
#
#
# Elastic Compliance Matrix: (Units=1/GPa)
#
#
# Indices 1 2 3 4 5 6 
#
# 1 0.040991 -0.015047 -0.007208 0.000000 -0.005752 0.000000
# 2 -0.015047 0.012616 0.001680 0.000000 0.002352 0.000000
# 3 -0.007208 0.001680 0.016282 0.000000 -0.009048 0.000000
# 4 0.000000 0.000000 0.000000 0.049379 0.000000 -0.004192
# 5 -0.005752 0.002352 -0.009048 0.000000 0.060074 0.000000
# 6 0.000000 0.000000 0.000000 -0.004192 0.000000 0.024239
#
#
# Mechanical properties :
#
#
# Convention : Reuss Voigt Hill
#
# Bulk Modulus (GPa) = 34.79653 48.00374 41.40014
# Shear Modulus (GPa) = 19.66109 28.53808 24.09959
#
# Velocity S-wave (km/s) = 2.90906 3.50478 3.22072
# Velocity P-wave (km/s) = 5.12452 6.08604 5.62586
#
# Compressibility (1/GPa) = 0.02873850
#
# Stress axis : x y z
#
# Youngs Moduli (GPa) = 24.39589 79.26319 61.41826
#
# Poissons Ratio (x) = 1.19266 0.44271
# Poissons Ratio (y) = 0.36708 -0.10318
# Poissons Ratio (z) = 0.17585 -0.13316
#
# Static dielectric constant tensor:
#      x y z
#    x 1.839400 0.000000 0.002040 
#    y 0.000000 1.850130 0.000000 
#    z 0.002040 0.000000 1.932900 
# 
# From -- ./inp_files/33208.got.cif
#   From: 2010.05.17/outbox.cif.g08.bks.cpg/sg9_17_cif.got.tgz:33208.got - 2010.06.03 20:04:27.
