data_PCOD9136858
_publ_section_title
;
Structure prediction by ZEFSAII (Michael W. Deem and Ramdas Pophale) SiO2 
 PCOD9136858
Probable space group: C C
;
_chemical_formula_sum "Si O2"
_cell_formula_units_Z 28
_cell_length_a 19.583623
_cell_length_b 7.029227
_cell_length_c 15.957495
_cell_angle_alpha 90.000000
_cell_angle_beta 149.736826
_cell_angle_gamma 90.000000
_cell_volume 1107.062750
_symmetry_space_group_name_H-M "C C"
_symmetry_group_IT_number 9
_symmetry_cell_setting 'monoclinic'
loop_
_space_group_symop_operation_xyz
x,y,z
x,-y,1/2+z
1/2+x,1/2+y,z
1/2+x,1/2-y,1/2+z
loop_
_atom_site_type_symbol
_atom_site_label
_atom_site_fract_x
_atom_site_fract_y
_atom_site_fract_z
Si Si1 0.685390 0.666928 0.492750
Si Si2 0.944386 0.283365 0.359393
Si Si3 0.676693 0.366695 0.672961
Si Si4 0.389307 0.633413 0.792807
Si Si5 0.547162 0.439749 0.698401
Si Si6 0.130068 0.729193 0.193825
Si Si7 0.289375 0.516564 0.508077
O O1 0.825896 0.610537 0.685046
O O2 0.616256 0.688883 0.200498
O O3 0.650368 0.521894 0.382741
O O4 0.694375 0.867841 0.454422
O O5 0.058355 0.201508 0.417546
O O6 0.036267 0.380262 0.527715
O O7 0.869604 0.085171 0.305005
O O8 0.548889 0.332733 0.476190
O O9 0.800773 0.259426 0.762617
O O10 0.703898 0.593311 0.722426
O O11 0.348976 0.635551 0.651366
O O12 0.521395 0.643572 0.629493
O O13 0.407518 0.384508 0.592614
O O14 0.218285 0.623488 0.355924
#
# Coordination Sequence:
#
# PCOD9136858 Si02
#       7
#     4   4   4   4   4   4   4
#     4  11  22  45  71 106 144 197 240 307 373 443
#     4  10  23  44  71 104 149 188 251 303 369 444
#     4   9  23  41  75 103 146 189 248 295 373 434
#     4  10  21  44  71 106 146 196 241 309 365 450
#     4  10  23  43  73 106 144 189 245 315 355 453
#     4   9  24  44  71 105 145 187 246 307 370 436
#     4  11  24  43  78 106 154 188 251 310 381 432
#
# _framework density 25.292152000000002
#
# number of rings (size 3 to 8) (size 9 to 14) (size 15 to 20)
#    0.857    1.143    2.857    0.000    6.000    0.000 
#    2.571    5.714    0.000    0.000    0.000    0.000 
#    0.000    0.000    0.000    0.000    0.000    0.000 
#
# Total GULP energy -78069.913185 kJ/mol
# GULP energy per Si atom -5576.422370 kJ/mol
# Density = 2.523459 g / cm^3
# Si number density = 25.292152 Si / 1000 Ang^3
#
#
#
# Elastic Constant Matrix: (Units=GPa)
#
#
# Indices 1 2 3 4 5 6 
#
# 1 128.8849 46.3117 70.5892 0.0000 -12.5802 0.0000
# 2 46.3117 72.9695 35.1409 0.0000 -1.3766 0.0000
# 3 70.5892 35.1409 197.7639 0.0000 -39.5869 0.0000
# 4 0.0000 0.0000 0.0000 39.2712 0.0000 -4.6144
# 5 -12.5802 -1.3766 -39.5869 0.0000 47.8713 0.0000
# 6 0.0000 0.0000 0.0000 -4.6144 0.0000 39.0541
#
#
#
# Elastic Compliance Matrix: (Units=1/GPa)
#
#
# Indices 1 2 3 4 5 6 
#
# 1 0.011553 -0.005880 -0.003002 0.000000 0.000384 0.000000
# 2 -0.005880 0.018161 -0.001598 0.000000 -0.002344 0.000000
# 3 -0.003002 -0.001598 0.007484 0.000000 0.005354 0.000000
# 4 0.000000 0.000000 0.000000 0.025822 0.000000 0.003051
# 5 0.000384 -0.002344 0.005354 0.000000 0.025350 0.000000
# 6 0.000000 0.000000 0.000000 0.003051 0.000000 0.025966
#
#
# Mechanical properties :
#
#
# Convention : Reuss Voigt Hill
#
# Bulk Modulus (GPa) = 61.57834 78.18912 69.88373
# Shear Modulus (GPa) = 35.53447 41.74440 38.63944
#
# Velocity S-wave (km/s) = 3.75235 4.06703 3.91285
# Velocity P-wave (km/s) = 6.57063 7.28257 6.93574
#
# Compressibility (1/GPa) = 0.01623948
#
# Stress axis : x y z
#
# Youngs Moduli (GPa) = 86.55549 55.06265 133.62482
#
# Poissons Ratio (x) = 0.32374 0.40115
# Poissons Ratio (y) = 0.50891 0.21349
# Poissons Ratio (z) = 0.25985 0.08797
#
# Static dielectric constant tensor:
#      x y z
#    x 2.028960 0.000000 -0.050340 
#    y 0.000000 2.116010 0.000000 
#    z -0.050340 0.000000 2.028510 
# 
# From -- ./inp_files/27324.got.cif
#   From: 2010.05.17/outbox.cif.g08.bks.cpg/sg9_14_cif.got.tgz:27324.got - 2010.06.03 20:04:27.
