data_PCOD9136877
_publ_section_title
;
Structure prediction by ZEFSAII (Michael W. Deem and Ramdas Pophale) SiO2 
 PCOD9136877
Probable space group: C C
;
_chemical_formula_sum "Si O2"
_cell_formula_units_Z 32
_cell_length_a 9.382109
_cell_length_b 27.719509
_cell_length_c 9.355161
_cell_angle_alpha 90.000000
_cell_angle_beta 34.201964
_cell_angle_gamma 90.000000
_cell_volume 1367.602608
_symmetry_space_group_name_H-M "C C"
_symmetry_group_IT_number 9
_symmetry_cell_setting 'monoclinic'
loop_
_space_group_symop_operation_xyz
x,y,z
x,-y,1/2+z
1/2+x,1/2+y,z
1/2+x,1/2-y,1/2+z
loop_
_atom_site_type_symbol
_atom_site_label
_atom_site_fract_x
_atom_site_fract_y
_atom_site_fract_z
Si Si1 0.940000 0.135632 0.321870
Si Si2 0.297367 0.561417 0.206096
Si Si3 0.067248 0.229923 0.703151
Si Si4 0.392775 0.379016 0.340326
Si Si5 0.025780 0.617985 0.903284
Si Si6 0.902357 0.509953 0.040437
Si Si7 0.110800 0.025598 0.542697
Si Si8 0.770010 0.232706 0.343304
O O1 0.876403 0.088833 0.282180
O O2 0.743539 0.137946 0.616683
O O3 0.869769 0.178748 0.272193
O O4 0.237477 0.135891 0.116600
O O5 0.009050 0.544408 0.440549
O O6 0.361873 0.594456 0.017808
O O7 0.415458 0.507876 0.119618
O O8 0.289457 0.246611 0.411888
O O9 0.160533 0.250797 0.780254
O O10 0.033228 0.172186 0.736564
O O11 0.126480 0.371053 0.479340
O O12 0.531408 0.419535 0.128558
O O13 0.015934 0.559907 0.887787
O O14 0.863838 0.521078 0.239074
O O15 0.650136 0.501715 0.157848
O O16 0.531133 0.237918 0.647559
#
# Coordination Sequence:
#
# PCOD9136877 Si02
#       8
#     4   4   4   4   4   4   4   4
#     4  12  27  48  78 111 149 204 253 316 394 454
#     4  12  26  44  72 107 146 212 261 304 371 465
#     4  10  24  48  78 110 148 189 261 330 381 451
#     4  12  27  49  79 112 155 210 260 321 397 459
#     4  12  27  46  73 109 162 193 250 316 386 460
#     4  12  25  43  68 102 159 204 257 319 363 459
#     4  12  25  44  68 108 154 207 258 311 377 457
#     4  10  21  44  76 107 145 181 250 323 371 447
#
# _framework density 23.398610999999999
#
# number of rings (size 3 to 8) (size 9 to 14) (size 15 to 20)
#    0.000    0.500    3.750    4.500    1.750    6.000 
#    0.000    3.750    0.000    0.000    0.000    0.000 
#    0.000    0.000    0.000    0.000    0.000    0.000 
#
# Total GULP energy -89295.806913 kJ/mol
# GULP energy per Si atom -5580.987932 kJ/mol
# Density = 2.334535 g / cm^3
# Si number density = 23.398611 Si / 1000 Ang^3
#
#
#
# Elastic Constant Matrix: (Units=GPa)
#
#
# Indices 1 2 3 4 5 6 
#
# 1 90.4545 77.6106 38.8976 0.0000 -12.8670 0.0000
# 2 77.6106 301.2890 88.2047 0.0000 -8.4540 0.0000
# 3 38.8976 88.2047 130.4170 0.0000 -18.5116 0.0000
# 4 0.0000 0.0000 0.0000 29.9164 0.0000 -7.2288
# 5 -12.8670 -8.4540 -18.5116 0.0000 33.7727 0.0000
# 6 0.0000 0.0000 0.0000 -7.2288 0.0000 39.7988
#
#
#
# Elastic Compliance Matrix: (Units=1/GPa)
#
#
# Indices 1 2 3 4 5 6 
#
# 1 0.015199 -0.003295 -0.001735 0.000000 0.004015 0.000000
# 2 -0.003295 0.004862 -0.002506 0.000000 -0.001412 0.000000
# 3 -0.001735 -0.002506 0.010515 0.000000 0.004475 0.000000
# 4 0.000000 0.000000 0.000000 0.034961 0.000000 0.006350
# 5 0.004015 -0.001412 0.004475 0.000000 0.033239 0.000000
# 6 0.000000 0.000000 0.000000 0.006350 0.000000 0.026280
#
#
# Mechanical properties :
#
#
# Convention : Reuss Voigt Hill
#
# Bulk Modulus (GPa) = 64.49510 103.50960 84.00235
# Shear Modulus (GPa) = 34.41257 41.86076 38.13667
#
# Velocity S-wave (km/s) = 3.83914 4.23428 4.04154
# Velocity P-wave (km/s) = 6.87572 8.26069 7.59982
#
# Compressibility (1/GPa) = 0.01550505
#
# Stress axis : x y z
#
# Youngs Moduli (GPa) = 65.79202 205.68659 95.09988
#
# Poissons Ratio (x) = 0.67767 0.16501
# Poissons Ratio (y) = 0.21676 0.23831
# Poissons Ratio (z) = 0.11416 0.51543
#
# Static dielectric constant tensor:
#      x y z
#    x 1.926890 0.000000 -0.121690 
#    y 0.000000 1.876330 0.000000 
#    z -0.121690 0.000000 2.122700 
# 
# From -- ./inp_files/1267.got.cif
#   From: 2010.05.17/outbox.cif.g08.bks.cpg/sg9_1_cif.got.tgz:1267.got - 2010.06.03 20:04:27.
