data_PCOD9136103
_publ_section_title
;
Structure prediction by ZEFSAII (Michael W. Deem and Ramdas Pophale) SiO2 
 PCOD9136103
Probable space group: C C
;
_chemical_formula_sum "Si O2"
_cell_formula_units_Z 20
_cell_length_a 26.362211
_cell_length_b 7.028630
_cell_length_c 5.259662
_cell_angle_alpha 90.000000
_cell_angle_beta 113.181912
_cell_angle_gamma 90.000000
_cell_volume 895.877339
_symmetry_space_group_name_H-M "C C"
_symmetry_group_IT_number 9
_symmetry_cell_setting 'monoclinic'
loop_
_space_group_symop_operation_xyz
x,y,z
x,-y,1/2+z
1/2+x,1/2+y,z
1/2+x,1/2-y,1/2+z
loop_
_atom_site_type_symbol
_atom_site_label
_atom_site_fract_x
_atom_site_fract_y
_atom_site_fract_z
Si Si1 0.498180 0.377393 0.800510
Si Si2 0.340583 0.212621 0.138457
Si Si3 0.385858 0.214557 0.727799
Si Si4 0.605195 0.127158 0.090105
Si Si5 0.228541 0.372447 0.771933
O O1 0.493430 0.462479 0.509502
O O2 0.448188 0.231646 0.756640
O O3 0.556664 0.275732 0.952060
O O4 0.347857 0.300754 0.431086
O O5 0.363713 0.999732 0.221715
O O6 0.378075 0.301809 0.990939
O O7 0.278141 0.227130 0.920443
O O8 0.666947 0.210056 0.181353
O O9 0.600390 0.031733 0.358384
O O10 0.233100 0.467957 0.503470
#
# Coordination Sequence:
#
# PCOD9136103 Si02
#       5
#     4   4   4   4   4
#     4  12  26  43  64 100 132 166 220 275 314 373
#     4  10  21  39  60  93 120 173 209 256 318 388
#     4  10  23  38  60  90 126 168 210 257 324 376
#     4  10  23  43  70  94 128 178 212 259 325 388
#     4  10  21  39  64  95 128 163 213 265 313 375
#
# _framework density 22.324484999999999
#
# number of rings (size 3 to 8) (size 9 to 14) (size 15 to 20)
#    0.000    1.600    0.000    3.600    5.600    4.800 
#    7.200    0.000    0.000    0.000    0.000    0.000 
#    0.000    0.000    0.000    0.000    0.000    0.000 
#
# Total GULP energy -55881.378479 kJ/mol
# GULP energy per Si atom -5588.137848 kJ/mol
# Density = 2.227367 g / cm^3
# Si number density = 22.324485 Si / 1000 Ang^3
#
#
#
# Elastic Constant Matrix: (Units=GPa)
#
#
# Indices 1 2 3 4 5 6 
#
# 1 118.0726 19.9244 31.8394 0.0000 26.4209 0.0000
# 2 19.9244 60.7212 -10.0052 0.0000 24.0460 0.0000
# 3 31.8394 -10.0052 112.4232 0.0000 -3.9592 0.0000
# 4 0.0000 0.0000 0.0000 35.2675 0.0000 20.1963
# 5 26.4209 24.0460 -3.9592 0.0000 67.6662 0.0000
# 6 0.0000 0.0000 0.0000 20.1963 0.0000 31.0326
#
#
#
# Elastic Compliance Matrix: (Units=1/GPa)
#
#
# Indices 1 2 3 4 5 6 
#
# 1 0.010583 -0.002690 -0.003355 0.000000 -0.003373 0.000000
# 2 -0.002690 0.020095 0.002340 0.000000 -0.005954 0.000000
# 3 -0.003355 0.002340 0.010091 0.000000 0.001069 0.000000
# 4 0.000000 0.000000 0.000000 0.045201 0.000000 -0.029417
# 5 -0.003373 -0.005954 0.001069 0.000000 0.018274 0.000000
# 6 0.000000 0.000000 0.000000 -0.029417 0.000000 0.051369
#
#
# Mechanical properties :
#
#
# Convention : Reuss Voigt Hill
#
# Bulk Modulus (GPa) = 29.97671 41.63713 35.80692
# Shear Modulus (GPa) = 28.71238 43.42383 36.06811
#
# Velocity S-wave (km/s) = 3.59017 4.41514 4.02385
# Velocity P-wave (km/s) = 5.53558 6.68451 6.13699
#
# Compressibility (1/GPa) = 0.03335923
#
# Stress axis : x y z
#
# Youngs Moduli (GPa) = 94.49366 49.76454 99.09683
#
# Poissons Ratio (x) = 0.13386 0.33250
# Poissons Ratio (y) = 0.25417 -0.23193
# Poissons Ratio (z) = 0.31705 -0.11647
#
# Static dielectric constant tensor:
#      x y z
#    x 1.828840 0.000000 -0.037330 
#    y 0.000000 1.554360 0.000000 
#    z -0.037330 0.000000 1.865160 
# 
# From -- ./inp_files/2835.got.cif
#   From: 2010.05.17/outbox.cif.g08.bks.cpg/sg9_2_cif.got.tgz:2835.got - 2010.06.03 20:04:27.
