data_PCOD9136099
_publ_section_title
;
Structure prediction by ZEFSAII (Michael W. Deem and Ramdas Pophale) SiO2 
 PCOD9136099
Probable space group: C C
;
_chemical_formula_sum "Si O2"
_cell_formula_units_Z 32
_cell_length_a 5.226960
_cell_length_b 9.307966
_cell_length_c 28.959850
_cell_angle_alpha 90.000000
_cell_angle_beta 65.863813
_cell_angle_gamma 90.000000
_cell_volume 1285.787987
_symmetry_space_group_name_H-M "C C"
_symmetry_group_IT_number 9
_symmetry_cell_setting 'monoclinic'
loop_
_space_group_symop_operation_xyz
x,y,z
x,-y,1/2+z
1/2+x,1/2+y,z
1/2+x,1/2-y,1/2+z
loop_
_atom_site_type_symbol
_atom_site_label
_atom_site_fract_x
_atom_site_fract_y
_atom_site_fract_z
Si Si1 0.591000 0.035570 0.511220
Si Si2 0.011439 0.691156 0.243277
Si Si3 0.279643 0.410370 0.591516
Si Si4 0.750791 0.672232 0.992106
Si Si5 0.594879 0.520990 0.206357
Si Si6 0.120750 0.164088 0.900171
Si Si7 0.125437 0.885157 0.110910
Si Si8 0.708347 0.335154 0.863562
O O1 0.819167 0.159234 0.487304
O O2 0.314373 0.120417 0.550564
O O3 0.654972 0.943990 0.551294
O O4 0.501158 0.941880 0.474526
O O5 0.802903 0.600990 0.225673
O O6 0.890977 0.675925 0.303745
O O7 0.318851 0.618528 0.219999
O O8 0.020822 0.860937 0.230319
O O9 0.594986 0.360297 0.552315
O O10 0.138840 0.277278 0.626690
O O11 0.327682 0.553652 0.617172
O O12 0.571664 0.651370 0.959088
O O13 0.715697 0.488093 0.146011
O O14 0.418782 0.248429 0.876580
O O15 0.891239 0.257963 0.890122
O O16 0.149734 0.003008 0.878421
#
# Coordination Sequence:
#
# PCOD9136099 Si02
#       8
#     4   4   4   4   4   4   4   4
#     4  10  21  39  60  85 132 171 215 278 327 402
#     4  12  26  49  71 105 138 184 225 297 359 417
#     4  10  21  39  60  85 132 171 215 278 327 402
#     4  10  23  37  60  94 126 175 228 266 342 387
#     4  12  26  44  74 100 138 177 235 285 342 430
#     4  12  26  44  74 106 138 185 233 293 334 438
#     4  10  23  37  58  94 118 175 220 272 334 395
#     4  12  26  47  73 103 142 180 231 291 365 409
#
# _framework density 24.887464000000001
#
# number of rings (size 3 to 8) (size 9 to 14) (size 15 to 20)
#    0.000    1.000    0.000    6.000    7.000    0.000 
#    0.000    0.000    0.000    0.000    0.000    0.000 
#    0.000    0.000    0.000    0.000    0.000    0.000 
#
# Total GULP energy -89526.861464 kJ/mol
# GULP energy per Si atom -5595.428842 kJ/mol
# Density = 2.483082 g / cm^3
# Si number density = 24.887464 Si / 1000 Ang^3
#
#
#
# Elastic Constant Matrix: (Units=GPa)
#
#
# Indices 1 2 3 4 5 6 
#
# 1 145.9418 72.7515 13.6081 0.0000 18.5513 -0.0001
# 2 72.7515 175.7727 18.9964 0.0000 0.8969 0.0000
# 3 13.6081 18.9964 111.0816 0.0000 5.8261 0.0000
# 4 0.0000 0.0000 0.0000 41.9496 0.0000 6.4565
# 5 18.5513 0.8969 5.8261 0.0000 33.7218 0.0000
# 6 -0.0001 0.0000 0.0000 6.4565 0.0000 51.0406
#
#
#
# Elastic Compliance Matrix: (Units=1/GPa)
#
#
# Indices 1 2 3 4 5 6 
#
# 1 0.009437 -0.003855 -0.000232 0.000000 -0.005049 0.000000
# 2 -0.003855 0.007371 -0.000897 0.000000 0.002080 0.000000
# 3 -0.000232 -0.000897 0.009260 0.000000 -0.001448 0.000000
# 4 0.000000 0.000000 0.000000 0.024311 0.000000 -0.003075
# 5 -0.005049 0.002080 -0.001448 0.000000 0.032627 0.000000
# 6 0.000000 0.000000 0.000000 -0.003075 0.000000 0.019981
#
#
# Mechanical properties :
#
#
# Convention : Reuss Voigt Hill
#
# Bulk Modulus (GPa) = 62.11359 71.50092 66.80725
# Shear Modulus (GPa) = 42.25681 47.17175 44.71428
#
# Velocity S-wave (km/s) = 4.12505 4.35834 4.24330
# Velocity P-wave (km/s) = 6.90652 7.35656 7.13509
#
# Compressibility (1/GPa) = 0.01609954
#
# Stress axis : x y z
#
# Youngs Moduli (GPa) = 105.96246 135.66327 107.98854
#
# Poissons Ratio (x) = 0.52301 0.02505
# Poissons Ratio (y) = 0.40851 0.09691
# Poissons Ratio (z) = 0.02458 0.12174
#
# Static dielectric constant tensor:
#      x y z
#    x 2.023060 0.000000 -0.093260 
#    y 0.000000 2.031910 0.000000 
#    z -0.093260 0.000000 1.989880 
# 
# From -- ./inp_files/37080.got.cif
#   From: 2010.05.17/outbox.cif.g08.bks.cpg/sg9_19_cif.got.tgz:37080.got - 2010.06.03 20:04:27.
