data_PCOD9136996
_publ_section_title
;
Structure prediction by ZEFSAII (Michael W. Deem and Ramdas Pophale) SiO2 
 PCOD9136996
Probable space group: C C
;
_chemical_formula_sum "Si O2"
_cell_formula_units_Z 28
_cell_length_a 11.601909
_cell_length_b 18.614631
_cell_length_c 8.819472
_cell_angle_alpha 90.000000
_cell_angle_beta 39.459391
_cell_angle_gamma 90.000000
_cell_volume 1210.495901
_symmetry_space_group_name_H-M "C C"
_symmetry_group_IT_number 9
_symmetry_cell_setting 'monoclinic'
loop_
_space_group_symop_operation_xyz
x,y,z
x,-y,1/2+z
1/2+x,1/2+y,z
1/2+x,1/2-y,1/2+z
loop_
_atom_site_type_symbol
_atom_site_label
_atom_site_fract_x
_atom_site_fract_y
_atom_site_fract_z
Si Si1 0.712890 0.429254 0.776280
Si Si2 0.995967 0.707702 0.648357
Si Si3 0.216805 0.468962 0.006404
Si Si4 0.851501 0.154102 0.168261
Si Si5 0.298923 0.930665 0.353552
Si Si6 0.881377 0.125614 0.805362
Si Si7 0.604548 0.139305 0.853936
O O1 0.687530 0.430128 0.621937
O O2 0.721257 0.512627 0.816075
O O3 0.908931 0.390998 0.603370
O O4 0.558829 0.389279 0.026259
O O5 0.947170 0.789558 0.680787
O O6 0.832617 0.652252 0.779641
O O7 0.146908 0.684337 0.374880
O O8 0.066299 0.689818 0.747141
O O9 0.217552 0.427799 0.166736
O O10 0.003479 0.460630 0.180098
O O11 0.330542 0.422752 0.769602
O O12 0.283031 0.549626 0.943278
O O13 0.928652 0.155956 0.922001
O O14 0.731746 0.168461 0.857837
#
# Coordination Sequence:
#
# PCOD9136996 Si02
#       7
#     4   4   4   4   4   4   4
#     4  10  22  35  62 105 131 174 219 278 332 402
#     4   9  22  46  66  91 136 189 225 274 344 408
#     4   9  20  37  67  94 138 173 216 277 343 395
#     4  10  23  43  67  98 130 186 226 278 335 411
#     4   9  20  39  63  95 137 175 215 277 338 398
#     4  12  22  37  69 103 134 168 232 283 336 390
#     4   9  21  43  62  92 138 179 217 283 336 398
#
# _framework density 23.131015999999999
#
# number of rings (size 3 to 8) (size 9 to 14) (size 15 to 20)
#    0.000    2.857    1.429    0.857   10.000    1.143 
#   10.286    2.857    3.143    0.000    0.000    0.000 
#    0.000    0.000    0.000    0.000    0.000    0.000 
#
# Total GULP energy -78244.879819 kJ/mol
# GULP energy per Si atom -5588.919987 kJ/mol
# Density = 2.307837 g / cm^3
# Si number density = 23.131016 Si / 1000 Ang^3
#
#
#
# Elastic Constant Matrix: (Units=GPa)
#
#
# Indices 1 2 3 4 5 6 
#
# 1 68.8785 35.1269 39.6448 0.0000 3.2905 0.0000
# 2 35.1269 55.4897 19.4814 0.0000 4.1014 0.0000
# 3 39.6448 19.4814 142.7869 0.0000 -1.4191 0.0000
# 4 0.0000 0.0000 0.0000 11.6894 0.0000 -1.5474
# 5 3.2905 4.1014 -1.4191 0.0000 19.4503 0.0000
# 6 0.0000 0.0000 0.0000 -1.5474 0.0000 26.0801
#
#
#
# Elastic Compliance Matrix: (Units=1/GPa)
#
#
# Indices 1 2 3 4 5 6 
#
# 1 0.024348 -0.013564 -0.004926 0.000000 -0.001618 0.000000
# 2 -0.013564 0.026831 0.000072 0.000000 -0.003358 0.000000
# 3 -0.004926 0.000072 0.008375 0.000000 0.001429 0.000000
# 4 0.000000 0.000000 0.000000 0.086225 0.000000 0.005116
# 5 -0.001618 -0.003358 0.001429 0.000000 0.052499 0.000000
# 6 0.000000 0.000000 0.000000 0.005116 0.000000 0.038647
#
#
# Mechanical properties :
#
#
# Convention : Reuss Voigt Hill
#
# Bulk Modulus (GPa) = 44.01672 50.62901 47.32286
# Shear Modulus (GPa) = 17.77243 22.97077 20.37160
#
# Velocity S-wave (km/s) = 2.77490 3.15472 2.97089
# Velocity P-wave (km/s) = 5.41640 5.93339 5.68078
#
# Compressibility (1/GPa) = 0.02271864
#
# Stress axis : x y z
#
# Youngs Moduli (GPa) = 41.07051 37.27033 119.39664
#
# Poissons Ratio (x) = 0.50555 0.58811
# Poissons Ratio (y) = 0.55710 -0.00860
# Poissons Ratio (z) = 0.20230 -0.00269
#
# Static dielectric constant tensor:
#      x y z
#    x 1.923570 0.000000 -0.040030 
#    y 0.000000 1.869860 0.000000 
#    z -0.040030 0.000000 1.859090 
# 
# From -- ./inp_files/8239.got.cif
#   From: 2010.05.17/outbox.cif.g08.bks.cpg/sg9_5_cif.got.tgz:8239.got - 2010.06.03 20:04:27.
