data_PCOD9136992
_publ_section_title
;
Structure prediction by ZEFSAII (Michael W. Deem and Ramdas Pophale) SiO2 
 PCOD9136992
Probable space group: C C
;
_chemical_formula_sum "Si O2"
_cell_formula_units_Z 24
_cell_length_a 10.232401
_cell_length_b 18.463271
_cell_length_c 5.618802
_cell_angle_alpha 90.000000
_cell_angle_beta 56.693747
_cell_angle_gamma 90.000000
_cell_volume 887.166181
_symmetry_space_group_name_H-M "C C"
_symmetry_group_IT_number 9
_symmetry_cell_setting 'monoclinic'
loop_
_space_group_symop_operation_xyz
x,y,z
x,-y,1/2+z
1/2+x,1/2+y,z
1/2+x,1/2-y,1/2+z
loop_
_atom_site_type_symbol
_atom_site_label
_atom_site_fract_x
_atom_site_fract_y
_atom_site_fract_z
Si Si1 0.439610 0.500000 0.004010
Si Si2 0.326658 0.134067 0.366961
Si Si3 0.889650 0.769857 0.803969
Si Si4 0.544867 0.740260 0.648754
Si Si5 0.361794 0.096891 0.831825
Si Si6 0.716049 0.097733 0.477572
O O1 0.524952 0.495568 0.168669
O O2 0.318726 0.566511 0.157974
O O3 0.318726 0.433489 0.091817
O O4 0.217671 0.205981 0.475949
O O5 0.298435 0.086423 0.629929
O O6 0.500254 0.173079 0.193367
O O7 0.298436 0.086423 0.160438
O O8 0.976843 0.787576 0.963938
O O9 0.861387 0.685056 0.832232
O O10 0.730162 0.816070 0.963456
O O11 0.976844 0.787576 0.469616
O O12 0.540838 0.070803 0.652783
#
# Coordination Sequence:
#
# PCOD9136992 Si02
#       6
#     4   4   4   4   4   4
#     4   8  20  36  60  84 122 148 216 254 292 320
#     4  10  22  35  52  77 119 164 201 226 290 363
#     4  10  23  32  58  82 128 154 187 248 305 365
#     4  10  22  35  52  77 119 164 201 226 290 363
#     4  10  23  32  58  82 128 154 187 248 305 365
#     4  10  22  38  62  94 122 154 210 254 302 346
#
# _framework density 27.052427999999999
#
# number of rings (size 3 to 8) (size 9 to 14) (size 15 to 20)
#    1.000    1.333    0.000    1.000   23.333    0.000 
#    0.000    0.000    0.000    0.000    0.000   23.333 
#    0.000    0.000    0.000    0.000    0.000    0.000 
#
# Total GULP energy -66973.727871 kJ/mol
# GULP energy per Si atom -5581.143989 kJ/mol
# Density = 2.699086 g / cm^3
# Si number density = 27.052428 Si / 1000 Ang^3
#
#
#
# Elastic Constant Matrix: (Units=GPa)
#
#
# Indices 1 2 3 4 5 6 
#
# 1 128.8397 16.4164 85.4658 0.0000 49.9002 0.0000
# 2 16.4164 80.5187 13.3896 0.0000 -4.0060 0.0000
# 3 85.4658 13.3896 216.9256 0.0000 66.7556 0.0000
# 4 0.0000 0.0000 0.0000 14.8246 0.0000 -6.3819
# 5 49.9002 -4.0060 66.7556 0.0000 62.8441 0.0000
# 6 0.0000 0.0000 0.0000 -6.3819 0.0000 19.6450
#
#
#
# Elastic Compliance Matrix: (Units=1/GPa)
#
#
# Indices 1 2 3 4 5 6 
#
# 1 0.012681 -0.002544 -0.002512 0.000000 -0.007563 0.000000
# 2 -0.002544 0.013309 -0.001043 0.000000 0.003976 0.000000
# 3 -0.002512 -0.001043 0.007533 0.000000 -0.006074 0.000000
# 4 0.000000 0.000000 0.000000 0.078423 0.000000 0.025476
# 5 -0.007563 0.003976 -0.006074 0.000000 0.028624 0.000000
# 6 0.000000 0.000000 0.000000 0.025476 0.000000 0.059180
#
#
# Mechanical properties :
#
#
# Convention : Reuss Voigt Hill
#
# Bulk Modulus (GPa) = 46.89005 72.98086 59.93546
# Shear Modulus (GPa) = 22.82526 40.19690 31.51108
#
# Velocity S-wave (km/s) = 2.90787 3.85890 3.41664
# Velocity P-wave (km/s) = 5.35210 6.84770 6.14557
#
# Compressibility (1/GPa) = 0.02132649
#
# Stress axis : x y z
#
# Youngs Moduli (GPa) = 78.85676 75.13482 132.74967
#
# Poissons Ratio (x) = 0.19115 0.33342
# Poissons Ratio (y) = 0.20062 0.13843
# Poissons Ratio (z) = 0.19806 0.07835
#
# Static dielectric constant tensor:
#      x y z
#    x 2.157870 0.000000 0.069550 
#    y 0.000000 2.081710 0.000000 
#    z 0.069550 0.000000 2.210380 
# 
# From -- ./inp_files/1915.got.cif
#   From: 2010.05.17/outbox.cif.g08.bks.cpg/sg9_1_cif.got.tgz:1915.got - 2010.06.03 20:04:27.
