data_PCOD9136175
_publ_section_title
;
Structure prediction by ZEFSAII (Michael W. Deem and Ramdas Pophale) SiO2 
 PCOD9136175
Probable space group: C C
;
_chemical_formula_sum "Si O2"
_cell_formula_units_Z 32
_cell_length_a 7.738419
_cell_length_b 11.909842
_cell_length_c 19.177229
_cell_angle_alpha 90.000000
_cell_angle_beta 47.180182
_cell_angle_gamma 90.000000
_cell_volume 1296.406322
_symmetry_space_group_name_H-M "C C"
_symmetry_group_IT_number 9
_symmetry_cell_setting 'monoclinic'
loop_
_space_group_symop_operation_xyz
x,y,z
x,-y,1/2+z
1/2+x,1/2+y,z
1/2+x,1/2-y,1/2+z
loop_
_atom_site_type_symbol
_atom_site_label
_atom_site_fract_x
_atom_site_fract_y
_atom_site_fract_z
Si Si1 0.739370 0.919507 0.792650
Si Si2 0.706236 0.284012 0.051226
Si Si3 0.765403 0.046868 0.075026
Si Si4 0.800259 0.512399 0.979579
Si Si5 0.726293 0.887351 0.196399
Si Si6 0.094683 0.716627 0.869466
Si Si7 0.043743 0.196092 0.833618
Si Si8 0.939978 0.038034 0.391193
O O1 0.740421 0.790514 0.769561
O O2 0.838823 0.933848 0.842799
O O3 0.466749 0.958925 0.873828
O O4 0.839424 0.010573 0.712227
O O5 0.705637 0.177434 0.102606
O O6 0.432179 0.307224 0.110523
O O7 0.797995 0.411790 0.037321
O O8 0.878976 0.239359 0.943013
O O9 0.624856 0.958879 0.160684
O O10 0.040943 0.032465 0.020492
O O11 0.750988 0.008497 0.998748
O O12 0.925063 0.631973 0.958583
O O13 0.575641 0.816985 0.293122
O O14 0.361904 0.693796 0.819337
O O15 0.039046 0.846378 0.893775
O O16 0.108984 0.069090 0.834033
#
# Coordination Sequence:
#
# PCOD9136175 Si02
#       8
#     4   4   4   4   4   4   4   4
#     4  10  21  39  66  89 129 162 214 269 313 375
#     4   9  20  38  65  90 125 163 213 256 323 378
#     4  10  22  39  66  90 130 171 214 265 325 379
#     4   9  19  37  60  93 118 166 215 255 306 382
#     4  10  21  40  59  97 132 164 205 272 333 364
#     4  11  22  37  68  90 130 167 213 270 315 377
#     4  10  21  41  64  91 121 172 214 258 312 392
#     4  11  22  39  64  96 119 171 222 255 309 397
#
# _framework density 24.683620000000001
#
# number of rings (size 3 to 8) (size 9 to 14) (size 15 to 20)
#    0.000    2.000    2.500    2.250    7.000    0.000 
#    0.000    5.000    0.000    3.000    0.000    0.000 
#    0.000    0.000    0.000    0.000    0.000    0.000 
#
# Total GULP energy -89225.951861 kJ/mol
# GULP energy per Si atom -5576.621991 kJ/mol
# Density = 2.462744 g / cm^3
# Si number density = 24.683620 Si / 1000 Ang^3
#
#
#
# Elastic Constant Matrix: (Units=GPa)
#
#
# Indices 1 2 3 4 5 6 
#
# 1 54.9155 34.3316 12.2123 -0.0002 6.0594 0.0003
# 2 34.3316 237.4565 24.9483 -0.0001 -6.5275 0.0001
# 3 12.2123 24.9483 63.5494 0.0000 -0.1262 0.0003
# 4 -0.0002 -0.0001 0.0000 29.6745 0.0001 8.6654
# 5 6.0594 -6.5275 -0.1262 0.0001 28.0950 -0.0004
# 6 0.0003 0.0001 0.0003 8.6654 -0.0004 37.4636
#
#
#
# Elastic Compliance Matrix: (Units=1/GPa)
#
#
# Indices 1 2 3 4 5 6 
#
# 1 0.021268 -0.002909 -0.002955 0.000000 -0.005276 0.000000
# 2 -0.002909 0.004820 -0.001329 0.000000 0.001741 0.000000
# 3 -0.002955 -0.001329 0.016826 0.000000 0.000404 0.000000
# 4 0.000000 0.000000 0.000000 0.036140 0.000000 -0.008359
# 5 -0.005276 0.001741 0.000404 0.000000 0.037138 0.000000
# 6 0.000000 0.000000 0.000000 -0.008359 0.000000 0.028626
#
#
# Mechanical properties :
#
#
# Convention : Reuss Voigt Hill
#
# Bulk Modulus (GPa) = 35.05645 55.43396 45.24521
# Shear Modulus (GPa) = 29.63577 38.00858 33.82217
#
# Velocity S-wave (km/s) = 3.46876 3.92832 3.70567
# Velocity P-wave (km/s) = 5.50238 6.56370 6.05634
#
# Compressibility (1/GPa) = 0.02852542
#
# Stress axis : x y z
#
# Youngs Moduli (GPa) = 47.01876 207.49038 59.43023
#
# Poissons Ratio (x) = 0.60369 0.17564
# Poissons Ratio (y) = 0.13680 0.07901
# Poissons Ratio (z) = 0.13896 0.27585
#
# Static dielectric constant tensor:
#      x y z
#    x 2.008840 0.000000 0.000610 
#    y 0.000000 2.006410 0.000000 
#    z 0.000610 0.000000 2.047610 
# 
# From -- ./inp_files/29155.got.cif
#   From: 2010.05.17/outbox.cif.g08.bks.cpg/sg9_15_cif.got.tgz:29155.got - 2010.06.03 20:04:27.
