data_PCOD9136424
_publ_section_title
;
Structure prediction by ZEFSAII (Michael W. Deem and Ramdas Pophale) SiO2 
 PCOD9136424
Probable space group: C C
;
_chemical_formula_sum "Si O2"
_cell_formula_units_Z 24
_cell_length_a 14.303568
_cell_length_b 9.133757
_cell_length_c 14.266006
_cell_angle_alpha 90.000000
_cell_angle_beta 148.491849
_cell_angle_gamma 90.000000
_cell_volume 974.052012
_symmetry_space_group_name_H-M "C C"
_symmetry_group_IT_number 9
_symmetry_cell_setting 'monoclinic'
loop_
_space_group_symop_operation_xyz
x,y,z
x,-y,1/2+z
1/2+x,1/2+y,z
1/2+x,1/2-y,1/2+z
loop_
_atom_site_type_symbol
_atom_site_label
_atom_site_fract_x
_atom_site_fract_y
_atom_site_fract_z
Si Si1 0.331860 0.669017 0.787830
Si Si2 0.628919 0.541068 0.506154
Si Si3 0.483023 0.042569 0.506919
Si Si4 0.266639 0.410554 0.010445
Si Si5 0.669391 0.388115 0.351039
Si Si6 0.016630 0.646806 0.877017
O O1 0.396625 0.832140 0.865837
O O2 0.291521 0.647263 0.641114
O O3 0.153911 0.628715 0.693597
O O4 0.489947 0.554517 0.945941
O O5 0.689925 0.436962 0.475467
O O6 0.533119 0.681665 0.378905
O O7 0.808682 0.605109 0.702008
O O8 0.326798 0.971357 0.432881
O O9 0.575097 0.908586 0.529511
O O10 0.469978 0.434692 0.151034
O O11 0.184625 0.287506 0.871937
O O12 0.136400 0.549874 0.909257
#
# Coordination Sequence:
#
# PCOD9136424 Si02
#       6
#     4   4   4   4   4   4
#     4  10  21  41  63  84 118 163 199 238 296 361
#     4  11  22  40  63  88 118 158 200 240 292 362
#     4  11  23  39  61  90 119 155 199 248 298 345
#     4  10  21  41  63  84 118 163 199 238 296 361
#     4  11  23  39  61  90 119 155 199 248 298 345
#     4  11  22  40  63  88 118 158 200 240 292 362
#
# _framework density 24.639340000000001
#
# number of rings (size 3 to 8) (size 9 to 14) (size 15 to 20)
#    0.000    1.333    0.000   10.000    0.000    5.333 
#    0.000    5.000    0.000    0.000    0.000    0.000 
#    0.000    0.000    0.000    0.000    0.000    0.000 
#
# Total GULP energy -67080.602575 kJ/mol
# GULP energy per Si atom -5590.050215 kJ/mol
# Density = 2.458326 g / cm^3
# Si number density = 24.639340 Si / 1000 Ang^3
#
#
#
# Elastic Constant Matrix: (Units=GPa)
#
#
# Indices 1 2 3 4 5 6 
#
# 1 82.9601 32.1165 36.6251 0.0000 38.9634 0.0000
# 2 32.1165 134.4149 33.2676 0.0000 31.5904 0.0000
# 3 36.6251 33.2676 98.4288 0.0000 41.7130 0.0000
# 4 0.0000 0.0000 0.0000 41.6332 0.0000 12.6442
# 5 38.9634 31.5904 41.7130 0.0000 46.7744 0.0000
# 6 0.0000 0.0000 0.0000 12.6442 0.0000 29.4023
#
#
#
# Elastic Compliance Matrix: (Units=1/GPa)
#
#
# Indices 1 2 3 4 5 6 
#
# 1 0.019935 -0.000999 -0.000528 0.000000 -0.015460 0.000000
# 2 -0.000999 0.008927 -0.000712 0.000000 -0.004562 0.000000
# 3 -0.000528 -0.000712 0.016407 0.000000 -0.013711 0.000000
# 4 0.000000 0.000000 0.000000 0.027628 0.000000 -0.011881
# 5 -0.015460 -0.004562 -0.013711 0.000000 0.049566 0.000000
# 6 0.000000 0.000000 0.000000 -0.011881 0.000000 0.039120
#
#
# Mechanical properties :
#
#
# Convention : Reuss Voigt Hill
#
# Bulk Modulus (GPa) = 24.51563 57.75803 41.13683
# Shear Modulus (GPa) = 27.83054 37.81495 32.82275
#
# Velocity S-wave (km/s) = 3.36447 3.92182 3.65379
# Velocity P-wave (km/s) = 5.00643 6.63324 5.87640
#
# Compressibility (1/GPa) = 0.04079030
#
# Stress axis : x y z
#
# Youngs Moduli (GPa) = 50.16281 112.02369 60.94786
#
# Poissons Ratio (x) = 0.11191 0.03220
# Poissons Ratio (y) = 0.05011 0.04341
# Poissons Ratio (z) = 0.02650 0.07979
#
# Static dielectric constant tensor:
#      x y z
#    x 1.982250 0.000000 -0.048680 
#    y 0.000000 1.922910 0.000000 
#    z -0.048680 0.000000 2.074730 
# 
# From -- ./inp_files/8704.got.cif
#   From: 2010.05.17/outbox.cif.g08.bks.cpg/sg9_5_cif.got.tgz:8704.got - 2010.06.03 20:04:27.
