data_PCOD9136612
_publ_section_title
;
Structure prediction by ZEFSAII (Michael W. Deem and Ramdas Pophale) SiO2 
 PCOD9136612
Probable space group: C C
;
_chemical_formula_sum "Si O2"
_cell_formula_units_Z 28
_cell_length_a 5.148770
_cell_length_b 22.706286
_cell_length_c 11.726288
_cell_angle_alpha 90.000000
_cell_angle_beta 109.545019
_cell_angle_gamma 90.000000
_cell_volume 1291.920275
_symmetry_space_group_name_H-M "C C"
_symmetry_group_IT_number 9
_symmetry_cell_setting 'monoclinic'
loop_
_space_group_symop_operation_xyz
x,y,z
x,-y,1/2+z
1/2+x,1/2+y,z
1/2+x,1/2-y,1/2+z
loop_
_atom_site_type_symbol
_atom_site_label
_atom_site_fract_x
_atom_site_fract_y
_atom_site_fract_z
Si Si1 0.762670 0.879683 0.688740
Si Si2 0.091845 0.508346 0.692058
Si Si3 0.656141 0.342153 0.558710
Si Si4 0.521732 0.790852 0.076449
Si Si5 0.017180 0.941021 0.102091
Si Si6 0.843639 0.123785 0.786751
Si Si7 0.928181 0.833798 0.944297
O O1 0.701336 0.943875 0.732173
O O2 0.474383 0.858814 0.592754
O O3 0.001415 0.881447 0.630318
O O4 0.847197 0.835003 0.801163
O O5 0.229631 0.528153 0.591590
O O6 0.198985 0.560641 0.790597
O O7 0.766233 0.513927 0.637507
O O8 0.621899 0.275788 0.598667
O O9 0.498370 0.349730 0.416318
O O10 0.630136 0.830961 0.196821
O O11 0.193658 0.794600 0.012786
O O12 0.670471 0.817160 0.985689
O O13 0.048299 0.895494 0.213661
O O14 0.014591 0.900117 0.992186
#
# Coordination Sequence:
#
# PCOD9136612 Si02
#       7
#     4   4   4   4   4   4   4
#     4  12  28  42  65 107 138 175 221 281 352 385
#     4  10  21  42  67  99 136 172 224 276 335 406
#     4  12  28  45  66 105 143 174 221 291 329 408
#     4  11  24  46  74  94 129 181 229 283 326 403
#     4   9  19  41  67  96 121 179 225 265 319 410
#     4   9  24  43  71  96 133 180 233 257 357 384
#     4  11  22  45  68  97 130 175 233 267 334 406
#
# _framework density 21.673165000000001
#
# number of rings (size 3 to 8) (size 9 to 14) (size 15 to 20)
#    0.857    0.571    1.429    2.571    6.000    2.286 
#    0.000    0.000    0.000    0.000    0.000    0.000 
#    0.000    0.000    0.000    0.000    0.000    0.000 
#
# Total GULP energy -78170.622714 kJ/mol
# GULP energy per Si atom -5583.615908 kJ/mol
# Density = 2.162384 g / cm^3
# Si number density = 21.673165 Si / 1000 Ang^3
#
#
#
# Elastic Constant Matrix: (Units=GPa)
#
#
# Indices 1 2 3 4 5 6 
#
# 1 68.3546 -13.0621 2.2746 0.0000 4.9563 0.0000
# 2 -13.0621 94.7562 -0.0553 0.0000 10.4484 0.0000
# 3 2.2746 -0.0553 78.4289 0.0000 -0.8892 0.0000
# 4 0.0000 0.0000 0.0000 7.5271 0.0000 1.1883
# 5 4.9563 10.4484 -0.8892 0.0000 17.6532 0.0000
# 6 0.0000 0.0000 0.0000 1.1883 0.0000 28.0217
#
#
#
# Elastic Compliance Matrix: (Units=1/GPa)
#
#
# Indices 1 2 3 4 5 6 
#
# 1 0.015628 0.002825 -0.000520 0.000000 -0.006086 0.000000
# 2 0.002825 0.011801 -0.000162 0.000000 -0.007786 0.000000
# 3 -0.000520 -0.000162 0.012775 0.000000 0.000885 0.000000
# 4 0.000000 0.000000 0.000000 0.133748 0.000000 -0.005672
# 5 -0.006086 -0.007786 0.000885 0.000000 0.063009 0.000000
# 6 0.000000 0.000000 0.000000 -0.005672 0.000000 0.035927
#
#
# Mechanical properties :
#
#
# Convention : Reuss Voigt Hill
#
# Bulk Modulus (GPa) = 22.47664 24.42825 23.45245
# Shear Modulus (GPa) = 17.64088 27.46592 22.55340
#
# Velocity S-wave (km/s) = 2.85608 3.56375 3.22935
# Velocity P-wave (km/s) = 4.61188 5.31313 4.97488
#
# Compressibility (1/GPa) = 0.04449063
#
# Stress axis : x y z
#
# Youngs Moduli (GPa) = 63.98747 84.73652 78.27539
#
# Poissons Ratio (x) = -0.23939 0.04072
# Poissons Ratio (y) = -0.18077 0.01267
# Poissons Ratio (z) = 0.03329 0.01372
#
# Static dielectric constant tensor:
#      x y z
#    x 1.759920 0.000000 -0.006240 
#    y 0.000000 1.805850 0.000000 
#    z -0.006240 0.000000 1.760080 
# 
# From -- ./inp_files/13689.got.cif
#   From: 2010.05.17/outbox.cif.g08.bks.cpg/sg9_7_cif.got.tgz:13689.got - 2010.06.03 20:04:27.
