data_PCOD9136537
_publ_section_title
;
Structure prediction by ZEFSAII (Michael W. Deem and Ramdas Pophale) SiO2 
 PCOD9136537
Probable space group: C C
;
_chemical_formula_sum "Si O2"
_cell_formula_units_Z 32
_cell_length_a 22.338217
_cell_length_b 9.378782
_cell_length_c 9.730826
_cell_angle_alpha 90.000000
_cell_angle_beta 135.874517
_cell_angle_gamma 90.000000
_cell_volume 1419.380096
_symmetry_space_group_name_H-M "C C"
_symmetry_group_IT_number 9
_symmetry_cell_setting 'monoclinic'
loop_
_space_group_symop_operation_xyz
x,y,z
x,-y,1/2+z
1/2+x,1/2+y,z
1/2+x,1/2-y,1/2+z
loop_
_atom_site_type_symbol
_atom_site_label
_atom_site_fract_x
_atom_site_fract_y
_atom_site_fract_z
Si Si1 0.847670 0.577458 0.172470
Si Si2 0.561551 0.425638 0.429726
Si Si3 0.659699 0.171928 0.705878
Si Si4 0.420855 0.747919 0.554386
Si Si5 0.778750 0.739009 0.612016
Si Si6 0.687762 0.259705 0.468944
Si Si7 0.618059 0.257440 0.052397
Si Si8 0.023388 0.544753 0.039578
O O1 0.863167 0.641772 0.046972
O O2 0.805254 0.421771 0.114026
O O3 0.941964 0.556784 0.387885
O O4 0.784826 0.686450 0.143769
O O5 0.605327 0.320998 0.615446
O O6 0.468455 0.366929 0.229272
O O7 0.625809 0.391393 0.408758
O O8 0.571004 0.590060 0.480009
O O9 0.669653 0.145266 0.558771
O O10 0.603927 0.056126 0.691010
O O11 0.751370 0.184270 0.927538
O O12 0.357575 0.696421 0.329343
O O13 0.496938 0.840502 0.610193
O O14 0.691456 0.741641 0.558508
O O15 0.667873 0.229208 0.278702
O O16 0.545336 0.135009 0.937381
#
# Coordination Sequence:
#
# PCOD9136537 Si02
#       8
#     4   4   4   4   4   4   4   4
#     4  11  21  42  69 104 133 191 241 290 354 434
#     4  10  22  42  70 102 136 194 241 288 358 428
#     4  10  23  42  67 108 137 184 245 294 354 441
#     4  11  23  43  70 104 151 185 236 315 356 426
#     4  11  24  37  68 105 135 188 242 293 360 432
#     4  10  21  41  72  97 136 184 238 289 344 431
#     4  12  23  42  72 100 138 194 236 292 361 437
#     4  11  25  41  72 106 144 180 239 303 371 417
#
# _framework density 22.545051999999998
#
# number of rings (size 3 to 8) (size 9 to 14) (size 15 to 20)
#    0.750    0.500    5.000    0.750    5.250    0.000 
#    0.000    2.500    5.500    1.500    0.000    0.000 
#    0.000    0.000    0.000    0.000    0.000    0.000 
#
# Total GULP energy -89264.557205 kJ/mol
# GULP energy per Si atom -5579.034825 kJ/mol
# Density = 2.249374 g / cm^3
# Si number density = 22.545052 Si / 1000 Ang^3
#
#
#
# Elastic Constant Matrix: (Units=GPa)
#
#
# Indices 1 2 3 4 5 6 
#
# 1 90.7466 8.1157 13.5817 0.0000 7.3917 0.0000
# 2 8.1157 41.7074 28.2387 0.0000 11.9312 0.0000
# 3 13.5817 28.2387 134.5288 0.0000 -2.2805 0.0000
# 4 0.0000 0.0000 0.0000 21.3232 0.0000 8.3484
# 5 7.3917 11.9312 -2.2805 0.0000 32.9638 0.0000
# 6 0.0000 0.0000 0.0000 8.3484 0.0000 24.7103
#
#
#
# Elastic Compliance Matrix: (Units=1/GPa)
#
#
# Indices 1 2 3 4 5 6 
#
# 1 0.011438 -0.000880 -0.001009 0.000000 -0.002316 0.000000
# 2 -0.000880 0.032219 -0.006877 0.000000 -0.011940 0.000000
# 3 -0.001009 -0.006877 0.009035 0.000000 0.003340 0.000000
# 4 0.000000 0.000000 0.000000 0.054046 0.000000 -0.018260
# 5 -0.002316 -0.011940 0.003340 0.000000 0.035408 0.000000
# 6 0.000000 0.000000 0.000000 -0.018260 0.000000 0.046638
#
#
# Mechanical properties :
#
#
# Convention : Reuss Voigt Hill
#
# Bulk Modulus (GPa) = 28.44029 40.76166 34.60097
# Shear Modulus (GPa) = 22.93183 30.26926 26.60054
#
# Velocity S-wave (km/s) = 3.19275 3.66814 3.43867
# Velocity P-wave (km/s) = 5.12189 6.00497 5.58093
#
# Compressibility (1/GPa) = 0.03516139
#
# Stress axis : x y z
#
# Youngs Moduli (GPa) = 87.42703 31.03715 110.67616
#
# Poissons Ratio (x) = 0.02730 0.11171
# Poissons Ratio (y) = 0.07691 0.76109
# Poissons Ratio (z) = 0.08825 0.21343
#
# Static dielectric constant tensor:
#      x y z
#    x 1.849510 0.000000 -0.011170 
#    y 0.000000 1.842640 0.000000 
#    z -0.011170 0.000000 1.871460 
# 
# From -- ./inp_files/20813.got.cif
#   From: 2010.05.17/outbox.cif.g08.bks.cpg/sg9_11_cif.got.tgz:20813.got - 2010.06.03 20:04:27.
