data_PCOD9136412
_publ_section_title
;
Structure prediction by ZEFSAII (Michael W. Deem and Ramdas Pophale) SiO2 
 PCOD9136412
Probable space group: C C
;
_chemical_formula_sum "Si O2"
_cell_formula_units_Z 32
_cell_length_a 8.027552
_cell_length_b 27.096179
_cell_length_c 13.532766
_cell_angle_alpha 90.000000
_cell_angle_beta 148.968006
_cell_angle_gamma 90.000000
_cell_volume 1517.471134
_symmetry_space_group_name_H-M "C C"
_symmetry_group_IT_number 9
_symmetry_cell_setting 'monoclinic'
loop_
_space_group_symop_operation_xyz
x,y,z
x,-y,1/2+z
1/2+x,1/2+y,z
1/2+x,1/2-y,1/2+z
loop_
_atom_site_type_symbol
_atom_site_label
_atom_site_fract_x
_atom_site_fract_y
_atom_site_fract_z
Si Si1 0.314370 0.687791 0.784120
Si Si2 0.352069 0.102844 0.616425
Si Si3 0.148279 0.454574 0.432422
Si Si4 0.687626 0.877878 0.896732
Si Si5 0.454687 0.552516 0.682351
Si Si6 0.971946 0.115300 0.234397
Si Si7 0.314908 0.895343 0.525987
Si Si8 0.410815 0.200427 0.385851
O O1 0.335446 0.742174 0.838454
O O2 0.074538 0.651097 0.720475
O O3 0.182781 0.694250 0.606906
O O4 0.643165 0.657327 0.946629
O O5 0.550547 0.058565 0.769887
O O6 0.034766 0.119148 0.518283
O O7 0.220882 0.091064 0.439654
O O8 0.282445 0.504307 0.550712
O O9 0.406003 0.414529 0.601203
O O10 0.802024 0.447304 0.306935
O O11 0.450594 0.907735 0.703195
O O12 0.540342 0.824872 0.850635
O O13 0.740141 0.903733 0.028605
O O14 0.561863 0.566007 0.848611
O O15 0.629917 0.113120 0.117648
O O16 0.108343 0.168418 0.272773
#
# Coordination Sequence:
#
# PCOD9136412 Si02
#       8
#     4   4   4   4   4   4   4   4
#     4  11  23  39  62  94 124 162 212 249 309 363
#     4   9  22  41  59  89 124 160 201 256 299 366
#     4  10  22  37  64  85 122 159 204 249 313 358
#     4  10  21  41  62  86 127 161 202 255 305 360
#     4  10  22  39  59  93 117 162 203 252 310 364
#     4   9  22  41  60  86 127 160 201 255 303 359
#     4  10  21  41  61  88 126 161 199 259 300 364
#     4  11  23  39  63  93 123 165 208 253 305 368
#
# _framework density 21.087716
#
# number of rings (size 3 to 8) (size 9 to 14) (size 15 to 20)
#    0.000    2.000    1.250    0.750    5.250    2.000 
#    0.000    5.000    0.000    0.000    0.000    0.000 
#    0.000    0.000    0.000    0.000    0.000    0.000 
#
# Total GULP energy -89175.684284 kJ/mol
# GULP energy per Si atom -5573.480268 kJ/mol
# Density = 2.103972 g / cm^3
# Si number density = 21.087716 Si / 1000 Ang^3
#
#
#
# Elastic Constant Matrix: (Units=GPa)
#
#
# Indices 1 2 3 4 5 6 
#
# 1 66.6716 -2.6823 28.7714 0.0000 -6.5884 0.0000
# 2 -2.6823 85.9138 56.3131 0.0000 -8.6693 0.0000
# 3 28.7714 56.3131 120.0112 0.0000 -17.1165 0.0000
# 4 0.0000 0.0000 0.0000 11.9048 0.0000 5.7860
# 5 -6.5884 -8.6693 -17.1165 0.0000 19.3043 0.0000
# 6 0.0000 0.0000 0.0000 5.7860 0.0000 15.6682
#
#
#
# Elastic Compliance Matrix: (Units=1/GPa)
#
#
# Indices 1 2 3 4 5 6 
#
# 1 0.018198 0.004981 -0.006291 0.000000 0.002870 0.000000
# 2 0.004981 0.018180 -0.009522 0.000000 0.001421 0.000000
# 3 -0.006291 -0.009522 0.015331 0.000000 0.007171 0.000000
# 4 0.000000 0.000000 0.000000 0.102374 0.000000 -0.037805
# 5 0.002870 0.001421 0.007171 0.000000 0.059778 0.000000
# 6 0.000000 0.000000 0.000000 -0.037805 0.000000 0.077785
#
#
# Mechanical properties :
#
#
# Convention : Reuss Voigt Hill
#
# Bulk Modulus (GPa) = 33.28278 48.60008 40.94143
# Shear Modulus (GPa) = 15.46438 22.05508 18.75973
#
# Velocity S-wave (km/s) = 2.71096 3.23751 2.98586
# Velocity P-wave (km/s) = 5.06126 6.08867 5.59858
#
# Compressibility (1/GPa) = 0.03004557
#
# Stress axis : x y z
#
# Youngs Moduli (GPa) = 54.95256 55.00617 65.22573
#
# Poissons Ratio (x) = -0.27398 0.41031
# Poissons Ratio (y) = -0.27372 0.62108
# Poissons Ratio (z) = 0.34568 0.52377
#
# Static dielectric constant tensor:
#      x y z
#    x 1.801390 0.000000 -0.027140 
#    y 0.000000 1.798240 0.000000 
#    z -0.027140 0.000000 1.805700 
# 
# From -- ./inp_files/6390.got.cif
#   From: 2010.05.17/outbox.cif.g08.bks.cpg/sg9_4_cif.got.tgz:6390.got - 2010.06.03 20:04:27.
