data_PCOD9136910
_publ_section_title
;
Structure prediction by ZEFSAII (Michael W. Deem and Ramdas Pophale) SiO2 
 PCOD9136910
Probable space group: C C
;
_chemical_formula_sum "Si O2"
_cell_formula_units_Z 32
_cell_length_a 10.923014
_cell_length_b 9.191237
_cell_length_c 13.004329
_cell_angle_alpha 90.000000
_cell_angle_beta 63.709651
_cell_angle_gamma 90.000000
_cell_volume 1170.534640
_symmetry_space_group_name_H-M "C C"
_symmetry_group_IT_number 9
_symmetry_cell_setting 'monoclinic'
loop_
_space_group_symop_operation_xyz
x,y,z
x,-y,1/2+z
1/2+x,1/2+y,z
1/2+x,1/2-y,1/2+z
loop_
_atom_site_type_symbol
_atom_site_label
_atom_site_fract_x
_atom_site_fract_y
_atom_site_fract_z
Si Si1 0.471350 0.723126 0.350770
Si Si2 0.619678 0.040516 0.713029
Si Si3 0.003556 0.101747 0.777195
Si Si4 0.592857 0.481285 0.543352
Si Si5 0.336416 0.868249 0.826412
Si Si6 0.547537 0.843931 0.019279
Si Si7 0.842448 0.400090 0.581771
Si Si8 0.745383 0.202627 0.267856
O O1 0.609189 0.815167 0.285171
O O2 0.485143 0.551205 0.340195
O O3 0.410334 0.782161 0.480020
O O4 0.378523 0.754807 0.281016
O O5 0.610773 0.092146 0.599840
O O6 0.475746 0.961008 0.795307
O O7 0.741032 0.927934 0.687785
O O8 0.148657 0.172559 0.756779
O O9 0.880094 0.209944 0.850350
O O10 0.004513 0.081859 0.652140
O O11 0.699544 0.563791 0.427728
O O12 0.526146 0.331512 0.526459
O O13 0.693458 0.415208 0.591913
O O14 0.338493 0.868622 0.702696
O O15 0.660204 0.868785 0.891746
O O16 0.416728 0.942483 0.044782
#
# Coordination Sequence:
#
# PCOD9136910 Si02
#       8
#     4   4   4   4   4   4   4   4
#     4  12  23  49  73 111 151 196 261 318 385 463
#     4  10  21  45  72 105 151 197 255 315 380 464
#     4  11  28  47  74 121 152 202 271 316 391 478
#     4  12  24  44  77 108 152 208 261 319 402 458
#     4  10  24  50  69 110 164 199 258 326 393 462
#     4  11  22  42  77 107 149 204 260 319 388 461
#     4  11  24  44  78 107 156 206 255 328 389 464
#     4  11  24  47  72 105 157 200 243 325 388 452
#
# _framework density 27.337937
#
# number of rings (size 3 to 8) (size 9 to 14) (size 15 to 20)
#    0.000    1.000    5.000    0.750    5.250    2.000 
#    6.750    0.000    0.000    0.000    0.000    0.000 
#    0.000    0.000    0.000    0.000    0.000    0.000 
#
# Total GULP energy -89640.038529 kJ/mol
# GULP energy per Si atom -5602.502408 kJ/mol
# Density = 2.727571 g / cm^3
# Si number density = 27.337937 Si / 1000 Ang^3
#
#
#
# Elastic Constant Matrix: (Units=GPa)
#
#
# Indices 1 2 3 4 5 6 
#
# 1 113.4753 69.3174 28.7764 0.0000 3.1230 0.0000
# 2 69.3174 218.4752 58.8837 0.0000 2.6062 0.0000
# 3 28.7764 58.8837 136.0587 0.0000 20.8932 0.0000
# 4 0.0000 0.0000 0.0000 47.1705 0.0000 8.5505
# 5 3.1230 2.6062 20.8932 0.0000 38.1766 0.0000
# 6 0.0000 0.0000 0.0000 8.5505 0.0000 54.4480
#
#
#
# Elastic Compliance Matrix: (Units=1/GPa)
#
#
# Indices 1 2 3 4 5 6 
#
# 1 0.011035 -0.003258 -0.000895 0.000000 -0.000191 0.000000
# 2 -0.003258 0.006175 -0.002140 0.000000 0.001016 0.000000
# 3 -0.000895 -0.002140 0.009205 0.000000 -0.004818 0.000000
# 4 0.000000 0.000000 0.000000 0.021821 0.000000 -0.003427
# 5 -0.000191 0.001016 -0.004818 0.000000 0.028777 0.000000
# 6 0.000000 0.000000 0.000000 -0.003427 0.000000 0.018904
#
#
# Mechanical properties :
#
#
# Convention : Reuss Voigt Hill
#
# Bulk Modulus (GPa) = 72.30148 86.88491 79.59319
# Shear Modulus (GPa) = 44.20427 48.69446 46.44937
#
# Velocity S-wave (km/s) = 4.02550 4.22501 4.12646
# Velocity P-wave (km/s) = 6.93621 7.46001 7.20287
#
# Compressibility (1/GPa) = 0.01383098
#
# Stress axis : x y z
#
# Youngs Moduli (GPa) = 90.62433 161.93588 108.63816
#
# Poissons Ratio (x) = 0.52752 0.09720
# Poissons Ratio (y) = 0.29522 0.23244
# Poissons Ratio (z) = 0.08108 0.34647
#
# Static dielectric constant tensor:
#      x y z
#    x 2.147260 0.000000 0.003090 
#    y 0.000000 2.253380 0.000000 
#    z 0.003090 0.000000 2.162040 
# 
# From -- ./inp_files/24368.got.cif
#   From: 2010.05.17/outbox.cif.g08.bks.cpg/sg9_13_cif.got.tgz:24368.got - 2010.06.03 20:04:27.
