data_PCOD9136444
_publ_section_title
;
Structure prediction by ZEFSAII (Michael W. Deem and Ramdas Pophale) SiO2 
 PCOD9136444
Probable space group: C C
;
_chemical_formula_sum "Si O2"
_cell_formula_units_Z 32
_cell_length_a 16.311712
_cell_length_b 5.239084
_cell_length_c 19.173440
_cell_angle_alpha 90.000000
_cell_angle_beta 131.421481
_cell_angle_gamma 90.000000
_cell_volume 1228.674706
_symmetry_space_group_name_H-M "C C"
_symmetry_group_IT_number 9
_symmetry_cell_setting 'monoclinic'
loop_
_space_group_symop_operation_xyz
x,y,z
x,-y,1/2+z
1/2+x,1/2+y,z
1/2+x,1/2-y,1/2+z
loop_
_atom_site_type_symbol
_atom_site_label
_atom_site_fract_x
_atom_site_fract_y
_atom_site_fract_z
Si Si1 0.246280 0.635811 0.110840
Si Si2 0.230775 0.727225 0.473833
Si Si3 0.894776 0.866109 0.964150
Si Si4 0.805207 0.514857 0.320548
Si Si5 0.057944 0.059567 0.437568
Si Si6 0.178048 0.518583 0.716570
Si Si7 0.451665 0.865983 0.627446
Si Si8 0.948291 0.457420 0.274720
O O1 0.255831 0.470837 0.047812
O O2 0.203335 0.458061 0.149040
O O3 0.362735 0.751499 0.195302
O O4 0.152970 0.845151 0.043290
O O5 0.270157 0.604041 0.423612
O O6 0.111343 0.835773 0.421267
O O7 0.325311 0.941677 0.541656
O O8 0.884815 0.578020 0.926655
O O9 0.956441 0.995690 0.933387
O O10 0.959175 0.865254 0.074135
O O11 0.730648 0.755275 0.290443
O O12 0.876991 0.588701 0.294212
O O13 0.732002 0.260975 0.262975
O O14 0.032029 0.284487 0.367040
O O15 0.050161 0.536444 0.657150
O O16 0.471994 0.860370 0.722053
#
# Coordination Sequence:
#
# PCOD9136444 Si02
#       8
#     4   4   4   4   4   4   4   4
#     4  11  21  44  68  99 136 190 235 304 365 446
#     4  10  23  42  66  98 141 186 243 298 372 441
#     4   9  22  46  63 103 137 184 248 295 372 442
#     4  10  24  47  68 101 142 185 243 298 362 440
#     4  11  22  46  68  98 144 189 243 306 377 441
#     4  11  24  41  74  99 140 187 235 298 368 431
#     4  10  21  41  65 101 136 184 240 291 362 438
#     4  10  23  43  70 101 142 185 245 296 374 435
#
# _framework density 26.044322000000001
#
# number of rings (size 3 to 8) (size 9 to 14) (size 15 to 20)
#    0.750    1.000    2.500    0.750    3.500    2.000 
#   20.250    0.000    0.000    0.000    0.000    0.000 
#    0.000    0.000    0.000    0.000    0.000    0.000 
#
# Total GULP energy -89216.188626 kJ/mol
# GULP energy per Si atom -5576.011789 kJ/mol
# Density = 2.598504 g / cm^3
# Si number density = 26.044322 Si / 1000 Ang^3
#
#
#
# Elastic Constant Matrix: (Units=GPa)
#
#
# Indices 1 2 3 4 5 6 
#
# 1 176.7880 49.7303 49.7190 0.0000 -28.1306 0.0000
# 2 49.7303 89.4563 34.9210 0.0001 -4.6482 -0.0003
# 3 49.7190 34.9210 98.1339 0.0000 -20.7935 -0.0001
# 4 0.0000 0.0001 0.0000 40.4174 0.0000 -1.7092
# 5 -28.1306 -4.6482 -20.7935 0.0000 60.9966 0.0000
# 6 0.0000 -0.0003 -0.0001 -1.7092 0.0000 9.3933
#
#
#
# Elastic Compliance Matrix: (Units=1/GPa)
#
#
# Indices 1 2 3 4 5 6 
#
# 1 0.007573 -0.003239 -0.002152 0.000000 0.002512 0.000000
# 2 -0.003239 0.014390 -0.003841 0.000000 -0.001707 0.000000
# 3 -0.002152 -0.003841 0.013338 0.000000 0.003262 0.000000
# 4 0.000000 0.000000 0.000000 0.024934 0.000000 0.004537
# 5 0.002512 -0.001707 0.003262 0.000000 0.018535 0.000000
# 6 0.000000 0.000000 0.000000 0.004537 0.000000 0.107284
#
#
# Mechanical properties :
#
#
# Convention : Reuss Voigt Hill
#
# Bulk Modulus (GPa) = 59.39358 70.34651 64.87005
# Shear Modulus (GPa) = 23.79480 37.49534 30.64507
#
# Velocity S-wave (km/s) = 3.02591 3.79842 3.43396
# Velocity P-wave (km/s) = 5.92136 6.80487 6.37843
#
# Compressibility (1/GPa) = 0.01683684
#
# Stress axis : x y z
#
# Youngs Moduli (GPa) = 132.05673 69.49164 74.97171
#
# Poissons Ratio (x) = 0.22510 0.16131
# Poissons Ratio (y) = 0.42776 0.28799
# Poissons Ratio (z) = 0.28414 0.26694
#
# Static dielectric constant tensor:
#      x y z
#    x 2.081030 0.000000 0.044920 
#    y 0.000000 2.063540 0.000000 
#    z 0.044920 0.000000 2.120350 
# 
# From -- ./inp_files/33936.got.cif
#   From: 2010.05.17/outbox.cif.g08.bks.cpg/sg9_17_cif.got.tgz:33936.got - 2010.06.03 20:04:27.
