data_PCOD9136509
_publ_section_title
;
Structure prediction by ZEFSAII (Michael W. Deem and Ramdas Pophale) SiO2 
 PCOD9136509
Probable space group: C C
;
_chemical_formula_sum "Si O2"
_cell_formula_units_Z 32
_cell_length_a 17.467315
_cell_length_b 5.273583
_cell_length_c 17.726237
_cell_angle_alpha 90.000000
_cell_angle_beta 120.998031
_cell_angle_gamma 90.000000
_cell_volume 1399.661613
_symmetry_space_group_name_H-M "C C"
_symmetry_group_IT_number 9
_symmetry_cell_setting 'monoclinic'
loop_
_space_group_symop_operation_xyz
x,y,z
x,-y,1/2+z
1/2+x,1/2+y,z
1/2+x,1/2-y,1/2+z
loop_
_atom_site_type_symbol
_atom_site_label
_atom_site_fract_x
_atom_site_fract_y
_atom_site_fract_z
Si Si1 0.755990 0.518754 0.930050
Si Si2 0.813889 0.252187 0.104479
Si Si3 0.442279 0.084681 0.275285
Si Si4 0.793409 0.944663 0.231783
Si Si5 0.043758 0.595907 0.183930
Si Si6 0.650495 0.409466 0.732428
Si Si7 0.386979 0.198256 0.885574
Si Si8 0.390414 0.613987 0.532220
O O1 0.677629 0.446388 0.834104
O O2 0.842925 0.482658 0.917890
O O3 0.755482 0.380572 0.009672
O O4 0.785694 0.806196 0.966961
O O5 0.867415 0.441190 0.186315
O O6 0.764606 0.064094 0.137585
O O7 0.887109 0.100889 0.092260
O O8 0.394858 0.348153 0.271023
O O9 0.527213 0.115697 0.265489
O O10 0.450115 0.923911 0.355644
O O11 0.734059 0.709783 0.229246
O O12 0.805135 0.159984 0.301453
O O13 0.079991 0.317810 0.186941
O O14 0.949448 0.664049 0.098429
O O15 0.109473 0.819717 0.189153
O O16 0.425903 0.400415 0.964985
#
# Coordination Sequence:
#
# PCOD9136509 Si02
#       8
#     4   4   4   4   4   4   4   4
#     4  10  21  41  69  98 127 182 241 278 337 425
#     4  11  20  36  75  96 133 167 259 285 331 401
#     4  11  21  41  68 104 127 184 238 286 334 429
#     4  11  21  41  68 100 129 183 238 286 335 424
#     4  12  26  44  68 102 148 179 218 291 373 409
#     4  12  27  44  68 102 147 181 218 292 371 411
#     4   9  21  36  73  95 128 167 254 284 324 401
#     4  10  21  41  69 101 125 187 234 284 331 430
#
# _framework density 22.862669
#
# number of rings (size 3 to 8) (size 9 to 14) (size 15 to 20)
#    0.750    0.500    3.750    2.250    5.250    0.000 
#    0.000    1.250    0.000    0.000    0.000    0.000 
#    0.000    0.000    0.000    0.000    0.000    0.000 
#
# Total GULP energy -89107.857946 kJ/mol
# GULP energy per Si atom -5569.241122 kJ/mol
# Density = 2.281063 g / cm^3
# Si number density = 22.862669 Si / 1000 Ang^3
#
#
#
# Elastic Constant Matrix: (Units=GPa)
#
#
# Indices 1 2 3 4 5 6 
#
# 1 43.4616 5.6759 1.1414 0.0000 -22.7813 0.0000
# 2 5.6759 63.4224 21.9743 0.0003 -4.4734 0.0001
# 3 1.1414 21.9743 108.0022 0.0000 -33.6552 0.0000
# 4 0.0000 0.0003 0.0000 23.5674 0.0000 -12.5013
# 5 -22.7813 -4.4734 -33.6552 0.0000 34.2867 0.0000
# 6 0.0000 0.0001 0.0000 -12.5013 0.0000 43.6977
#
#
#
# Elastic Compliance Matrix: (Units=1/GPa)
#
#
# Indices 1 2 3 4 5 6 
#
# 1 0.046919 -0.006138 0.014721 0.000000 0.044823 0.000000
# 2 -0.006138 0.017834 -0.005920 0.000000 -0.007563 0.000000
# 3 0.014721 -0.005920 0.018895 0.000000 0.027555 0.000000
# 4 0.000000 0.000000 0.000000 0.050023 0.000000 0.014311
# 5 0.044823 -0.007563 0.027555 0.000000 0.085009 0.000000
# 6 0.000000 0.000000 0.000000 0.014311 0.000000 0.026979
#
#
# Mechanical properties :
#
#
# Convention : Reuss Voigt Hill
#
# Bulk Modulus (GPa) = 11.23937 30.27439 20.75688
# Shear Modulus (GPa) = 18.51911 32.71665 25.61788
#
# Velocity S-wave (km/s) = 2.84916 3.78697 3.35104
# Velocity P-wave (km/s) = 3.96867 5.69141 4.90624
#
# Compressibility (1/GPa) = 0.08897294
#
# Stress axis : x y z
#
# Youngs Moduli (GPa) = 21.31337 56.07123 52.92474
#
# Poissons Ratio (x) = 0.34415 -0.77909
# Poissons Ratio (y) = 0.13082 0.31334
# Poissons Ratio (z) = -0.31375 0.33197
#
# Static dielectric constant tensor:
#      x y z
#    x 1.874250 0.000000 -0.005140 
#    y 0.000000 1.938690 0.000000 
#    z -0.005140 0.000000 1.890640 
# 
# From -- ./inp_files/30875.got.cif
#   From: 2010.05.17/outbox.cif.g08.bks.cpg/sg9_16_cif.got.tgz:30875.got - 2010.06.03 20:04:27.
