data_PCOD9136511
_publ_section_title
;
Structure prediction by ZEFSAII (Michael W. Deem and Ramdas Pophale) SiO2 
 PCOD9136511
Probable space group: C C
;
_chemical_formula_sum "Si O2"
_cell_formula_units_Z 32
_cell_length_a 15.127118
_cell_length_b 17.797042
_cell_length_c 9.617868
_cell_angle_alpha 90.000000
_cell_angle_beta 30.049169
_cell_angle_gamma 90.000000
_cell_volume 1296.575239
_symmetry_space_group_name_H-M "C C"
_symmetry_group_IT_number 9
_symmetry_cell_setting 'monoclinic'
loop_
_space_group_symop_operation_xyz
x,y,z
x,-y,1/2+z
1/2+x,1/2+y,z
1/2+x,1/2-y,1/2+z
loop_
_atom_site_type_symbol
_atom_site_label
_atom_site_fract_x
_atom_site_fract_y
_atom_site_fract_z
Si Si1 0.401940 0.311602 0.834250
Si Si2 0.575414 0.490959 0.400040
Si Si3 0.409961 0.665921 0.030961
Si Si4 0.638667 0.387206 0.988420
Si Si5 0.734908 0.048468 0.702464
Si Si6 0.042946 0.392006 0.939941
Si Si7 0.247388 0.159836 0.040986
Si Si8 0.419112 0.086144 0.327585
O O1 0.418063 0.281239 0.652715
O O2 0.318012 0.237006 0.012179
O O3 0.589353 0.326290 0.648685
O O4 0.272965 0.382833 0.043813
O O5 0.500716 0.405613 0.486437
O O6 0.572781 0.525818 0.559898
O O7 0.422373 0.529732 0.516886
O O8 0.778618 0.476577 0.074467
O O9 0.207771 0.654035 0.270702
O O10 0.505226 0.666189 0.752419
O O11 0.669686 0.378047 0.784134
O O12 0.813291 0.380534 0.841260
O O13 0.630672 0.974553 0.787760
O O14 0.607260 0.068313 0.005114
O O15 0.956902 0.365161 0.912952
O O16 0.895828 0.388336 0.259478
#
# Coordination Sequence:
#
# PCOD9136511 Si02
#       8
#     4   4   4   4   4   4   4   4
#     4  12  28  50  76 110 154 205 256 319 389 469
#     4  10  21  41  69 106 148 193 240 316 380 445
#     4  10  25  43  74 109 149 193 253 312 384 452
#     4  11  23  44  73 108 147 199 253 310 375 458
#     4  11  25  41  75 111 152 195 256 318 383 457
#     4  11  25  46  75 113 150 200 252 319 384 462
#     4  12  27  51  79 107 153 206 259 313 392 467
#     4  11  24  40  69 112 151 193 249 319 383 454
#
# _framework density 24.680405
#
# number of rings (size 3 to 8) (size 9 to 14) (size 15 to 20)
#    0.000    1.000    1.250    4.500   12.250    1.000 
#    2.250    1.250    0.000    0.000    0.000    0.000 
#    0.000    0.000    0.000    0.000    0.000    0.000 
#
# Total GULP energy -89247.189963 kJ/mol
# GULP energy per Si atom -5577.949373 kJ/mol
# Density = 2.462423 g / cm^3
# Si number density = 24.680405 Si / 1000 Ang^3
#
#
#
# Elastic Constant Matrix: (Units=GPa)
#
#
# Indices 1 2 3 4 5 6 
#
# 1 161.7370 1.1264 78.0013 -0.0054 -1.3185 0.0008
# 2 1.1264 36.4630 22.1367 -0.0024 -18.8305 0.0014
# 3 78.0013 22.1367 186.0338 -0.0003 3.2745 0.0033
# 4 -0.0054 -0.0024 -0.0003 18.1104 0.0018 -7.5281
# 5 -1.3185 -18.8305 3.2745 0.0018 37.3250 -0.0012
# 6 0.0008 0.0014 0.0033 -7.5281 -0.0012 18.8541
#
#
#
# Elastic Compliance Matrix: (Units=1/GPa)
#
#
# Indices 1 2 3 4 5 6 
#
# 1 0.007998 0.003191 -0.003772 0.000003 0.002224 0.000001
# 2 0.003191 0.043086 -0.006860 0.000005 0.022451 0.000001
# 3 -0.003772 -0.006860 0.007849 -0.000002 -0.004283 -0.000002
# 4 0.000003 0.000005 -0.000002 0.066205 0.000000 0.026435
# 5 0.002224 0.022451 -0.004283 0.000000 0.038573 0.000002
# 6 0.000001 0.000001 -0.000002 0.026435 0.000002 0.063594
#
#
# Mechanical properties :
#
#
# Convention : Reuss Voigt Hill
#
# Bulk Modulus (GPa) = 22.70130 65.19586 43.94858
# Shear Modulus (GPa) = 19.46508 33.72252 26.59380
#
# Velocity S-wave (km/s) = 2.81140 3.70045 3.28613
# Velocity P-wave (km/s) = 4.44485 6.68814 5.67838
#
# Compressibility (1/GPa) = 0.04405035
#
# Stress axis : x y z
#
# Youngs Moduli (GPa) = 125.02978 23.20952 127.40839
#
# Poissons Ratio (x) = -0.07407 0.48063
# Poissons Ratio (y) = -0.39903 0.87405
# Poissons Ratio (z) = 0.47166 0.15922
#
# Static dielectric constant tensor:
#      x y z
#    x 1.927050 0.000000 0.059840 
#    y 0.000000 3.171770 -0.000020 
#    z 0.059840 -0.000020 1.987640 
# 
# From -- ./inp_files/10084.got.cif
#   From: 2010.05.17/outbox.cif.g08.bks.cpg/sg9_6_cif.got.tgz:10084.got - 2010.06.03 20:04:27.
