data_PCOD9136811
_publ_section_title
;
Structure prediction by ZEFSAII (Michael W. Deem and Ramdas Pophale) SiO2 
 PCOD9136811
Probable space group: C C
;
_chemical_formula_sum "Si O2"
_cell_formula_units_Z 20
_cell_length_a 11.174033
_cell_length_b 7.370697
_cell_length_c 9.474830
_cell_angle_alpha 90.000000
_cell_angle_beta 83.640827
_cell_angle_gamma 90.000000
_cell_volume 775.549473
_symmetry_space_group_name_H-M "C C"
_symmetry_group_IT_number 9
_symmetry_cell_setting 'monoclinic'
loop_
_space_group_symop_operation_xyz
x,y,z
x,-y,1/2+z
1/2+x,1/2+y,z
1/2+x,1/2-y,1/2+z
loop_
_atom_site_type_symbol
_atom_site_label
_atom_site_fract_x
_atom_site_fract_y
_atom_site_fract_z
Si Si1 0.187260 0.322962 0.857610
Si Si2 0.880838 0.357289 0.186906
Si Si3 0.129591 0.357859 0.175078
Si Si4 0.910931 0.231212 0.665896
Si Si5 0.405804 0.436508 0.451891
O O1 0.261399 0.147100 0.797975
O O2 0.136170 0.436805 0.733461
O O3 0.294600 0.454041 0.900268
O O4 0.111988 0.311790 0.011019
O O5 0.917776 0.556626 0.131562
O O6 0.001860 0.287605 0.252532
O O7 0.857927 0.218989 0.063147
O O8 0.263535 0.287523 0.190689
O O9 0.963071 0.164106 0.809931
O O10 0.963647 0.089669 0.545262
#
# Coordination Sequence:
#
# PCOD9136811 Si02
#       5
#     4   4   4   4   4
#     4  10  21  47  65  99 145 169 229 296 323 412
#     4  12  24  43  76  95 138 194 223 272 364 404
#     4  10  24  44  67 102 139 177 230 292 339 399
#     4  10  24  44  70  98 140 178 226 292 335 414
#     4  10  21  44  66  98 142 166 226 296 323 397
#
# _framework density 25.788167999999999
#
# number of rings (size 3 to 8) (size 9 to 14) (size 15 to 20)
#    0.000    1.600    6.000    0.000    8.400    0.000 
#    7.200    0.000    0.000    0.000    0.000    0.000 
#    0.000    0.000    0.000    0.000    0.000    0.000 
#
# Total GULP energy -55745.837980 kJ/mol
# GULP energy per Si atom -5574.583798 kJ/mol
# Density = 2.572947 g / cm^3
# Si number density = 25.788168 Si / 1000 Ang^3
#
#
#
# Elastic Constant Matrix: (Units=GPa)
#
#
# Indices 1 2 3 4 5 6 
#
# 1 74.7530 -17.4196 2.8955 0.0000 -12.4003 0.0000
# 2 -17.4196 149.3159 59.5038 0.0000 -6.6763 0.0000
# 3 2.8955 59.5038 151.6911 0.0000 -1.6221 0.0000
# 4 0.0000 0.0000 0.0000 38.2590 0.0000 -9.1029
# 5 -12.4003 -6.6763 -1.6221 0.0000 34.8620 0.0000
# 6 0.0000 0.0000 0.0000 -9.1029 0.0000 28.6242
#
#
#
# Elastic Compliance Matrix: (Units=1/GPa)
#
#
# Indices 1 2 3 4 5 6 
#
# 1 0.014953 0.002478 -0.001196 0.000000 0.005737 0.000000
# 2 0.002478 0.008415 -0.003323 0.000000 0.002338 0.000000
# 3 -0.001196 -0.003323 0.007911 0.000000 -0.000694 0.000000
# 4 0.000000 0.000000 0.000000 0.028277 0.000000 0.008993
# 5 0.005737 0.002338 -0.000694 0.000000 0.031141 0.000000
# 6 0.000000 0.000000 0.000000 0.008993 0.000000 0.037795
#
#
# Mechanical properties :
#
#
# Convention : Reuss Voigt Hill
#
# Bulk Modulus (GPa) = 36.77011 51.74661 44.25836
# Shear Modulus (GPa) = 35.30047 42.40108 38.85077
#
# Velocity S-wave (km/s) = 3.70383 4.05928 3.88562
# Velocity P-wave (km/s) = 5.70794 6.48691 6.10985
#
# Compressibility (1/GPa) = 0.02719600
#
# Stress axis : x y z
#
# Youngs Moduli (GPa) = 66.87706 118.83309 126.40010
#
# Poissons Ratio (x) = -0.29442 0.15117
# Poissons Ratio (y) = -0.16569 0.42007
# Poissons Ratio (z) = 0.07998 0.39492
#
# Static dielectric constant tensor:
#      x y z
#    x 2.128460 0.000000 0.009270 
#    y 0.000000 2.044780 0.000000 
#    z 0.009270 0.000000 2.062430 
# 
# From -- ./inp_files/6703.got.cif
#   From: 2010.05.17/outbox.cif.g08.bks.cpg/sg9_4_cif.got.tgz:6703.got - 2010.06.03 20:04:27.
