data_PCOD9136904
_publ_section_title
;
Structure prediction by ZEFSAII (Michael W. Deem and Ramdas Pophale) SiO2 
 PCOD9136904
Probable space group: C C
;
_chemical_formula_sum "Si O2"
_cell_formula_units_Z 28
_cell_length_a 6.891383
_cell_length_b 28.656298
_cell_length_c 7.760767
_cell_angle_alpha 90.000000
_cell_angle_beta 134.327996
_cell_angle_gamma 90.000000
_cell_volume 1096.353331
_symmetry_space_group_name_H-M "C C"
_symmetry_group_IT_number 9
_symmetry_cell_setting 'monoclinic'
loop_
_space_group_symop_operation_xyz
x,y,z
x,-y,1/2+z
1/2+x,1/2+y,z
1/2+x,1/2-y,1/2+z
loop_
_atom_site_type_symbol
_atom_site_label
_atom_site_fract_x
_atom_site_fract_y
_atom_site_fract_z
Si Si1 0.377020 0.046058 0.352820
Si Si2 0.094412 0.395736 0.693950
Si Si3 0.545629 0.373157 0.513948
Si Si4 0.392881 0.940916 0.256959
Si Si5 0.523161 0.361154 0.160224
Si Si6 0.069520 0.772187 0.686202
Si Si7 0.220367 0.240023 0.792690
O O1 0.583469 0.063509 0.332393
O O2 0.117641 0.079254 0.154832
O O3 0.466658 0.053789 0.604055
O O4 0.325385 0.991726 0.290347
O O5 0.781397 0.377429 0.508642
O O6 0.117186 0.416698 0.518708
O O7 0.270560 0.353761 0.867563
O O8 0.339613 0.365422 0.228704
O O9 0.577488 0.327228 0.644176
O O10 0.139202 0.906958 0.128355
O O11 0.700762 0.314977 0.243337
O O12 0.868325 0.747971 0.419601
O O13 0.895476 0.763950 0.751793
O O14 0.906430 0.255545 0.578458
#
# Coordination Sequence:
#
# PCOD9136904 Si02
#       7
#     4   4   4   4   4   4   4
#     4  10  21  45  71 101 147 190 240 306 368 449
#     4   9  23  44  66 102 141 187 239 294 371 429
#     4   9  23  43  68  98 145 185 239 307 361 440
#     4  11  21  45  70 103 148 187 243 305 369 444
#     4  11  24  45  70 100 148 192 243 309 370 442
#     4  10  23  43  67 104 143 187 251 300 367 441
#     4  10  25  43  70 102 146 188 251 299 370 441
#
# _framework density 25.539211999999999
#
# number of rings (size 3 to 8) (size 9 to 14) (size 15 to 20)
#    0.857    1.143    1.429    0.000   10.000    1.143 
#   10.286    0.000    0.000    0.000    0.000    0.000 
#    0.000    0.000    0.000    0.000    0.000    0.000 
#
# Total GULP energy -77998.402737 kJ/mol
# GULP energy per Si atom -5571.314481 kJ/mol
# Density = 2.548108 g / cm^3
# Si number density = 25.539212 Si / 1000 Ang^3
#
#
#
# Elastic Constant Matrix: (Units=GPa)
#
#
# Indices 1 2 3 4 5 6 
#
# 1 46.3447 -26.9373 28.7570 0.0000 0.8532 0.0000
# 2 -26.9373 64.3831 5.5511 0.0000 9.4468 0.0000
# 3 28.7570 5.5511 143.0974 0.0000 -24.3164 0.0000
# 4 0.0000 0.0000 0.0000 43.3697 0.0000 -17.9441
# 5 0.8532 9.4468 -24.3164 0.0000 49.9385 0.0000
# 6 0.0000 0.0000 0.0000 -17.9441 0.0000 24.7218
#
#
#
# Elastic Compliance Matrix: (Units=1/GPa)
#
#
# Indices 1 2 3 4 5 6 
#
# 1 0.038602 0.018332 -0.009997 0.000000 -0.008995 0.000000
# 2 0.018332 0.024885 -0.005999 0.000000 -0.007942 0.000000
# 3 -0.009997 -0.005999 0.010304 0.000000 0.006323 0.000000
# 4 0.000000 0.000000 0.000000 0.032954 0.000000 0.023920
# 5 -0.008995 -0.007942 0.006323 0.000000 0.024760 0.000000
# 6 0.000000 0.000000 0.000000 0.023920 0.000000 0.057812
#
#
# Mechanical properties :
#
#
# Convention : Reuss Voigt Hill
#
# Bulk Modulus (GPa) = 12.74477 29.84075 21.29276
# Shear Modulus (GPa) = 23.71934 40.03631 31.87782
#
# Velocity S-wave (km/s) = 3.05083 3.96364 3.53681
# Velocity P-wave (km/s) = 4.17268 5.71462 5.00341
#
# Compressibility (1/GPa) = 0.07846353
#
# Stress axis : x y z
#
# Youngs Moduli (GPa) = 25.90554 40.18545 97.04512
#
# Poissons Ratio (x) = -0.73670 0.97018
# Poissons Ratio (y) = -0.47491 0.58217
# Poissons Ratio (z) = 0.25898 0.24107
#
# Static dielectric constant tensor:
#      x y z
#    x 2.083390 0.000000 0.080980 
#    y 0.000000 1.899020 0.000000 
#    z 0.080980 0.000000 2.282360 
# 
# From -- ./inp_files/6415.got.cif
#   From: 2010.05.17/outbox.cif.g08.bks.cpg/sg9_4_cif.got.tgz:6415.got - 2010.06.03 20:04:27.
