data_PCOD9136938
_publ_section_title
;
Structure prediction by ZEFSAII (Michael W. Deem and Ramdas Pophale) SiO2 
 PCOD9136938
Probable space group: C C
;
_chemical_formula_sum "Si O2"
_cell_formula_units_Z 32
_cell_length_a 12.230616
_cell_length_b 12.341069
_cell_length_c 19.931631
_cell_angle_alpha 90.000000
_cell_angle_beta 155.800388
_cell_angle_gamma 90.000000
_cell_volume 1233.217640
_symmetry_space_group_name_H-M "C C"
_symmetry_group_IT_number 9
_symmetry_cell_setting 'monoclinic'
loop_
_space_group_symop_operation_xyz
x,y,z
x,-y,1/2+z
1/2+x,1/2+y,z
1/2+x,1/2-y,1/2+z
loop_
_atom_site_type_symbol
_atom_site_label
_atom_site_fract_x
_atom_site_fract_y
_atom_site_fract_z
Si Si1 0.011270 0.005567 0.676660
Si Si2 0.572004 0.311086 0.874358
Si Si3 0.722809 0.105378 0.391668
Si Si4 0.152394 0.217252 0.947613
Si Si5 0.303542 0.487457 0.198550
Si Si6 0.783331 0.725156 0.355961
Si Si7 0.770942 0.279263 0.316508
Si Si8 0.483386 0.943431 0.152208
O O1 0.147394 0.888244 0.758238
O O2 0.227146 0.098714 0.814198
O O3 0.900565 0.033036 0.540960
O O4 0.791471 0.032270 0.611380
O O5 0.340723 0.381405 0.712020
O O6 0.785026 0.279257 0.937727
O O7 0.462326 0.219507 0.859657
O O8 0.676063 0.411937 0.977331
O O9 0.553910 0.184649 0.344938
O O10 0.871637 0.193148 0.427576
O O11 0.559902 0.028851 0.250940
O O12 0.020582 0.106631 0.845112
O O13 0.045842 0.243842 0.962121
O O14 0.474437 0.232303 0.129988
O O15 0.084357 0.475427 0.134475
O O16 0.600850 0.827333 0.237335
#
# Coordination Sequence:
#
# PCOD9136938 Si02
#       8
#     4   4   4   4   4   4   4   4
#     4  10  24  46  73 107 148 189 248 299 366 431
#     4  11  25  43  72 106 146 190 242 302 369 431
#     4  11  23  42  74 110 142 194 238 304 357 435
#     4  10  23  43  76 102 146 190 251 292 361 445
#     4  10  21  46  69 105 143 195 240 297 363 442
#     4  10  26  47  68 109 142 195 237 312 359 434
#     4  11  23  45  71 110 141 193 239 304 363 438
#     4  11  25  44  73 103 150 188 245 298 378 428
#
# _framework density 25.948381000000001
#
# number of rings (size 3 to 8) (size 9 to 14) (size 15 to 20)
#    0.000    1.500    2.500    0.750    5.250    4.000 
#    4.500    0.000    0.000    0.000    0.000    0.000 
#    0.000    0.000    0.000    0.000    0.000    0.000 
#
# Total GULP energy -89317.907112 kJ/mol
# GULP energy per Si atom -5582.369194 kJ/mol
# Density = 2.588932 g / cm^3
# Si number density = 25.948381 Si / 1000 Ang^3
#
#
#
# Elastic Constant Matrix: (Units=GPa)
#
#
# Indices 1 2 3 4 5 6 
#
# 1 161.3344 27.8717 46.0198 0.0039 -11.2429 -0.0004
# 2 27.8717 127.2153 11.3055 0.0220 -9.9472 -0.0056
# 3 46.0198 11.3055 34.2502 0.0606 -14.7022 -0.0084
# 4 0.0039 0.0220 0.0606 34.4481 -0.0089 -9.0252
# 5 -11.2429 -9.9472 -14.7022 -0.0089 27.5518 -0.0017
# 6 -0.0004 -0.0056 -0.0084 -9.0252 -0.0017 39.8119
#
#
#
# Elastic Compliance Matrix: (Units=1/GPa)
#
#
# Indices 1 2 3 4 5 6 
#
# 1 0.010603 -0.001277 -0.015780 0.000027 -0.004555 0.000002
# 2 -0.001277 0.008333 0.000042 -0.000005 0.002510 0.000000
# 3 -0.015780 0.000042 0.061779 -0.000103 0.026543 -0.000009
# 4 0.000027 -0.000005 -0.000103 0.030862 -0.000035 0.006996
# 5 -0.004555 0.002510 0.026543 -0.000035 0.049507 0.000000
# 6 0.000002 0.000000 -0.000009 0.006996 0.000000 0.026704
#
#
# Mechanical properties :
#
#
# Convention : Reuss Voigt Hill
#
# Bulk Modulus (GPa) = 21.41955 54.79931 38.10943
# Shear Modulus (GPa) = 21.06342 36.20255 28.63299
#
# Velocity S-wave (km/s) = 2.85220 3.73926 3.32544
# Velocity P-wave (km/s) = 4.37257 6.30929 5.42801
#
# Compressibility (1/GPa) = 0.04668633
#
# Stress axis : x y z
#
# Youngs Moduli (GPa) = 94.31676 120.00607 16.18667
#
# Poissons Ratio (x) = 0.15322 0.25542
# Poissons Ratio (y) = 0.12042 -0.00069
# Poissons Ratio (z) = 1.48830 -0.00508
#
# Static dielectric constant tensor:
#      x y z
#    x 2.032760 0.000000 -0.041230 
#    y 0.000000 2.065170 -0.000020 
#    z -0.041230 -0.000020 2.324200 
# 
# From -- ./inp_files/33357.got.cif
#   From: 2010.05.17/outbox.cif.g08.bks.cpg/sg9_17_cif.got.tgz:33357.got - 2010.06.03 20:04:27.
