data_PCOD9136013
_publ_section_title
;
Structure prediction by ZEFSAII (Michael W. Deem and Ramdas Pophale) SiO2 
 PCOD9136013
Probable space group: C C
;
_chemical_formula_sum "Si O2"
_cell_formula_units_Z 24
_cell_length_a 10.043132
_cell_length_b 5.047420
_cell_length_c 19.009713
_cell_angle_alpha 90.000000
_cell_angle_beta 68.243044
_cell_angle_gamma 90.000000
_cell_volume 894.993352
_symmetry_space_group_name_H-M "C C"
_symmetry_group_IT_number 9
_symmetry_cell_setting 'monoclinic'
loop_
_space_group_symop_operation_xyz
x,y,z
x,-y,1/2+z
1/2+x,1/2+y,z
1/2+x,1/2-y,1/2+z
loop_
_atom_site_type_symbol
_atom_site_label
_atom_site_fract_x
_atom_site_fract_y
_atom_site_fract_z
Si Si1 0.051490 0.209462 0.297290
Si Si2 0.316870 0.948687 0.273108
Si Si3 0.603885 0.965573 0.657205
Si Si4 0.521148 0.051311 0.443777
Si Si5 0.786529 0.790537 0.419595
Si Si6 0.234135 0.034428 0.059681
O O1 0.153295 0.956648 0.281853
O O2 0.899136 0.189901 0.286914
O O3 0.134571 0.412225 0.228680
O O4 0.024921 0.351899 0.376348
O O5 0.430677 0.053680 0.193610
O O6 0.313098 0.148099 0.340537
O O7 0.679137 0.693507 0.622867
O O8 0.658882 0.193508 0.594019
O O9 0.684723 0.043351 0.435033
O O10 0.407342 0.946319 0.523276
O O11 0.438884 0.310099 0.429971
O O12 0.703450 0.587774 0.488205
#
# Coordination Sequence:
#
# PCOD9136013 Si02
#       6
#     4   4   4   4   4   4
#     4   8  16  35  62  91 129 179 236 289 351 426
#     4   8  16  35  62  91 129 179 236 289 351 426
#     4  10  21  38  61  94 134 178 228 290 361 428
#     4   8  16  35  62  91 129 179 236 289 351 426
#     4   8  16  35  62  91 129 179 236 289 351 426
#     4  10  21  38  61  94 134 178 228 290 361 428
#
# _framework density 26.815843000000001
#
# number of rings (size 3 to 8) (size 9 to 14) (size 15 to 20)
#    2.000    1.333    0.000    0.000    0.000    1.333 
#    0.000   13.333    0.000    8.000    0.000    0.000 
#    0.000    0.000    0.000    0.000    0.000    0.000 
#
# Total GULP energy -66980.257853 kJ/mol
# GULP energy per Si atom -5581.688154 kJ/mol
# Density = 2.675481 g / cm^3
# Si number density = 26.815843 Si / 1000 Ang^3
#
#
#
# Elastic Constant Matrix: (Units=GPa)
#
#
# Indices 1 2 3 4 5 6 
#
# 1 166.1392 81.8649 42.8610 0.0000 -45.1797 0.0000
# 2 81.8649 100.3060 35.2386 0.0001 -6.4795 0.0004
# 3 42.8610 35.2386 190.2365 0.0000 -25.6165 0.0000
# 4 0.0000 0.0001 0.0000 35.5968 -0.0001 -22.2508
# 5 -45.1797 -6.4795 -25.6165 -0.0001 46.3944 0.0000
# 6 0.0000 0.0004 0.0000 -22.2508 0.0000 37.9535
#
#
#
# Elastic Compliance Matrix: (Units=1/GPa)
#
#
# Indices 1 2 3 4 5 6 
#
# 1 0.015507 -0.011970 0.000575 0.000000 0.013747 0.000000
# 2 -0.011970 0.019911 -0.002362 0.000000 -0.010180 0.000000
# 3 0.000575 -0.002362 0.006045 0.000000 0.003567 0.000000
# 4 0.000000 0.000000 0.000000 0.044342 0.000000 0.025996
# 5 0.013747 -0.010180 0.003567 0.000000 0.035489 0.000000
# 6 0.000000 0.000000 0.000000 0.025996 0.000000 0.041589
#
#
# Mechanical properties :
#
#
# Convention : Reuss Voigt Hill
#
# Bulk Modulus (GPa) = 71.69470 86.29007 78.99238
# Shear Modulus (GPa) = 25.63459 43.77010 34.70234
#
# Velocity S-wave (km/s) = 3.09520 4.04449 3.60126
# Velocity P-wave (km/s) = 6.29028 7.35249 6.84203
#
# Compressibility (1/GPa) = 0.01394803
#
# Stress axis : x y z
#
# Youngs Moduli (GPa) = 64.48499 50.22275 165.42331
#
# Poissons Ratio (x) = 0.60118 -0.09504
# Poissons Ratio (y) = 0.77190 0.39076
# Poissons Ratio (z) = -0.03705 0.11863
#
# Static dielectric constant tensor:
#      x y z
#    x 2.200700 0.000000 0.074820 
#    y 0.000000 1.977910 0.000000 
#    z 0.074820 0.000000 2.119650 
# 
# From -- ./inp_files/32935.got.cif
#   From: 2010.05.17/outbox.cif.g08.bks.cpg/sg9_17_cif.got.tgz:32935.got - 2010.06.03 20:04:27.
