data_PCOD9136911
_publ_section_title
;
Structure prediction by ZEFSAII (Michael W. Deem and Ramdas Pophale) SiO2 
 PCOD9136911
Probable space group: C C
;
_chemical_formula_sum "Si O2"
_cell_formula_units_Z 32
_cell_length_a 5.329203
_cell_length_b 23.053918
_cell_length_c 11.990805
_cell_angle_alpha 90.000000
_cell_angle_beta 66.563111
_cell_angle_gamma 90.000000
_cell_volume 1351.639340
_symmetry_space_group_name_H-M "C C"
_symmetry_group_IT_number 9
_symmetry_cell_setting 'monoclinic'
loop_
_space_group_symop_operation_xyz
x,y,z
x,-y,1/2+z
1/2+x,1/2+y,z
1/2+x,1/2-y,1/2+z
loop_
_atom_site_type_symbol
_atom_site_label
_atom_site_fract_x
_atom_site_fract_y
_atom_site_fract_z
Si Si1 0.379800 0.982491 0.315770
Si Si2 0.089743 0.462090 0.988722
Si Si3 0.628140 0.596199 0.325700
Si Si4 0.100693 0.840598 0.598679
Si Si5 0.575522 0.130606 0.838591
Si Si6 0.175377 0.704374 0.620418
Si Si7 0.348445 0.423004 0.487971
Si Si8 0.268826 0.142453 0.520985
O O1 0.522650 0.922276 0.259851
O O2 0.132081 0.958104 0.435943
O O3 0.582285 0.015743 0.362303
O O4 0.241902 0.033180 0.271799
O O5 0.352510 0.420060 0.943495
O O6 0.141165 0.523185 0.041107
O O7 0.816354 0.424202 0.057180
O O8 0.591325 0.632549 0.222302
O O9 0.816039 0.631137 0.380745
O O10 0.353550 0.859824 0.475202
O O11 0.138794 0.772351 0.606205
O O12 0.849443 0.871255 0.576726
O O13 0.574970 0.186745 0.762082
O O14 0.825890 0.108064 0.870365
O O15 0.483288 0.677654 0.572472
O O16 0.987811 0.676991 0.556030
#
# Coordination Sequence:
#
# PCOD9136911 Si02
#       8
#     4   4   4   4   4   4   4   4
#     4   8  18  40  67 102 147 184 241 304 376 438
#     4   9  18  43  72 105 151 182 246 314 373 449
#     4  10  21  45  72 111 145 192 247 309 378 441
#     4  11  27  45  72 110 148 203 246 311 367 450
#     4  10  24  48  66 106 145 198 249 306 374 440
#     4  12  29  47  75 105 149 206 251 303 361 450
#     4   9  20  43  69 106 150 192 243 307 386 440
#     4  11  25  49  73 109 139 197 253 308 369 438
#
# _framework density 23.674956999999999
#
# number of rings (size 3 to 8) (size 9 to 14) (size 15 to 20)
#    0.000    2.000    1.250    0.000    7.000    2.000 
#   20.250    0.000    0.000    0.000    0.000    0.000 
#    0.000    0.000    0.000    0.000    0.000    0.000 
#
# Total GULP energy -89082.563135 kJ/mol
# GULP energy per Si atom -5567.660196 kJ/mol
# Density = 2.362107 g / cm^3
# Si number density = 23.674957 Si / 1000 Ang^3
#
#
#
# Elastic Constant Matrix: (Units=GPa)
#
#
# Indices 1 2 3 4 5 6 
#
# 1 123.9930 75.1339 45.2179 0.0000 24.7815 0.0000
# 2 75.1339 149.3175 43.6191 0.0000 18.1384 0.0000
# 3 45.2179 43.6191 84.9874 0.0000 14.9802 0.0000
# 4 0.0000 0.0000 0.0000 49.4388 0.0000 6.8801
# 5 24.7815 18.1384 14.9802 0.0000 32.5526 0.0000
# 6 0.0000 0.0000 0.0000 6.8801 0.0000 37.7873
#
#
#
# Elastic Compliance Matrix: (Units=1/GPa)
#
#
# Indices 1 2 3 4 5 6 
#
# 1 0.013646 -0.005098 -0.003606 0.000000 -0.005888 0.000000
# 2 -0.005098 0.010016 -0.002317 0.000000 -0.000634 0.000000
# 3 -0.003606 -0.002317 0.015413 0.000000 -0.003057 0.000000
# 4 0.000000 0.000000 0.000000 0.020753 0.000000 -0.003779
# 5 -0.005888 -0.000634 -0.003057 0.000000 0.036962 0.000000
# 6 0.000000 0.000000 0.000000 -0.003779 0.000000 0.027152
#
#
# Mechanical properties :
#
#
# Convention : Reuss Voigt Hill
#
# Bulk Modulus (GPa) = 58.70628 76.24884 67.47756
# Shear Modulus (GPa) = 32.96843 36.91087 34.93965
#
# Velocity S-wave (km/s) = 3.73573 3.95279 3.84579
# Velocity P-wave (km/s) = 6.59228 7.28760 6.94865
#
# Compressibility (1/GPa) = 0.01703395
#
# Stress axis : x y z
#
# Youngs Moduli (GPa) = 73.28249 99.84086 64.88089
#
# Poissons Ratio (x) = 0.50895 0.23397
# Poissons Ratio (y) = 0.37357 0.15030
# Poissons Ratio (z) = 0.26426 0.23129
#
# Static dielectric constant tensor:
#      x y z
#    x 2.062700 0.000000 0.004460 
#    y 0.000000 1.883960 0.000000 
#    z 0.004460 0.000000 1.965420 
# 
# From -- ./inp_files/22237.got.cif
#   From: 2010.05.17/outbox.cif.g08.bks.cpg/sg9_12_cif.got.tgz:22237.got - 2010.06.03 20:04:27.
