data_PCOD9136435
_publ_section_title
;
Structure prediction by ZEFSAII (Michael W. Deem and Ramdas Pophale) SiO2 
 PCOD9136435
Probable space group: C C
;
_chemical_formula_sum "Si O2"
_cell_formula_units_Z 28
_cell_length_a 14.571486
_cell_length_b 10.146843
_cell_length_c 13.726019
_cell_angle_alpha 90.000000
_cell_angle_beta 148.704153
_cell_angle_gamma 90.000000
_cell_volume 1054.214852
_symmetry_space_group_name_H-M "C C"
_symmetry_group_IT_number 9
_symmetry_cell_setting 'monoclinic'
loop_
_space_group_symop_operation_xyz
x,y,z
x,-y,1/2+z
1/2+x,1/2+y,z
1/2+x,1/2-y,1/2+z
loop_
_atom_site_type_symbol
_atom_site_label
_atom_site_fract_x
_atom_site_fract_y
_atom_site_fract_z
Si Si1 0.396410 0.916301 0.927610
Si Si2 0.692950 0.293330 0.405775
Si Si3 0.819955 0.383180 0.188711
Si Si4 0.455633 0.647243 0.877164
Si Si5 0.539441 0.466726 0.662732
Si Si6 0.414628 0.595393 0.246567
Si Si7 0.043776 0.469310 0.734292
O O1 0.399532 0.789051 0.863713
O O2 0.230757 0.897581 0.849445
O O3 0.355120 0.039208 0.820347
O O4 0.556057 0.949132 0.145086
O O5 0.604237 0.316696 0.431267
O O6 0.581888 0.382400 0.228669
O O7 0.411082 0.595354 0.126428
O O8 0.696417 0.138574 0.386014
O O9 0.975879 0.434393 0.257969
O O10 0.833626 0.227097 0.214738
O O11 0.622796 0.410084 0.967705
O O12 0.333271 0.542146 0.709962
O O13 0.496036 0.568965 0.013401
O O14 0.881114 0.635639 0.078677
#
# Coordination Sequence:
#
# PCOD9136435 Si02
#       7
#     4   4   4   4   4   4   4
#     4  11  22  39  73  88 132 172 225 266 334 388
#     4  10  22  41  70  94 137 176 214 272 336 386
#     4  12  23  45  64  98 130 178 214 281 328 393
#     4  11  21  42  67  96 125 181 218 272 327 400
#     4  10  21  41  64  90 131 178 209 268 327 389
#     4  11  25  44  67  92 140 170 220 273 337 386
#     4  11  22  44  67 100 135 175 220 280 331 398
#
# _framework density 26.560051999999999
#
# number of rings (size 3 to 8) (size 9 to 14) (size 15 to 20)
#    0.000    1.143    7.143    0.857    2.000    0.000 
#    7.714    1.429    0.000    0.000    0.000    0.000 
#    0.000    0.000    0.000    0.000    0.000    0.000 
#
# Total GULP energy -78376.338890 kJ/mol
# GULP energy per Si atom -5598.309921 kJ/mol
# Density = 2.649960 g / cm^3
# Si number density = 26.560052 Si / 1000 Ang^3
#
#
#
# Elastic Constant Matrix: (Units=GPa)
#
#
# Indices 1 2 3 4 5 6 
#
# 1 99.3952 38.8360 24.3341 0.0000 -26.6202 0.0000
# 2 38.8360 189.5854 23.4573 0.0000 -14.7180 0.0000
# 3 24.3341 23.4573 75.5197 0.0000 -23.6513 0.0000
# 4 0.0000 0.0000 0.0000 40.4971 0.0000 -3.7789
# 5 -26.6202 -14.7180 -23.6513 0.0000 49.9351 0.0000
# 6 0.0000 0.0000 0.0000 -3.7789 0.0000 37.8256
#
#
#
# Elastic Compliance Matrix: (Units=1/GPa)
#
#
# Indices 1 2 3 4 5 6 
#
# 1 0.012700 -0.001963 -0.001812 0.000000 0.005333 0.000000
# 2 -0.001963 0.005828 -0.001136 0.000000 0.000133 0.000000
# 3 -0.001812 -0.001136 0.016169 0.000000 0.006358 0.000000
# 4 0.000000 0.000000 0.000000 0.024925 0.000000 0.002490
# 5 0.005333 0.000133 0.006358 0.000000 0.025920 0.000000
# 6 0.000000 0.000000 0.000000 0.002490 0.000000 0.026686
#
#
# Mechanical properties :
#
#
# Convention : Reuss Voigt Hill
#
# Bulk Modulus (GPa) = 40.20169 59.75056 49.97612
# Shear Modulus (GPa) = 38.36059 44.17643 41.26851
#
# Velocity S-wave (km/s) = 3.80451 4.08274 3.94608
# Velocity P-wave (km/s) = 5.87095 6.69106 6.29438
#
# Compressibility (1/GPa) = 0.02487457
#
# Stress axis : x y z
#
# Youngs Moduli (GPa) = 78.74024 171.59389 61.84534
#
# Poissons Ratio (x) = 0.33689 0.11207
# Poissons Ratio (y) = 0.15459 0.07025
# Poissons Ratio (z) = 0.14268 0.19491
#
# Static dielectric constant tensor:
#      x y z
#    x 2.060130 0.000000 0.085640 
#    y 0.000000 2.045130 0.000000 
#    z 0.085640 0.000000 2.246500 
# 
# From -- ./inp_files/26742.got.cif
#   From: 2010.05.17/outbox.cif.g08.bks.cpg/sg9_14_cif.got.tgz:26742.got - 2010.06.03 20:04:27.
