data_PCOD9136226
_publ_section_title
;
Structure prediction by ZEFSAII (Michael W. Deem and Ramdas Pophale) SiO2 
 PCOD9136226
Probable space group: C C
;
_chemical_formula_sum "Si O2"
_cell_formula_units_Z 28
_cell_length_a 17.020753
_cell_length_b 8.163165
_cell_length_c 22.553122
_cell_angle_alpha 90.000000
_cell_angle_beta 20.272138
_cell_angle_gamma 90.000000
_cell_volume 1085.729394
_symmetry_space_group_name_H-M "C C"
_symmetry_group_IT_number 9
_symmetry_cell_setting 'monoclinic'
loop_
_space_group_symop_operation_xyz
x,y,z
x,-y,1/2+z
1/2+x,1/2+y,z
1/2+x,1/2-y,1/2+z
loop_
_atom_site_type_symbol
_atom_site_label
_atom_site_fract_x
_atom_site_fract_y
_atom_site_fract_z
Si Si1 0.972100 0.763124 0.546580
Si Si2 0.290615 0.398174 0.229951
Si Si3 0.098092 0.448035 0.627356
Si Si4 0.892824 0.756964 0.822975
Si Si5 0.003944 0.196931 0.891443
Si Si6 0.715574 0.178201 0.915799
Si Si7 0.338764 0.062663 0.985124
O O1 0.075649 0.788766 0.408920
O O2 0.745281 0.660847 0.691297
O O3 0.151615 0.695410 0.465761
O O4 0.884608 0.935907 0.634133
O O5 0.279898 0.411189 0.308803
O O6 0.038629 0.367456 0.384839
O O7 0.466455 0.258694 0.086342
O O8 0.310984 0.437152 0.520765
O O9 0.198666 0.401686 0.492446
O O10 0.988715 0.624380 0.708347
O O11 0.904438 0.321217 0.783820
O O12 0.865724 0.652168 0.902470
O O13 0.089171 0.893689 0.685998
O O14 0.893143 0.367109 0.945453
#
# Coordination Sequence:
#
# PCOD9136226 Si02
#       7
#     4   4   4   4   4   4   4
#     4  11  24  47  69 105 144 190 239 298 355 428
#     4  10  21  43  68 104 143 190 237 297 356 427
#     4  11  22  43  73 109 140 191 241 295 353 430
#     4  12  25  48  73 107 144 187 243 302 355 421
#     4  11  25  47  73 103 145 191 238 290 362 431
#     4  10  21  39  72 104 149 187 239 292 365 423
#     4  11  26  45  72 100 147 186 239 294 362 422
#
# _framework density 25.789117000000001
#
# number of rings (size 3 to 8) (size 9 to 14) (size 15 to 20)
#    0.000    1.143    1.429    5.143    2.000    2.286 
#   10.286    0.000    0.000    0.000    0.000    0.000 
#    0.000    0.000    0.000    0.000    0.000    0.000 
#
# Total GULP energy -78465.477779 kJ/mol
# GULP energy per Si atom -5604.676984 kJ/mol
# Density = 2.573042 g / cm^3
# Si number density = 25.789117 Si / 1000 Ang^3
#
#
#
# Elastic Constant Matrix: (Units=GPa)
#
#
# Indices 1 2 3 4 5 6 
#
# 1 103.5100 25.5762 14.9373 0.0567 0.5581 -0.0005
# 2 25.5762 59.3686 32.3882 0.0379 4.9435 0.0106
# 3 14.9373 32.3882 107.3049 0.1622 -17.0482 0.0190
# 4 0.0567 0.0379 0.1622 45.9714 0.0046 12.8032
# 5 0.5581 4.9435 -17.0482 0.0046 68.0867 -0.0077
# 6 -0.0005 0.0106 0.0190 12.8032 -0.0077 34.7770
#
#
#
# Elastic Compliance Matrix: (Units=1/GPa)
#
#
# Indices 1 2 3 4 5 6 
#
# 1 0.010816 -0.004642 -0.000068 -0.000011 0.000231 0.000006
# 2 -0.004642 0.022810 -0.006765 0.000014 -0.003312 -0.000009
# 3 -0.000068 -0.006765 0.011923 -0.000040 0.003477 0.000011
# 4 -0.000011 0.000014 -0.000040 0.024238 -0.000013 -0.008923
# 5 0.000231 -0.003312 0.003477 -0.000013 0.015796 0.000008
# 6 0.000006 -0.000009 0.000011 -0.008923 0.000008 0.032040
#
#
# Mechanical properties :
#
#
# Convention : Reuss Voigt Hill
#
# Bulk Modulus (GPa) = 44.24751 46.22076 45.23413
# Shear Modulus (GPa) = 33.75954 42.91912 38.33933
#
# Velocity S-wave (km/s) = 3.62202 4.08393 3.85989
# Velocity P-wave (km/s) = 5.88954 6.34030 6.11908
#
# Compressibility (1/GPa) = 0.02260014
#
# Stress axis : x y z
#
# Youngs Moduli (GPa) = 92.45182 43.84041 83.87137
#
# Poissons Ratio (x) = 0.20351 0.00569
# Poissons Ratio (y) = 0.42916 0.56738
# Poissons Ratio (z) = 0.00627 0.29657
#
# Static dielectric constant tensor:
#      x y z
#    x 1.963800 0.000000 0.004400 
#    y 0.000000 2.110130 0.000010 
#    z 0.004400 0.000010 1.994720 
# 
# From -- ./inp_files/35804.got.cif
#   From: 2010.05.17/outbox.cif.g08.bks.cpg/sg9_18_cif.got.tgz:35804.got - 2010.06.03 20:04:27.
