data_PCOD9136339
_publ_section_title
;
Structure prediction by ZEFSAII (Michael W. Deem and Ramdas Pophale) SiO2 
 PCOD9136339
Probable space group: C C
;
_chemical_formula_sum "Si O2"
_cell_formula_units_Z 32
_cell_length_a 12.150831
_cell_length_b 8.700213
_cell_length_c 14.357387
_cell_angle_alpha 90.000000
_cell_angle_beta 122.869033
_cell_angle_gamma 90.000000
_cell_volume 1274.810813
_symmetry_space_group_name_H-M "C C"
_symmetry_group_IT_number 9
_symmetry_cell_setting 'monoclinic'
loop_
_space_group_symop_operation_xyz
x,y,z
x,-y,1/2+z
1/2+x,1/2+y,z
1/2+x,1/2-y,1/2+z
loop_
_atom_site_type_symbol
_atom_site_label
_atom_site_fract_x
_atom_site_fract_y
_atom_site_fract_z
Si Si1 0.687520 0.894760 0.820360
Si Si2 0.030575 0.829100 0.140937
Si Si3 0.167786 0.071613 0.393863
Si Si4 0.750581 0.264573 0.537125
Si Si5 0.872268 0.919587 0.743468
Si Si6 0.945890 0.437559 0.274135
Si Si7 0.625894 0.143505 0.011509
Si Si8 0.180427 0.884334 0.685797
O O1 0.651765 0.731074 0.757665
O O2 0.806694 0.954560 0.813391
O O3 0.558943 0.002290 0.756375
O O4 0.718588 0.855698 0.940281
O O5 0.045884 0.729623 0.055289
O O6 0.898479 0.781761 0.129866
O O7 0.054305 0.004523 0.125568
O O8 0.171490 0.220699 0.462358
O O9 0.204631 0.135092 0.307520
O O10 0.017346 0.009803 0.312005
O O11 0.240546 0.931420 0.480010
O O12 0.667469 0.264524 0.594940
O O13 0.910081 0.740108 0.746752
O O14 0.752472 0.936486 0.615683
O O15 0.810901 0.527675 0.211025
O O16 0.017480 0.452747 0.406589
#
# Coordination Sequence:
#
# PCOD9136339 Si02
#       8
#     4   4   4   4   4   4   4   4
#     4  11  23  41  69 101 129 180 232 275 339 411
#     4  11  21  40  69  98 130 182 230 272 342 420
#     4  11  22  41  67  98 135 179 226 288 336 408
#     4  12  23  41  69  99 134 182 224 284 347 399
#     4  10  22  45  67  98 138 178 233 278 336 419
#     4  11  21  43  63  98 136 170 229 281 334 409
#     4  10  21  40  67  95 132 182 220 278 345 395
#     4  12  23  41  67 103 136 173 232 284 337 415
#
# _framework density 25.101765
#
# number of rings (size 3 to 8) (size 9 to 14) (size 15 to 20)
#    0.000    1.000    6.250    2.250    0.000    1.000 
#    2.250    6.250    0.000    0.000    0.000    0.000 
#    0.000    0.000    0.000    0.000    0.000    0.000 
#
# Total GULP energy -89398.857363 kJ/mol
# GULP energy per Si atom -5587.428585 kJ/mol
# Density = 2.504463 g / cm^3
# Si number density = 25.101765 Si / 1000 Ang^3
#
#
#
# Elastic Constant Matrix: (Units=GPa)
#
#
# Indices 1 2 3 4 5 6 
#
# 1 119.7331 29.1308 14.1368 0.0000 -23.4851 0.0000
# 2 29.1308 50.1665 16.7222 0.0000 -0.6437 0.0000
# 3 14.1368 16.7222 123.7408 0.0000 -14.0501 0.0000
# 4 0.0000 0.0000 0.0000 33.8033 0.0000 1.7799
# 5 -23.4851 -0.6437 -14.0501 0.0000 52.5052 0.0000
# 6 0.0000 0.0000 0.0000 1.7799 0.0000 42.5158
#
#
#
# Elastic Compliance Matrix: (Units=1/GPa)
#
#
# Indices 1 2 3 4 5 6 
#
# 1 0.010797 -0.006260 0.000157 0.000000 0.004795 0.000000
# 2 -0.006260 0.024517 -0.002972 0.000000 -0.003295 0.000000
# 3 0.000157 -0.002972 0.008734 0.000000 0.002371 0.000000
# 4 0.000000 0.000000 0.000000 0.029648 0.000000 -0.001241
# 5 0.004795 -0.003295 0.002371 0.000000 0.021784 0.000000
# 6 0.000000 0.000000 0.000000 -0.001241 0.000000 0.023573
#
#
# Mechanical properties :
#
#
# Convention : Reuss Voigt Hill
#
# Bulk Modulus (GPa) = 38.61386 45.95778 42.28582
# Shear Modulus (GPa) = 34.28467 41.34156 37.81311
#
# Velocity S-wave (km/s) = 3.69972 4.06268 3.88544
# Velocity P-wave (km/s) = 5.80232 6.35259 6.08368
#
# Compressibility (1/GPa) = 0.02589744
#
# Stress axis : x y z
#
# Youngs Moduli (GPa) = 92.61863 40.78738 114.49041
#
# Poissons Ratio (x) = 0.25535 -0.01797
# Poissons Ratio (y) = 0.57983 0.34028
# Poissons Ratio (z) = -0.01453 0.12123
#
# Static dielectric constant tensor:
#      x y z
#    x 1.985830 0.000000 -0.038030 
#    y 0.000000 2.064660 0.000000 
#    z -0.038030 0.000000 2.057630 
# 
# From -- ./inp_files/24433.got.cif
#   From: 2010.05.17/outbox.cif.g08.bks.cpg/sg9_13_cif.got.tgz:24433.got - 2010.06.03 20:04:27.
