data_PCOD9136437
_publ_section_title
;
Structure prediction by ZEFSAII (Michael W. Deem and Ramdas Pophale) SiO2 
 PCOD9136437
Probable space group: C C
;
_chemical_formula_sum "Si O2"
_cell_formula_units_Z 20
_cell_length_a 7.141189
_cell_length_b 11.783524
_cell_length_c 12.819377
_cell_angle_alpha 90.000000
_cell_angle_beta 44.646975
_cell_angle_gamma 90.000000
_cell_volume 758.062828
_symmetry_space_group_name_H-M "C C"
_symmetry_group_IT_number 9
_symmetry_cell_setting 'monoclinic'
loop_
_space_group_symop_operation_xyz
x,y,z
x,-y,1/2+z
1/2+x,1/2+y,z
1/2+x,1/2-y,1/2+z
loop_
_atom_site_type_symbol
_atom_site_label
_atom_site_fract_x
_atom_site_fract_y
_atom_site_fract_z
Si Si1 0.156240 0.133202 0.142200
Si Si2 0.774484 0.490422 0.380149
Si Si3 0.300072 0.621650 0.623677
Si Si4 0.546658 0.801103 0.890819
Si Si5 0.122121 0.889382 0.208150
O O1 0.327561 0.244631 0.094870
O O2 0.853473 0.168817 0.286181
O O3 0.215702 0.019247 0.183734
O O4 0.205432 0.093323 0.004547
O O5 0.488237 0.548535 0.473839
O O6 0.999272 0.420132 0.230564
O O7 0.935056 0.601379 0.358191
O O8 0.401006 0.603081 0.703245
O O9 0.516302 0.678729 0.849053
O O10 0.364136 0.815628 0.064604
#
# Coordination Sequence:
#
# PCOD9136437 Si02
#       5
#     4   4   4   4   4
#     4  10  22  41  63  93 130 172 206 269 323 379
#     4  10  21  41  64  92 126 173 206 267 323 380
#     4  10  22  40  69  86 130 169 216 261 327 376
#     4  10  21  42  66  91 133 170 211 269 320 378
#     4  10  24  42  66  96 131 170 215 266 321 385
#
# _framework density 26.383037999999999
#
# number of rings (size 3 to 8) (size 9 to 14) (size 15 to 20)
#    0.000    2.400    4.000    0.000    8.400    0.000 
#    3.600    2.000    0.000    0.000    0.000    0.000 
#    0.000    0.000    0.000    0.000    0.000    0.000 
#
# Total GULP energy -56006.456430 kJ/mol
# GULP energy per Si atom -5600.645643 kJ/mol
# Density = 2.632299 g / cm^3
# Si number density = 26.383038 Si / 1000 Ang^3
#
#
#
# Elastic Constant Matrix: (Units=GPa)
#
#
# Indices 1 2 3 4 5 6 
#
# 1 66.4625 44.0828 49.4189 -0.0013 -0.4806 0.0006
# 2 44.0828 240.4834 67.1284 -0.0020 5.4201 0.0007
# 3 49.4189 67.1284 159.0175 -0.0085 -5.6281 0.0023
# 4 -0.0013 -0.0020 -0.0085 47.7499 0.0024 0.7907
# 5 -0.4806 5.4201 -5.6281 0.0024 36.2458 -0.0007
# 6 0.0006 0.0007 0.0023 0.7907 -0.0007 46.8861
#
#
#
# Elastic Compliance Matrix: (Units=1/GPa)
#
#
# Indices 1 2 3 4 5 6 
#
# 1 0.020594 -0.002245 -0.005461 0.000000 -0.000239 0.000000
# 2 -0.002245 0.004996 -0.001447 0.000000 -0.001002 0.000000
# 3 -0.005461 -0.001447 0.008649 0.000001 0.001487 0.000000
# 4 0.000000 0.000000 0.000001 0.020948 -0.000001 -0.000353
# 5 -0.000239 -0.001002 0.001487 -0.000001 0.027967 0.000000
# 6 0.000000 0.000000 0.000000 -0.000353 0.000000 0.021334
#
#
# Mechanical properties :
#
#
# Convention : Reuss Voigt Hill
#
# Bulk Modulus (GPa) = 62.76049 87.46928 75.11488
# Shear Modulus (GPa) = 39.03024 46.53193 42.78109
#
# Velocity S-wave (km/s) = 3.85043 4.20421 4.03120
# Velocity P-wave (km/s) = 6.60360 7.53609 7.08521
#
# Compressibility (1/GPa) = 0.01593359
#
# Stress axis : x y z
#
# Youngs Moduli (GPa) = 48.55781 200.14712 115.61937
#
# Poissons Ratio (x) = 0.44941 0.63136
# Poissons Ratio (y) = 0.10903 0.16728
# Poissons Ratio (z) = 0.26516 0.28958
#
# Static dielectric constant tensor:
#      x y z
#    x 2.236360 0.000000 0.087040 
#    y 0.000000 2.031450 0.000000 
#    z 0.087040 0.000000 2.021320 
# 
# From -- ./inp_files/4677.got.cif
#   From: 2010.05.17/outbox.cif.g08.bks.cpg/sg9_3_cif.got.tgz:4677.got - 2010.06.03 20:04:27.
