data_PCOD9136937
_publ_section_title
;
Structure prediction by ZEFSAII (Michael W. Deem and Ramdas Pophale) SiO2 
 PCOD9136937
Probable space group: C C
;
_chemical_formula_sum "Si O2"
_cell_formula_units_Z 28
_cell_length_a 10.046002
_cell_length_b 7.414018
_cell_length_c 24.142248
_cell_angle_alpha 90.000000
_cell_angle_beta 137.812243
_cell_angle_gamma 90.000000
_cell_volume 1207.566057
_symmetry_space_group_name_H-M "C C"
_symmetry_group_IT_number 9
_symmetry_cell_setting 'monoclinic'
loop_
_space_group_symop_operation_xyz
x,y,z
x,-y,1/2+z
1/2+x,1/2+y,z
1/2+x,1/2-y,1/2+z
loop_
_atom_site_type_symbol
_atom_site_label
_atom_site_fract_x
_atom_site_fract_y
_atom_site_fract_z
Si Si1 0.408680 0.923178 0.608480
Si Si2 0.367128 0.659353 0.240975
Si Si3 0.945319 0.789111 0.886958
Si Si4 0.236169 0.075174 0.297158
Si Si5 0.483196 0.335027 0.451762
Si Si6 0.773200 0.444422 0.688810
Si Si7 0.873165 0.807346 0.543155
O O1 0.634629 0.877405 0.665625
O O2 0.222428 0.838270 0.517529
O O3 0.360482 0.878669 0.657808
O O4 0.397550 0.136484 0.591148
O O5 0.457908 0.619392 0.329665
O O6 0.501929 0.576296 0.235340
O O7 0.384049 0.871125 0.235170
O O8 0.789258 0.631914 0.827278
O O9 0.916012 0.956090 0.919890
O O10 0.138074 0.675638 0.965625
O O11 0.355841 0.205397 0.374441
O O12 0.292485 0.150592 0.253753
O O13 0.439735 0.270200 0.500589
O O14 0.533198 0.459206 0.608732
#
# Coordination Sequence:
#
# PCOD9136937 Si02
#       7
#     4   4   4   4   4   4   4
#     4  10  24  45  70 101 144 184 235 297 351 415
#     4  11  24  44  66 109 138 179 240 294 350 426
#     4  10  24  43  67 103 142 183 235 296 350 425
#     4  11  24  46  73 102 143 189 235 291 364 420
#     4  10  23  47  69 101 144 186 237 294 353 426
#     4  10  24  43  70 102 138 188 233 291 351 423
#     4  10  21  46  69 102 141 185 239 291 353 421
#
# _framework density 23.187137
#
# number of rings (size 3 to 8) (size 9 to 14) (size 15 to 20)
#    0.000    1.714    1.429    0.857    6.000    4.571 
#   10.286    0.000    0.000    0.000    0.000    0.000 
#    0.000    0.000    0.000    0.000    0.000    0.000 
#
# Total GULP energy -78058.243429 kJ/mol
# GULP energy per Si atom -5575.588816 kJ/mol
# Density = 2.313436 g / cm^3
# Si number density = 23.187137 Si / 1000 Ang^3
#
#
#
# Elastic Constant Matrix: (Units=GPa)
#
#
# Indices 1 2 3 4 5 6 
#
# 1 116.9046 30.3510 44.9300 0.0000 9.2556 0.0000
# 2 30.3510 35.2252 18.0114 0.0000 4.0820 0.0000
# 3 44.9300 18.0114 95.6271 0.0000 -6.0605 0.0000
# 4 0.0000 0.0000 0.0000 38.3074 0.0000 8.8735
# 5 9.2556 4.0820 -6.0605 0.0000 33.3016 0.0000
# 6 0.0000 0.0000 0.0000 8.8735 0.0000 18.0880
#
#
#
# Elastic Compliance Matrix: (Units=1/GPa)
#
#
# Indices 1 2 3 4 5 6 
#
# 1 0.012741 -0.008206 -0.004655 0.000000 -0.003383 0.000000
# 2 -0.008206 0.037539 -0.003401 0.000000 -0.002940 0.000000
# 3 -0.004655 -0.003401 0.013550 0.000000 0.004177 0.000000
# 4 0.000000 0.000000 0.000000 0.029451 0.000000 -0.014448
# 5 -0.003383 -0.002940 0.004177 0.000000 0.032089 0.000000
# 6 0.000000 0.000000 0.000000 -0.014448 0.000000 0.062373
#
#
# Mechanical properties :
#
#
# Convention : Reuss Voigt Hill
#
# Bulk Modulus (GPa) = 31.94352 48.26020 40.10186
# Shear Modulus (GPa) = 21.67279 28.23705 24.95492
#
# Velocity S-wave (km/s) = 3.06059 3.49347 3.28417
# Velocity P-wave (km/s) = 5.12795 6.09352 5.63147
#
# Compressibility (1/GPa) = 0.03130526
#
# Stress axis : x y z
#
# Youngs Moduli (GPa) = 78.48427 26.63895 73.80145
#
# Poissons Ratio (x) = 0.21860 0.34357
# Poissons Ratio (y) = 0.64404 0.25102
# Poissons Ratio (z) = 0.36536 0.09061
#
# Static dielectric constant tensor:
#      x y z
#    x 1.905680 0.000000 -0.010680 
#    y 0.000000 1.868210 0.000000 
#    z -0.010680 0.000000 1.883770 
# 
# From -- ./inp_files/28983.got.cif
#   From: 2010.05.17/outbox.cif.g08.bks.cpg/sg9_15_cif.got.tgz:28983.got - 2010.06.03 20:04:27.
