data_PCOD9136324
_publ_section_title
;
Structure prediction by ZEFSAII (Michael W. Deem and Ramdas Pophale) SiO2 
 PCOD9136324
Probable space group: C C
;
_chemical_formula_sum "Si O2"
_cell_formula_units_Z 32
_cell_length_a 18.319521
_cell_length_b 5.491742
_cell_length_c 23.026070
_cell_angle_alpha 90.000000
_cell_angle_beta 145.633709
_cell_angle_gamma 90.000000
_cell_volume 1307.656709
_symmetry_space_group_name_H-M "C C"
_symmetry_group_IT_number 9
_symmetry_cell_setting 'monoclinic'
loop_
_space_group_symop_operation_xyz
x,y,z
x,-y,1/2+z
1/2+x,1/2+y,z
1/2+x,1/2-y,1/2+z
loop_
_atom_site_type_symbol
_atom_site_label
_atom_site_fract_x
_atom_site_fract_y
_atom_site_fract_z
Si Si1 0.633580 0.759111 0.678610
Si Si2 0.372166 0.457850 0.782042
Si Si3 0.733245 0.735504 0.276418
Si Si4 0.134052 0.346228 0.856583
Si Si5 0.870965 0.847245 0.160566
Si Si6 0.142650 0.936524 0.484041
Si Si7 0.874748 0.528623 0.970469
Si Si8 0.306312 0.698588 0.022264
O O1 0.635497 0.491379 0.707395
O O2 0.505759 0.813793 0.556967
O O3 0.763763 0.761125 0.725025
O O4 0.667285 0.996122 0.742133
O O5 0.307107 0.704670 0.764567
O O6 0.398483 0.468680 0.731189
O O7 0.504980 0.442159 0.905730
O O8 0.839057 0.642116 0.392598
O O9 0.118848 0.231334 0.911395
O O10 0.247209 0.190515 0.900089
O O11 0.991843 0.334052 0.737520
O O12 0.191473 0.611549 0.904146
O O13 0.865848 0.970702 0.094228
O O14 0.730464 0.732147 0.082063
O O15 0.240320 0.144543 0.528566
O O16 0.893903 0.359814 0.039351
#
# Coordination Sequence:
#
# PCOD9136324 Si02
#       8
#     4   4   4   4   4   4   4   4
#     4  10  26  45  69 102 138 190 242 283 361 414
#     4   9  23  41  64  98 140 179 235 284 354 422
#     4  10  26  46  67 102 140 188 235 294 343 425
#     4   9  22  38  61  94 134 172 229 286 350 414
#     4  10  21  40  66  98 134 179 230 293 352 426
#     4   9  20  40  61 100 126 175 223 283 354 415
#     4  11  25  43  69  99 143 186 241 294 350 434
#     4  10  23  41  67  99 137 181 231 293 362 418
#
# _framework density 24.471254999999999
#
# number of rings (size 3 to 8) (size 9 to 14) (size 15 to 20)
#    0.750    1.500    0.000    0.000    7.000    9.000 
#    2.250    0.000    0.000    0.000    0.000    0.000 
#    0.000    0.000    0.000    0.000    0.000    0.000 
#
# Total GULP energy -89240.528481 kJ/mol
# GULP energy per Si atom -5577.533030 kJ/mol
# Density = 2.441556 g / cm^3
# Si number density = 24.471255 Si / 1000 Ang^3
#
#
#
# Elastic Constant Matrix: (Units=GPa)
#
#
# Indices 1 2 3 4 5 6 
#
# 1 46.5477 1.4237 24.0918 0.0003 0.0792 0.0001
# 2 1.4237 71.0378 20.7574 0.0015 -12.2772 0.0007
# 3 24.0918 20.7574 133.9353 0.0000 10.4973 0.0000
# 4 0.0003 0.0015 0.0000 18.4398 0.0002 -5.3747
# 5 0.0792 -12.2772 10.4973 0.0002 28.7940 0.0004
# 6 0.0001 0.0007 0.0000 -5.3747 0.0004 21.8305
#
#
#
# Elastic Compliance Matrix: (Units=1/GPa)
#
#
# Indices 1 2 3 4 5 6 
#
# 1 0.023850 0.001257 -0.004655 -0.000001 0.002167 0.000000
# 2 0.001257 0.016484 -0.003429 -0.000002 0.008275 -0.000001
# 3 -0.004655 -0.003429 0.009212 0.000001 -0.004808 0.000000
# 4 -0.000001 -0.000002 0.000001 0.058423 -0.000001 0.014384
# 5 0.002167 0.008275 -0.004808 -0.000001 0.040005 -0.000001
# 6 0.000000 -0.000001 0.000000 0.014384 -0.000001 0.049349
#
#
# Mechanical properties :
#
#
# Convention : Reuss Voigt Hill
#
# Bulk Modulus (GPa) = 27.86174 38.22963 33.04568
# Shear Modulus (GPa) = 22.42737 27.49603 24.96170
#
# Velocity S-wave (km/s) = 3.03062 3.35566 3.19727
# Velocity P-wave (km/s) = 4.86379 5.53806 5.21184
#
# Compressibility (1/GPa) = 0.03589151
#
# Stress axis : x y z
#
# Youngs Moduli (GPa) = 41.92803 60.66461 108.55569
#
# Poissons Ratio (x) = -0.07624 0.50530
# Poissons Ratio (y) = -0.05269 0.37228
# Poissons Ratio (z) = 0.19516 0.20804
#
# Static dielectric constant tensor:
#      x y z
#    x 2.015790 0.000000 0.003110 
#    y 0.000000 1.982900 0.000000 
#    z 0.003110 0.000000 1.965610 
# 
# From -- ./inp_files/36926.got.cif
#   From: 2010.05.17/outbox.cif.g08.bks.cpg/sg9_19_cif.got.tgz:36926.got - 2010.06.03 20:04:27.
