data_PCOD9136305
_publ_section_title
;
Structure prediction by ZEFSAII (Michael W. Deem and Ramdas Pophale) SiO2 
 PCOD9136305
Probable space group: C C
;
_chemical_formula_sum "Si O2"
_cell_formula_units_Z 28
_cell_length_a 8.890585
_cell_length_b 16.841418
_cell_length_c 9.063777
_cell_angle_alpha 90.000000
_cell_angle_beta 79.782907
_cell_angle_gamma 90.000000
_cell_volume 1335.599648
_symmetry_space_group_name_H-M "C C"
_symmetry_group_IT_number 9
_symmetry_cell_setting 'monoclinic'
loop_
_space_group_symop_operation_xyz
x,y,z
x,-y,1/2+z
1/2+x,1/2+y,z
1/2+x,1/2-y,1/2+z
loop_
_atom_site_type_symbol
_atom_site_label
_atom_site_fract_x
_atom_site_fract_y
_atom_site_fract_z
Si Si1 0.276580 0.614223 0.998660
Si Si2 0.389337 0.694477 0.529415
Si Si3 0.135670 0.728521 0.773714
Si Si4 0.514828 0.002482 0.476979
Si Si5 0.393033 0.103189 0.753067
Si Si6 0.645229 0.156288 0.334600
Si Si7 0.052831 0.834371 0.300285
O O1 0.217395 0.674788 0.883544
O O2 0.180144 0.534060 0.991126
O O3 0.455992 0.614174 0.934028
O O4 0.234427 0.647920 0.164981
O O5 0.271963 0.755334 0.638756
O O6 0.521470 0.719290 0.391998
O O7 0.267589 0.651357 0.445887
O O8 0.477007 0.654870 0.651594
O O9 0.019279 0.671483 0.705189
O O10 0.425119 0.033529 0.633052
O O11 0.537718 0.080121 0.371900
O O12 0.426621 0.933297 0.407260
O O13 0.226950 0.138761 0.767250
O O14 0.558195 0.240829 0.343760
#
# Coordination Sequence:
#
# PCOD9136305 Si02
#       7
#     4   4   4   4   4   4   4
#     4  10  24  45  67  98 142 180 223 280 348 412
#     4  11  23  39  66 102 139 176 221 290 341 400
#     4  10  21  40  65  97 142 173 222 276 346 399
#     4  11  24  46  71  94 138 188 223 272 356 419
#     4  11  23  45  67  98 135 178 228 285 341 408
#     4  12  23  41  75 101 128 186 231 275 345 403
#     4  11  26  44  71 104 138 171 236 296 329 405
#
# _framework density 20.964365999999998
#
# number of rings (size 3 to 8) (size 9 to 14) (size 15 to 20)
#    0.000    1.143    5.714    0.000    4.000    0.000 
#    5.143    0.000    0.000    0.000    0.000    0.000 
#    0.000    0.000    0.000    0.000    0.000    0.000 
#
# Total GULP energy -78054.843426 kJ/mol
# GULP energy per Si atom -5575.345959 kJ/mol
# Density = 2.091665 g / cm^3
# Si number density = 20.964366 Si / 1000 Ang^3
#
#
#
# Elastic Constant Matrix: (Units=GPa)
#
#
# Indices 1 2 3 4 5 6 
#
# 1 99.4252 11.8968 32.2038 0.0000 -0.9842 0.0000
# 2 11.8968 54.6843 14.6013 0.0000 -0.7440 0.0000
# 3 32.2038 14.6013 80.2981 0.0000 -7.6699 0.0000
# 4 0.0000 0.0000 0.0000 30.9899 0.0000 -3.1799
# 5 -0.9842 -0.7440 -7.6699 0.0000 35.8115 0.0000
# 6 0.0000 0.0000 0.0000 -3.1799 0.0000 14.2391
#
#
#
# Elastic Compliance Matrix: (Units=1/GPa)
#
#
# Indices 1 2 3 4 5 6 
#
# 1 0.011670 -0.001347 -0.004499 0.000000 -0.000671 0.000000
# 2 -0.001347 0.019380 -0.003011 0.000000 -0.000279 0.000000
# 3 -0.004499 -0.003011 0.015097 0.000000 0.003047 0.000000
# 4 0.000000 0.000000 0.000000 0.033025 0.000000 0.007375
# 5 -0.000671 -0.000279 0.003047 0.000000 0.028552 0.000000
# 6 0.000000 0.000000 0.000000 0.007375 0.000000 0.071876
#
#
# Mechanical properties :
#
#
# Convention : Reuss Voigt Hill
#
# Bulk Modulus (GPa) = 35.17049 39.09018 37.13033
# Shear Modulus (GPa) = 24.17906 27.92181 26.05043
#
# Velocity S-wave (km/s) = 3.39977 3.65344 3.52889
# Velocity P-wave (km/s) = 5.67662 6.04014 5.86120
#
# Compressibility (1/GPa) = 0.02843293
#
# Stress axis : x y z
#
# Youngs Moduli (GPa) = 85.69249 51.60013 66.24016
#
# Poissons Ratio (x) = 0.06948 0.29804
# Poissons Ratio (y) = 0.11539 0.19943
# Poissons Ratio (z) = 0.38556 0.15535
#
# Static dielectric constant tensor:
#      x y z
#    x 1.770870 0.000000 -0.020520 
#    y 0.000000 1.758260 0.000000 
#    z -0.020520 0.000000 1.818330 
# 
# From -- ./inp_files/5249.got.cif
#   From: 2010.05.17/outbox.cif.g08.bks.cpg/sg9_3_cif.got.tgz:5249.got - 2010.06.03 20:04:27.
