data_PCOD9136601
_publ_section_title
;
Structure prediction by ZEFSAII (Michael W. Deem and Ramdas Pophale) SiO2 
 PCOD9136601
Probable space group: C C
;
_chemical_formula_sum "Si O2"
_cell_formula_units_Z 24
_cell_length_a 9.284728
_cell_length_b 10.933029
_cell_length_c 20.440875
_cell_angle_alpha 90.000000
_cell_angle_beta 28.866885
_cell_angle_gamma 90.000000
_cell_volume 1001.740246
_symmetry_space_group_name_H-M "C C"
_symmetry_group_IT_number 9
_symmetry_cell_setting 'monoclinic'
loop_
_space_group_symop_operation_xyz
x,y,z
x,-y,1/2+z
1/2+x,1/2+y,z
1/2+x,1/2-y,1/2+z
loop_
_atom_site_type_symbol
_atom_site_label
_atom_site_fract_x
_atom_site_fract_y
_atom_site_fract_z
Si Si1 0.034870 0.278687 0.549770
Si Si2 0.708124 0.327554 0.306053
Si Si3 0.247015 0.221577 0.025401
Si Si4 0.022822 0.028518 0.621615
Si Si5 0.688396 0.918853 0.877167
Si Si6 0.650891 0.416692 0.800479
O O1 0.390718 0.283263 0.404192
O O2 0.879908 0.312621 0.543696
O O3 0.931525 0.372598 0.646917
O O4 0.935265 0.141662 0.610784
O O5 0.765822 0.225201 0.338046
O O6 0.709445 0.469445 0.324603
O O7 0.966553 0.309800 0.149711
O O8 0.115429 0.097009 0.047997
O O9 0.507706 0.297038 0.888759
O O10 0.787438 0.987898 0.770889
O O11 0.337125 0.071571 0.528618
O O12 0.898889 0.965578 0.850624
#
# Coordination Sequence:
#
# PCOD9136601 Si02
#       6
#     4   4   4   4   4   4
#     4  11  23  44  66  99 131 175 223 267 328 395
#     4  10  23  42  64  96 131 171 221 266 328 393
#     4  11  24  44  62 101 134 172 219 276 326 386
#     4  10  21  42  67  90 131 171 221 267 324 390
#     4  10  22  41  66  96 128 174 220 267 330 387
#     4  12  23  41  69  92 139 173 212 279 328 383
#
# _framework density 23.958307000000001
#
# number of rings (size 3 to 8) (size 9 to 14) (size 15 to 20)
#    0.000    1.333    3.333    3.000    2.333    1.333 
#   12.000    0.000    0.000    0.000    0.000    0.000 
#    0.000    0.000    0.000    0.000    0.000    0.000 
#
# Total GULP energy -67090.321652 kJ/mol
# GULP energy per Si atom -5590.860138 kJ/mol
# Density = 2.390378 g / cm^3
# Si number density = 23.958307 Si / 1000 Ang^3
#
#
#
# Elastic Constant Matrix: (Units=GPa)
#
#
# Indices 1 2 3 4 5 6 
#
# 1 21.5205 19.4135 8.8318 -0.0014 5.1220 0.0005
# 2 19.4135 140.9853 -20.1270 0.0004 21.9020 -0.0012
# 3 8.8318 -20.1270 90.4116 -0.0023 -10.3834 -0.0009
# 4 -0.0014 0.0004 -0.0023 32.2736 -0.0020 -1.4190
# 5 5.1220 21.9020 -10.3834 -0.0020 24.2988 -0.0003
# 6 0.0005 -0.0012 -0.0009 -1.4190 -0.0003 31.7161
#
#
#
# Elastic Compliance Matrix: (Units=1/GPa)
#
#
# Indices 1 2 3 4 5 6 
#
# 1 0.059363 -0.008010 -0.008613 0.000001 -0.008974 -0.000002
# 2 -0.008010 0.009421 0.002207 -0.000001 -0.005861 0.000000
# 3 -0.008613 0.002207 0.013012 0.000001 0.005387 0.000001
# 4 0.000001 -0.000001 0.000001 0.031046 0.000003 0.001389
# 5 -0.008974 -0.005861 0.005387 0.000003 0.050630 0.000001
# 6 -0.000002 0.000000 0.000001 0.001389 0.000001 0.031592
#
#
# Mechanical properties :
#
#
# Convention : Reuss Voigt Hill
#
# Bulk Modulus (GPa) = 18.88033 29.90601 24.39317
# Shear Modulus (GPa) = 20.69958 33.97763 27.33861
#
# Velocity S-wave (km/s) = 2.94255 3.76998 3.38167
# Velocity P-wave (km/s) = 4.40935 5.60892 5.04492
#
# Compressibility (1/GPa) = 0.05296517
#
# Stress axis : x y z
#
# Youngs Moduli (GPa) = 16.84545 106.14196 76.85392
#
# Poissons Ratio (x) = 0.85016 0.66191
# Poissons Ratio (y) = 0.13493 -0.16959
# Poissons Ratio (z) = 0.14508 -0.23422
#
# Static dielectric constant tensor:
#      x y z
#    x 1.872270 0.000000 0.026360 
#    y 0.000000 1.970220 0.000000 
#    z 0.026360 0.000000 1.905900 
# 
# From -- ./inp_files/6963.got.cif
#   From: 2010.05.17/outbox.cif.g08.bks.cpg/sg9_4_cif.got.tgz:6963.got - 2010.06.03 20:04:27.
