data_PCOD9136308
_publ_section_title
;
Structure prediction by ZEFSAII (Michael W. Deem and Ramdas Pophale) SiO2 
 PCOD9136308
Probable space group: C C
;
_chemical_formula_sum "Si O2"
_cell_formula_units_Z 32
_cell_length_a 14.941267
_cell_length_b 18.233760
_cell_length_c 5.471232
_cell_angle_alpha 90.000000
_cell_angle_beta 115.948766
_cell_angle_gamma 90.000000
_cell_volume 1340.288136
_symmetry_space_group_name_H-M "C C"
_symmetry_group_IT_number 9
_symmetry_cell_setting 'monoclinic'
loop_
_space_group_symop_operation_xyz
x,y,z
x,-y,1/2+z
1/2+x,1/2+y,z
1/2+x,1/2-y,1/2+z
loop_
_atom_site_type_symbol
_atom_site_label
_atom_site_fract_x
_atom_site_fract_y
_atom_site_fract_z
Si Si1 0.555040 0.527680 0.485940
Si Si2 0.576488 0.686124 0.361639
Si Si3 0.967000 0.690612 0.972496
Si Si4 0.793431 0.041795 0.479663
Si Si5 0.057582 0.456481 0.752852
Si Si6 0.281266 0.032951 0.181199
Si Si7 0.792204 0.685378 0.386794
Si Si8 0.395458 0.310981 0.266341
O O1 0.507712 0.492078 0.668320
O O2 0.561783 0.615271 0.517660
O O3 0.665243 0.492104 0.573830
O O4 0.558027 0.765483 0.456176
O O5 0.687294 0.679550 0.394828
O O6 0.492912 0.679167 0.050979
O O7 0.920820 0.753090 0.086983
O O8 0.002391 0.620489 0.160610
O O9 0.885067 0.669254 0.674366
O O10 0.675829 0.058446 0.371167
O O11 0.855293 0.114070 0.613533
O O12 0.810693 0.016203 0.221168
O O13 0.035872 0.506431 0.488125
O O14 0.289008 0.120566 0.182786
O O15 0.323836 0.003154 0.488150
O O16 0.811128 0.767485 0.317594
#
# Coordination Sequence:
#
# PCOD9136308 Si02
#       8
#     4   4   4   4   4   4   4   4
#     4  10  21  40  66 103 142 190 238 281 353 454
#     4  11  26  46  71 106 152 200 243 304 388 456
#     4  11  29  46  72 115 149 194 254 317 382 455
#     4  10  25  50  81 107 144 204 262 318 373 437
#     4  10  25  50  81 107 144 204 262 318 373 437
#     4  10  21  40  66 103 142 190 238 281 353 454
#     4  11  26  46  71 106 152 200 243 304 388 456
#     4  11  29  46  72 115 149 194 254 317 382 455
#
# _framework density 23.875463
#
# number of rings (size 3 to 8) (size 9 to 14) (size 15 to 20)
#    0.000    1.500    2.500    0.000   14.000    3.000 
#    0.000    0.000    0.000    0.000    0.000    0.000 
#    0.000    0.000    0.000    0.000    0.000    0.000 
#
# Total GULP energy -89638.859841 kJ/mol
# GULP energy per Si atom -5602.428740 kJ/mol
# Density = 2.382112 g / cm^3
# Si number density = 23.875463 Si / 1000 Ang^3
#
#
#
# Elastic Constant Matrix: (Units=GPa)
#
#
# Indices 1 2 3 4 5 6 
#
# 1 87.1082 17.8702 8.6346 0.0000 -9.2145 0.0000
# 2 17.8702 103.5357 18.1524 0.0000 15.9138 0.0000
# 3 8.6346 18.1524 63.8516 0.0000 -12.3247 0.0000
# 4 0.0000 0.0000 0.0000 45.1695 0.0000 -0.6659
# 5 -9.2145 15.9138 -12.3247 0.0000 37.4803 0.0000
# 6 0.0000 0.0000 0.0000 -0.6659 0.0000 22.2478
#
#
#
# Elastic Compliance Matrix: (Units=1/GPa)
#
#
# Indices 1 2 3 4 5 6 
#
# 1 0.012510 -0.002797 -0.000079 0.000000 0.004237 0.000000
# 2 -0.002797 0.012036 -0.004445 0.000000 -0.007260 0.000000
# 3 -0.000079 -0.004445 0.018468 0.000000 0.007941 0.000000
# 4 0.000000 0.000000 0.000000 0.022149 0.000000 0.000663
# 5 0.004237 -0.007260 0.007941 0.000000 0.033416 0.000000
# 6 0.000000 0.000000 0.000000 0.000663 0.000000 0.044968
#
#
# Mechanical properties :
#
#
# Convention : Reuss Voigt Hill
#
# Bulk Modulus (GPa) = 35.24379 38.20110 36.72244
# Shear Modulus (GPa) = 29.82482 34.96874 32.39678
#
# Velocity S-wave (km/s) = 3.53821 3.83120 3.68762
# Velocity P-wave (km/s) = 5.61119 5.96705 5.79186
#
# Compressibility (1/GPa) = 0.02837380
#
# Stress axis : x y z
#
# Youngs Moduli (GPa) = 79.93796 83.08179 54.14667
#
# Poissons Ratio (x) = 0.23235 0.00427
# Poissons Ratio (y) = 0.22355 0.24068
# Poissons Ratio (z) = 0.00630 0.36929
#
# Static dielectric constant tensor:
#      x y z
#    x 1.973360 0.000000 0.018290 
#    y 0.000000 1.867740 0.000000 
#    z 0.018290 0.000000 1.995830 
# 
# From -- ./inp_files/2957.got.cif
#   From: 2010.05.17/outbox.cif.g08.bks.cpg/sg9_2_cif.got.tgz:2957.got - 2010.06.03 20:04:27.
