data_PCOD9136261
_publ_section_title
;
Structure prediction by ZEFSAII (Michael W. Deem and Ramdas Pophale) SiO2 
 PCOD9136261
Probable space group: C C
;
_chemical_formula_sum "Si O2"
_cell_formula_units_Z 20
_cell_length_a 7.844785
_cell_length_b 21.724644
_cell_length_c 5.354862
_cell_angle_alpha 90.000000
_cell_angle_beta 122.887746
_cell_angle_gamma 90.000000
_cell_volume 766.345792
_symmetry_space_group_name_H-M "C C"
_symmetry_group_IT_number 9
_symmetry_cell_setting 'monoclinic'
loop_
_space_group_symop_operation_xyz
x,y,z
x,-y,1/2+z
1/2+x,1/2+y,z
1/2+x,1/2-y,1/2+z
loop_
_atom_site_type_symbol
_atom_site_label
_atom_site_fract_x
_atom_site_fract_y
_atom_site_fract_z
Si Si1 0.744590 0.472667 0.930300
Si Si2 0.716347 0.022070 0.720364
Si Si3 0.235542 0.704285 0.969591
Si Si4 0.244960 0.653244 0.481066
Si Si5 0.630708 0.337340 0.977957
O O1 0.657415 0.485442 0.584908
O O2 0.734523 0.401977 0.008718
O O3 0.979252 0.491568 0.081922
O O4 0.796371 0.974704 0.570516
O O5 0.722578 0.085581 0.573895
O O6 0.156686 0.696528 0.627685
O O7 0.257222 0.774637 0.074032
O O8 0.139369 0.667649 0.129298
O O9 0.482312 0.661858 0.599511
O O10 0.458548 0.673952 0.131137
#
# Coordination Sequence:
#
# PCOD9136261 Si02
#       5
#     4   4   4   4   4
#     4  10  24  41  66  95 129 169 211 263 322 376
#     4  10  21  40  62  93 128 172 211 259 318 381
#     4  10  25  40  64  97 126 168 213 261 329 356
#     4  10  24  40  62  96 122 175 207 269 309 382
#     4  10  26  43  68  95 131 170 214 268 312 391
#
# _framework density 26.097878999999999
#
# number of rings (size 3 to 8) (size 9 to 14) (size 15 to 20)
#    1.200    0.800    0.000    1.200    8.400    1.600 
#    0.000    0.000    0.000    0.000    0.000    0.000 
#    0.000    0.000    0.000    0.000    0.000    0.000 
#
# Total GULP energy -55821.401072 kJ/mol
# GULP energy per Si atom -5582.140107 kJ/mol
# Density = 2.603848 g / cm^3
# Si number density = 26.097879 Si / 1000 Ang^3
#
#
#
# Elastic Constant Matrix: (Units=GPa)
#
#
# Indices 1 2 3 4 5 6 
#
# 1 152.9304 52.6706 49.4605 0.0000 -59.0032 0.0000
# 2 52.6706 160.4058 18.4094 0.0000 -40.5132 0.0000
# 3 49.4605 18.4094 116.4939 0.0000 -52.4816 0.0000
# 4 0.0000 0.0000 0.0000 29.6337 0.0000 -7.0075
# 5 -59.0032 -40.5132 -52.4816 0.0000 57.5491 0.0000
# 6 0.0000 0.0000 0.0000 -7.0075 0.0000 50.0807
#
#
#
# Elastic Compliance Matrix: (Units=1/GPa)
#
#
# Indices 1 2 3 4 5 6 
#
# 1 0.010943 -0.000859 0.000461 0.000000 0.011036 0.000000
# 2 -0.000859 0.007949 0.002092 0.000000 0.006623 0.000000
# 3 0.000461 0.002092 0.015164 0.000000 0.015775 0.000000
# 4 0.000000 0.000000 0.000000 0.034900 0.000000 0.004883
# 5 0.011036 0.006623 0.015775 0.000000 0.047739 0.000000
# 6 0.000000 0.000000 0.000000 0.004883 0.000000 0.020651
#
#
# Mechanical properties :
#
#
# Convention : Reuss Voigt Hill
#
# Bulk Modulus (GPa) = 26.70522 74.54567 50.62545
# Shear Modulus (GPa) = 34.14357 48.07201 41.10779
#
# Velocity S-wave (km/s) = 3.62095 4.29650 3.97311
# Velocity P-wave (km/s) = 5.26656 7.29651 6.36301
#
# Compressibility (1/GPa) = 0.03744586
#
# Stress axis : x y z
#
# Youngs Moduli (GPa) = 91.37915 125.80284 65.94373
#
# Poissons Ratio (x) = 0.10807 -0.03041
# Poissons Ratio (y) = 0.07850 -0.13798
# Poissons Ratio (z) = -0.04214 -0.26323
#
# Static dielectric constant tensor:
#      x y z
#    x 2.024230 0.000000 0.041090 
#    y 0.000000 2.025100 0.000000 
#    z 0.041090 0.000000 2.245820 
# 
# From -- ./inp_files/747.got.cif
#   From: 2010.05.17/outbox.cif.g08.bks.cpg/sg9_1_cif.got.tgz:747.got - 2010.06.03 20:04:27.
