data_PCOD9136317
_publ_section_title
;
Structure prediction by ZEFSAII (Michael W. Deem and Ramdas Pophale) SiO2 
 PCOD9136317
Probable space group: C C
;
_chemical_formula_sum "Si O2"
_cell_formula_units_Z 32
_cell_length_a 8.909052
_cell_length_b 15.712750
_cell_length_c 12.609484
_cell_angle_alpha 90.000000
_cell_angle_beta 51.965260
_cell_angle_gamma 90.000000
_cell_volume 1390.296064
_symmetry_space_group_name_H-M "C C"
_symmetry_group_IT_number 9
_symmetry_cell_setting 'monoclinic'
loop_
_space_group_symop_operation_xyz
x,y,z
x,-y,1/2+z
1/2+x,1/2+y,z
1/2+x,1/2-y,1/2+z
loop_
_atom_site_type_symbol
_atom_site_label
_atom_site_fract_x
_atom_site_fract_y
_atom_site_fract_z
Si Si1 0.111230 0.556623 0.257010
Si Si2 0.779523 0.490433 0.739559
Si Si3 0.705815 0.249046 0.252129
Si Si4 0.811877 0.405187 0.037805
Si Si5 0.367713 0.188879 0.118574
Si Si6 0.629108 0.279755 0.519799
Si Si7 0.528427 0.479083 0.534377
Si Si8 0.294960 0.257869 0.387899
O O1 0.155656 0.656793 0.221827
O O2 0.307975 0.510505 0.155142
O O3 0.951604 0.521855 0.247652
O O4 0.014262 0.555036 0.414002
O O5 0.796942 0.577694 0.668593
O O6 0.799901 0.408754 0.655929
O O7 0.587957 0.490756 0.891472
O O8 0.721390 0.244314 0.372439
O O9 0.505243 0.298421 0.316693
O O10 0.921257 0.262598 0.119969
O O11 0.645259 0.463406 0.063663
O O12 0.789460 0.319402 0.977411
O O13 0.257044 0.231729 0.068453
O O14 0.307458 0.228123 0.259387
O O15 0.595603 0.194395 0.996875
O O16 0.592353 0.380875 0.519418
#
# Coordination Sequence:
#
# PCOD9136317 Si02
#       8
#     4   4   4   4   4   4   4   4
#     4   9  21  41  63  95 130 179 219 276 341 403
#     4  11  22  43  66  96 137 170 228 287 333 411
#     4  10  21  41  65  96 137 179 229 277 342 413
#     4  10  21  44  64  94 132 171 226 281 336 406
#     4  12  23  44  67  99 140 177 230 291 344 405
#     4  11  23  39  68  98 137 180 231 285 345 411
#     4  10  21  40  66  93 132 177 223 277 348 402
#     4  11  24  44  69  95 135 185 226 280 349 415
#
# _framework density 23.016679
#
# number of rings (size 3 to 8) (size 9 to 14) (size 15 to 20)
#    0.000    1.500    5.000    1.500    1.750    4.000 
#    4.500    1.250    0.000    0.000    0.000    0.000 
#    0.000    0.000    0.000    0.000    0.000    0.000 
#
# Total GULP energy -89325.053625 kJ/mol
# GULP energy per Si atom -5582.815852 kJ/mol
# Density = 2.296429 g / cm^3
# Si number density = 23.016679 Si / 1000 Ang^3
#
#
#
# Elastic Constant Matrix: (Units=GPa)
#
#
# Indices 1 2 3 4 5 6 
#
# 1 76.2285 14.0016 36.2232 0.0000 0.6174 0.0000
# 2 14.0016 59.9896 8.3257 0.0000 -0.6464 0.0000
# 3 36.2232 8.3257 109.9871 0.0000 -13.1750 0.0000
# 4 0.0000 0.0000 0.0000 31.6357 0.0000 -6.4989
# 5 0.6174 -0.6464 -13.1750 0.0000 55.5127 0.0000
# 6 0.0000 0.0000 0.0000 -6.4989 0.0000 22.5452
#
#
#
# Elastic Compliance Matrix: (Units=1/GPa)
#
#
# Indices 1 2 3 4 5 6 
#
# 1 0.016202 -0.003065 -0.005280 0.000000 -0.001469 0.000000
# 2 -0.003065 0.017427 -0.000290 0.000000 0.000168 0.000000
# 3 -0.005280 -0.000290 0.011177 0.000000 0.002708 0.000000
# 4 0.000000 0.000000 0.000000 0.033599 0.000000 0.009685
# 5 -0.001469 0.000168 0.002708 0.000000 0.018675 0.000000
# 6 0.000000 0.000000 0.000000 0.009685 0.000000 0.047147
#
#
# Mechanical properties :
#
#
# Convention : Reuss Voigt Hill
#
# Bulk Modulus (GPa) = 36.31399 40.36734 38.34067
# Shear Modulus (GPa) = 29.29529 34.44906 31.87218
#
# Velocity S-wave (km/s) = 3.57148 3.87292 3.72525
# Velocity P-wave (km/s) = 5.72877 6.12990 5.93273
#
# Compressibility (1/GPa) = 0.02753760
#
# Stress axis : x y z
#
# Youngs Moduli (GPa) = 61.71963 57.38270 89.46759
#
# Poissons Ratio (x) = 0.17586 0.47239
# Poissons Ratio (y) = 0.18915 0.02592
# Poissons Ratio (z) = 0.32588 0.01662
#
# Static dielectric constant tensor:
#      x y z
#    x 1.830970 0.000000 0.017330 
#    y 0.000000 1.986690 0.000000 
#    z 0.017330 0.000000 1.900470 
# 
# From -- ./inp_files/15397.got.cif
#   From: 2010.05.17/outbox.cif.g08.bks.cpg/sg9_8_cif.got.tgz:15397.got - 2010.06.03 20:04:27.
