data_PCOD9136228
_publ_section_title
;
Structure prediction by ZEFSAII (Michael W. Deem and Ramdas Pophale) SiO2 
 PCOD9136228
Probable space group: C C
;
_chemical_formula_sum "Si O2"
_cell_formula_units_Z 32
_cell_length_a 22.113678
_cell_length_b 9.346239
_cell_length_c 19.800098
_cell_angle_alpha 90.000000
_cell_angle_beta 20.168454
_cell_angle_gamma 90.000000
_cell_volume 1410.941703
_symmetry_space_group_name_H-M "C C"
_symmetry_group_IT_number 9
_symmetry_cell_setting 'monoclinic'
loop_
_space_group_symop_operation_xyz
x,y,z
x,-y,1/2+z
1/2+x,1/2+y,z
1/2+x,1/2-y,1/2+z
loop_
_atom_site_type_symbol
_atom_site_label
_atom_site_fract_x
_atom_site_fract_y
_atom_site_fract_z
Si Si1 0.835720 0.910804 0.828940
Si Si2 0.700237 0.307168 0.802531
Si Si3 0.178134 0.117630 0.480382
Si Si4 0.537123 0.185609 0.549298
Si Si5 0.927258 0.320223 0.956358
Si Si6 0.523472 0.969015 0.452857
Si Si7 0.524167 0.905899 0.704492
Si Si8 0.563975 0.588740 0.900511
O O1 0.930135 0.753820 0.724292
O O2 0.715368 0.890159 0.887594
O O3 0.005068 0.015047 0.658686
O O4 0.678865 0.972236 0.041910
O O5 0.725859 0.337218 0.854596
O O6 0.665450 0.142149 0.828314
O O7 0.555847 0.422978 0.928999
O O8 0.874828 0.360648 0.583481
O O9 0.350615 0.062172 0.340308
O O10 0.118838 0.266725 0.575114
O O11 0.568326 0.317866 0.465051
O O12 0.453561 0.066944 0.588115
O O13 0.067758 0.418404 0.849040
O O14 0.957223 0.351122 0.847151
O O15 0.936765 0.163731 0.979990
O O16 0.745527 0.384629 0.171552
#
# Coordination Sequence:
#
# PCOD9136228 Si02
#       8
#     4   4   4   4   4   4   4   4
#     4  12  26  42  72 104 150 193 237 312 366 443
#     4  11  21  38  64 108 133 173 226 303 381 410
#     4  12  24  41  71 112 146 186 235 307 365 437
#     4  11  23  44  67 111 142 186 246 301 389 425
#     4  10  23  45  65 100 139 191 244 285 346 444
#     4  10  24  39  69 100 141 180 235 305 362 435
#     4  12  26  46  71 105 149 203 248 288 362 442
#     4  10  21  39  73 100 138 180 237 307 355 436
#
# _framework density 22.679887999999998
#
# number of rings (size 3 to 8) (size 9 to 14) (size 15 to 20)
#    0.000    1.000    2.500    5.250    3.500    1.000 
#    0.000    2.500    2.750    0.000    0.000    0.000 
#    0.000    0.000    0.000    0.000    0.000    0.000 
#
# Total GULP energy -89106.694689 kJ/mol
# GULP energy per Si atom -5569.168418 kJ/mol
# Density = 2.262827 g / cm^3
# Si number density = 22.679888 Si / 1000 Ang^3
#
#
#
# Elastic Constant Matrix: (Units=GPa)
#
#
# Indices 1 2 3 4 5 6 
#
# 1 85.1953 15.7865 25.3264 0.0000 -1.1168 -0.0001
# 2 15.7865 79.5329 3.0794 -0.0005 -14.7164 0.0001
# 3 25.3264 3.0794 78.6244 -0.0007 -23.8451 0.0002
# 4 0.0000 -0.0005 -0.0007 12.3027 0.0003 -8.0088
# 5 -1.1168 -14.7164 -23.8451 0.0003 39.0638 -0.0001
# 6 -0.0001 0.0001 0.0002 -8.0088 -0.0001 15.0625
#
#
#
# Elastic Compliance Matrix: (Units=1/GPa)
#
#
# Indices 1 2 3 4 5 6 
#
# 1 0.013996 -0.003361 -0.005693 0.000000 -0.004341 0.000000
# 2 -0.003361 0.014423 0.002622 0.000001 0.006938 0.000000
# 3 -0.005693 0.002622 0.018040 0.000001 0.011837 0.000000
# 4 0.000000 0.000001 0.000001 0.124309 0.000000 0.066095
# 5 -0.004341 0.006938 0.011837 0.000000 0.035314 0.000000
# 6 0.000000 0.000000 0.000000 0.066095 0.000000 0.101533
#
#
# Mechanical properties :
#
#
# Convention : Reuss Voigt Hill
#
# Bulk Modulus (GPa) = 29.76765 36.85970 33.31368
# Shear Modulus (GPa) = 15.07488 26.56316 20.81902
#
# Velocity S-wave (km/s) = 2.58094 3.42602 3.03306
# Velocity P-wave (km/s) = 4.69417 5.65134 5.19485
#
# Compressibility (1/GPa) = 0.03359351
#
# Stress axis : x y z
#
# Youngs Moduli (GPa) = 71.44836 69.33491 55.43303
#
# Poissons Ratio (x) = 0.23303 0.31560
# Poissons Ratio (y) = 0.24014 -0.14534
# Poissons Ratio (z) = 0.40679 -0.18178
#
# Static dielectric constant tensor:
#      x y z
#    x 2.015810 0.000000 -0.110240 
#    y 0.000000 1.914580 0.000000 
#    z -0.110240 0.000000 1.944800 
# 
# From -- ./inp_files/34497.got.cif
#   From: 2010.05.17/outbox.cif.g08.bks.cpg/sg9_18_cif.got.tgz:34497.got - 2010.06.03 20:04:27.
