data_PCOD9136710
_publ_section_title
;
Structure prediction by ZEFSAII (Michael W. Deem and Ramdas Pophale) SiO2 
 PCOD9136710
Probable space group: C C
;
_chemical_formula_sum "Si O2"
_cell_formula_units_Z 32
_cell_length_a 26.802519
_cell_length_b 8.515697
_cell_length_c 16.269472
_cell_angle_alpha 90.000000
_cell_angle_beta 159.133148
_cell_angle_gamma 90.000000
_cell_volume 1322.696164
_symmetry_space_group_name_H-M "C C"
_symmetry_group_IT_number 9
_symmetry_cell_setting 'monoclinic'
loop_
_space_group_symop_operation_xyz
x,y,z
x,-y,1/2+z
1/2+x,1/2+y,z
1/2+x,1/2-y,1/2+z
loop_
_atom_site_type_symbol
_atom_site_label
_atom_site_fract_x
_atom_site_fract_y
_atom_site_fract_z
Si Si1 0.872130 0.978893 0.956810
Si Si2 0.403085 0.656308 0.153268
Si Si3 0.350424 0.025274 0.703903
Si Si4 0.933802 0.720861 0.449976
Si Si5 0.179519 0.084567 0.291837
Si Si6 0.090576 0.433233 0.463204
Si Si7 0.052636 0.234507 0.614249
Si Si8 0.667350 0.008370 0.896079
O O1 0.710564 0.935587 0.715823
O O2 0.953079 0.857849 0.025105
O O3 0.931794 0.013310 0.137437
O O4 0.869622 0.145462 0.906466
O O5 0.543258 0.752776 0.382294
O O6 0.310887 0.590361 0.086703
O O7 0.304825 0.796089 0.961436
O O8 0.211222 0.073480 0.440306
O O9 0.455899 0.976093 0.791761
O O10 0.332750 0.887495 0.741546
O O11 0.443696 0.160688 0.892328
O O12 0.036498 0.610814 0.661053
O O13 0.040825 0.818207 0.557399
O O14 0.146246 0.904616 0.216623
O O15 0.148078 0.493721 0.464449
O O16 0.149647 0.346806 0.819192
#
# Coordination Sequence:
#
# PCOD9136710 Si02
#       8
#     4   4   4   4   4   4   4   4
#     4  11  22  38  66  99 133 169 222 270 332 394
#     4  10  22  44  68  89 136 180 211 272 335 393
#     4  10  22  42  62  94 131 170 219 272 323 389
#     4   9  19  39  63  89 130 169 207 265 322 388
#     4   9  20  39  69  85 126 173 214 258 332 372
#     4  11  23  39  69  95 124 176 225 258 338 397
#     4  10  23  40  67 101 130 171 224 279 323 396
#     4  10  21  43  66  90 136 170 220 278 327 385
#
# _framework density 24.193009
#
# number of rings (size 3 to 8) (size 9 to 14) (size 15 to 20)
#    0.000    2.000    1.250    2.250    7.000    0.000 
#    9.000    0.000    5.500    0.000    0.000    0.000 
#    0.000    0.000    0.000    0.000    0.000    0.000 
#
# Total GULP energy -89282.665979 kJ/mol
# GULP energy per Si atom -5580.166624 kJ/mol
# Density = 2.413794 g / cm^3
# Si number density = 24.193009 Si / 1000 Ang^3
#
#
#
# Elastic Constant Matrix: (Units=GPa)
#
#
# Indices 1 2 3 4 5 6 
#
# 1 80.9124 11.8358 -11.3055 0.0000 -3.3392 0.0000
# 2 11.8358 93.3340 12.6022 0.0000 -7.3178 0.0000
# 3 -11.3055 12.6022 39.7537 0.0000 -6.3702 0.0000
# 4 0.0000 0.0000 0.0000 37.8117 0.0000 -7.4256
# 5 -3.3392 -7.3178 -6.3702 0.0000 28.5022 0.0000
# 6 0.0000 0.0000 0.0000 -7.4256 0.0000 19.2730
#
#
#
# Elastic Compliance Matrix: (Units=1/GPa)
#
#
# Indices 1 2 3 4 5 6 
#
# 1 0.013445 -0.002196 0.004856 0.000000 0.002097 0.000000
# 2 -0.002196 0.011682 -0.004033 0.000000 0.001841 0.000000
# 3 0.004856 -0.004033 0.028770 0.000000 0.005964 0.000000
# 4 0.000000 0.000000 0.000000 0.028612 0.000000 0.011024
# 5 0.002097 0.001841 0.005964 0.000000 0.037136 0.000000
# 6 0.000000 0.000000 0.000000 0.011024 0.000000 0.056133
#
#
# Mechanical properties :
#
#
# Convention : Reuss Voigt Hill
#
# Bulk Modulus (GPa) = 19.55017 26.69611 23.12314
# Shear Modulus (GPa) = 25.56573 30.50856 28.03714
#
# Velocity S-wave (km/s) = 3.25428 3.55498 3.40795
# Velocity P-wave (km/s) = 4.71369 5.28290 5.00640
#
# Compressibility (1/GPa) = 0.05115044
#
# Stress axis : x y z
#
# Youngs Moduli (GPa) = 74.37516 85.60509 34.75855
#
# Poissons Ratio (x) = 0.18801 -0.16878
# Poissons Ratio (y) = 0.16335 0.14017
# Poissons Ratio (z) = -0.36116 0.34523
#
# Static dielectric constant tensor:
#      x y z
#    x 1.967440 0.000000 -0.021200 
#    y 0.000000 1.951260 0.000000 
#    z -0.021200 0.000000 1.939020 
# 
# From -- ./inp_files/31870.got.cif
#   From: 2010.05.17/outbox.cif.g08.bks.cpg/sg9_16_cif.got.tgz:31870.got - 2010.06.03 20:04:27.
