data_PCOD9136036
_publ_section_title
;
Structure prediction by ZEFSAII (Michael W. Deem and Ramdas Pophale) SiO2 
 PCOD9136036
Probable space group: C C
;
_chemical_formula_sum "Si O2"
_cell_formula_units_Z 32
_cell_length_a 12.575075
_cell_length_b 20.534169
_cell_length_c 11.671635
_cell_angle_alpha 90.000000
_cell_angle_beta 153.216969
_cell_angle_gamma 90.000000
_cell_volume 1358.073555
_symmetry_space_group_name_H-M "C C"
_symmetry_group_IT_number 9
_symmetry_cell_setting 'monoclinic'
loop_
_space_group_symop_operation_xyz
x,y,z
x,-y,1/2+z
1/2+x,1/2+y,z
1/2+x,1/2-y,1/2+z
loop_
_atom_site_type_symbol
_atom_site_label
_atom_site_fract_x
_atom_site_fract_y
_atom_site_fract_z
Si Si1 0.617390 0.537691 0.250000
Si Si2 0.832308 0.789972 0.845480
Si Si3 0.864334 0.736582 0.223854
Si Si4 0.668744 0.599550 0.069234
Si Si5 0.977707 0.505807 0.758307
Si Si6 0.291615 0.383003 0.591849
Si Si7 0.371601 0.407064 0.060120
Si Si8 0.293500 0.718451 0.909324
O O1 0.566151 0.583958 0.094468
O O2 0.885942 0.532555 0.548047
O O3 0.499326 0.570084 0.248460
O O4 0.525603 0.463990 0.146896
O O5 0.578805 0.751174 0.597684
O O6 0.849012 0.830190 0.742376
O O7 0.826225 0.846116 0.936134
O O8 0.842069 0.661247 0.240518
O O9 0.830003 0.779192 0.307017
O O10 0.124186 0.748153 0.423842
O O11 0.786537 0.531082 0.149451
O O12 0.498859 0.613741 0.799645
O O13 0.092548 0.565445 0.936198
O O14 0.147407 0.447087 0.886234
O O15 0.219393 0.344900 0.407535
O O16 0.060656 0.763492 0.707579
#
# Coordination Sequence:
#
# PCOD9136036 Si02
#       8
#     4   4   4   4   4   4   4   4
#     4  10  24  44  76 110 147 196 248 338 393 460
#     4  12  31  51  83 111 158 221 263 320 380 475
#     4  10  23  39  64 101 139 187 225 295 362 443
#     4  11  25  44  74 106 150 193 258 311 400 454
#     4  10  26  43  72 108 144 200 247 335 380 471
#     4  11  25  44  75 111 150 190 260 317 397 449
#     4  10  27  49  69 107 152 199 269 308 384 471
#     4  10  21  38  63  98 146 176 226 292 366 443
#
# _framework density 23.562788999999999
#
# number of rings (size 3 to 8) (size 9 to 14) (size 15 to 20)
#    0.000    1.500    0.000    2.250   19.250    2.000 
#    0.000    0.000    0.000    0.000    0.000    0.000 
#    0.000    0.000    0.000    0.000    0.000    0.000 
#
# Total GULP energy -89317.265990 kJ/mol
# GULP energy per Si atom -5582.329124 kJ/mol
# Density = 2.350916 g / cm^3
# Si number density = 23.562789 Si / 1000 Ang^3
#
#
#
# Elastic Constant Matrix: (Units=GPa)
#
#
# Indices 1 2 3 4 5 6 
#
# 1 31.4841 23.2127 11.2788 0.0004 -15.2731 0.0003
# 2 23.2127 135.8049 49.4563 0.0003 -12.0857 0.0002
# 3 11.2788 49.4563 89.4583 0.0006 7.2347 0.0005
# 4 0.0004 0.0003 0.0006 49.0926 0.0002 -12.4983
# 5 -15.2731 -12.0857 7.2347 0.0002 30.0104 0.0002
# 6 0.0003 0.0002 0.0005 -12.4983 0.0002 37.1755
#
#
#
# Elastic Compliance Matrix: (Units=1/GPa)
#
#
# Indices 1 2 3 4 5 6 
#
# 1 0.048789 -0.003979 -0.005946 -0.000001 0.024661 -0.000001
# 2 -0.003979 0.010358 -0.005505 0.000000 0.003473 0.000000
# 3 -0.005946 -0.005505 0.015702 0.000000 -0.009028 0.000000
# 4 -0.000001 0.000000 0.000000 0.022276 0.000000 0.007489
# 5 0.024661 0.003473 -0.009028 0.000000 0.049448 -0.000001
# 6 -0.000001 0.000000 0.000000 0.007489 -0.000001 0.029417
#
#
# Mechanical properties :
#
#
# Convention : Reuss Voigt Hill
#
# Bulk Modulus (GPa) = 22.73358 47.18252 34.95805
# Shear Modulus (GPa) = 22.57200 34.77566 28.67383
#
# Velocity S-wave (km/s) = 3.09844 3.84588 3.49221
# Velocity P-wave (km/s) = 4.74019 6.30782 5.57934
#
# Compressibility (1/GPa) = 0.04398779
#
# Stress axis : x y z
#
# Youngs Moduli (GPa) = 20.49630 96.54696 63.68743
#
# Poissons Ratio (x) = 0.38421 0.37866
# Poissons Ratio (y) = 0.08156 0.35062
# Poissons Ratio (z) = 0.12186 0.53152
#
# Static dielectric constant tensor:
#      x y z
#    x 1.940570 0.000000 0.034240 
#    y 0.000000 1.933940 0.000000 
#    z 0.034240 0.000000 2.007330 
# 
# From -- ./inp_files/1878.got.cif
#   From: 2010.05.17/outbox.cif.g08.bks.cpg/sg9_1_cif.got.tgz:1878.got - 2010.06.03 20:04:27.
