data_PCOD9136515
_publ_section_title
;
Structure prediction by ZEFSAII (Michael W. Deem and Ramdas Pophale) SiO2 
 PCOD9136515
Probable space group: C C
;
_chemical_formula_sum "Si O2"
_cell_formula_units_Z 28
_cell_length_a 11.677377
_cell_length_b 14.376513
_cell_length_c 8.982216
_cell_angle_alpha 90.000000
_cell_angle_beta 52.343447
_cell_angle_gamma 90.000000
_cell_volume 1193.811844
_symmetry_space_group_name_H-M "C C"
_symmetry_group_IT_number 9
_symmetry_cell_setting 'monoclinic'
loop_
_space_group_symop_operation_xyz
x,y,z
x,-y,1/2+z
1/2+x,1/2+y,z
1/2+x,1/2-y,1/2+z
loop_
_atom_site_type_symbol
_atom_site_label
_atom_site_fract_x
_atom_site_fract_y
_atom_site_fract_z
Si Si1 0.614450 0.068186 0.873580
Si Si2 0.653269 0.898745 0.017167
Si Si3 0.668774 0.427089 0.118935
Si Si4 0.435139 0.839676 0.777680
Si Si5 0.415460 0.334611 0.126283
Si Si6 0.087100 0.782566 0.415159
Si Si7 0.476524 0.605857 0.272090
O O1 0.569047 0.091138 0.740159
O O2 0.782715 0.095001 0.735221
O O3 0.588705 0.960994 0.936262
O O4 0.547841 0.121565 0.067713
O O5 0.666409 0.792275 0.956238
O O6 0.816250 0.937688 0.906433
O O7 0.546689 0.377004 0.115690
O O8 0.679119 0.360298 0.255179
O O9 0.602414 0.529386 0.196906
O O10 0.822127 0.417729 0.917257
O O11 0.355797 0.759175 0.745949
O O12 0.504204 0.781133 0.859432
O O13 0.473745 0.323463 0.912782
O O14 0.990536 0.843414 0.603495
#
# Coordination Sequence:
#
# PCOD9136515 Si02
#       7
#     4   4   4   4   4   4   4
#     4  11  23  43  71  99 140 187 238 286 351 421
#     4  11  24  44  72 102 135 189 241 284 345 434
#     4  11  23  43  69 102 140 182 228 290 354 420
#     4  11  24  43  67 102 143 182 234 291 355 412
#     4  10  21  41  69  97 133 185 232 284 348 424
#     4  11  24  43  70 104 140 185 232 292 352 420
#     4  11  23  43  70 102 137 178 239 291 351 419
#
# _framework density 23.454283
#
# number of rings (size 3 to 8) (size 9 to 14) (size 15 to 20)
#    0.000    1.143    1.429    5.143    2.000    2.286 
#   12.857    0.000    0.000    0.000    0.000    0.000 
#    0.000    0.000    0.000    0.000    0.000    0.000 
#
# Total GULP energy -78167.964825 kJ/mol
# GULP energy per Si atom -5583.426059 kJ/mol
# Density = 2.340090 g / cm^3
# Si number density = 23.454283 Si / 1000 Ang^3
#
#
#
# Elastic Constant Matrix: (Units=GPa)
#
#
# Indices 1 2 3 4 5 6 
#
# 1 38.5811 21.4969 40.7748 0.0000 4.1628 0.0000
# 2 21.4969 98.6516 54.5145 0.0000 11.1003 0.0000
# 3 40.7748 54.5145 181.4669 0.0000 13.8432 0.0000
# 4 0.0000 0.0000 0.0000 17.8940 0.0000 -2.2017
# 5 4.1628 11.1003 13.8432 0.0000 31.2956 0.0000
# 6 0.0000 0.0000 0.0000 -2.2017 0.0000 27.9123
#
#
#
# Elastic Compliance Matrix: (Units=1/GPa)
#
#
# Indices 1 2 3 4 5 6 
#
# 1 0.035239 -0.003934 -0.006712 0.000000 -0.000323 0.000000
# 2 -0.003934 0.012834 -0.002757 0.000000 -0.002809 0.000000
# 3 -0.006712 -0.002757 0.007973 0.000000 -0.001656 0.000000
# 4 0.000000 0.000000 0.000000 0.056432 0.000000 0.004451
# 5 -0.000323 -0.002809 -0.001656 0.000000 0.033725 0.000000
# 6 0.000000 0.000000 0.000000 0.004451 0.000000 0.036178
#
#
# Mechanical properties :
#
#
# Convention : Reuss Voigt Hill
#
# Bulk Modulus (GPa) = 34.19829 61.36353 47.78091
# Shear Modulus (GPa) = 22.83794 28.88128 25.85961
#
# Velocity S-wave (km/s) = 3.12384 3.51292 3.32407
# Velocity P-wave (km/s) = 5.25582 6.53253 5.92864
#
# Compressibility (1/GPa) = 0.02924123
#
# Stress axis : x y z
#
# Youngs Moduli (GPa) = 28.37727 77.92087 125.41746
#
# Poissons Ratio (x) = 0.30651 0.84177
# Poissons Ratio (y) = 0.11163 0.34580
# Poissons Ratio (z) = 0.19046 0.21484
#
# Static dielectric constant tensor:
#      x y z
#    x 1.923370 0.000000 0.046070 
#    y 0.000000 1.951630 0.000000 
#    z 0.046070 0.000000 1.898460 
# 
# From -- ./inp_files/9752.got.cif
#   From: 2010.05.17/outbox.cif.g08.bks.cpg/sg9_5_cif.got.tgz:9752.got - 2010.06.03 20:04:27.
