data_PCOD9136260
_publ_section_title
;
Structure prediction by ZEFSAII (Michael W. Deem and Ramdas Pophale) SiO2 
 PCOD9136260
Probable space group: C C
;
_chemical_formula_sum "Si O2"
_cell_formula_units_Z 32
_cell_length_a 20.775365
_cell_length_b 7.899534
_cell_length_c 14.395202
_cell_angle_alpha 90.000000
_cell_angle_beta 33.325874
_cell_angle_gamma 90.000000
_cell_volume 1297.946265
_symmetry_space_group_name_H-M "C C"
_symmetry_group_IT_number 9
_symmetry_cell_setting 'monoclinic'
loop_
_space_group_symop_operation_xyz
x,y,z
x,-y,1/2+z
1/2+x,1/2+y,z
1/2+x,1/2-y,1/2+z
loop_
_atom_site_type_symbol
_atom_site_label
_atom_site_fract_x
_atom_site_fract_y
_atom_site_fract_z
Si Si1 0.972350 0.716352 0.563240
Si Si2 0.189606 0.121655 0.886778
Si Si3 0.534033 0.341104 0.752624
Si Si4 0.634474 0.340045 0.820435
Si Si5 0.288389 0.455027 0.056055
Si Si6 0.548652 0.936926 0.775321
Si Si7 0.809047 0.936491 0.738640
Si Si8 0.555714 0.909060 0.568192
O O1 0.938836 0.925485 0.621895
O O2 0.114200 0.755050 0.412770
O O3 0.985042 0.638460 0.441832
O O4 0.970802 0.561962 0.641674
O O5 0.131178 0.120029 0.058008
O O6 0.309750 0.228075 0.753674
O O7 0.201931 0.953430 0.814091
O O8 0.567870 0.418017 0.812266
O O9 0.522435 0.137915 0.786926
O O10 0.412026 0.414220 0.862502
O O11 0.728272 0.223030 0.654075
O O12 0.557481 0.216066 0.978443
O O13 0.188955 0.561671 0.124953
O O14 0.314446 0.532109 0.124541
O O15 0.521491 0.843150 0.711132
O O16 0.693404 0.027500 0.914242
#
# Coordination Sequence:
#
# PCOD9136260 Si02
#       8
#     4   4   4   4   4   4   4   4
#     4  11  21  39  65  88 125 166 208 261 301 377
#     4  11  23  40  62  95 122 164 215 250 314 376
#     4  11  22  39  65  92 122 168 206 258 314 365
#     4  10  23  41  61  92 133 154 209 265 308 367
#     4  10  22  42  65  92 127 168 204 258 318 363
#     4  11  21  41  65  92 130 163 211 255 311 375
#     4  10  21  40  63  90 120 168 208 252 314 365
#     4  10  21  40  62  93 125 167 203 257 316 368
#
# _framework density 24.654335
#
# number of rings (size 3 to 8) (size 9 to 14) (size 15 to 20)
#    0.000    1.500    7.500    0.750    3.500    2.000 
#    0.000    0.000    0.000    0.000    0.000    0.000 
#    0.000    0.000    0.000    0.000    0.000    0.000 
#
# Total GULP energy -89145.909228 kJ/mol
# GULP energy per Si atom -5571.619327 kJ/mol
# Density = 2.459822 g / cm^3
# Si number density = 24.654335 Si / 1000 Ang^3
#
#
#
# Elastic Constant Matrix: (Units=GPa)
#
#
# Indices 1 2 3 4 5 6 
#
# 1 102.2129 9.6365 77.9979 -0.0001 28.2694 0.0001
# 2 9.6365 27.6516 13.8981 -0.0002 -2.1909 0.0002
# 3 77.9979 13.8981 131.9900 0.0000 20.7229 0.0001
# 4 -0.0001 -0.0002 0.0000 16.8847 0.0001 -8.3120
# 5 28.2694 -2.1909 20.7229 0.0001 54.1880 -0.0001
# 6 0.0001 0.0002 0.0001 -8.3120 -0.0001 31.8787
#
#
#
# Elastic Compliance Matrix: (Units=1/GPa)
#
#
# Indices 1 2 3 4 5 6 
#
# 1 0.019694 -0.002136 -0.010412 0.000000 -0.006379 0.000000
# 2 -0.002136 0.038972 -0.003472 0.000000 0.004018 0.000000
# 3 -0.010412 -0.003472 0.014111 0.000000 -0.000105 0.000000
# 4 0.000000 0.000000 0.000000 0.067947 0.000000 0.017716
# 5 -0.006379 0.004018 -0.000105 0.000000 0.021985 0.000000
# 6 0.000000 0.000000 0.000000 0.017716 0.000000 0.035988
#
#
# Mechanical properties :
#
#
# Convention : Reuss Voigt Hill
#
# Bulk Modulus (GPa) = 24.54714 51.65773 38.10243
# Shear Modulus (GPa) = 20.46531 31.27840 25.87185
#
# Velocity S-wave (km/s) = 2.88425 3.56571 3.24293
# Velocity P-wave (km/s) = 4.59021 6.16041 5.43234
#
# Compressibility (1/GPa) = 0.04073795
#
# Stress axis : x y z
#
# Youngs Moduli (GPa) = 50.77656 25.65935 70.86625
#
# Poissons Ratio (x) = 0.05480 0.73783
# Poissons Ratio (y) = 0.10845 0.24607
# Poissons Ratio (z) = 0.52867 0.08910
#
# Static dielectric constant tensor:
#      x y z
#    x 1.991200 0.000000 -0.057370 
#    y 0.000000 2.161980 0.000000 
#    z -0.057370 0.000000 1.943600 
# 
# From -- ./inp_files/27301.got.cif
#   From: 2010.05.17/outbox.cif.g08.bks.cpg/sg9_14_cif.got.tgz:27301.got - 2010.06.03 20:04:27.
