data_PCOD9136597
_publ_section_title
;
Structure prediction by ZEFSAII (Michael W. Deem and Ramdas Pophale) SiO2 
 PCOD9136597
Probable space group: C C
;
_chemical_formula_sum "Si O2"
_cell_formula_units_Z 20
_cell_length_a 12.234317
_cell_length_b 7.372186
_cell_length_c 9.287402
_cell_angle_alpha 90.000000
_cell_angle_beta 108.632917
_cell_angle_gamma 90.000000
_cell_volume 793.758590
_symmetry_space_group_name_H-M "C C"
_symmetry_group_IT_number 9
_symmetry_cell_setting 'monoclinic'
loop_
_space_group_symop_operation_xyz
x,y,z
x,-y,1/2+z
1/2+x,1/2+y,z
1/2+x,1/2-y,1/2+z
loop_
_atom_site_type_symbol
_atom_site_label
_atom_site_fract_x
_atom_site_fract_y
_atom_site_fract_z
Si Si1 0.985990 0.035542 0.037930
Si Si2 0.804270 0.602779 0.308854
Si Si3 0.326021 0.226058 0.628736
Si Si4 0.237416 0.488429 0.272587
Si Si5 0.048765 0.247172 0.802697
O O1 0.950913 0.190288 0.140707
O O2 0.031589 0.867932 0.149096
O O3 0.067027 0.109549 0.944526
O O4 0.863249 0.993886 0.904953
O O5 0.801837 0.606324 0.479393
O O6 0.795419 0.400754 0.249044
O O7 0.927015 0.663546 0.295130
O O8 0.722058 0.774158 0.239964
O O9 0.251481 0.405021 0.628354
O O10 0.139388 0.593790 0.316685
#
# Coordination Sequence:
#
# PCOD9136597 Si02
#       5
#     4   4   4   4   4
#     4  10  21  46  73 105 152 186 240 309 351 438
#     4  10  24  42  69 101 143 189 233 301 356 425
#     4  10  21  42  66  98 143 188 227 300 358 410
#     4  10  22  44  70 103 141 189 235 296 364 427
#     4  10  22  44  72 107 141 190 241 298 363 432
#
# _framework density 25.196580000000001
#
# number of rings (size 3 to 8) (size 9 to 14) (size 15 to 20)
#    0.000    2.400    4.000    0.000    2.800    1.600 
#   18.000    0.000    0.000    0.000    0.000    0.000 
#    0.000    0.000    0.000    0.000    0.000    0.000 
#
# Total GULP energy -55856.988503 kJ/mol
# GULP energy per Si atom -5585.698850 kJ/mol
# Density = 2.513923 g / cm^3
# Si number density = 25.196580 Si / 1000 Ang^3
#
#
#
# Elastic Constant Matrix: (Units=GPa)
#
#
# Indices 1 2 3 4 5 6 
#
# 1 134.1340 27.4293 14.1703 0.0000 -1.7539 0.0000
# 2 27.4293 92.5101 9.1809 0.0000 18.6408 0.0000
# 3 14.1703 9.1809 62.7977 0.0000 7.6302 0.0000
# 4 0.0000 0.0000 0.0000 50.7601 0.0000 -35.5693
# 5 -1.7539 18.6408 7.6302 0.0000 25.3889 0.0000
# 6 0.0000 0.0000 0.0000 -35.5693 0.0000 17.6405
#
#
#
# Elastic Compliance Matrix: (Units=1/GPa)
#
#
# Indices 1 2 3 4 5 6 
#
# 1 0.008293 -0.002938 -0.001841 0.000000 0.003283 0.000000
# 2 -0.002938 0.013761 -0.000100 0.000000 -0.010277 0.000000
# 3 -0.001841 -0.000100 0.016981 0.000000 -0.005157 0.000000
# 4 0.000000 0.000000 0.000000 -0.047711 0.000000 -0.096201
# 5 0.003283 -0.010277 -0.005157 0.000000 0.048709 0.000000
# 6 0.000000 0.000000 0.000000 -0.096201 0.000000 -0.137287
#
#
# Mechanical properties :
#
#
# Convention : Reuss Voigt Hill
#
# Bulk Modulus (GPa) = 34.15585 43.44475 38.80030
# Shear Modulus (GPa) = -64.32006 34.66867 -14.82569
#
# Velocity S-wave (km/s) = -5.05794 3.71337 -2.42833
# Velocity P-wave (km/s) = 4.53046 5.97204 2.75138
#
# Compressibility (1/GPa) = 0.02927756
#
# Stress axis : x y z
#
# Youngs Moduli (GPa) = 120.57789 72.66716 58.89016
#
# Poissons Ratio (x) = 0.21349 0.10841
# Poissons Ratio (y) = 0.35424 0.00591
# Poissons Ratio (z) = 0.22196 0.00729
#
# Static dielectric constant tensor:
#      x y z
#    x 2.011850 0.000000 0.072210 
#    y 0.000000 2.030300 0.000000 
#    z 0.072210 0.000000 2.073740 
# 
# From -- ./inp_files/6758.got.cif
#   From: 2010.05.17/outbox.cif.g08.bks.cpg/sg9_4_cif.got.tgz:6758.got - 2010.06.03 20:04:27.
