data_PCOD9136781
_publ_section_title
;
Structure prediction by ZEFSAII (Michael W. Deem and Ramdas Pophale) SiO2 
 PCOD9136781
Probable space group: C C
;
_chemical_formula_sum "Si O2"
_cell_formula_units_Z 28
_cell_length_a 11.036530
_cell_length_b 9.247217
_cell_length_c 15.785258
_cell_angle_alpha 90.000000
_cell_angle_beta 124.693423
_cell_angle_gamma 90.000000
_cell_volume 1324.578528
_symmetry_space_group_name_H-M "C C"
_symmetry_group_IT_number 9
_symmetry_cell_setting 'monoclinic'
loop_
_space_group_symop_operation_xyz
x,y,z
x,-y,1/2+z
1/2+x,1/2+y,z
1/2+x,1/2-y,1/2+z
loop_
_atom_site_type_symbol
_atom_site_label
_atom_site_fract_x
_atom_site_fract_y
_atom_site_fract_z
Si Si1 0.771280 0.956549 0.783450
Si Si2 0.195936 0.760295 0.729187
Si Si3 0.493036 0.164894 0.076326
Si Si4 0.179370 0.826460 0.534178
Si Si5 0.613561 0.876721 0.349751
Si Si6 0.451503 0.069172 0.412235
Si Si7 0.574288 0.642571 0.453831
O O1 0.629329 0.876189 0.690705
O O2 0.782982 0.111131 0.740411
O O3 0.737683 0.012008 0.865844
O O4 0.917988 0.864926 0.842474
O O5 0.159614 0.834715 0.627669
O O6 0.071045 0.699571 0.743493
O O7 0.296850 0.858702 0.828686
O O8 0.346941 0.199676 0.071424
O O9 0.542360 0.293386 0.033583
O O10 0.460361 0.028619 0.000099
O O11 0.072303 0.696691 0.463780
O O12 0.134227 0.981510 0.479251
O O13 0.668879 0.759199 0.439313
O O14 0.490739 0.966412 0.348805
#
# Coordination Sequence:
#
# PCOD9136781 Si02
#       7
#     4   4   4   4   4   4   4
#     4  10  21  44  59  91 130 160 208 257 316 362
#     4  10  22  40  63  91 126 164 204 261 310 368
#     4  11  25  40  65  96 126 165 212 262 308 376
#     4  12  23  40  66  94 124 168 211 255 316 379
#     4   9  21  40  63  87 122 166 199 259 308 363
#     4  11  20  41  64  87 126 165 209 255 313 369
#     4  11  24  43  66  96 126 166 213 259 313 377
#
# _framework density 21.1388
#
# number of rings (size 3 to 8) (size 9 to 14) (size 15 to 20)
#    0.857    0.571    2.857    2.571    0.000    3.429 
#    2.571    1.429    0.000    0.000    0.000    0.000 
#    0.000    0.000    0.000    0.000    0.000    0.000 
#
# Total GULP energy -78068.853219 kJ/mol
# GULP energy per Si atom -5576.346658 kJ/mol
# Density = 2.109069 g / cm^3
# Si number density = 21.138800 Si / 1000 Ang^3
#
#
#
# Elastic Constant Matrix: (Units=GPa)
#
#
# Indices 1 2 3 4 5 6 
#
# 1 63.0674 17.3283 38.9850 0.0000 -20.9419 0.0000
# 2 17.3283 66.9813 14.5172 0.0000 -6.2426 0.0000
# 3 38.9850 14.5172 75.1192 0.0000 -7.9868 0.0000
# 4 0.0000 0.0000 0.0000 32.2024 0.0000 -10.9891
# 5 -20.9419 -6.2426 -7.9868 0.0000 25.0711 0.0000
# 6 0.0000 0.0000 0.0000 -10.9891 0.0000 26.9051
#
#
#
# Elastic Compliance Matrix: (Units=1/GPa)
#
#
# Indices 1 2 3 4 5 6 
#
# 1 0.032774 -0.003386 -0.014008 0.000000 0.022071 0.000000
# 2 -0.003386 0.016157 -0.001282 0.000000 0.000786 0.000000
# 3 -0.014008 -0.001282 0.020237 0.000000 -0.005573 0.000000
# 4 0.000000 0.000000 0.000000 0.036083 0.000000 0.014738
# 5 0.022071 0.000786 -0.005573 0.000000 0.056743 0.000000
# 6 0.000000 0.000000 0.000000 0.014738 0.000000 0.043187
#
#
# Mechanical properties :
#
#
# Convention : Reuss Voigt Hill
#
# Bulk Modulus (GPa) = 31.42982 38.53655 34.98319
# Shear Modulus (GPa) = 19.75218 25.79154 22.77186
#
# Velocity S-wave (km/s) = 3.06012 3.49679 3.28572
# Velocity P-wave (km/s) = 5.23320 5.87990 5.56595
#
# Compressibility (1/GPa) = 0.03181692
#
# Stress axis : x y z
#
# Youngs Moduli (GPa) = 30.51195 61.89456 49.41423
#
# Poissons Ratio (x) = 0.20956 0.69219
# Poissons Ratio (y) = 0.10331 0.06333
# Poissons Ratio (z) = 0.42741 0.07932
#
# Static dielectric constant tensor:
#      x y z
#    x 1.746950 0.000000 -0.021380 
#    y 0.000000 1.788470 0.000000 
#    z -0.021380 0.000000 1.760480 
# 
# From -- ./inp_files/24120.got.cif
#   From: 2010.05.17/outbox.cif.g08.bks.cpg/sg9_13_cif.got.tgz:24120.got - 2010.06.03 20:04:27.
