data_PCOD9136817
_publ_section_title
;
Structure prediction by ZEFSAII (Michael W. Deem and Ramdas Pophale) SiO2 
 PCOD9136817
Probable space group: C C
;
_chemical_formula_sum "Si O2"
_cell_formula_units_Z 32
_cell_length_a 5.108120
_cell_length_b 22.536979
_cell_length_c 11.908051
_cell_angle_alpha 90.000000
_cell_angle_beta 93.246922
_cell_angle_gamma 90.000000
_cell_volume 1368.673159
_symmetry_space_group_name_H-M "C C"
_symmetry_group_IT_number 9
_symmetry_cell_setting 'monoclinic'
loop_
_space_group_symop_operation_xyz
x,y,z
x,-y,1/2+z
1/2+x,1/2+y,z
1/2+x,1/2-y,1/2+z
loop_
_atom_site_type_symbol
_atom_site_label
_atom_site_fract_x
_atom_site_fract_y
_atom_site_fract_z
Si Si1 0.420150 0.124536 0.990330
Si Si2 0.543017 0.429001 0.052942
Si Si3 0.391961 0.828056 0.945139
Si Si4 0.890766 0.013513 0.329050
Si Si5 0.894789 0.418001 0.746052
Si Si6 0.896861 0.807022 0.400584
Si Si7 0.663768 0.152402 0.669838
Si Si8 0.280888 0.071258 0.774358
O O1 0.688055 0.158834 0.972966
O O2 0.420384 0.069668 0.900389
O O3 0.178571 0.167992 0.948372
O O4 0.396419 0.104242 0.118548
O O5 0.303059 0.403863 0.117628
O O6 0.746830 0.456553 0.146760
O O7 0.426725 0.472943 0.960032
O O8 0.677193 0.372504 0.994662
O O9 0.478396 0.866303 0.837814
O O10 0.324721 0.762343 0.906338
O O11 0.585676 0.814008 0.054672
O O12 0.111384 0.056264 0.276165
O O13 0.609116 0.030346 0.274491
O O14 0.992495 0.947438 0.311515
O O15 0.852333 0.820245 0.267152
O O16 0.406602 0.132664 0.732649
#
# Coordination Sequence:
#
# PCOD9136817 Si02
#       8
#     4   4   4   4   4   4   4   4
#     4  11  25  46  64 101 142 174 227 294 336 403
#     4  10  21  44  67  95 137 172 229 289 331 404
#     4  10  24  41  67  98 137 182 228 286 339 412
#     4  11  25  43  70  99 127 184 225 270 355 405
#     4  11  25  45  64 101 140 171 224 288 335 404
#     4  11  25  41  69 101 130 189 232 272 356 403
#     4  10  21  45  67  98 139 176 234 292 331 410
#     4  10  24  43  68  97 132 176 229 283 339 409
#
# _framework density 23.380309
#
# number of rings (size 3 to 8) (size 9 to 14) (size 15 to 20)
#    0.000    1.500    2.500    0.750    7.000    0.000 
#    2.250    0.000    0.000    0.000    0.000    0.000 
#    0.000    0.000    0.000    0.000    0.000    0.000 
#
# Total GULP energy -89093.544137 kJ/mol
# GULP energy per Si atom -5568.346509 kJ/mol
# Density = 2.332709 g / cm^3
# Si number density = 23.380309 Si / 1000 Ang^3
#
#
#
# Elastic Constant Matrix: (Units=GPa)
#
#
# Indices 1 2 3 4 5 6 
#
# 1 85.6293 19.0650 38.4647 0.0000 -3.5755 0.0000
# 2 19.0650 70.7774 41.9468 0.0000 -3.8397 0.0000
# 3 38.4647 41.9468 190.4609 0.0000 5.3624 0.0000
# 4 0.0000 0.0000 0.0000 31.4743 0.0000 4.0473
# 5 -3.5755 -3.8397 5.3624 0.0000 29.7356 0.0000
# 6 0.0000 0.0000 0.0000 4.0473 0.0000 17.5389
#
#
#
# Elastic Compliance Matrix: (Units=1/GPa)
#
#
# Indices 1 2 3 4 5 6 
#
# 1 0.013237 -0.002138 -0.002251 0.000000 0.001721 0.000000
# 2 -0.002138 0.016823 -0.003344 0.000000 0.002518 0.000000
# 3 -0.002251 -0.003344 0.006494 0.000000 -0.001874 0.000000
# 4 0.000000 0.000000 0.000000 0.032744 0.000000 -0.007556
# 5 0.001721 0.002518 -0.001874 0.000000 0.034500 0.000000
# 6 0.000000 0.000000 0.000000 -0.007556 0.000000 0.058760
#
#
# Mechanical properties :
#
#
# Convention : Reuss Voigt Hill
#
# Bulk Modulus (GPa) = 47.41990 60.64672 54.03331
# Shear Modulus (GPa) = 27.01912 32.24250 29.63081
#
# Velocity S-wave (km/s) = 3.40315 3.71758 3.56383
# Velocity P-wave (km/s) = 5.98063 6.66504 6.33209
#
# Compressibility (1/GPa) = 0.02108819
#
# Stress axis : x y z
#
# Youngs Moduli (GPa) = 75.54408 59.44109 153.98169
#
# Poissons Ratio (x) = 0.12710 0.34660
# Poissons Ratio (y) = 0.16153 0.51495
# Poissons Ratio (z) = 0.17004 0.19878
#
# Static dielectric constant tensor:
#      x y z
#    x 1.994050 0.000000 0.027260 
#    y 0.000000 2.010300 0.000000 
#    z 0.027260 0.000000 1.909530 
# 
# From -- ./inp_files/13492.got.cif
#   From: 2010.05.17/outbox.cif.g08.bks.cpg/sg9_7_cif.got.tgz:13492.got - 2010.06.03 20:04:27.
