data_PCOD9136918
_publ_section_title
;
Structure prediction by ZEFSAII (Michael W. Deem and Ramdas Pophale) SiO2 
 PCOD9136918
Probable space group: C C
;
_chemical_formula_sum "Si O2"
_cell_formula_units_Z 32
_cell_length_a 6.770664
_cell_length_b 25.314339
_cell_length_c 10.017888
_cell_angle_alpha 90.000000
_cell_angle_beta 51.294865
_cell_angle_gamma 90.000000
_cell_volume 1339.914300
_symmetry_space_group_name_H-M "C C"
_symmetry_group_IT_number 9
_symmetry_cell_setting 'monoclinic'
loop_
_space_group_symop_operation_xyz
x,y,z
x,-y,1/2+z
1/2+x,1/2+y,z
1/2+x,1/2-y,1/2+z
loop_
_atom_site_type_symbol
_atom_site_label
_atom_site_fract_x
_atom_site_fract_y
_atom_site_fract_z
Si Si1 0.212500 0.890589 0.637430
Si Si2 0.903322 0.670748 0.599095
Si Si3 0.754321 0.086760 0.531032
Si Si4 0.050863 0.956081 0.465659
Si Si5 0.500881 0.019002 0.178271
Si Si6 0.621996 0.188982 0.986842
Si Si7 0.545198 0.765226 0.796821
Si Si8 0.476951 0.402590 0.219584
O O1 0.158608 0.909262 0.510183
O O2 0.401981 0.934024 0.625413
O O3 0.338648 0.832609 0.583191
O O4 0.962896 0.897501 0.833866
O O5 0.713696 0.713027 0.740975
O O6 0.058795 0.703279 0.426514
O O7 0.738638 0.628181 0.586707
O O8 0.073825 0.637186 0.624494
O O9 0.873559 0.076287 0.625205
O O10 0.593458 0.034577 0.563570
O O11 0.763674 0.964386 0.636835
O O12 0.015536 0.943258 0.323593
O O13 0.268628 0.000947 0.370984
O O14 0.760345 0.243473 0.882148
O O15 0.788748 0.142082 0.855940
O O16 0.639123 0.197710 0.138412
#
# Coordination Sequence:
#
# PCOD9136918 Si02
#       8
#     4   4   4   4   4   4   4   4
#     4  12  28  46  75 109 147 200 249 310 381 451
#     4  10  22  44  73 100 148 186 242 306 377 440
#     4  12  27  44  72 110 144 197 247 304 377 451
#     4  12  28  46  76 106 153 199 250 310 369 451
#     4  12  27  46  71 111 151 194 251 307 376 446
#     4  10  21  45  75 103 147 187 246 303 384 438
#     4   9  21  44  76 108 142 195 242 320 371 445
#     4  11  24  45  72 101 146 190 239 306 369 444
#
# _framework density 23.882121999999999
#
# number of rings (size 3 to 8) (size 9 to 14) (size 15 to 20)
#    0.000    1.000    3.750    1.500    5.250    1.000 
#    0.000   10.000    0.000    0.000    0.000    0.000 
#    0.000    0.000    0.000    0.000    0.000    0.000 
#
# Total GULP energy -89389.656823 kJ/mol
# GULP energy per Si atom -5586.853551 kJ/mol
# Density = 2.382777 g / cm^3
# Si number density = 23.882122 Si / 1000 Ang^3
#
#
#
# Elastic Constant Matrix: (Units=GPa)
#
#
# Indices 1 2 3 4 5 6 
#
# 1 96.0951 31.7803 34.4617 0.0000 -4.0173 0.0000
# 2 31.7803 62.5761 16.0637 0.0000 6.6985 0.0000
# 3 34.4617 16.0637 90.1432 0.0000 -3.1676 0.0000
# 4 0.0000 0.0000 0.0000 24.5747 0.0000 1.0880
# 5 -4.0173 6.6985 -3.1676 0.0000 24.9964 0.0000
# 6 0.0000 0.0000 0.0000 1.0880 0.0000 35.3113
#
#
#
# Elastic Compliance Matrix: (Units=1/GPa)
#
#
# Indices 1 2 3 4 5 6 
#
# 1 0.014195 -0.006521 -0.004141 0.000000 0.003504 0.000000
# 2 -0.006521 0.020359 -0.001370 0.000000 -0.006677 0.000000
# 3 -0.004141 -0.001370 0.012968 0.000000 0.001345 0.000000
# 4 0.000000 0.000000 0.000000 0.040748 0.000000 -0.001256
# 5 0.003504 -0.006677 0.001345 0.000000 0.042529 0.000000
# 6 0.000000 0.000000 0.000000 -0.001256 0.000000 0.028358
#
#
# Mechanical properties :
#
#
# Convention : Reuss Voigt Hill
#
# Bulk Modulus (GPa) = 42.63053 45.93618 44.28335
# Shear Modulus (GPa) = 26.17264 28.07707 27.12485
#
# Velocity S-wave (km/s) = 3.31404 3.43250 3.37379
# Velocity P-wave (km/s) = 5.70377 5.91487 5.81028
#
# Compressibility (1/GPa) = 0.02345737
#
# Stress axis : x y z
#
# Youngs Moduli (GPa) = 70.44916 49.11907 77.11258
#
# Poissons Ratio (x) = 0.32030 0.31936
# Poissons Ratio (y) = 0.45939 0.10562
# Poissons Ratio (z) = 0.29176 0.06728
#
# Static dielectric constant tensor:
#      x y z
#    x 1.940870 0.000000 -0.078900 
#    y 0.000000 1.887500 0.000000 
#    z -0.078900 0.000000 1.924540 
# 
# From -- ./inp_files/4447.got.cif
#   From: 2010.05.17/outbox.cif.g08.bks.cpg/sg9_3_cif.got.tgz:4447.got - 2010.06.03 20:04:27.
