data_PCOD9136607
_publ_section_title
;
Structure prediction by ZEFSAII (Michael W. Deem and Ramdas Pophale) SiO2 
 PCOD9136607
Probable space group: C C
;
_chemical_formula_sum "Si O2"
_cell_formula_units_Z 24
_cell_length_a 17.947057
_cell_length_b 7.115264
_cell_length_c 9.266287
_cell_angle_alpha 90.000000
_cell_angle_beta 62.208679
_cell_angle_gamma 90.000000
_cell_volume 1046.796546
_symmetry_space_group_name_H-M "C C"
_symmetry_group_IT_number 9
_symmetry_cell_setting 'monoclinic'
loop_
_space_group_symop_operation_xyz
x,y,z
x,-y,1/2+z
1/2+x,1/2+y,z
1/2+x,1/2-y,1/2+z
loop_
_atom_site_type_symbol
_atom_site_label
_atom_site_fract_x
_atom_site_fract_y
_atom_site_fract_z
Si Si1 0.034030 0.905515 0.559390
Si Si2 0.865882 0.735630 0.722514
Si Si3 0.404540 0.025083 0.416800
Si Si4 0.592000 0.901130 0.775403
Si Si5 0.122208 0.828068 0.778300
Si Si6 0.740254 0.331727 0.116844
O O1 0.073291 0.735054 0.428705
O O2 0.062254 0.875705 0.696508
O O3 0.074294 0.091147 0.459260
O O4 0.933604 0.896175 0.631167
O O5 0.899027 0.556938 0.594609
O O6 0.877861 0.672934 0.875002
O O7 0.773759 0.757075 0.738687
O O8 0.499669 0.073750 0.288137
O O9 0.325251 0.158224 0.445652
O O10 0.665098 0.792174 0.624833
O O11 0.628067 0.105387 0.779404
O O12 0.204426 0.958985 0.679385
#
# Coordination Sequence:
#
# PCOD9136607 Si02
#       6
#     4   4   4   4   4   4
#     4  10  23  43  67  93 134 177 222 273 334 397
#     4   9  19  41  63  94 134 168 219 269 329 395
#     4   9  19  39  66  91 136 177 203 279 332 386
#     4  10  21  42  67  95 133 175 223 271 338 392
#     4  11  23  42  68  97 132 178 227 275 330 400
#     4   9  23  39  67  96 135 171 226 277 327 398
#
# _framework density 22.927091000000001
#
# number of rings (size 3 to 8) (size 9 to 14) (size 15 to 20)
#    1.000    1.333    1.667    0.000    4.667    2.667 
#    6.000    0.000    3.667    0.000    0.000    0.000 
#    0.000    0.000    0.000    0.000    0.000    0.000 
#
# Total GULP energy -66823.838467 kJ/mol
# GULP energy per Si atom -5568.653206 kJ/mol
# Density = 2.287491 g / cm^3
# Si number density = 22.927091 Si / 1000 Ang^3
#
#
#
# Elastic Constant Matrix: (Units=GPa)
#
#
# Indices 1 2 3 4 5 6 
#
# 1 132.5631 36.6641 31.1841 0.0000 -33.0162 0.0000
# 2 36.6641 109.7379 25.6102 0.0000 -22.2407 0.0000
# 3 31.1841 25.6102 31.9801 0.0000 -15.9473 0.0000
# 4 0.0000 0.0000 0.0000 4.6062 0.0000 17.2490
# 5 -33.0162 -22.2407 -15.9473 0.0000 46.1286 0.0000
# 6 0.0000 0.0000 0.0000 17.2490 0.0000 -25.9011
#
#
#
# Elastic Compliance Matrix: (Units=1/GPa)
#
#
# Indices 1 2 3 4 5 6 
#
# 1 0.010690 -0.000905 -0.007372 0.000000 0.004666 0.000000
# 2 -0.000905 0.011587 -0.007169 0.000000 0.002460 0.000000
# 3 -0.007372 -0.007169 0.048144 0.000000 0.007911 0.000000
# 4 0.000000 0.000000 0.000000 0.062138 0.000000 0.041381
# 5 0.004666 0.002460 0.007911 0.000000 0.028939 0.000000
# 6 0.000000 0.000000 0.000000 0.041381 0.000000 -0.011051
#
#
# Mechanical properties :
#
#
# Convention : Reuss Voigt Hill
#
# Bulk Modulus (GPa) = 25.29882 51.24419 38.27151
# Shear Modulus (GPa) = 25.70448 17.02158 21.36303
#
# Velocity S-wave (km/s) = 3.35198 2.72770 3.05582
# Velocity P-wave (km/s) = 5.10288 5.68506 5.40182
#
# Compressibility (1/GPa) = 0.03952753
#
# Stress axis : x y z
#
# Youngs Moduli (GPa) = 93.54113 86.30463 20.77082
#
# Poissons Ratio (x) = 0.07815 0.15313
# Poissons Ratio (y) = 0.08470 0.14891
# Poissons Ratio (z) = 0.68961 0.61875
#
# Static dielectric constant tensor:
#      x y z
#    x 1.872190 0.000000 -0.028730 
#    y 0.000000 1.857040 0.000000 
#    z -0.028730 0.000000 1.890100 
# 
# From -- ./inp_files/18891.got.cif
#   From: 2010.05.17/outbox.cif.g08.bks.cpg/sg9_10_cif.got.tgz:18891.got - 2010.06.03 20:04:27.
