data_PCOD9136838
_publ_section_title
;
Structure prediction by ZEFSAII (Michael W. Deem and Ramdas Pophale) SiO2 
 PCOD9136838
Probable space group: C C
;
_chemical_formula_sum "Si O2"
_cell_formula_units_Z 28
_cell_length_a 16.496159
_cell_length_b 4.980752
_cell_length_c 24.846808
_cell_angle_alpha 90.000000
_cell_angle_beta 147.794658
_cell_angle_gamma 90.000000
_cell_volume 1088.025401
_symmetry_space_group_name_H-M "C C"
_symmetry_group_IT_number 9
_symmetry_cell_setting 'monoclinic'
loop_
_space_group_symop_operation_xyz
x,y,z
x,-y,1/2+z
1/2+x,1/2+y,z
1/2+x,1/2-y,1/2+z
loop_
_atom_site_type_symbol
_atom_site_label
_atom_site_fract_x
_atom_site_fract_y
_atom_site_fract_z
Si Si1 0.610580 0.932230 0.813950
Si Si2 0.420161 0.576990 0.947846
Si Si3 0.567577 0.649867 0.928128
Si Si4 0.957145 0.061442 0.261766
Si Si5 0.278337 0.371443 0.553224
Si Si6 0.566073 0.714591 0.135811
Si Si7 0.196140 0.713345 0.252614
O O1 0.493219 0.123753 0.777922
O O2 0.603616 0.628139 0.830303
O O3 0.575905 0.876582 0.731676
O O4 0.764769 0.104057 0.895018
O O5 0.490800 0.751512 0.940096
O O6 0.540243 0.585961 0.062888
O O7 0.354802 0.339036 0.872667
O O8 0.677877 0.397055 0.002200
O O9 0.674261 0.894537 0.969728
O O10 0.443303 0.542627 0.814975
O O11 0.839204 0.028787 0.146227
O O12 0.416697 0.315478 0.589638
O O13 0.684814 0.520100 0.231678
O O14 0.633155 0.013936 0.171359
#
# Coordination Sequence:
#
# PCOD9136838 Si02
#       7
#     4   4   4   4   4   4   4
#     4  10  21  44  69  88 125 160 221 256 309 355
#     4  10  26  43  62  98 128 169 207 259 310 388
#     4  12  28  40  63  95 137 165 204 251 331 372
#     4  12  22  45  66  95 125 166 208 274 299 372
#     4  12  24  43  65  96 124 170 212 258 310 381
#     4  12  22  42  73  90 124 164 219 261 310 357
#     4  10  23  41  68  96 119 162 217 267 301 363
#
# _framework density 25.734691999999999
#
# number of rings (size 3 to 8) (size 9 to 14) (size 15 to 20)
#    0.857    0.000    2.857    4.286    0.000    8.000 
#    0.000    0.000    0.000    0.000    0.000    0.000 
#    0.000    0.000    0.000    0.000    0.000    0.000 
#
# Total GULP energy -77966.877252 kJ/mol
# GULP energy per Si atom -5569.062661 kJ/mol
# Density = 2.567612 g / cm^3
# Si number density = 25.734692 Si / 1000 Ang^3
#
#
#
# Elastic Constant Matrix: (Units=GPa)
#
#
# Indices 1 2 3 4 5 6 
#
# 1 84.8196 5.1249 48.2504 -0.0011 -13.0251 0.0030
# 2 5.1249 119.0115 23.0860 -0.0016 9.4645 0.0115
# 3 48.2504 23.0860 98.2685 -0.0009 -21.7105 0.0006
# 4 -0.0011 -0.0016 -0.0009 37.3962 -0.0001 3.4649
# 5 -13.0251 9.4645 -21.7105 -0.0001 44.1597 -0.0007
# 6 0.0030 0.0115 0.0006 3.4649 -0.0007 -0.0158
#
#
#
# Elastic Compliance Matrix: (Units=1/GPa)
#
#
# Indices 1 2 3 4 5 6 
#
# 1 0.016468 0.000812 -0.008124 -0.000015 0.000689 0.000161
# 2 0.000812 0.009282 -0.003327 -0.000030 -0.003386 0.000328
# 3 -0.008124 -0.003327 0.016351 0.000016 0.006356 -0.000169
# 4 -0.000015 -0.000030 0.000016 0.001252 0.000014 0.275097
# 5 0.000689 -0.003386 0.006356 0.000014 0.026699 -0.000150
# 6 0.000161 0.000328 -0.000169 0.275097 -0.000150 -2.969078
#
#
# Mechanical properties :
#
#
# Convention : Reuss Voigt Hill
#
# Bulk Modulus (GPa) = 48.02633 50.55804 49.29218
# Shear Modulus (GPa) = -1.74167 31.35058 14.80445
#
# Velocity S-wave (km/s) = -0.82356 3.49409 2.40109
# Velocity P-wave (km/s) = 4.21880 5.99723 5.18483
#
# Compressibility (1/GPa) = 0.02082191
#
# Stress axis : x y z
#
# Youngs Moduli (GPa) = 60.72328 107.73248 61.15751
#
# Poissons Ratio (x) = -0.08748 0.49687
# Poissons Ratio (y) = -0.04931 0.20349
# Poissons Ratio (z) = 0.49335 0.35847
#
# Static dielectric constant tensor:
#      x y z
#    x 2.261180 0.000000 0.007040 
#    y 0.000000 1.978640 0.000000 
#    z 0.007040 0.000000 2.058210 
# 
# From -- ./inp_files/36821.got.cif
#   From: 2010.05.17/outbox.cif.g08.bks.cpg/sg9_19_cif.got.tgz:36821.got - 2010.06.03 20:04:27.
