data_PCOD9136365
_publ_section_title
;
Structure prediction by ZEFSAII (Michael W. Deem and Ramdas Pophale) SiO2 
 PCOD9136365
Probable space group: C C
;
_chemical_formula_sum "Si O2"
_cell_formula_units_Z 28
_cell_length_a 16.746356
_cell_length_b 9.486849
_cell_length_c 7.675081
_cell_angle_alpha 90.000000
_cell_angle_beta 69.088854
_cell_angle_gamma 90.000000
_cell_volume 1139.029434
_symmetry_space_group_name_H-M "C C"
_symmetry_group_IT_number 9
_symmetry_cell_setting 'monoclinic'
loop_
_space_group_symop_operation_xyz
x,y,z
x,-y,1/2+z
1/2+x,1/2+y,z
1/2+x,1/2-y,1/2+z
loop_
_atom_site_type_symbol
_atom_site_label
_atom_site_fract_x
_atom_site_fract_y
_atom_site_fract_z
Si Si1 0.520140 0.582016 0.189730
Si Si2 0.288322 0.164302 0.325712
Si Si3 0.548992 0.695968 0.811500
Si Si4 0.949876 0.315322 0.452717
Si Si5 0.538147 0.985818 0.664776
Si Si6 0.746828 0.346486 0.246470
Si Si7 0.180214 0.717408 0.620827
O O1 0.522265 0.414558 0.185970
O O2 0.460773 0.658836 0.374135
O O3 0.613316 0.650770 0.161558
O O4 0.499955 0.639984 0.016876
O O5 0.374106 0.177536 0.147362
O O6 0.297908 0.181878 0.526750
O O7 0.222733 0.270856 0.278211
O O8 0.258357 0.004636 0.308480
O O9 0.536493 0.859862 0.804808
O O10 0.649386 0.671499 0.758588
O O11 0.027324 0.389297 0.500988
O O12 0.956904 0.413835 0.273821
O O13 0.623053 0.081845 0.612613
O O14 0.750706 0.246429 0.414225
#
# Coordination Sequence:
#
# PCOD9136365 Si02
#       7
#     4   4   4   4   4   4   4
#     4  10  21  40  68  99 127 176 236 280 340 417
#     4  12  22  40  71  96 143 181 234 283 354 426
#     4  11  21  40  72  97 128 176 230 293 338 411
#     4  11  24  41  64 101 136 182 228 288 351 419
#     4  11  24  42  67 100 141 174 230 297 350 410
#     4  11  21  37  67 101 127 177 233 283 345 420
#     4  10  23  42  65 102 132 176 235 292 338 419
#
# _framework density 24.582332999999998
#
# number of rings (size 3 to 8) (size 9 to 14) (size 15 to 20)
#    0.000    1.143    2.857    5.143    4.000    0.000 
#    5.143    0.000    9.429    0.000    0.000    0.000 
#    0.000    0.000    0.000    0.000    0.000    0.000 
#
# Total GULP energy -78203.794969 kJ/mol
# GULP energy per Si atom -5585.985355 kJ/mol
# Density = 2.452638 g / cm^3
# Si number density = 24.582333 Si / 1000 Ang^3
#
#
#
# Elastic Constant Matrix: (Units=GPa)
#
#
# Indices 1 2 3 4 5 6 
#
# 1 36.3805 12.4989 2.5514 0.0000 3.0799 0.0000
# 2 12.4989 133.7173 15.2253 0.0000 -8.6064 0.0000
# 3 2.5514 15.2253 124.9664 0.0000 -2.5561 0.0000
# 4 0.0000 0.0000 0.0000 37.5444 0.0000 3.2870
# 5 3.0799 -8.6064 -2.5561 0.0000 35.8044 0.0000
# 6 0.0000 0.0000 0.0000 3.2870 0.0000 21.3897
#
#
#
# Elastic Compliance Matrix: (Units=1/GPa)
#
#
# Indices 1 2 3 4 5 6 
#
# 1 0.028760 -0.002859 -0.000304 0.000000 -0.003183 0.000000
# 2 -0.002859 0.007980 -0.000871 0.000000 0.002102 0.000000
# 3 -0.000304 -0.000871 0.008123 0.000000 0.000397 0.000000
# 4 0.000000 0.000000 0.000000 0.026998 0.000000 -0.004149
# 5 -0.003183 0.002102 0.000397 0.000000 0.028737 0.000000
# 6 0.000000 0.000000 0.000000 -0.004149 0.000000 0.047389
#
#
# Mechanical properties :
#
#
# Convention : Reuss Voigt Hill
#
# Bulk Modulus (GPa) = 27.17696 39.51284 33.34490
# Shear Modulus (GPa) = 29.70546 36.60027 33.15287
#
# Velocity S-wave (km/s) = 3.47999 3.86279 3.67638
# Velocity P-wave (km/s) = 5.21791 6.00029 5.62272
#
# Compressibility (1/GPa) = 0.03679587
#
# Stress axis : x y z
#
# Youngs Moduli (GPa) = 34.77039 125.31157 123.11357
#
# Poissons Ratio (x) = 0.35821 0.03743
# Poissons Ratio (y) = 0.09939 0.10722
# Poissons Ratio (z) = 0.01057 0.10913
#
# Static dielectric constant tensor:
#      x y z
#    x 2.081600 0.000000 0.101790 
#    y 0.000000 1.916100 0.000000 
#    z 0.101790 0.000000 2.119230 
# 
# From -- ./inp_files/11406.got.cif
#   From: 2010.05.17/outbox.cif.g08.bks.cpg/sg9_6_cif.got.tgz:11406.got - 2010.06.03 20:04:27.
