data_PCOD9136848
_publ_section_title
;
Structure prediction by ZEFSAII (Michael W. Deem and Ramdas Pophale) SiO2 
 PCOD9136848
Probable space group: C C
;
_chemical_formula_sum "Si O2"
_cell_formula_units_Z 32
_cell_length_a 8.858231
_cell_length_b 11.702851
_cell_length_c 14.806423
_cell_angle_alpha 90.000000
_cell_angle_beta 65.943042
_cell_angle_gamma 90.000000
_cell_volume 1401.607828
_symmetry_space_group_name_H-M "C C"
_symmetry_group_IT_number 9
_symmetry_cell_setting 'monoclinic'
loop_
_space_group_symop_operation_xyz
x,y,z
x,-y,1/2+z
1/2+x,1/2+y,z
1/2+x,1/2-y,1/2+z
loop_
_atom_site_type_symbol
_atom_site_label
_atom_site_fract_x
_atom_site_fract_y
_atom_site_fract_z
Si Si1 0.522920 0.697687 0.640300
Si Si2 0.863290 0.049867 0.457435
Si Si3 0.083175 0.854785 0.330081
Si Si4 0.254008 0.237867 0.069727
Si Si5 0.184108 0.422036 0.655229
Si Si6 0.433105 0.891378 0.169559
Si Si7 0.274902 0.975337 0.020618
Si Si8 0.598435 0.103353 0.374159
O O1 0.502893 0.659413 0.749381
O O2 0.355377 0.745697 0.638022
O O3 0.652610 0.801544 0.615970
O O4 0.609842 0.600600 0.558262
O O5 0.865501 0.185852 0.473812
O O6 0.707799 0.044491 0.425471
O O7 0.811582 0.992118 0.564626
O O8 0.012884 0.973253 0.385501
O O9 0.278892 0.857952 0.267616
O O10 0.055899 0.738963 0.394211
O O11 0.239335 0.108306 0.042528
O O12 0.074484 0.295839 0.123618
O O13 0.206063 0.406174 0.756228
O O14 0.019678 0.496942 0.687114
O O15 0.360449 0.926991 0.090777
O O16 0.418579 0.955436 0.912740
#
# Coordination Sequence:
#
# PCOD9136848 Si02
#       8
#     4   4   4   4   4   4   4   4
#     4  10  22  42  72 104 134 186 229 288 353 422
#     4  11  24  43  68 103 141 180 238 290 346 423
#     4  10  25  42  69 105 139 188 235 286 359 422
#     4  11  23  43  73 103 140 184 233 295 347 415
#     4  10  21  44  69  99 142 183 231 292 346 411
#     4  10  22  45  67 100 146 176 235 297 340 423
#     4  11  22  45  71 104 146 180 234 291 355 421
#     4  11  23  42  71 102 142 189 227 291 358 419
#
# _framework density 22.830924
#
# number of rings (size 3 to 8) (size 9 to 14) (size 15 to 20)
#    0.000    1.500    3.750    0.750    3.500    5.000 
#    9.000    3.750    0.000    0.000    0.000    0.000 
#    0.000    0.000    0.000    0.000    0.000    0.000 
#
# Total GULP energy -89393.376430 kJ/mol
# GULP energy per Si atom -5587.086027 kJ/mol
# Density = 2.277896 g / cm^3
# Si number density = 22.830924 Si / 1000 Ang^3
#
#
#
# Elastic Constant Matrix: (Units=GPa)
#
#
# Indices 1 2 3 4 5 6 
#
# 1 72.1661 40.2013 25.3451 0.0000 -16.1903 0.0000
# 2 40.2013 175.1573 43.1558 0.0000 -27.5768 0.0000
# 3 25.3451 43.1558 69.3533 0.0000 -15.3255 0.0000
# 4 0.0000 0.0000 0.0000 33.8253 0.0000 -2.1083
# 5 -16.1903 -27.5768 -15.3255 0.0000 21.0791 0.0000
# 6 0.0000 0.0000 0.0000 -2.1083 0.0000 26.5242
#
#
#
# Elastic Compliance Matrix: (Units=1/GPa)
#
#
# Indices 1 2 3 4 5 6 
#
# 1 0.018137 -0.001903 -0.003474 0.000000 0.008915 0.000000
# 2 -0.001903 0.007897 -0.002691 0.000000 0.006914 0.000000
# 3 -0.003474 -0.002691 0.019057 0.000000 0.007667 0.000000
# 4 0.000000 0.000000 0.000000 0.029711 0.000000 0.002362
# 5 0.008915 0.006914 0.007667 0.000000 0.068907 0.000000
# 6 0.000000 0.000000 0.000000 0.002362 0.000000 0.037889
#
#
# Mechanical properties :
#
#
# Convention : Reuss Voigt Hill
#
# Bulk Modulus (GPa) = 34.53563 59.34234 46.93899
# Shear Modulus (GPa) = 24.10955 30.15070 27.13012
#
# Velocity S-wave (km/s) = 3.25315 3.63796 3.45092
# Velocity P-wave (km/s) = 5.41019 6.61021 6.04007
#
# Compressibility (1/GPa) = 0.02895560
#
# Stress axis : x y z
#
# Youngs Moduli (GPa) = 55.13503 126.62280 52.47379
#
# Poissons Ratio (x) = 0.24100 0.18229
# Poissons Ratio (y) = 0.10494 0.14121
# Poissons Ratio (z) = 0.19153 0.34074
#
# Static dielectric constant tensor:
#      x y z
#    x 1.890870 0.000000 0.025640 
#    y 0.000000 1.855040 0.000000 
#    z 0.025640 0.000000 1.899080 
# 
# From -- ./inp_files/22717.got.cif
#   From: 2010.05.17/outbox.cif.g08.bks.cpg/sg9_12_cif.got.tgz:22717.got - 2010.06.03 20:04:27.
