data_PCOD9136994
_publ_section_title
;
Structure prediction by ZEFSAII (Michael W. Deem and Ramdas Pophale) SiO2 
 PCOD9136994
Probable space group: C C
;
_chemical_formula_sum "Si O2"
_cell_formula_units_Z 32
_cell_length_a 21.559246
_cell_length_b 7.698976
_cell_length_c 9.190407
_cell_angle_alpha 90.000000
_cell_angle_beta 68.972801
_cell_angle_gamma 90.000000
_cell_volume 1423.881413
_symmetry_space_group_name_H-M "C C"
_symmetry_group_IT_number 9
_symmetry_cell_setting 'monoclinic'
loop_
_space_group_symop_operation_xyz
x,y,z
x,-y,1/2+z
1/2+x,1/2+y,z
1/2+x,1/2-y,1/2+z
loop_
_atom_site_type_symbol
_atom_site_label
_atom_site_fract_x
_atom_site_fract_y
_atom_site_fract_z
Si Si1 0.178120 0.973512 0.746560
Si Si2 0.358253 0.901762 0.107146
Si Si3 0.462212 0.537705 0.265369
Si Si4 0.593326 0.821391 0.424985
Si Si5 0.998386 0.221432 0.969060
Si Si6 0.435016 0.255087 0.054433
Si Si7 0.625219 0.138863 0.237468
Si Si8 0.270209 0.972286 0.419848
O O1 0.115098 0.870397 0.855663
O O2 0.208250 0.908956 0.568473
O O3 0.164347 0.182977 0.746643
O O4 0.234606 0.928808 0.817976
O O5 0.422865 0.786808 0.025726
O O6 0.387845 0.092145 0.118709
O O7 0.314003 0.920802 0.999403
O O8 0.316833 0.845845 0.284660
O O9 0.503792 0.421910 0.340472
O O10 0.421290 0.659858 0.408379
O O11 0.507750 0.653734 0.123343
O O12 0.427445 0.403871 0.183341
O O13 0.512109 0.809356 0.489409
O O14 0.613508 0.856904 0.575189
O O15 0.640759 0.947649 0.285792
O O16 0.054092 0.354022 0.879460
#
# Coordination Sequence:
#
# PCOD9136994 Si02
#       8
#     4   4   4   4   4   4   4   4
#     4  11  24  50  72  96 140 189 240 278 342 407
#     4  11  22  42  74  94 136 177 234 278 338 421
#     4  10  22  35  60  90 148 177 206 266 346 428
#     4  12  27  42  72 108 140 180 226 297 353 415
#     4  11  22  40  64 105 139 173 220 283 360 416
#     4  11  22  40  64 105 139 173 220 283 360 416
#     4  12  27  42  72 108 140 180 226 297 353 415
#     4  10  24  43  74  90 128 199 234 268 326 418
#
# _framework density 22.473780000000001
#
# number of rings (size 3 to 8) (size 9 to 14) (size 15 to 20)
#    0.000    1.000    3.750    3.000    3.500    0.000 
#    0.000    0.000   55.000    0.000    0.000    0.000 
#    0.000    0.000    0.000    0.000    0.000    0.000 
#
# Total GULP energy -89212.598077 kJ/mol
# GULP energy per Si atom -5575.787380 kJ/mol
# Density = 2.242263 g / cm^3
# Si number density = 22.473780 Si / 1000 Ang^3
#
#
#
# Elastic Constant Matrix: (Units=GPa)
#
#
# Indices 1 2 3 4 5 6 
#
# 1 76.8980 21.7535 32.9170 0.0000 0.3979 0.0000
# 2 21.7535 75.7179 29.4804 0.0000 10.2534 0.0000
# 3 32.9170 29.4804 145.0064 0.0000 26.0843 0.0000
# 4 0.0000 0.0000 0.0000 14.4724 0.0000 0.8761
# 5 0.3979 10.2534 26.0843 0.0000 33.6919 0.0000
# 6 0.0000 0.0000 0.0000 0.8761 0.0000 14.1919
#
#
#
# Elastic Compliance Matrix: (Units=1/GPa)
#
#
# Indices 1 2 3 4 5 6 
#
# 1 0.015467 -0.003594 -0.003421 0.000000 0.003559 0.000000
# 2 -0.003594 0.015353 -0.001711 0.000000 -0.003305 0.000000
# 3 -0.003421 -0.001711 0.009201 0.000000 -0.006562 0.000000
# 4 0.000000 0.000000 0.000000 0.069356 0.000000 -0.004281
# 5 0.003559 -0.003305 -0.006562 0.000000 0.035725 0.000000
# 6 0.000000 0.000000 0.000000 -0.004281 0.000000 0.070727
#
#
# Mechanical properties :
#
#
# Convention : Reuss Voigt Hill
#
# Bulk Modulus (GPa) = 44.30621 51.76935 48.03778
# Shear Modulus (GPa) = 20.76386 26.70268 23.73327
#
# Velocity S-wave (km/s) = 3.04289 3.45072 3.25321
# Velocity P-wave (km/s) = 5.66595 6.24196 5.96092
#
# Compressibility (1/GPa) = 0.02257020
#
# Stress axis : x y z
#
# Youngs Moduli (GPa) = 64.65522 65.13327 108.68319
#
# Poissons Ratio (x) = 0.23407 0.37176
# Poissons Ratio (y) = 0.23235 0.18596
# Poissons Ratio (z) = 0.22116 0.11144
#
# Static dielectric constant tensor:
#      x y z
#    x 1.883170 0.000000 -0.046330 
#    y 0.000000 2.091840 0.000000 
#    z -0.046330 0.000000 1.856740 
# 
# From -- ./inp_files/12067.got.cif
#   From: 2010.05.17/outbox.cif.g08.bks.cpg/sg9_7_cif.got.tgz:12067.got - 2010.06.03 20:04:27.
