data_PCOD9136909
_publ_section_title
;
Structure prediction by ZEFSAII (Michael W. Deem and Ramdas Pophale) SiO2 
 PCOD9136909
Probable space group: C C
;
_chemical_formula_sum "Si O2"
_cell_formula_units_Z 28
_cell_length_a 19.525873
_cell_length_b 4.828524
_cell_length_c 12.465968
_cell_angle_alpha 90.000000
_cell_angle_beta 106.684742
_cell_angle_gamma 90.000000
_cell_volume 1125.824190
_symmetry_space_group_name_H-M "C C"
_symmetry_group_IT_number 9
_symmetry_cell_setting 'monoclinic'
loop_
_space_group_symop_operation_xyz
x,y,z
x,-y,1/2+z
1/2+x,1/2+y,z
1/2+x,1/2-y,1/2+z
loop_
_atom_site_type_symbol
_atom_site_label
_atom_site_fract_x
_atom_site_fract_y
_atom_site_fract_z
Si Si1 0.631870 0.720546 0.177960
Si Si2 0.746324 0.697490 0.402002
Si Si3 0.898980 0.159541 0.986742
Si Si4 0.894288 0.339580 0.631822
Si Si5 0.044125 0.002286 0.955660
Si Si6 0.740208 0.198235 0.553896
Si Si7 0.538545 0.960394 0.808424
O O1 0.691094 0.611653 0.286905
O O2 0.588597 0.500425 0.086158
O O3 0.578572 0.907058 0.224154
O O4 0.680665 0.878232 0.112847
O O5 0.828132 0.723632 0.398470
O O6 0.736154 0.499643 0.499169
O O7 0.735109 0.996247 0.450240
O O8 0.896751 0.341312 0.094738
O O9 0.972096 0.168137 0.955702
O O10 0.898381 0.840791 0.024429
O O11 0.819611 0.220047 0.642456
O O12 0.965003 0.321274 0.733902
O O13 0.031388 0.287566 0.390785
O O14 0.079715 0.210223 0.885412
#
# Coordination Sequence:
#
# PCOD9136909 Si02
#       7
#     4   4   4   4   4   4   4
#     4  12  26  46  70 102 143 194 228 303 366 424
#     4  10  24  45  69 101 137 180 239 294 350 435
#     4  10  21  45  71  99 139 183 235 295 357 424
#     4  10  21  45  71  99 137 182 232 300 349 427
#     4  12  27  43  70 105 143 185 241 293 356 442
#     4  10  24  45  70 100 138 177 239 290 355 427
#     4  12  27  43  71 104 143 183 242 289 359 433
#
# _framework density 24.87067
#
# number of rings (size 3 to 8) (size 9 to 14) (size 15 to 20)
#    0.000    1.143    1.429    3.429    2.000    3.429 
#    0.000    0.000    0.000    0.000    0.000    0.000 
#    0.000    0.000    0.000    0.000    0.000    0.000 
#
# Total GULP energy -78221.609447 kJ/mol
# GULP energy per Si atom -5587.257818 kJ/mol
# Density = 2.481406 g / cm^3
# Si number density = 24.870670 Si / 1000 Ang^3
#
#
#
# Elastic Constant Matrix: (Units=GPa)
#
#
# Indices 1 2 3 4 5 6 
#
# 1 136.9462 16.6417 63.6773 0.0000 17.3735 0.0000
# 2 16.6417 91.5758 13.3060 0.0000 7.1364 0.0000
# 3 63.6773 13.3060 140.3976 0.0000 26.0501 0.0000
# 4 0.0000 0.0000 0.0000 23.0531 0.0000 2.4901
# 5 17.3735 7.1364 26.0501 0.0000 32.7000 0.0000
# 6 0.0000 0.0000 0.0000 2.4901 0.0000 22.4747
#
#
#
# Elastic Compliance Matrix: (Units=1/GPa)
#
#
# Indices 1 2 3 4 5 6 
#
# 1 0.009442 -0.001020 -0.003868 0.000000 -0.001712 0.000000
# 2 -0.001020 0.011279 -0.000293 0.000000 -0.001686 0.000000
# 3 -0.003868 -0.000293 0.009988 0.000000 -0.005838 0.000000
# 4 0.000000 0.000000 0.000000 0.043904 0.000000 -0.004864
# 5 -0.001712 -0.001686 -0.005838 0.000000 0.036509 0.000000
# 6 0.000000 0.000000 0.000000 -0.004864 0.000000 0.045033
#
#
# Mechanical properties :
#
#
# Convention : Reuss Voigt Hill
#
# Bulk Modulus (GPa) = 49.15051 61.79664 55.47357
# Shear Modulus (GPa) = 28.85157 33.99851 31.42504
#
# Velocity S-wave (km/s) = 3.40967 3.70132 3.55848
# Velocity P-wave (km/s) = 5.94192 6.57020 6.26394
#
# Compressibility (1/GPa) = 0.02034567
#
# Stress axis : x y z
#
# Youngs Moduli (GPa) = 105.91093 88.65764 100.12124
#
# Poissons Ratio (x) = 0.09046 0.38726
# Poissons Ratio (y) = 0.10807 0.02938
# Poissons Ratio (z) = 0.40966 0.02601
#
# Static dielectric constant tensor:
#      x y z
#    x 2.094590 0.000000 0.030470 
#    y 0.000000 1.883660 0.000000 
#    z 0.030470 0.000000 2.000760 
# 
# From -- ./inp_files/19738.got.cif
#   From: 2010.05.17/outbox.cif.g08.bks.cpg/sg9_10_cif.got.tgz:19738.got - 2010.06.03 20:04:27.
