data_PCOD9136357
_publ_section_title
;
Structure prediction by ZEFSAII (Michael W. Deem and Ramdas Pophale) SiO2 
 PCOD9136357
Probable space group: C C
;
_chemical_formula_sum "Si O2"
_cell_formula_units_Z 28
_cell_length_a 12.124018
_cell_length_b 11.534474
_cell_length_c 8.329964
_cell_angle_alpha 90.000000
_cell_angle_beta 107.348772
_cell_angle_gamma 90.000000
_cell_volume 1111.902621
_symmetry_space_group_name_H-M "C C"
_symmetry_group_IT_number 9
_symmetry_cell_setting 'monoclinic'
loop_
_space_group_symop_operation_xyz
x,y,z
x,-y,1/2+z
1/2+x,1/2+y,z
1/2+x,1/2-y,1/2+z
loop_
_atom_site_type_symbol
_atom_site_label
_atom_site_fract_x
_atom_site_fract_y
_atom_site_fract_z
Si Si1 0.394700 0.234828 0.639820
Si Si2 0.703121 0.147686 0.493340
Si Si3 0.195420 0.890245 0.664563
Si Si4 0.283269 0.440841 0.697136
Si Si5 0.945596 0.582712 0.382625
Si Si6 0.039209 0.645339 0.981626
Si Si7 0.144730 0.132764 0.520747
O O1 0.388504 0.372206 0.662589
O O2 0.418973 0.197486 0.471824
O O3 0.491339 0.169515 0.783859
O O4 0.270302 0.180223 0.634060
O O5 0.691094 0.279057 0.546602
O O6 0.778950 0.110834 0.373561
O O7 0.575384 0.105172 0.378362
O O8 0.761904 0.076832 0.666627
O O9 0.329950 0.928675 0.731583
O O10 0.156317 0.863557 0.830986
O O11 0.128523 0.001559 0.567894
O O12 0.170114 0.396560 0.550801
O O13 0.962485 0.465386 0.496743
O O14 0.049579 0.777199 0.049598
#
# Coordination Sequence:
#
# PCOD9136357 Si02
#       7
#     4   4   4   4   4   4   4
#     4  10  21  42  66  98 136 179 231 295 342 410
#     4  11  26  44  69 104 141 191 236 292 353 421
#     4  11  24  42  70  98 143 186 236 286 355 414
#     4  10  26  41  69 100 143 179 239 290 355 408
#     4  10  23  39  74  98 134 188 242 275 359 421
#     4  10  21  40  68  95 134 179 229 291 343 411
#     4  10  23  40  66  99 139 180 229 295 343 415
#
# _framework density 25.182062999999999
#
# number of rings (size 3 to 8) (size 9 to 14) (size 15 to 20)
#    0.000    1.714    1.429    0.857   20.000    1.143 
#    2.571    1.429    0.000    0.000    0.000    0.000 
#    0.000    0.000    0.000    0.000    0.000    0.000 
#
# Total GULP energy -78094.723821 kJ/mol
# GULP energy per Si atom -5578.194559 kJ/mol
# Density = 2.512475 g / cm^3
# Si number density = 25.182063 Si / 1000 Ang^3
#
#
#
# Elastic Constant Matrix: (Units=GPa)
#
#
# Indices 1 2 3 4 5 6 
#
# 1 61.8074 30.5903 18.4065 0.0000 2.1499 0.0000
# 2 30.5903 186.0310 26.8646 0.0000 -1.9594 0.0000
# 3 18.4065 26.8646 63.2504 0.0000 7.1853 0.0000
# 4 0.0000 0.0000 0.0000 41.8922 0.0000 7.6610
# 5 2.1499 -1.9594 7.1853 0.0000 27.6807 0.0000
# 6 0.0000 0.0000 0.0000 7.6610 0.0000 28.9946
#
#
#
# Elastic Compliance Matrix: (Units=1/GPa)
#
#
# Indices 1 2 3 4 5 6 
#
# 1 0.018705 -0.002454 -0.004344 0.000000 -0.000499 0.000000
# 2 -0.002454 0.006079 -0.001998 0.000000 0.001139 0.000000
# 3 -0.004344 -0.001998 0.018445 0.000000 -0.004592 0.000000
# 4 0.000000 0.000000 0.000000 0.025083 0.000000 -0.006627
# 5 -0.000499 0.001139 -0.004592 0.000000 0.037438 0.000000
# 6 0.000000 0.000000 0.000000 -0.006627 0.000000 0.036240
#
#
# Mechanical properties :
#
#
# Convention : Reuss Voigt Hill
#
# Bulk Modulus (GPa) = 39.00550 51.42351 45.21450
# Shear Modulus (GPa) = 29.73953 35.39533 32.56743
#
# Velocity S-wave (km/s) = 3.44027 3.75317 3.60012
# Velocity P-wave (km/s) = 5.59496 6.26472 5.93929
#
# Compressibility (1/GPa) = 0.02563741
#
# Stress axis : x y z
#
# Youngs Moduli (GPa) = 53.46217 164.49054 54.21666
#
# Poissons Ratio (x) = 0.40360 0.23554
# Poissons Ratio (y) = 0.13118 0.10830
# Poissons Ratio (z) = 0.23227 0.32857
#
# Static dielectric constant tensor:
#      x y z
#    x 2.047880 0.000000 -0.012350 
#    y 0.000000 2.071540 0.000000 
#    z -0.012350 0.000000 2.008140 
# 
# From -- ./inp_files/9166.got.cif
#   From: 2010.05.17/outbox.cif.g08.bks.cpg/sg9_5_cif.got.tgz:9166.got - 2010.06.03 20:04:27.
