data_PCOD9136943
_publ_section_title
;
Structure prediction by ZEFSAII (Michael W. Deem and Ramdas Pophale) SiO2 
 PCOD9136943
Probable space group: C C
;
_chemical_formula_sum "Si O2"
_cell_formula_units_Z 32
_cell_length_a 12.297066
_cell_length_b 7.601604
_cell_length_c 22.391288
_cell_angle_alpha 90.000000
_cell_angle_beta 142.162956
_cell_angle_gamma 90.000000
_cell_volume 1283.932493
_symmetry_space_group_name_H-M "C C"
_symmetry_group_IT_number 9
_symmetry_cell_setting 'monoclinic'
loop_
_space_group_symop_operation_xyz
x,y,z
x,-y,1/2+z
1/2+x,1/2+y,z
1/2+x,1/2-y,1/2+z
loop_
_atom_site_type_symbol
_atom_site_label
_atom_site_fract_x
_atom_site_fract_y
_atom_site_fract_z
Si Si1 0.621450 0.930922 0.012990
Si Si2 0.726125 0.591505 0.621645
Si Si3 0.666585 0.295461 0.419544
Si Si4 0.164474 0.386940 0.695634
Si Si5 0.779416 0.285249 0.727706
Si Si6 0.949890 0.839418 0.652431
Si Si7 0.410749 0.723187 0.412305
Si Si8 0.366444 0.901192 0.014568
O O1 0.815233 0.010400 0.115160
O O2 0.487624 0.882932 0.008586
O O3 0.508506 0.094987 0.936340
O O4 0.669187 0.781489 0.987157
O O5 0.682884 0.726015 0.657396
O O6 0.731354 0.398254 0.649426
O O7 0.909924 0.673518 0.677330
O O8 0.579275 0.605878 0.505935
O O9 0.486985 0.204669 0.321304
O O10 0.810573 0.244244 0.432245
O O11 0.677539 0.509306 0.420577
O O12 0.245508 0.577035 0.713613
O O13 0.266651 0.335924 0.800801
O O14 0.959851 0.448220 0.597177
O O15 0.657363 0.362554 0.729126
O O16 0.876660 0.777733 0.555576
#
# Coordination Sequence:
#
# PCOD9136943 Si02
#       8
#     4   4   4   4   4   4   4   4
#     4  10  21  46  69  98 137 187 242 287 374 429
#     4  11  23  51  72 101 153 193 240 306 366 429
#     4  11  23  45  69 110 137 186 243 299 369 432
#     4  11  23  49  70 107 150 185 246 303 359 436
#     4  11  27  42  68 113 136 189 250 284 369 439
#     4  10  23  44  68 101 138 190 238 294 362 428
#     4  10  23  45  74 103 146 190 239 310 360 425
#     4  10  23  44  68 101 141 184 240 295 363 434
#
# _framework density 24.923428999999999
#
# number of rings (size 3 to 8) (size 9 to 14) (size 15 to 20)
#    0.000    1.500    3.750    1.500    7.000    2.000 
#    9.000    0.000    0.000    0.000    0.000    0.000 
#    0.000    0.000    0.000    0.000    0.000    0.000 
#
# Total GULP energy -89234.906906 kJ/mol
# GULP energy per Si atom -5577.181682 kJ/mol
# Density = 2.486670 g / cm^3
# Si number density = 24.923429 Si / 1000 Ang^3
#
#
#
# Elastic Constant Matrix: (Units=GPa)
#
#
# Indices 1 2 3 4 5 6 
#
# 1 132.7330 34.7025 23.5962 0.0000 10.9161 0.0000
# 2 34.7025 74.6429 2.3284 0.0000 -11.2001 0.0000
# 3 23.5962 2.3284 64.5946 0.0000 -3.7452 0.0000
# 4 0.0000 0.0000 0.0000 19.0253 0.0000 -6.7241
# 5 10.9161 -11.2001 -3.7452 0.0000 46.2636 0.0000
# 6 0.0000 0.0000 0.0000 -6.7241 0.0000 44.0490
#
#
#
# Elastic Compliance Matrix: (Units=1/GPa)
#
#
# Indices 1 2 3 4 5 6 
#
# 1 0.009804 -0.005019 -0.003622 0.000000 -0.003822 0.000000
# 2 -0.005019 0.016477 0.001547 0.000000 0.005298 0.000000
# 3 -0.003622 0.001547 0.016899 0.000000 0.002597 0.000000
# 4 0.000000 0.000000 0.000000 0.055559 0.000000 0.008481
# 5 -0.003822 0.005298 0.002597 0.000000 0.024010 0.000000
# 6 0.000000 0.000000 0.000000 0.008481 0.000000 0.023997
#
#
# Mechanical properties :
#
#
# Convention : Reuss Voigt Hill
#
# Bulk Modulus (GPa) = 34.49213 43.69165 39.09189
# Shear Modulus (GPa) = 29.30859 35.95712 32.63286
#
# Velocity S-wave (km/s) = 3.43293 3.80241 3.62238
# Velocity P-wave (km/s) = 5.43899 6.07011 5.76319
#
# Compressibility (1/GPa) = 0.02899212
#
# Stress axis : x y z
#
# Youngs Moduli (GPa) = 101.99716 60.69046 59.17460
#
# Poissons Ratio (x) = 0.30458 0.21434
# Poissons Ratio (y) = 0.51188 -0.09151
# Poissons Ratio (z) = 0.36945 -0.09386
#
# Static dielectric constant tensor:
#      x y z
#    x 2.008620 0.000000 -0.016640 
#    y 0.000000 2.016220 0.000000 
#    z -0.016640 0.000000 2.145460 
# 
# From -- ./inp_files/35324.got.cif
#   From: 2010.05.17/outbox.cif.g08.bks.cpg/sg9_18_cif.got.tgz:35324.got - 2010.06.03 20:04:27.
