data_PCOD9136071
_publ_section_title
;
Structure prediction by ZEFSAII (Michael W. Deem and Ramdas Pophale) SiO2 
 PCOD9136071
Probable space group: C C
;
_chemical_formula_sum "Si O2"
_cell_formula_units_Z 28
_cell_length_a 11.954000
_cell_length_b 9.187395
_cell_length_c 24.753105
_cell_angle_alpha 90.000000
_cell_angle_beta 22.444651
_cell_angle_gamma 90.000000
_cell_volume 1037.912505
_symmetry_space_group_name_H-M "C C"
_symmetry_group_IT_number 9
_symmetry_cell_setting 'monoclinic'
loop_
_space_group_symop_operation_xyz
x,y,z
x,-y,1/2+z
1/2+x,1/2+y,z
1/2+x,1/2-y,1/2+z
loop_
_atom_site_type_symbol
_atom_site_label
_atom_site_fract_x
_atom_site_fract_y
_atom_site_fract_z
Si Si1 0.759050 0.500509 0.390520
Si Si2 0.098669 0.326803 0.448567
Si Si3 0.868448 0.746629 0.556020
Si Si4 0.422722 0.828759 0.144520
Si Si5 0.029183 0.350601 0.360385
Si Si6 0.921716 0.223237 0.256301
Si Si7 0.040579 0.339510 0.595538
O O1 0.688376 0.657392 0.400515
O O2 0.459429 0.409987 0.532362
O O3 0.926161 0.391140 0.275487
O O4 0.917440 0.489706 0.377281
O O5 0.161110 0.386414 0.360258
O O6 0.742537 0.344036 0.612378
O O7 0.190502 0.355230 0.469806
O O8 0.713137 0.769667 0.568738
O O9 0.753798 0.679667 0.662623
O O10 0.171821 0.661066 0.407279
O O11 0.749355 0.758145 0.991360
O O12 0.307553 0.736994 0.246258
O O13 0.447795 0.996118 0.149831
O O14 0.259415 0.265629 0.220149
#
# Coordination Sequence:
#
# PCOD9136071 Si02
#       7
#     4   4   4   4   4   4   4
#     4   9  19  40  62  86 124 159 209 257 304 372
#     4  11  21  37  67  87 121 172 202 254 324 372
#     4   9  21  39  60  93 121 157 219 252 309 385
#     4  10  21  38  67  87 125 165 207 266 313 373
#     4  10  22  42  61  92 124 160 215 263 310 379
#     4   9  19  40  62  88 116 161 208 259 310 366
#     4  12  23  38  63  93 129 164 210 255 326 387
#
# _framework density 26.977225000000001
#
# number of rings (size 3 to 8) (size 9 to 14) (size 15 to 20)
#    0.857    1.143    1.429    2.571    2.000    2.286 
#    0.000    2.857   12.571    0.000    0.000    0.000 
#    0.000    0.000    0.000    0.000    0.000    0.000 
#
# Total GULP energy -78210.589528 kJ/mol
# GULP energy per Si atom -5586.470681 kJ/mol
# Density = 2.691582 g / cm^3
# Si number density = 26.977225 Si / 1000 Ang^3
#
#
#
# Elastic Constant Matrix: (Units=GPa)
#
#
# Indices 1 2 3 4 5 6 
#
# 1 210.8946 15.3315 33.2113 -0.0041 38.4788 0.0774
# 2 15.3315 43.5434 -5.5452 -0.0088 -6.0297 -0.0037
# 3 33.2113 -5.5452 93.2635 -0.0520 26.5248 0.2762
# 4 -0.0041 -0.0088 -0.0520 23.8188 0.0092 -1.6359
# 5 38.4788 -6.0297 26.5248 0.0092 47.3663 -0.0923
# 6 0.0774 -0.0037 0.2762 -1.6359 -0.0923 -10.4179
#
#
#
# Elastic Compliance Matrix: (Units=1/GPa)
#
#
# Indices 1 2 3 4 5 6 
#
# 1 0.005952 -0.002864 -0.000965 0.000004 -0.004659 0.000060
# 2 -0.002864 0.024788 0.001112 0.000006 0.004859 -0.000045
# 3 -0.000965 0.001112 0.012926 0.000057 -0.006313 0.000382
# 4 0.000004 0.000006 0.000057 0.041536 -0.000055 -0.006520
# 5 -0.004659 0.004859 -0.006313 -0.000055 0.029050 -0.000452
# 6 0.000060 -0.000045 0.000382 -0.006520 -0.000452 -0.094950
#
#
# Mechanical properties :
#
#
# Convention : Reuss Voigt Hill
#
# Bulk Modulus (GPa) = 26.15545 48.18850 37.17198
# Shear Modulus (GPa) = 133.40492 32.46703 82.93598
#
# Velocity S-wave (km/s) = 7.03977 3.47291 5.55065
# Velocity P-wave (km/s) = 8.70598 5.82949 7.40868
#
# Compressibility (1/GPa) = 0.03823295
#
# Stress axis : x y z
#
# Youngs Moduli (GPa) = 168.01317 40.34154 77.36221
#
# Poissons Ratio (x) = 0.11553 0.07464
# Poissons Ratio (y) = 0.48114 -0.08601
# Poissons Ratio (z) = 0.16210 -0.04485
#
# Static dielectric constant tensor:
#      x y z
#    x 2.162580 -0.000020 -0.048590 
#    y -0.000020 2.101690 -0.000060 
#    z -0.048590 -0.000060 2.163600 
# 
# From -- ./inp_files/29963.got.cif
#   From: 2010.05.17/outbox.cif.g08.bks.cpg/sg9_15_cif.got.tgz:29963.got - 2010.06.03 20:04:27.
