data_PCOD9136436
_publ_section_title
;
Structure prediction by ZEFSAII (Michael W. Deem and Ramdas Pophale) SiO2 
 PCOD9136436
Probable space group: C C
;
_chemical_formula_sum "Si O2"
_cell_formula_units_Z 32
_cell_length_a 13.017636
_cell_length_b 17.662402
_cell_length_c 5.500726
_cell_angle_alpha 90.000000
_cell_angle_beta 99.979204
_cell_angle_gamma 90.000000
_cell_volume 1245.607244
_symmetry_space_group_name_H-M "C C"
_symmetry_group_IT_number 9
_symmetry_cell_setting 'monoclinic'
loop_
_space_group_symop_operation_xyz
x,y,z
x,-y,1/2+z
1/2+x,1/2+y,z
1/2+x,1/2-y,1/2+z
loop_
_atom_site_type_symbol
_atom_site_label
_atom_site_fract_x
_atom_site_fract_y
_atom_site_fract_z
Si Si1 0.542860 0.542798 0.428460
Si Si2 0.987561 0.194246 0.159062
Si Si3 0.572164 0.810097 0.560300
Si Si4 0.734209 0.064060 0.095906
Si Si5 0.751146 0.897394 0.122937
Si Si6 0.795234 0.456591 0.038614
Si Si7 0.189797 0.230665 0.973319
Si Si8 0.384098 0.187463 0.333605
O O1 0.514874 0.511471 0.685757
O O2 0.493966 0.623470 0.339639
O O3 0.669146 0.551062 0.482412
O O4 0.007404 0.268053 0.332452
O O5 0.091054 0.185629 0.034937
O O6 0.896939 0.228183 0.950977
O O7 0.634002 0.884022 0.513602
O O8 0.494840 0.827898 0.751477
O O9 0.661230 0.750518 0.686168
O O10 0.789839 0.093033 0.363046
O O11 0.691765 0.978776 0.099054
O O12 0.809175 0.083028 0.898212
O O13 0.700100 0.814954 0.097115
O O14 0.823213 0.492172 0.312337
O O15 0.849035 0.376171 0.007936
O O16 0.295174 0.189830 0.089435
#
# Coordination Sequence:
#
# PCOD9136436 Si02
#       8
#     4   4   4   4   4   4   4   4
#     4  10  23  43  76  98 130 184 238 290 353 412
#     4  11  23  42  69  99 135 178 233 286 352 414
#     4  10  23  39  64  99 131 179 226 274 352 408
#     4   9  17  34  57  85 125 160 215 259 309 402
#     4   9  17  33  59  87 117 172 212 251 321 383
#     4  10  23  44  66 102 140 184 230 287 355 422
#     4  10  21  41  64  91 134 176 225 279 336 412
#     4  11  25  42  65 103 138 179 229 292 346 419
#
# _framework density 25.690282
#
# number of rings (size 3 to 8) (size 9 to 14) (size 15 to 20)
#    0.000    2.000    2.500    0.000    5.250    2.000 
#    9.000    0.000    8.250    0.000    0.000    0.000 
#    0.000    0.000    0.000    0.000    0.000    0.000 
#
# Total GULP energy -89295.366653 kJ/mol
# GULP energy per Si atom -5580.960416 kJ/mol
# Density = 2.563181 g / cm^3
# Si number density = 25.690282 Si / 1000 Ang^3
#
#
#
# Elastic Constant Matrix: (Units=GPa)
#
#
# Indices 1 2 3 4 5 6 
#
# 1 65.6242 32.1691 14.3906 0.0000 6.7884 0.0000
# 2 32.1691 106.5534 -9.6633 0.0000 -9.3439 0.0000
# 3 14.3906 -9.6633 101.9328 0.0000 -12.5920 0.0000
# 4 0.0000 0.0000 0.0000 37.6149 0.0000 0.7878
# 5 6.7884 -9.3439 -12.5920 0.0000 31.4304 0.0000
# 6 0.0000 0.0000 0.0000 0.7878 0.0000 15.9459
#
#
#
# Elastic Compliance Matrix: (Units=1/GPa)
#
#
# Indices 1 2 3 4 5 6 
#
# 1 0.020822 -0.007468 -0.004711 0.000000 -0.008605 0.000000
# 2 -0.007468 0.012490 0.003047 0.000000 0.006547 0.000000
# 3 -0.004711 0.003047 0.011575 0.000000 0.006560 0.000000
# 4 0.000000 0.000000 0.000000 0.026613 0.000000 -0.001315
# 5 -0.008605 0.006547 0.006560 0.000000 0.038249 0.000000
# 6 0.000000 0.000000 0.000000 -0.001315 0.000000 0.062777
#
#
# Mechanical properties :
#
#
# Convention : Reuss Voigt Hill
#
# Bulk Modulus (GPa) = 37.56006 38.65590 38.10798
# Shear Modulus (GPa) = 25.04209 32.81250 28.92730
#
# Velocity S-wave (km/s) = 3.12552 3.57772 3.35923
# Velocity P-wave (km/s) = 5.26091 5.66977 5.46916
#
# Compressibility (1/GPa) = 0.02662402
#
# Stress axis : x y z
#
# Youngs Moduli (GPa) = 48.02564 80.06344 86.39527
#
# Poissons Ratio (x) = 0.59792 0.40697
# Poissons Ratio (y) = 0.35866 -0.26326
# Poissons Ratio (z) = 0.22623 -0.24397
#
# Static dielectric constant tensor:
#      x y z
#    x 2.004030 0.000000 -0.068810 
#    y 0.000000 2.015440 0.000000 
#    z -0.068810 0.000000 2.194120 
# 
# From -- ./inp_files/2558.got.cif
#   From: 2010.05.17/outbox.cif.g08.bks.cpg/sg9_2_cif.got.tgz:2558.got - 2010.06.03 20:04:27.
