data_PCOD9136679
_publ_section_title
;
Structure prediction by ZEFSAII (Michael W. Deem and Ramdas Pophale) SiO2 
 PCOD9136679
Probable space group: C C
;
_chemical_formula_sum "Si O2"
_cell_formula_units_Z 32
_cell_length_a 21.969271
_cell_length_b 9.410640
_cell_length_c 16.805196
_cell_angle_alpha 90.000000
_cell_angle_beta 23.290021
_cell_angle_gamma 90.000000
_cell_volume 1373.722982
_symmetry_space_group_name_H-M "C C"
_symmetry_group_IT_number 9
_symmetry_cell_setting 'monoclinic'
loop_
_space_group_symop_operation_xyz
x,y,z
x,-y,1/2+z
1/2+x,1/2+y,z
1/2+x,1/2-y,1/2+z
loop_
_atom_site_type_symbol
_atom_site_label
_atom_site_fract_x
_atom_site_fract_y
_atom_site_fract_z
Si Si1 0.335220 0.715235 0.600490
Si Si2 0.995794 0.661097 0.057901
Si Si3 0.284057 0.075815 0.777846
Si Si4 0.367420 0.900142 0.413979
Si Si5 0.289690 0.163742 0.593820
Si Si6 0.947027 0.928445 0.478436
Si Si7 0.216318 0.302714 0.973452
Si Si8 0.946536 0.036129 0.663993
O O1 0.440221 0.797291 0.536547
O O2 0.297603 0.822094 0.575328
O O3 0.427074 0.579012 0.458470
O O4 0.179659 0.664889 0.832298
O O5 0.917319 0.508778 0.164902
O O6 0.931755 0.793463 0.186033
O O7 0.321553 0.085758 0.639799
O O8 0.253427 0.236044 0.842731
O O9 0.120861 0.996893 0.980930
O O10 0.263836 0.831785 0.469868
O O11 0.369087 0.068188 0.430149
O O12 0.541341 0.847506 0.192936
O O13 0.110762 0.149449 0.786094
O O14 0.338245 0.322425 0.559107
O O15 0.929824 0.983891 0.591487
O O16 0.326023 0.438347 0.855444
#
# Coordination Sequence:
#
# PCOD9136679 Si02
#       8
#     4   4   4   4   4   4   4   4
#     4  11  22  40  64 103 131 173 223 280 341 402
#     4  11  21  39  73  96 133 171 231 291 330 390
#     4  11  22  42  66 102 130 175 230 285 332 407
#     4  12  25  43  66  99 137 181 222 275 352 419
#     4  11  23  43  67 100 133 174 235 280 331 404
#     4  10  23  38  70  97 132 167 232 288 327 389
#     4  12  25  42  70  95 141 182 220 281 355 412
#     4  10  21  43  62 102 131 175 227 280 338 407
#
# _framework density 23.294360000000001
#
# number of rings (size 3 to 8) (size 9 to 14) (size 15 to 20)
#    0.000    1.000    5.000    3.000    1.750    2.000 
#    0.000    3.750    0.000    0.000    0.000    0.000 
#    0.000    0.000    0.000    0.000    0.000    0.000 
#
# Total GULP energy -89324.285397 kJ/mol
# GULP energy per Si atom -5582.767837 kJ/mol
# Density = 2.324134 g / cm^3
# Si number density = 23.294360 Si / 1000 Ang^3
#
#
#
# Elastic Constant Matrix: (Units=GPa)
#
#
# Indices 1 2 3 4 5 6 
#
# 1 38.7730 -3.8091 5.0214 0.0000 -7.3285 0.0000
# 2 -3.8091 63.1984 23.7390 0.0000 5.5744 0.0000
# 3 5.0214 23.7390 83.1304 0.0000 -15.1624 0.0000
# 4 0.0000 0.0000 0.0000 31.2903 0.0000 2.0509
# 5 -7.3285 5.5744 -15.1624 0.0000 21.7247 0.0000
# 6 0.0000 0.0000 0.0000 2.0509 0.0000 30.3369
#
#
#
# Elastic Compliance Matrix: (Units=1/GPa)
#
#
# Indices 1 2 3 4 5 6 
#
# 1 0.027601 0.001020 -0.000353 0.000000 0.008803 0.000000
# 2 0.001020 0.019552 -0.007445 0.000000 -0.009869 0.000000
# 3 -0.000353 -0.007445 0.016619 0.000000 0.013390 0.000000
# 4 0.000000 0.000000 0.000000 0.032101 0.000000 -0.002170
# 5 0.008803 -0.009869 0.013390 0.000000 0.060878 0.000000
# 6 0.000000 0.000000 0.000000 -0.002170 0.000000 0.033110
#
#
# Mechanical properties :
#
#
# Convention : Reuss Voigt Hill
#
# Bulk Modulus (GPa) = 19.91423 26.11160 23.01291
# Shear Modulus (GPa) = 22.71133 27.34707 25.02920
#
# Velocity S-wave (km/s) = 3.12584 3.43005 3.28147
# Velocity P-wave (km/s) = 4.64708 5.18852 4.92525
#
# Compressibility (1/GPa) = 0.05021534
#
# Stress axis : x y z
#
# Youngs Moduli (GPa) = 36.23075 51.14667 60.17269
#
# Poissons Ratio (x) = -0.05215 0.02123
# Poissons Ratio (y) = -0.03694 0.44798
# Poissons Ratio (z) = 0.01278 0.38078
#
# Static dielectric constant tensor:
#      x y z
#    x 1.873810 0.000000 0.043090 
#    y 0.000000 1.929160 0.000000 
#    z 0.043090 0.000000 1.884630 
# 
# From -- ./inp_files/11349.got.cif
#   From: 2010.05.17/outbox.cif.g08.bks.cpg/sg9_6_cif.got.tgz:11349.got - 2010.06.03 20:04:27.
