data_PCOD9136306
_publ_section_title
;
Structure prediction by ZEFSAII (Michael W. Deem and Ramdas Pophale) SiO2 
 PCOD9136306
Probable space group: C C
;
_chemical_formula_sum "Si O2"
_cell_formula_units_Z 32
_cell_length_a 12.776519
_cell_length_b 19.125738
_cell_length_c 5.536167
_cell_angle_alpha 90.000000
_cell_angle_beta 96.356381
_cell_angle_gamma 90.000000
_cell_volume 1344.503263
_symmetry_space_group_name_H-M "C C"
_symmetry_group_IT_number 9
_symmetry_cell_setting 'monoclinic'
loop_
_space_group_symop_operation_xyz
x,y,z
x,-y,1/2+z
1/2+x,1/2+y,z
1/2+x,1/2-y,1/2+z
loop_
_atom_site_type_symbol
_atom_site_label
_atom_site_fract_x
_atom_site_fract_y
_atom_site_fract_z
Si Si1 0.703820 0.734683 0.740830
Si Si2 0.609518 0.367527 0.605597
Si Si3 0.790692 0.814290 0.151158
Si Si4 0.811908 0.455826 0.758989
Si Si5 0.066872 0.730136 0.827947
Si Si6 0.380761 0.187998 0.447937
Si Si7 0.002633 0.019581 0.803139
Si Si8 0.769031 0.977352 0.194880
O O1 0.598874 0.772507 0.616204
O O2 0.768761 0.692157 0.558813
O O3 0.675673 0.680335 0.939487
O O4 0.780614 0.793379 0.868484
O O5 0.693238 0.424371 0.719576
O O6 0.558546 0.313185 0.776200
O O7 0.520224 0.405586 0.428954
O O8 0.674587 0.797730 0.232240
O O9 0.872544 0.759256 0.287854
O O10 0.798903 0.896137 0.188729
O O11 0.827015 0.497569 0.507933
O O12 0.882295 0.384945 0.803748
O O13 0.970647 0.692943 0.673835
O O14 0.885614 0.988661 0.734925
O O15 0.045714 0.025623 0.541602
O O16 0.715302 0.997398 0.434061
#
# Coordination Sequence:
#
# PCOD9136306 Si02
#       8
#     4   4   4   4   4   4   4   4
#     4  10  21  40  65  98 127 170 231 283 349 403
#     4  11  21  40  61  96 129 171 226 281 349 405
#     4  10  22  43  67  94 129 175 224 286 346 408
#     4  12  25  42  68  96 142 191 229 286 353 423
#     4  10  23  39  66  97 125 169 237 291 333 408
#     4  11  23  43  67  98 136 178 239 286 346 419
#     4  10  22  36  56  93 130 166 209 259 333 417
#     4  10  23  41  64  96 134 174 217 272 351 415
#
# _framework density 23.800609000000001
#
# number of rings (size 3 to 8) (size 9 to 14) (size 15 to 20)
#    0.000    1.500    3.750    2.250    5.250    3.000 
#    0.000    1.250    0.000    0.000    0.000    0.000 
#    0.000    0.000    0.000    0.000    0.000    0.000 
#
# Total GULP energy -89192.283621 kJ/mol
# GULP energy per Si atom -5574.517726 kJ/mol
# Density = 2.374644 g / cm^3
# Si number density = 23.800609 Si / 1000 Ang^3
#
#
#
# Elastic Constant Matrix: (Units=GPa)
#
#
# Indices 1 2 3 4 5 6 
#
# 1 41.4394 -1.3748 10.2507 0.0000 16.6207 0.0000
# 2 -1.3748 118.5852 56.0775 0.0000 3.3549 0.0000
# 3 10.2507 56.0775 160.9168 0.0000 7.3620 0.0000
# 4 0.0000 0.0000 0.0000 47.3616 0.0000 9.6902
# 5 16.6207 3.3549 7.3620 0.0000 25.2802 0.0000
# 6 0.0000 0.0000 0.0000 9.6902 0.0000 22.1654
#
#
#
# Elastic Compliance Matrix: (Units=1/GPa)
#
#
# Indices 1 2 3 4 5 6 
#
# 1 0.033304 0.001836 -0.001772 0.000000 -0.021623 0.000000
# 2 0.001836 0.010200 -0.003602 0.000000 -0.001512 0.000000
# 3 -0.001772 -0.003602 0.007609 0.000000 -0.000573 0.000000
# 4 0.000000 0.000000 0.000000 0.023188 0.000000 -0.010137
# 5 -0.021623 -0.001512 -0.000573 0.000000 0.054141 0.000000
# 6 0.000000 0.000000 0.000000 -0.010137 0.000000 0.049547
#
#
# Mechanical properties :
#
#
# Convention : Reuss Voigt Hill
#
# Bulk Modulus (GPa) = 22.70888 50.09423 36.40156
# Shear Modulus (GPa) = 25.03193 36.02732 30.52963
#
# Velocity S-wave (km/s) = 3.24656 3.89487 3.58540
# Velocity P-wave (km/s) = 4.85959 6.42805 5.69804
#
# Compressibility (1/GPa) = 0.04403563
#
# Stress axis : x y z
#
# Youngs Moduli (GPa) = 30.02670 98.03561 131.42511
#
# Poissons Ratio (x) = -0.17997 0.23288
# Poissons Ratio (y) = -0.05512 0.47346
# Poissons Ratio (z) = 0.05321 0.35317
#
# Static dielectric constant tensor:
#      x y z
#    x 1.952560 0.000000 -0.031610 
#    y 0.000000 1.994940 0.000000 
#    z -0.031610 0.000000 2.077280 
# 
# From -- ./inp_files/2515.got.cif
#   From: 2010.05.17/outbox.cif.g08.bks.cpg/sg9_2_cif.got.tgz:2515.got - 2010.06.03 20:04:27.
