data_PCOD9136344
_publ_section_title
;
Structure prediction by ZEFSAII (Michael W. Deem and Ramdas Pophale) SiO2 
 PCOD9136344
Probable space group: C C
;
_chemical_formula_sum "Si O2"
_cell_formula_units_Z 32
_cell_length_a 25.528633
_cell_length_b 8.650573
_cell_length_c 13.778748
_cell_angle_alpha 90.000000
_cell_angle_beta 24.322302
_cell_angle_gamma 90.000000
_cell_volume 1253.260603
_symmetry_space_group_name_H-M "C C"
_symmetry_group_IT_number 9
_symmetry_cell_setting 'monoclinic'
loop_
_space_group_symop_operation_xyz
x,y,z
x,-y,1/2+z
1/2+x,1/2+y,z
1/2+x,1/2-y,1/2+z
loop_
_atom_site_type_symbol
_atom_site_label
_atom_site_fract_x
_atom_site_fract_y
_atom_site_fract_z
Si Si1 0.504180 0.590597 0.305350
Si Si2 0.160121 0.475977 0.981041
Si Si3 0.808171 0.902737 0.542986
Si Si4 0.480753 0.648199 0.992873
Si Si5 0.378483 0.097794 0.935850
Si Si6 0.795477 0.438332 0.259525
Si Si7 0.752424 0.265961 0.945881
Si Si8 0.275021 0.325361 0.976840
O O1 0.448497 0.446074 0.339543
O O2 0.468835 0.526804 0.471484
O O3 0.427817 0.743315 0.404460
O O4 0.651649 0.598596 0.032701
O O5 0.212156 0.642717 0.929706
O O6 0.188150 0.379792 0.033668
O O7 0.014449 0.484810 0.192761
O O8 0.231918 0.383530 0.772950
O O9 0.820148 0.799186 0.427707
O O10 0.737486 0.057127 0.623711
O O11 0.422477 0.636812 0.198508
O O12 0.396497 0.800342 0.104217
O O13 0.620236 0.687799 0.722313
O O14 0.300445 0.991424 0.140088
O O15 0.290945 0.154889 0.994374
O O16 0.824603 0.591424 0.274430
#
# Coordination Sequence:
#
# PCOD9136344 Si02
#       8
#     4   4   4   4   4   4   4   4
#     4  10  23  42  68  94 135 179 222 284 344 410
#     4  11  20  42  71  96 143 181 234 293 350 416
#     4  10  21  40  67  99 131 187 226 281 359 407
#     4  11  21  44  63  95 140 175 228 295 336 409
#     4  11  23  44  70 102 135 187 227 287 351 417
#     4  11  24  44  67 101 139 177 237 282 350 413
#     4  10  22  40  66  98 133 185 228 290 349 424
#     4  10  22  38  68 101 132 179 238 278 345 422
#
# _framework density 25.533394000000001
#
# number of rings (size 3 to 8) (size 9 to 14) (size 15 to 20)
#    0.000    1.500    2.500    3.000    1.750    0.000 
#    4.500    3.750    0.000    0.000    0.000    0.000 
#    0.000    0.000    0.000    0.000    0.000    0.000 
#
# Total GULP energy -89202.581311 kJ/mol
# GULP energy per Si atom -5575.161332 kJ/mol
# Density = 2.547528 g / cm^3
# Si number density = 25.533394 Si / 1000 Ang^3
#
#
#
# Elastic Constant Matrix: (Units=GPa)
#
#
# Indices 1 2 3 4 5 6 
#
# 1 80.2906 19.0253 10.4543 0.0000 15.5525 0.0000
# 2 19.0253 79.3508 21.2274 0.0000 2.4070 0.0000
# 3 10.4543 21.2274 80.6962 0.0000 10.6113 0.0000
# 4 0.0000 0.0000 0.0000 35.2979 0.0000 8.5091
# 5 15.5525 2.4070 10.6113 0.0000 36.7859 0.0000
# 6 0.0000 0.0000 0.0000 8.5091 0.0000 47.8049
#
#
#
# Elastic Compliance Matrix: (Units=1/GPa)
#
#
# Indices 1 2 3 4 5 6 
#
# 1 0.014368 -0.003200 -0.000258 0.000000 -0.005791 0.000000
# 2 -0.003200 0.014270 -0.003528 0.000000 0.001437 0.000000
# 3 -0.000258 -0.003528 0.013834 0.000000 -0.003651 0.000000
# 4 0.000000 0.000000 0.000000 0.029600 0.000000 -0.005269
# 5 -0.005791 0.001437 -0.003651 0.000000 0.030592 0.000000
# 6 0.000000 0.000000 0.000000 -0.005269 0.000000 0.021856
#
#
# Mechanical properties :
#
#
# Convention : Reuss Voigt Hill
#
# Bulk Modulus (GPa) = 35.08906 37.97242 36.53074
# Shear Modulus (GPa) = 33.78543 36.61978 35.20260
#
# Velocity S-wave (km/s) = 3.64151 3.79118 3.71710
# Velocity P-wave (km/s) = 5.60830 5.83678 5.72368
#
# Compressibility (1/GPa) = 0.02849891
#
# Stress axis : x y z
#
# Youngs Moduli (GPa) = 69.59715 70.07810 72.28723
#
# Poissons Ratio (x) = 0.22427 0.01866
# Poissons Ratio (y) = 0.22273 0.25504
# Poissons Ratio (z) = 0.01796 0.24724
#
# Static dielectric constant tensor:
#      x y z
#    x 2.114260 0.000000 0.011220 
#    y 0.000000 2.162070 0.000000 
#    z 0.011220 0.000000 1.979180 
# 
# From -- ./inp_files/20938.got.cif
#   From: 2010.05.17/outbox.cif.g08.bks.cpg/sg9_11_cif.got.tgz:20938.got - 2010.06.03 20:04:27.
