data_PCOD9136304
_publ_section_title
;
Structure prediction by ZEFSAII (Michael W. Deem and Ramdas Pophale) SiO2 
 PCOD9136304
Probable space group: C C
;
_chemical_formula_sum "Si O2"
_cell_formula_units_Z 28
_cell_length_a 15.200229
_cell_length_b 11.281184
_cell_length_c 7.691167
_cell_angle_alpha 90.000000
_cell_angle_beta 54.651315
_cell_angle_gamma 90.000000
_cell_volume 1075.719189
_symmetry_space_group_name_H-M "C C"
_symmetry_group_IT_number 9
_symmetry_cell_setting 'monoclinic'
loop_
_space_group_symop_operation_xyz
x,y,z
x,-y,1/2+z
1/2+x,1/2+y,z
1/2+x,1/2-y,1/2+z
loop_
_atom_site_type_symbol
_atom_site_label
_atom_site_fract_x
_atom_site_fract_y
_atom_site_fract_z
Si Si1 0.274380 0.127153 0.019430
Si Si2 0.566275 0.968586 0.617209
Si Si3 0.988201 0.721487 0.613338
Si Si4 0.684227 0.129513 0.679320
Si Si5 0.442768 0.331288 0.332771
Si Si6 0.931774 0.904172 0.968736
Si Si7 0.826444 0.385447 0.867382
O O1 0.190369 0.234943 0.100320
O O2 0.319482 0.124156 0.166344
O O3 0.367849 0.164930 0.775698
O O4 0.243649 0.989805 0.015953
O O5 0.561441 0.110909 0.582391
O O6 0.666745 0.992733 0.627156
O O7 0.596032 0.879153 0.432235
O O8 0.442514 0.939064 0.799094
O O9 0.015795 0.759470 0.386659
O O10 0.980259 0.832260 0.751542
O O11 0.805074 0.123743 0.615066
O O12 0.480416 0.361141 0.095433
O O13 0.433524 0.456534 0.436781
O O14 0.336530 0.246991 0.432181
#
# Coordination Sequence:
#
# PCOD9136304 Si02
#       7
#     4   4   4   4   4   4   4
#     4  10  22  41  66  99 133 180 242 291 337 433
#     4  11  23  41  69 101 138 180 231 296 368 418
#     4  10  21  40  65  97 132 181 239 283 341 433
#     4  11  23  40  64 102 144 167 228 303 357 415
#     4  12  21  38  71  93 137 179 244 286 342 412
#     4  11  23  39  65 103 134 183 231 289 347 429
#     4  11  21  41  70  99 130 192 243 282 346 440
#
# _framework density 26.029098999999999
#
# number of rings (size 3 to 8) (size 9 to 14) (size 15 to 20)
#    0.000    1.143    4.286    5.143    2.000    0.000 
#    0.000    0.000    6.286    0.000    0.000    0.000 
#    0.000    0.000    0.000    0.000    0.000    0.000 
#
# Total GULP energy -77997.365861 kJ/mol
# GULP energy per Si atom -5571.240419 kJ/mol
# Density = 2.596986 g / cm^3
# Si number density = 26.029099 Si / 1000 Ang^3
#
#
#
# Elastic Constant Matrix: (Units=GPa)
#
#
# Indices 1 2 3 4 5 6 
#
# 1 138.3935 66.3777 74.8317 0.0000 43.6820 0.0000
# 2 66.3777 208.1390 60.2517 0.0000 20.4454 0.0000
# 3 74.8317 60.2517 103.1874 0.0000 48.8142 0.0000
# 4 0.0000 0.0000 0.0000 46.5416 0.0000 7.3090
# 5 43.6820 20.4454 48.8142 0.0000 54.8010 0.0000
# 6 0.0000 0.0000 0.0000 7.3090 0.0000 42.2906
#
#
#
# Elastic Compliance Matrix: (Units=1/GPa)
#
#
# Indices 1 2 3 4 5 6 
#
# 1 0.012760 -0.001851 -0.006374 0.000000 -0.003803 0.000000
# 2 -0.001851 0.006119 -0.003195 0.000000 0.002038 0.000000
# 3 -0.006374 -0.003195 0.022834 0.000000 -0.014066 0.000000
# 4 0.000000 0.000000 0.000000 0.022086 0.000000 -0.003817
# 5 -0.003803 0.002038 -0.014066 0.000000 0.033048 0.000000
# 6 0.000000 0.000000 0.000000 -0.003817 0.000000 0.024306
#
#
# Mechanical properties :
#
#
# Convention : Reuss Voigt Hill
#
# Bulk Modulus (GPa) = 52.98541 94.73802 73.86171
# Shear Modulus (GPa) = 33.27029 45.27724 39.27377
#
# Velocity S-wave (km/s) = 3.57907 4.17524 3.88859
# Velocity P-wave (km/s) = 6.12209 7.72784 6.97135
#
# Compressibility (1/GPa) = 0.01887312
#
# Stress axis : x y z
#
# Youngs Moduli (GPa) = 78.36729 163.41377 43.79513
#
# Poissons Ratio (x) = 0.30243 0.27916
# Poissons Ratio (y) = 0.14503 0.13994
# Poissons Ratio (z) = 0.49952 0.52216
#
# Static dielectric constant tensor:
#      x y z
#    x 1.680610 0.000000 0.007010 
#    y 0.000000 1.919500 0.000000 
#    z 0.007010 0.000000 2.091980 
# 
# From -- ./inp_files/11559.got.cif
#   From: 2010.05.17/outbox.cif.g08.bks.cpg/sg9_6_cif.got.tgz:11559.got - 2010.06.03 20:04:27.
