data_PCOD9136354
_publ_section_title
;
Structure prediction by ZEFSAII (Michael W. Deem and Ramdas Pophale) SiO2 
 PCOD9136354
Probable space group: C C
;
_chemical_formula_sum "Si O2"
_cell_formula_units_Z 32
_cell_length_a 28.734609
_cell_length_b 8.710191
_cell_length_c 17.741501
_cell_angle_alpha 90.000000
_cell_angle_beta 160.610486
_cell_angle_gamma 90.000000
_cell_volume 1474.165942
_symmetry_space_group_name_H-M "C C"
_symmetry_group_IT_number 9
_symmetry_cell_setting 'monoclinic'
loop_
_space_group_symop_operation_xyz
x,y,z
x,-y,1/2+z
1/2+x,1/2+y,z
1/2+x,1/2-y,1/2+z
loop_
_atom_site_type_symbol
_atom_site_label
_atom_site_fract_x
_atom_site_fract_y
_atom_site_fract_z
Si Si1 0.224470 0.146215 0.424390
Si Si2 0.024176 0.217692 0.399577
Si Si3 0.605580 0.360562 0.497427
Si Si4 0.315286 0.266824 0.826883
Si Si5 0.070422 0.142996 0.641254
Si Si6 0.802155 0.163912 0.471407
Si Si7 0.818529 0.507844 0.218215
Si Si8 0.123568 0.630962 0.662765
O O1 0.380204 0.214492 0.648875
O O2 0.125749 0.285238 0.247693
O O3 0.166484 0.006783 0.285636
O O4 0.231326 0.078376 0.519183
O O5 0.154788 0.316905 0.568498
O O6 0.015302 0.205916 0.476876
O O7 0.071817 0.043237 0.455843
O O8 0.723315 0.361347 0.611910
O O9 0.648631 0.255804 0.634548
O O10 0.450088 0.313051 0.235560
O O11 0.314368 0.236901 0.913941
O O12 0.348015 0.116005 0.828776
O O13 0.436921 0.383328 0.989821
O O14 0.177615 0.272916 0.833410
O O15 0.744769 0.999071 0.354306
O O16 0.967731 0.562957 0.414021
#
# Coordination Sequence:
#
# PCOD9136354 Si02
#       8
#     4   4   4   4   4   4   4   4
#     4  12  23  43  74  99 136 191 227 283 361 409
#     4  10  21  41  63  97 135 177 228 285 341 415
#     4  11  24  43  66 101 146 177 235 296 343 414
#     4  10  21  40  68  93 138 182 221 287 349 406
#     4  11  21  41  69  95 133 181 224 281 352 411
#     4  11  23  41  68  99 135 181 231 289 358 411
#     4  11  24  45  67 104 143 179 238 291 343 428
#     4  12  25  46  71 104 140 184 238 294 349 424
#
# _framework density 21.707191999999999
#
# number of rings (size 3 to 8) (size 9 to 14) (size 15 to 20)
#    0.000    1.000    5.000    2.250    0.000    2.000 
#    0.000    1.250    5.500    0.000    0.000    0.000 
#    0.000    0.000    0.000    0.000    0.000    0.000 
#
# Total GULP energy -89103.411163 kJ/mol
# GULP energy per Si atom -5568.963198 kJ/mol
# Density = 2.165779 g / cm^3
# Si number density = 21.707192 Si / 1000 Ang^3
#
#
#
# Elastic Constant Matrix: (Units=GPa)
#
#
# Indices 1 2 3 4 5 6 
#
# 1 71.1913 19.2838 9.9398 0.0000 7.2853 0.0000
# 2 19.2838 68.4169 17.1091 0.0000 -8.2994 0.0000
# 3 9.9398 17.1091 76.6639 0.0000 0.9157 0.0000
# 4 0.0000 0.0000 0.0000 36.6185 0.0000 -6.0267
# 5 7.2853 -8.2994 0.9157 0.0000 27.9781 0.0000
# 6 0.0000 0.0000 0.0000 -6.0267 0.0000 28.1804
#
#
#
# Elastic Compliance Matrix: (Units=1/GPa)
#
#
# Indices 1 2 3 4 5 6 
#
# 1 0.016105 -0.004998 -0.000905 0.000000 -0.005646 0.000000
# 2 -0.004998 0.017677 -0.003376 0.000000 0.006656 0.000000
# 3 -0.000905 -0.003376 0.013929 0.000000 -0.001222 0.000000
# 4 0.000000 0.000000 0.000000 0.028305 0.000000 0.006053
# 5 -0.005646 0.006656 -0.001222 0.000000 0.039227 0.000000
# 6 0.000000 0.000000 0.000000 0.006053 0.000000 0.036780
#
#
# Mechanical properties :
#
#
# Convention : Reuss Voigt Hill
#
# Bulk Modulus (GPa) = 34.30316 34.32639 34.31477
# Shear Modulus (GPa) = 27.73174 29.88469 28.80822
#
# Velocity S-wave (km/s) = 3.57814 3.71444 3.64693
# Velocity P-wave (km/s) = 5.73653 5.85182 5.79446
#
# Compressibility (1/GPa) = 0.02915184
#
# Stress axis : x y z
#
# Youngs Moduli (GPa) = 62.09387 56.57184 71.79051
#
# Poissons Ratio (x) = 0.28273 0.06499
# Poissons Ratio (y) = 0.31033 0.24239
# Poissons Ratio (z) = 0.05621 0.19101
#
# Static dielectric constant tensor:
#      x y z
#    x 1.811710 0.000000 0.020760 
#    y 0.000000 1.914350 0.000000 
#    z 0.020760 0.000000 1.856220 
# 
# From -- ./inp_files/31867.got.cif
#   From: 2010.05.17/outbox.cif.g08.bks.cpg/sg9_16_cif.got.tgz:31867.got - 2010.06.03 20:04:27.
