data_PCOD9136885
_publ_section_title
;
Structure prediction by ZEFSAII (Michael W. Deem and Ramdas Pophale) SiO2 
 PCOD9136885
Probable space group: C C
;
_chemical_formula_sum "Si O2"
_cell_formula_units_Z 28
_cell_length_a 10.021954
_cell_length_b 7.808034
_cell_length_c 26.354284
_cell_angle_alpha 90.000000
_cell_angle_beta 144.755715
_cell_angle_gamma 90.000000
_cell_volume 1190.060668
_symmetry_space_group_name_H-M "C C"
_symmetry_group_IT_number 9
_symmetry_cell_setting 'monoclinic'
loop_
_space_group_symop_operation_xyz
x,y,z
x,-y,1/2+z
1/2+x,1/2+y,z
1/2+x,1/2-y,1/2+z
loop_
_atom_site_type_symbol
_atom_site_label
_atom_site_fract_x
_atom_site_fract_y
_atom_site_fract_z
Si Si1 0.529670 0.075106 0.267570
Si Si2 0.356547 0.358717 0.504780
Si Si3 0.822709 0.267440 0.488166
Si Si4 0.547569 0.409750 0.669817
Si Si5 0.289375 0.248870 0.334288
Si Si6 0.379673 0.871568 0.398820
Si Si7 0.824846 0.719446 0.103515
O O1 0.307068 0.044753 0.232761
O O2 0.700929 0.919875 0.332959
O O3 0.664649 0.248863 0.321898
O O4 0.441935 0.100026 0.182409
O O5 0.370772 0.564558 0.503978
O O6 0.442244 0.316593 0.588352
O O7 0.547897 0.283936 0.526660
O O8 0.084606 0.318977 0.423476
O O9 0.547084 0.289813 0.394676
O O10 0.949190 0.346831 0.479239
O O11 0.878118 0.332289 0.561990
O O12 0.590867 0.290566 0.731153
O O13 0.414939 0.586510 0.638936
O O14 0.316730 0.068918 0.371206
#
# Coordination Sequence:
#
# PCOD9136885 Si02
#       7
#     4   4   4   4   4   4   4
#     4  11  24  44  74 102 141 190 236 294 354 420
#     4   9  23  43  71 100 142 187 233 294 351 425
#     4  10  23  44  68 107 146 177 239 299 345 427
#     4  10  21  45  66 103 145 174 242 301 336 422
#     4  11  24  43  69 106 141 182 236 293 353 424
#     4  11  23  47  74 102 145 187 232 298 358 416
#     4  10  22  46  74 102 146 191 234 295 359 414
#
# _framework density 23.528212
#
# number of rings (size 3 to 8) (size 9 to 14) (size 15 to 20)
#    0.000    1.714    2.857    0.000    2.000    4.571 
#    7.714    5.714    0.000    0.000    0.000    0.000 
#    0.000    0.000    0.000    0.000    0.000    0.000 
#
# Total GULP energy -78286.672575 kJ/mol
# GULP energy per Si atom -5591.905184 kJ/mol
# Density = 2.347466 g / cm^3
# Si number density = 23.528212 Si / 1000 Ang^3
#
#
#
# Elastic Constant Matrix: (Units=GPa)
#
#
# Indices 1 2 3 4 5 6 
#
# 1 108.9153 42.2439 23.3751 0.0000 10.4798 0.0000
# 2 42.2439 78.9109 28.8078 0.0000 22.4047 0.0000
# 3 23.3751 28.8078 72.0908 0.0000 5.8576 0.0000
# 4 0.0000 0.0000 0.0000 29.6817 0.0000 5.8493
# 5 10.4798 22.4047 5.8576 0.0000 44.5827 0.0000
# 6 0.0000 0.0000 0.0000 5.8493 0.0000 27.9220
#
#
#
# Elastic Compliance Matrix: (Units=1/GPa)
#
#
# Indices 1 2 3 4 5 6 
#
# 1 0.011732 -0.005839 -0.001501 0.000000 0.000374 0.000000
# 2 -0.005839 0.020067 -0.005476 0.000000 -0.007992 0.000000
# 3 -0.001501 -0.005476 0.016470 0.000000 0.000941 0.000000
# 4 0.000000 0.000000 0.000000 0.035142 0.000000 -0.007362
# 5 0.000374 -0.007992 0.000941 0.000000 0.026235 0.000000
# 6 0.000000 0.000000 0.000000 -0.007362 0.000000 0.037356
#
#
# Mechanical properties :
#
#
# Convention : Reuss Voigt Hill
#
# Bulk Modulus (GPa) = 44.17627 49.86339 47.01983
# Shear Modulus (GPa) = 27.75006 31.46996 29.61001
#
# Velocity S-wave (km/s) = 3.43802 3.66121 3.55137
# Velocity P-wave (km/s) = 5.88019 6.25393 6.06994
#
# Compressibility (1/GPa) = 0.02263659
#
# Stress axis : x y z
#
# Youngs Moduli (GPa) = 85.23461 49.83410 60.71639
#
# Poissons Ratio (x) = 0.29097 0.09116
# Poissons Ratio (y) = 0.49766 0.33249
# Poissons Ratio (z) = 0.12797 0.27290
#
# Static dielectric constant tensor:
#      x y z
#    x 1.928460 0.000000 -0.059680 
#    y 0.000000 1.821240 0.000000 
#    z -0.059680 0.000000 1.940600 
# 
# From -- ./inp_files/28926.got.cif
#   From: 2010.05.17/outbox.cif.g08.bks.cpg/sg9_15_cif.got.tgz:28926.got - 2010.06.03 20:04:27.
