data_PCOD9136718
_publ_section_title
;
Structure prediction by ZEFSAII (Michael W. Deem and Ramdas Pophale) SiO2 
 PCOD9136718
Probable space group: C C
;
_chemical_formula_sum "Si O2"
_cell_formula_units_Z 28
_cell_length_a 12.343279
_cell_length_b 12.254649
_cell_length_c 8.923483
_cell_angle_alpha 90.000000
_cell_angle_beta 64.638626
_cell_angle_gamma 90.000000
_cell_volume 1219.701906
_symmetry_space_group_name_H-M "C C"
_symmetry_group_IT_number 9
_symmetry_cell_setting 'monoclinic'
loop_
_space_group_symop_operation_xyz
x,y,z
x,-y,1/2+z
1/2+x,1/2+y,z
1/2+x,1/2-y,1/2+z
loop_
_atom_site_type_symbol
_atom_site_label
_atom_site_fract_x
_atom_site_fract_y
_atom_site_fract_z
Si Si1 0.755100 0.818479 0.469390
Si Si2 0.388757 0.921114 0.316494
Si Si3 0.480401 0.590466 0.694035
Si Si4 0.043288 0.245527 0.397953
Si Si5 0.651181 0.396856 0.580340
Si Si6 0.401879 0.885545 0.963983
Si Si7 0.130583 0.245380 0.817179
O O1 0.854713 0.904098 0.355994
O O2 0.635805 0.818387 0.439494
O O3 0.815116 0.697285 0.424866
O O4 0.717777 0.819403 0.666014
O O5 0.455099 0.817745 0.348654
O O6 0.274996 0.961869 0.486878
O O7 0.362179 0.915296 0.157422
O O8 0.464086 0.028110 0.314170
O O9 0.471107 0.668990 0.555835
O O10 0.537726 0.474510 0.616445
O O11 0.580243 0.647911 0.741120
O O12 0.123095 0.164996 0.248840
O O13 0.681472 0.307453 0.436030
O O14 0.514419 0.808323 0.938004
#
# Coordination Sequence:
#
# PCOD9136718 Si02
#       7
#     4   4   4   4   4   4   4
#     4  10  22  46  68  97 138 185 221 284 351 408
#     4  12  26  41  69 102 134 180 235 287 341 417
#     4  10  23  39  70 100 135 180 229 284 348 417
#     4  11  24  43  65 100 141 176 227 285 347 414
#     4  12  23  42  70 104 134 176 234 289 342 410
#     4  11  25  42  68  99 132 183 235 282 345 415
#     4  10  21  43  66  96 140 178 227 285 352 409
#
# _framework density 22.956429
#
# number of rings (size 3 to 8) (size 9 to 14) (size 15 to 20)
#    0.000    1.143    2.857    3.429   10.000    0.000 
#    0.000    7.143    0.000    0.000    0.000    0.000 
#    0.000    0.000    0.000    0.000    0.000    0.000 
#
# Total GULP energy -78114.383892 kJ/mol
# GULP energy per Si atom -5579.598849 kJ/mol
# Density = 2.290418 g / cm^3
# Si number density = 22.956429 Si / 1000 Ang^3
#
#
#
# Elastic Constant Matrix: (Units=GPa)
#
#
# Indices 1 2 3 4 5 6 
#
# 1 57.3643 3.0900 34.8805 0.0000 6.5638 0.0000
# 2 3.0900 24.7103 15.9534 0.0000 4.5575 0.0000
# 3 34.8805 15.9534 135.8237 0.0000 -7.5146 0.0000
# 4 0.0000 0.0000 0.0000 23.5315 0.0000 9.3814
# 5 6.5638 4.5575 -7.5146 0.0000 39.1092 0.0000
# 6 0.0000 0.0000 0.0000 9.3814 0.0000 7.9771
#
#
#
# Elastic Compliance Matrix: (Units=1/GPa)
#
#
# Indices 1 2 3 4 5 6 
#
# 1 0.021588 0.002153 -0.006076 0.000000 -0.005041 0.000000
# 2 0.002153 0.045522 -0.006280 0.000000 -0.006873 0.000000
# 3 -0.006076 -0.006280 0.009862 0.000000 0.003646 0.000000
# 4 0.000000 0.000000 0.000000 0.080010 0.000000 -0.094095
# 5 -0.005041 -0.006873 0.003646 0.000000 0.027917 0.000000
# 6 0.000000 0.000000 0.000000 -0.094095 0.000000 0.236020
#
#
# Mechanical properties :
#
#
# Convention : Reuss Voigt Hill
#
# Bulk Modulus (GPa) = 17.67847 36.19403 26.93625
# Shear Modulus (GPa) = 10.86532 25.05516 17.96024
#
# Velocity S-wave (km/s) = 2.17791 3.30725 2.80011
# Velocity P-wave (km/s) = 3.74726 5.51222 4.71309
#
# Compressibility (1/GPa) = 0.05656597
#
# Stress axis : x y z
#
# Youngs Moduli (GPa) = 46.32285 21.96751 101.39811
#
# Poissons Ratio (x) = -0.04729 0.61606
# Poissons Ratio (y) = -0.09972 0.63677
# Poissons Ratio (z) = 0.28144 0.13795
#
# Static dielectric constant tensor:
#      x y z
#    x 1.876440 0.000000 -0.052580 
#    y 0.000000 1.890900 0.000000 
#    z -0.052580 0.000000 1.867130 
# 
# From -- ./inp_files/9017.got.cif
#   From: 2010.05.17/outbox.cif.g08.bks.cpg/sg9_5_cif.got.tgz:9017.got - 2010.06.03 20:04:27.
