data_PCOD9136187
_publ_section_title
;
Structure prediction by ZEFSAII (Michael W. Deem and Ramdas Pophale) SiO2 
 PCOD9136187
Probable space group: C C
;
_chemical_formula_sum "Si O2"
_cell_formula_units_Z 32
_cell_length_a 6.754439
_cell_length_b 7.963566
_cell_length_c 22.908339
_cell_angle_alpha 90.000000
_cell_angle_beta 96.782824
_cell_angle_gamma 90.000000
_cell_volume 1223.601883
_symmetry_space_group_name_H-M "C C"
_symmetry_group_IT_number 9
_symmetry_cell_setting 'monoclinic'
loop_
_space_group_symop_operation_xyz
x,y,z
x,-y,1/2+z
1/2+x,1/2+y,z
1/2+x,1/2-y,1/2+z
loop_
_atom_site_type_symbol
_atom_site_label
_atom_site_fract_x
_atom_site_fract_y
_atom_site_fract_z
Si Si1 0.239020 0.933250 0.900020
Si Si2 0.022742 0.441945 0.807034
Si Si3 0.312644 0.557337 0.917785
Si Si4 0.075643 0.367864 0.631612
Si Si5 0.489414 0.563240 0.042150
Si Si6 0.370361 0.411895 0.162902
Si Si7 0.728202 0.663202 0.732509
Si Si8 0.929684 0.539838 0.520513
O O1 0.323368 0.906728 0.838318
O O2 0.041487 0.044747 0.900377
O O3 0.220510 0.742600 0.920895
O O4 0.405906 0.000415 0.951221
O O5 0.930294 0.593968 0.765960
O O6 0.183952 0.472521 0.863204
O O7 0.126539 0.303564 0.770326
O O8 0.346215 0.492564 0.985072
O O9 0.427551 0.501258 0.603471
O O10 0.146244 0.536351 0.664239
O O11 0.233796 0.237885 0.666320
O O12 0.049795 0.404139 0.563097
O O13 0.705339 0.486605 0.036417
O O14 0.493477 0.766758 0.034838
O O15 0.535284 0.459956 0.216416
O O16 0.379076 0.213614 0.151167
#
# Coordination Sequence:
#
# PCOD9136187 Si02
#       8
#     4   4   4   4   4   4   4   4
#     4  10  23  42  68 105 139 183 237 300 368 437
#     4  12  24  48  70 100 144 192 244 296 366 438
#     4  10  23  42  68 105 139 183 237 300 368 437
#     4  10  23  42  64 102 136 186 238 298 361 436
#     4  10  21  39  67 102 141 181 233 301 371 441
#     4  10  23  42  64 102 136 186 238 298 361 436
#     4  10  28  42  68 102 138 200 248 302 362 440
#     4  10  21  39  67 102 141 181 233 301 371 441
#
# _framework density 26.152297999999998
#
# number of rings (size 3 to 8) (size 9 to 14) (size 15 to 20)
#    0.750    1.000    0.000    3.000    3.500    3.000 
#    2.250    0.000    0.000    0.000    0.000    0.000 
#    0.000    0.000    0.000    0.000    0.000    0.000 
#
# Total GULP energy -89249.066627 kJ/mol
# GULP energy per Si atom -5578.066664 kJ/mol
# Density = 2.609277 g / cm^3
# Si number density = 26.152298 Si / 1000 Ang^3
#
#
#
# Elastic Constant Matrix: (Units=GPa)
#
#
# Indices 1 2 3 4 5 6 
#
# 1 81.6847 52.1193 48.5793 0.0000 10.6645 0.0000
# 2 52.1193 96.2322 39.4016 0.0000 4.9211 0.0000
# 3 48.5793 39.4016 173.5245 0.0000 14.1530 0.0000
# 4 0.0000 0.0000 0.0000 49.8139 0.0000 -0.7952
# 5 10.6645 4.9211 14.1530 0.0000 47.9869 0.0000
# 6 0.0000 0.0000 0.0000 -0.7952 0.0000 52.0335
#
#
#
# Elastic Compliance Matrix: (Units=1/GPa)
#
#
# Indices 1 2 3 4 5 6 
#
# 1 0.020834 -0.009756 -0.003403 0.000000 -0.002626 0.000000
# 2 -0.009756 0.016033 -0.000976 0.000000 0.000812 0.000000
# 3 -0.003403 -0.000976 0.007037 0.000000 -0.001219 0.000000
# 4 0.000000 0.000000 0.000000 0.020080 0.000000 0.000307
# 5 -0.002626 0.000812 -0.001219 0.000000 0.021699 0.000000
# 6 0.000000 0.000000 0.000000 0.000307 0.000000 0.019223
#
#
# Mechanical properties :
#
#
# Convention : Reuss Voigt Hill
#
# Bulk Modulus (GPa) = 63.96179 70.18242 67.07211
# Shear Modulus (GPa) = 36.13091 44.05627 40.09359
#
# Velocity S-wave (km/s) = 3.72096 4.10885 3.91971
# Velocity P-wave (km/s) = 6.55525 7.02883 6.79617
#
# Compressibility (1/GPa) = 0.01563433
#
# Stress axis : x y z
#
# Youngs Moduli (GPa) = 47.99918 62.37041 142.11515
#
# Poissons Ratio (x) = 0.60848 0.48364
# Poissons Ratio (y) = 0.46827 0.13865
# Poissons Ratio (z) = 0.16335 0.06085
#
# Static dielectric constant tensor:
#      x y z
#    x 2.236030 0.000000 -0.015990 
#    y 0.000000 2.162990 0.000000 
#    z -0.015990 0.000000 2.123370 
# 
# From -- ./inp_files/32409.got.cif
#   From: 2010.05.17/outbox.cif.g08.bks.cpg/sg9_17_cif.got.tgz:32409.got - 2010.06.03 20:04:27.
