data_PCOD9136611
_publ_section_title
;
Structure prediction by ZEFSAII (Michael W. Deem and Ramdas Pophale) SiO2 
 PCOD9136611
Probable space group: C C
;
_chemical_formula_sum "Si O2"
_cell_formula_units_Z 28
_cell_length_a 18.601665
_cell_length_b 7.794100
_cell_length_c 25.819568
_cell_angle_alpha 90.000000
_cell_angle_beta 163.981427
_cell_angle_gamma 90.000000
_cell_volume 1032.988533
_symmetry_space_group_name_H-M "C C"
_symmetry_group_IT_number 9
_symmetry_cell_setting 'monoclinic'
loop_
_space_group_symop_operation_xyz
x,y,z
x,-y,1/2+z
1/2+x,1/2+y,z
1/2+x,1/2-y,1/2+z
loop_
_atom_site_type_symbol
_atom_site_label
_atom_site_fract_x
_atom_site_fract_y
_atom_site_fract_z
Si Si1 0.494370 0.282276 0.179970
Si Si2 0.855879 0.274402 0.062877
Si Si3 0.654129 0.540957 0.086839
Si Si4 0.955343 0.425468 0.553424
Si Si5 0.240114 0.655151 0.152959
Si Si6 0.620471 0.033484 0.832226
Si Si7 0.515396 0.853772 0.925498
O O1 0.701172 0.422110 0.341102
O O2 0.447472 0.233634 0.088206
O O3 0.636528 0.109737 0.300129
O O4 0.228473 0.304633 0.028596
O O5 0.549327 0.313705 0.862110
O O6 0.848617 0.094491 0.027935
O O7 0.945081 0.411244 0.082551
O O8 0.010693 0.304520 0.222999
O O9 0.590187 0.337895 0.044363
O O10 0.899713 0.533635 0.218050
O O11 0.757412 0.596893 0.214900
O O12 0.489648 0.696180 0.948057
O O13 0.189977 0.414867 0.675786
O O14 0.132083 0.517084 0.037246
#
# Coordination Sequence:
#
# PCOD9136611 Si02
#       7
#     4   4   4   4   4   4   4
#     4  10  21  42  67  97 133 182 228 287 350 423
#     4  10  22  42  66  97 134 184 225 293 349 421
#     4  10  25  40  70 107 132 189 233 290 351 425
#     4  11  24  41  67  97 136 180 236 287 351 419
#     4  11  26  42  72 104 141 186 237 292 355 423
#     4   9  21  37  67  97 129 177 233 277 357 413
#     4  11  23  46  73 101 143 188 236 290 361 426
#
# _framework density 27.105819
#
# number of rings (size 3 to 8) (size 9 to 14) (size 15 to 20)
#    0.000    1.714    1.429    1.714   14.000    1.143 
#    2.571    1.429    0.000    0.000    0.000    0.000 
#    0.000    0.000    0.000    0.000    0.000    0.000 
#
# Total GULP energy -78447.484064 kJ/mol
# GULP energy per Si atom -5603.391719 kJ/mol
# Density = 2.704412 g / cm^3
# Si number density = 27.105819 Si / 1000 Ang^3
#
#
#
# Elastic Constant Matrix: (Units=GPa)
#
#
# Indices 1 2 3 4 5 6 
#
# 1 155.7333 29.5956 57.3188 0.0481 -9.1899 -0.0005
# 2 29.5956 135.6294 47.6067 0.0160 -16.6866 -0.0067
# 3 57.3188 47.6067 127.8464 -0.1788 -42.8317 -0.0458
# 4 0.0481 0.0160 -0.1788 35.7651 -0.0306 -24.4918
# 5 -9.1899 -16.6866 -42.8317 -0.0306 60.5419 0.0087
# 6 -0.0005 -0.0067 -0.0458 -24.4918 0.0087 35.9636
#
#
#
# Elastic Compliance Matrix: (Units=1/GPa)
#
#
# Indices 1 2 3 4 5 6 
#
# 1 0.007858 -0.000561 -0.003888 -0.000064 -0.001712 -0.000048
# 2 -0.000561 0.008522 -0.002836 -0.000035 0.000257 -0.000026
# 3 -0.003888 -0.002836 0.013319 0.000168 0.008051 0.000129
# 4 -0.000064 -0.000035 0.000168 0.052397 0.000121 0.035684
# 5 -0.001712 0.000257 0.008051 0.000121 0.022024 0.000088
# 6 -0.000048 -0.000026 0.000129 0.035684 0.000088 0.052107
#
#
# Mechanical properties :
#
#
# Convention : Reuss Voigt Hill
#
# Bulk Modulus (GPa) = 66.09578 76.47237 71.28407
# Shear Modulus (GPa) = 28.43494 45.43332 36.93413
#
# Velocity S-wave (km/s) = 3.24239 4.09852 3.69533
# Velocity P-wave (km/s) = 6.20119 7.11835 6.67554
#
# Compressibility (1/GPa) = 0.01512956
#
# Stress axis : x y z
#
# Youngs Moduli (GPa) = 127.26287 117.33647 75.08302
#
# Poissons Ratio (x) = 0.06578 0.29192
# Poissons Ratio (y) = 0.07134 0.21294
# Poissons Ratio (z) = 0.49480 0.33277
#
# Static dielectric constant tensor:
#      x y z
#    x 2.031560 -0.000030 0.033700 
#    y -0.000030 2.243350 -0.000080 
#    z 0.033700 -0.000080 2.142470 
# 
# From -- ./inp_files/35824.got.cif
#   From: 2010.05.17/outbox.cif.g08.bks.cpg/sg9_18_cif.got.tgz:35824.got - 2010.06.03 20:04:27.
