data_PCOD9136623
_publ_section_title
;
Structure prediction by ZEFSAII (Michael W. Deem and Ramdas Pophale) SiO2 
 PCOD9136623
Probable space group: C C
;
_chemical_formula_sum "Si O2"
_cell_formula_units_Z 32
_cell_length_a 7.316795
_cell_length_b 11.495083
_cell_length_c 26.676515
_cell_angle_alpha 90.000000
_cell_angle_beta 142.531274
_cell_angle_gamma 90.000000
_cell_volume 1364.897731
_symmetry_space_group_name_H-M "C C"
_symmetry_group_IT_number 9
_symmetry_cell_setting 'monoclinic'
loop_
_space_group_symop_operation_xyz
x,y,z
x,-y,1/2+z
1/2+x,1/2+y,z
1/2+x,1/2-y,1/2+z
loop_
_atom_site_type_symbol
_atom_site_label
_atom_site_fract_x
_atom_site_fract_y
_atom_site_fract_z
Si Si1 0.891600 0.455892 0.817020
Si Si2 0.286207 0.076992 0.012026
Si Si3 0.588497 0.973962 0.224262
Si Si4 0.518715 0.150165 0.918670
Si Si5 0.940448 0.106582 0.367161
Si Si6 0.786029 0.081463 0.657743
Si Si7 0.133815 0.156424 0.092088
Si Si8 0.934036 0.204140 0.854935
O O1 0.621522 0.535489 0.739071
O O2 0.816377 0.333323 0.825468
O O3 0.054464 0.535191 0.893975
O O4 0.117587 0.410672 0.823475
O O5 0.201073 0.113976 0.049955
O O6 0.617643 0.021929 0.090775
O O7 0.138956 0.182401 0.948321
O O8 0.140754 0.971259 0.947750
O O9 0.627559 0.916272 0.178286
O O10 0.648854 0.877368 0.280108
O O11 0.872049 0.058656 0.297399
O O12 0.297635 0.056540 0.160075
O O13 0.559000 0.263802 0.893248
O O14 0.185066 0.166950 0.867892
O O15 0.772006 0.156212 0.016612
O O16 0.753661 0.212439 0.628784
#
# Coordination Sequence:
#
# PCOD9136623 Si02
#       8
#     4   4   4   4   4   4   4   4
#     4  11  23  41  66  99 130 178 226 265 338 408
#     4  10  22  43  62  97 133 169 223 279 328 391
#     4  10  23  42  65  96 135 173 218 280 334 388
#     4  11  21  41  69  95 131 177 221 273 331 399
#     4  10  21  42  68  94 128 175 223 273 329 395
#     4  11  23  44  66  97 135 176 224 277 338 397
#     4  11  23  40  70  97 132 179 218 278 339 392
#     4  10  24  43  66  95 136 179 221 279 329 400
#
# _framework density 23.444979
#
# number of rings (size 3 to 8) (size 9 to 14) (size 15 to 20)
#    0.000    1.500    3.750    0.750    1.750    3.000 
#   11.250    0.000    0.000    0.000    0.000    0.000 
#    0.000    0.000    0.000    0.000    0.000    0.000 
#
# Total GULP energy -89190.044465 kJ/mol
# GULP energy per Si atom -5574.377779 kJ/mol
# Density = 2.339162 g / cm^3
# Si number density = 23.444979 Si / 1000 Ang^3
#
#
#
# Elastic Constant Matrix: (Units=GPa)
#
#
# Indices 1 2 3 4 5 6 
#
# 1 32.3805 21.6118 10.3473 0.0000 0.8191 0.0000
# 2 21.6118 147.3680 60.4500 0.0000 11.5809 0.0000
# 3 10.3473 60.4500 144.1093 -0.0001 5.5010 0.0000
# 4 0.0000 0.0000 -0.0001 42.8240 0.0000 -3.7539
# 5 0.8191 11.5809 5.5010 0.0000 38.4035 0.0000
# 6 0.0000 0.0000 0.0000 -3.7539 0.0000 20.5706
#
#
#
# Elastic Compliance Matrix: (Units=1/GPa)
#
#
# Indices 1 2 3 4 5 6 
#
# 1 0.034280 -0.004914 -0.000431 0.000000 0.000813 0.000000
# 2 -0.004914 0.009055 -0.003363 0.000000 -0.002144 0.000000
# 3 -0.000431 -0.003363 0.008388 0.000000 -0.000178 0.000000
# 4 0.000000 0.000000 0.000000 0.023731 0.000000 0.004331
# 5 0.000813 -0.002144 -0.000178 0.000000 0.026694 0.000000
# 6 0.000000 0.000000 0.000000 0.004331 0.000000 0.049403
#
#
# Mechanical properties :
#
#
# Convention : Reuss Voigt Hill
#
# Bulk Modulus (GPa) = 29.15038 56.51954 42.83496
# Shear Modulus (GPa) = 27.71573 35.78953 31.75263
#
# Velocity S-wave (km/s) = 3.44199 3.91133 3.68414
# Velocity P-wave (km/s) = 5.31572 6.67515 6.03384
#
# Compressibility (1/GPa) = 0.03430488
#
# Stress axis : x y z
#
# Youngs Moduli (GPa) = 29.17160 110.44133 119.22076
#
# Poissons Ratio (x) = 0.54274 0.05138
# Poissons Ratio (y) = 0.14336 0.40099
# Poissons Ratio (z) = 0.01257 0.37147
#
# Static dielectric constant tensor:
#      x y z
#    x 2.016600 0.000000 -0.010820 
#    y 0.000000 1.907850 0.000000 
#    z -0.010820 0.000000 1.906510 
# 
# From -- ./inp_files/37191.got.cif
#   From: 2010.05.17/outbox.cif.g08.bks.cpg/sg9_19_cif.got.tgz:37191.got - 2010.06.03 20:04:27.
