data_PCOD9136422
_publ_section_title
;
Structure prediction by ZEFSAII (Michael W. Deem and Ramdas Pophale) SiO2 
 PCOD9136422
Probable space group: C C
;
_chemical_formula_sum "Si O2"
_cell_formula_units_Z 32
_cell_length_a 24.878443
_cell_length_b 5.137811
_cell_length_c 22.577010
_cell_angle_alpha 90.000000
_cell_angle_beta 152.022371
_cell_angle_gamma 90.000000
_cell_volume 1353.810798
_symmetry_space_group_name_H-M "C C"
_symmetry_group_IT_number 9
_symmetry_cell_setting 'monoclinic'
loop_
_space_group_symop_operation_xyz
x,y,z
x,-y,1/2+z
1/2+x,1/2+y,z
1/2+x,1/2-y,1/2+z
loop_
_atom_site_type_symbol
_atom_site_label
_atom_site_fract_x
_atom_site_fract_y
_atom_site_fract_z
Si Si1 0.691060 0.238078 0.754990
Si Si2 0.893054 0.319341 0.210018
Si Si3 0.847737 0.800944 0.299007
Si Si4 0.040940 0.435831 0.459658
Si Si5 0.709690 0.309383 0.561229
Si Si6 0.312944 0.230097 0.924000
Si Si7 0.842128 0.186465 0.590366
Si Si8 0.513381 0.622760 0.536276
O O1 0.742922 0.248719 0.739736
O O2 0.757419 0.448720 0.859672
O O3 0.568784 0.374838 0.623982
O O4 0.724192 0.952310 0.812277
O O5 0.766870 0.400268 0.116668
O O6 0.913035 0.580741 0.190412
O O7 0.994111 0.283177 0.356348
O O8 0.885401 0.087322 0.156428
O O9 0.809478 0.844158 0.194938
O O10 0.926727 0.550895 0.377008
O O11 0.921942 0.020295 0.400225
O O12 0.103065 0.692614 0.492548
O O13 0.094779 0.283248 0.568797
O O14 0.717337 0.226676 0.500605
O O15 0.334688 0.288391 0.013606
O O16 0.434727 0.234851 0.008128
#
# Coordination Sequence:
#
# PCOD9136422 Si02
#       8
#     4   4   4   4   4   4   4   4
#     4  11  25  42  67  96 132 175 224 274 338 396
#     4   9  22  42  64  94 129 173 213 275 337 396
#     4  10  21  41  62  95 136 166 212 281 334 405
#     4  11  21  39  67 101 132 169 220 275 348 406
#     4   9  22  37  68  96 132 168 218 267 344 398
#     4  11  25  46  65  95 134 177 230 279 324 402
#     4  10  21  46  64  88 134 174 219 279 329 391
#     4  11  25  39  69  97 133 178 220 278 340 398
#
# _framework density 23.636980000000001
#
# number of rings (size 3 to 8) (size 9 to 14) (size 15 to 20)
#    0.750    1.000    1.250    2.250    5.250    3.000 
#    4.500    0.000    0.000    0.000    0.000    0.000 
#    0.000    0.000    0.000    0.000    0.000    0.000 
#
# Total GULP energy -89135.085240 kJ/mol
# GULP energy per Si atom -5570.942828 kJ/mol
# Density = 2.358318 g / cm^3
# Si number density = 23.636980 Si / 1000 Ang^3
#
#
#
# Elastic Constant Matrix: (Units=GPa)
#
#
# Indices 1 2 3 4 5 6 
#
# 1 105.1938 15.9344 34.0922 -0.0005 -46.2708 -0.0002
# 2 15.9344 114.0453 18.3202 0.0005 -10.0891 0.0000
# 3 34.0922 18.3202 65.7927 -0.0009 -18.0838 -0.0001
# 4 -0.0005 0.0005 -0.0009 33.8909 0.0001 -14.6629
# 5 -46.2708 -10.0891 -18.0838 0.0001 36.9120 -0.0001
# 6 -0.0002 0.0000 -0.0001 -14.6629 -0.0001 27.5389
#
#
#
# Elastic Compliance Matrix: (Units=1/GPa)
#
#
# Indices 1 2 3 4 5 6 
#
# 1 0.022274 -0.000124 -0.004440 0.000000 0.025712 0.000000
# 2 -0.000124 0.009248 -0.002148 0.000000 0.001320 0.000000
# 3 -0.004440 -0.002148 0.018960 0.000001 0.003136 0.000000
# 4 0.000000 0.000000 0.000001 0.038338 0.000001 0.020413
# 5 0.025712 0.001320 0.003136 0.000001 0.061220 0.000001
# 6 0.000000 0.000000 0.000000 0.020413 0.000001 0.047181
#
#
# Mechanical properties :
#
#
# Convention : Reuss Voigt Hill
#
# Bulk Modulus (GPa) = 26.98535 46.85838 36.92186
# Shear Modulus (GPa) = 22.42186 34.11401 28.26793
#
# Velocity S-wave (km/s) = 3.08326 3.80313 3.46196
# Velocity P-wave (km/s) = 4.91088 6.25718 5.62446
#
# Compressibility (1/GPa) = 0.03705714
#
# Stress axis : x y z
#
# Youngs Moduli (GPa) = 44.89592 108.13630 52.74261
#
# Poissons Ratio (x) = 0.01343 0.23417
# Poissons Ratio (y) = 0.00558 0.11329
# Poissons Ratio (z) = 0.19933 0.23227
#
# Static dielectric constant tensor:
#      x y z
#    x 1.931540 0.000000 0.085390 
#    y 0.000000 2.028700 0.000000 
#    z 0.085390 0.000000 1.967530 
# 
# From -- ./inp_files/36138.got.cif
#   From: 2010.05.17/outbox.cif.g08.bks.cpg/sg9_19_cif.got.tgz:36138.got - 2010.06.03 20:04:27.
