data_PCOD9136286
_publ_section_title
;
Structure prediction by ZEFSAII (Michael W. Deem and Ramdas Pophale) SiO2 
 PCOD9136286
Probable space group: C C
;
_chemical_formula_sum "Si O2"
_cell_formula_units_Z 32
_cell_length_a 7.199578
_cell_length_b 14.855659
_cell_length_c 19.066341
_cell_angle_alpha 90.000000
_cell_angle_beta 138.521433
_cell_angle_gamma 90.000000
_cell_volume 1350.663597
_symmetry_space_group_name_H-M "C C"
_symmetry_group_IT_number 9
_symmetry_cell_setting 'monoclinic'
loop_
_space_group_symop_operation_xyz
x,y,z
x,-y,1/2+z
1/2+x,1/2+y,z
1/2+x,1/2-y,1/2+z
loop_
_atom_site_type_symbol
_atom_site_label
_atom_site_fract_x
_atom_site_fract_y
_atom_site_fract_z
Si Si1 0.081420 0.157856 0.620540
Si Si2 0.114228 0.336837 0.723027
Si Si3 0.708085 0.408594 0.370744
Si Si4 0.537129 0.313173 0.633039
Si Si5 0.277908 0.486972 0.521391
Si Si6 0.763862 0.525638 0.042191
Si Si7 0.073494 0.620854 0.687071
Si Si8 0.523334 0.277368 0.943120
O O1 0.104569 0.244566 0.675641
O O2 0.375654 0.101003 0.698660
O O3 0.009714 0.190971 0.520680
O O4 0.849724 0.083883 0.573370
O O5 0.395662 0.342635 0.848301
O O6 0.848222 0.334662 0.699061
O O7 0.023551 0.420206 0.649831
O O8 0.704416 0.428199 0.452512
O O9 0.383155 0.412178 0.260507
O O10 0.817886 0.309361 0.383293
O O11 0.952085 0.473986 0.410762
O O12 0.369949 0.405169 0.599557
O O13 0.573994 0.229313 0.695124
O O14 0.332596 0.264813 0.517790
O O15 0.488577 0.473775 0.514324
O O16 0.881380 0.424118 0.072014
#
# Coordination Sequence:
#
# PCOD9136286 Si02
#       8
#     4   4   4   4   4   4   4   4
#     4  10  22  42  64  96 130 171 215 275 331 390
#     4  11  21  40  66  92 127 172 221 263 337 390
#     4  11  21  41  66  94 131 174 221 269 328 396
#     4   9  20  39  61  89 126 166 208 273 314 386
#     4   9  22  41  65  90 131 171 212 276 321 385
#     4  10  23  41  62  96 132 173 217 275 323 396
#     4  10  22  40  64  93 129 173 214 270 328 387
#     4  10  21  40  64  92 130 168 216 273 328 388
#
# _framework density 23.692057999999999
#
# number of rings (size 3 to 8) (size 9 to 14) (size 15 to 20)
#    0.000    2.000    2.500    0.000    1.750    6.000 
#    0.000    8.750    0.000    0.000    0.000    0.000 
#    0.000    0.000    0.000    0.000    0.000    0.000 
#
# Total GULP energy -89142.301406 kJ/mol
# GULP energy per Si atom -5571.393838 kJ/mol
# Density = 2.363813 g / cm^3
# Si number density = 23.692058 Si / 1000 Ang^3
#
#
#
# Elastic Constant Matrix: (Units=GPa)
#
#
# Indices 1 2 3 4 5 6 
#
# 1 47.4134 0.7871 3.8874 -0.0002 12.9669 0.0000
# 2 0.7871 76.7865 3.1688 0.0003 2.9724 0.0000
# 3 3.8874 3.1688 82.7757 0.0010 17.4078 0.0001
# 4 -0.0002 0.0003 0.0010 20.6699 0.0002 4.7795
# 5 12.9669 2.9724 17.4078 0.0002 48.2651 -0.0001
# 6 0.0000 0.0000 0.0001 4.7795 -0.0001 24.4510
#
#
#
# Elastic Compliance Matrix: (Units=1/GPa)
#
#
# Indices 1 2 3 4 5 6 
#
# 1 0.022768 -0.000003 0.000235 0.000000 -0.006201 0.000000
# 2 -0.000003 0.013064 -0.000358 0.000000 -0.000675 0.000000
# 3 0.000235 -0.000358 0.013085 -0.000001 -0.004760 0.000000
# 4 0.000000 0.000000 -0.000001 0.050670 0.000000 -0.009904
# 5 -0.006201 -0.000675 -0.004760 0.000000 0.024143 0.000000
# 6 0.000000 0.000000 0.000000 -0.009904 0.000000 0.042834
#
#
# Mechanical properties :
#
#
# Convention : Reuss Voigt Hill
#
# Bulk Modulus (GPa) = 20.54894 24.74023 22.64458
# Shear Modulus (GPa) = 27.31682 31.95270 29.63476
#
# Velocity S-wave (km/s) = 3.39926 3.67640 3.54055
# Velocity P-wave (km/s) = 4.90905 5.33726 5.12763
#
# Compressibility (1/GPa) = 0.04866432
#
# Stress axis : x y z
#
# Youngs Moduli (GPa) = 43.92161 76.54593 76.42572
#
# Poissons Ratio (x) = 0.00023 -0.01796
# Poissons Ratio (y) = 0.00013 0.02737
# Poissons Ratio (z) = -0.01032 0.02741
#
# Static dielectric constant tensor:
#      x y z
#    x 1.930370 0.000000 -0.005850 
#    y 0.000000 2.012930 0.000000 
#    z -0.005850 0.000000 1.921700 
# 
# From -- ./inp_files/23187.got.cif
#   From: 2010.05.17/outbox.cif.g08.bks.cpg/sg9_12_cif.got.tgz:23187.got - 2010.06.03 20:04:27.
