data_PCOD9136495
_publ_section_title
;
Structure prediction by ZEFSAII (Michael W. Deem and Ramdas Pophale) SiO2 
 PCOD9136495
Probable space group: C C
;
_chemical_formula_sum "Si O2"
_cell_formula_units_Z 32
_cell_length_a 6.758463
_cell_length_b 27.327899
_cell_length_c 9.852991
_cell_angle_alpha 90.000000
_cell_angle_beta 50.359610
_cell_angle_gamma 90.000000
_cell_volume 1401.357448
_symmetry_space_group_name_H-M "C C"
_symmetry_group_IT_number 9
_symmetry_cell_setting 'monoclinic'
loop_
_space_group_symop_operation_xyz
x,y,z
x,-y,1/2+z
1/2+x,1/2+y,z
1/2+x,1/2-y,1/2+z
loop_
_atom_site_type_symbol
_atom_site_label
_atom_site_fract_x
_atom_site_fract_y
_atom_site_fract_z
Si Si1 0.849020 0.584315 0.794600
Si Si2 0.060887 0.495070 0.831313
Si Si3 0.800487 0.814594 0.462491
Si Si4 0.306327 0.763346 0.165609
Si Si5 0.862473 0.103528 0.154969
Si Si6 0.322899 0.312060 0.875864
Si Si7 0.312993 0.650005 0.653438
Si Si8 0.553675 0.444476 0.165242
O O1 0.662848 0.581287 0.750010
O O2 0.995257 0.532687 0.739713
O O3 0.050834 0.627552 0.708573
O O4 0.660204 0.590169 0.004287
O O5 0.193945 0.444769 0.732062
O O6 0.288817 0.525600 0.807989
O O7 0.784842 0.479542 0.014182
O O8 0.677905 0.770267 0.604043
O O9 0.773040 0.861529 0.570764
O O10 0.746520 0.826341 0.328747
O O11 0.097315 0.797202 0.327978
O O12 0.437625 0.727414 0.219908
O O13 0.525984 0.795949 0.004587
O O14 0.843230 0.134985 0.299649
O O15 0.417601 0.314729 0.989342
O O16 0.489531 0.601875 0.597290
#
# Coordination Sequence:
#
# PCOD9136495 Si02
#       8
#     4   4   4   4   4   4   4   4
#     4  11  24  43  66  98 147 179 234 291 341 408
#     4  11  25  42  68 103 138 195 235 286 345 413
#     4  10  21  41  68 100 135 178 231 286 355 418
#     4   9  21  43  70  97 137 178 223 301 353 415
#     4  11  22  43  68  99 136 189 225 283 349 409
#     4  10  22  41  69  99 134 178 230 284 358 415
#     4  11  24  41  69 105 132 189 230 284 344 426
#     4  11  25  44  68 101 147 184 238 291 345 408
#
# _framework density 22.835001999999999
#
# number of rings (size 3 to 8) (size 9 to 14) (size 15 to 20)
#    0.000    1.500    2.500    1.500    3.500    2.000 
#    2.250    0.000    0.000    0.000    0.000    0.000 
#    0.000    0.000    0.000    0.000    0.000    0.000 
#
# Total GULP energy -89320.358182 kJ/mol
# GULP energy per Si atom -5582.522386 kJ/mol
# Density = 2.278303 g / cm^3
# Si number density = 22.835002 Si / 1000 Ang^3
#
#
#
# Elastic Constant Matrix: (Units=GPa)
#
#
# Indices 1 2 3 4 5 6 
#
# 1 96.6619 34.4835 24.1993 0.0000 13.5586 0.0000
# 2 34.4835 89.0560 15.7098 0.0000 15.2154 0.0000
# 3 24.1993 15.7098 65.0733 0.0000 17.5423 0.0000
# 4 0.0000 0.0000 0.0000 41.4547 0.0000 3.2408
# 5 13.5586 15.2154 17.5423 0.0000 45.2457 0.0000
# 6 0.0000 0.0000 0.0000 3.2408 0.0000 15.3015
#
#
#
# Elastic Compliance Matrix: (Units=1/GPa)
#
#
# Indices 1 2 3 4 5 6 
#
# 1 0.012861 -0.004178 -0.003477 0.000000 -0.001101 0.000000
# 2 -0.004178 0.013510 -0.000916 0.000000 -0.002936 0.000000
# 3 -0.003477 -0.000916 0.018446 0.000000 -0.005801 0.000000
# 4 0.000000 0.000000 0.000000 0.024529 0.000000 -0.005195
# 5 -0.001101 -0.002936 -0.005801 0.000000 0.025668 0.000000
# 6 0.000000 0.000000 0.000000 -0.005195 0.000000 0.066453
#
#
# Mechanical properties :
#
#
# Convention : Reuss Voigt Hill
#
# Bulk Modulus (GPa) = 36.13674 44.39738 40.26706
# Shear Modulus (GPa) = 26.61915 32.16028 29.38972
#
# Velocity S-wave (km/s) = 3.41796 3.75691 3.59144
# Velocity P-wave (km/s) = 5.60679 6.18902 5.90509
#
# Compressibility (1/GPa) = 0.02767267
#
# Stress axis : x y z
#
# Youngs Moduli (GPa) = 77.75512 74.01891 54.21364
#
# Poissons Ratio (x) = 0.30928 0.18851
# Poissons Ratio (y) = 0.32490 0.04967
# Poissons Ratio (z) = 0.27037 0.06782
#
# Static dielectric constant tensor:
#      x y z
#    x 1.840390 0.000000 0.016750 
#    y 0.000000 1.859030 0.000000 
#    z 0.016750 0.000000 1.922990 
# 
# From -- ./inp_files/4455.got.cif
#   From: 2010.05.17/outbox.cif.g08.bks.cpg/sg9_3_cif.got.tgz:4455.got - 2010.06.03 20:04:27.
