data_PCOD9136212
_publ_section_title
;
Structure prediction by ZEFSAII (Michael W. Deem and Ramdas Pophale) SiO2 
 PCOD9136212
Probable space group: C C
;
_chemical_formula_sum "Si O2"
_cell_formula_units_Z 32
_cell_length_a 7.135577
_cell_length_b 13.046539
_cell_length_c 13.676561
_cell_angle_alpha 90.000000
_cell_angle_beta 78.671651
_cell_angle_gamma 90.000000
_cell_volume 1248.408476
_symmetry_space_group_name_H-M "C C"
_symmetry_group_IT_number 9
_symmetry_cell_setting 'monoclinic'
loop_
_space_group_symop_operation_xyz
x,y,z
x,-y,1/2+z
1/2+x,1/2+y,z
1/2+x,1/2-y,1/2+z
loop_
_atom_site_type_symbol
_atom_site_label
_atom_site_fract_x
_atom_site_fract_y
_atom_site_fract_z
Si Si1 0.815030 0.057085 0.388810
Si Si2 0.725163 0.622252 0.612550
Si Si3 0.159017 0.276686 0.258987
Si Si4 0.352809 0.468422 0.181712
Si Si5 0.233179 0.744934 0.290859
Si Si6 0.879026 0.393400 0.423991
Si Si7 0.549739 0.034150 0.084252
Si Si8 0.735357 0.378083 0.900804
O O1 0.680752 0.140624 0.349235
O O2 0.693001 0.005607 0.485234
O O3 0.005120 0.109138 0.412456
O O4 0.885414 0.986814 0.292801
O O5 0.559035 0.537931 0.612118
O O6 0.657423 0.700446 0.702285
O O7 0.769379 0.672074 0.503467
O O8 0.905429 0.556350 0.630632
O O9 0.263908 0.354672 0.177076
O O10 0.283354 0.191018 0.301625
O O11 0.961147 0.229632 0.238878
O O12 0.070172 0.350885 0.352440
O O13 0.200029 0.549870 0.155638
O O14 0.224939 0.824862 0.382850
O O15 0.828781 0.509737 0.399556
O O16 0.917214 0.387040 0.536569
#
# Coordination Sequence:
#
# PCOD9136212 Si02
#       8
#     4   4   4   4   4   4   4   4
#     4  11  22  41  68  95 135 174 225 274 344 405
#     4  11  23  39  66  97 135 170 227 272 337 408
#     4   9  20  40  65  90 132 172 216 273 339 394
#     4  12  23  41  68  98 132 176 221 284 329 414
#     4   9  20  41  63  94 131 172 214 281 329 406
#     4   9  19  39  66  91 133 174 214 278 336 392
#     4  11  22  42  66  98 134 176 220 282 333 403
#     4  10  21  39  68  97 128 178 223 278 343 406
#
# _framework density 25.632636999999999
#
# number of rings (size 3 to 8) (size 9 to 14) (size 15 to 20)
#    0.750    1.000    3.750    0.750    0.000    3.000 
#    0.000    2.500   22.000    0.000    0.000    0.000 
#    0.000    0.000    0.000    0.000    0.000    0.000 
#
# Total GULP energy -89280.939554 kJ/mol
# GULP energy per Si atom -5580.058722 kJ/mol
# Density = 2.557430 g / cm^3
# Si number density = 25.632637 Si / 1000 Ang^3
#
#
#
# Elastic Constant Matrix: (Units=GPa)
#
#
# Indices 1 2 3 4 5 6 
#
# 1 81.4367 0.0291 11.2274 0.0000 12.8730 0.0000
# 2 0.0291 48.2871 9.3764 0.0000 3.3275 0.0000
# 3 11.2274 9.3764 75.4586 0.0000 21.3994 0.0000
# 4 0.0000 0.0000 0.0000 26.6921 0.0000 -6.5038
# 5 12.8730 3.3275 21.3994 0.0000 38.4430 0.0000
# 6 0.0000 0.0000 0.0000 -6.5038 0.0000 15.1194
#
#
#
# Elastic Compliance Matrix: (Units=1/GPa)
#
#
# Indices 1 2 3 4 5 6 
#
# 1 0.013018 0.000433 -0.000883 0.000000 -0.003905 0.000000
# 2 0.000433 0.021242 -0.002543 0.000000 -0.000568 0.000000
# 3 -0.000883 -0.002543 0.016094 0.000000 -0.008443 0.000000
# 4 0.000000 0.000000 0.000000 0.041851 0.000000 0.018003
# 5 -0.003905 -0.000568 -0.008443 0.000000 0.032069 0.000000
# 6 0.000000 0.000000 0.000000 0.018003 0.000000 0.073884
#
#
# Mechanical properties :
#
#
# Convention : Reuss Voigt Hill
#
# Bulk Modulus (GPa) = 22.53886 27.38314 24.96100
# Shear Modulus (GPa) = 22.83786 28.35420 25.59603
#
# Velocity S-wave (km/s) = 2.98815 3.32953 3.16345
# Velocity P-wave (km/s) = 4.55165 5.04848 4.80649
#
# Compressibility (1/GPa) = 0.04436781
#
# Stress axis : x y z
#
# Youngs Moduli (GPa) = 76.81445 47.07628 62.13491
#
# Poissons Ratio (x) = -0.02037 0.05489
# Poissons Ratio (y) = -0.03324 0.15800
# Poissons Ratio (z) = 0.06785 0.11971
#
# Static dielectric constant tensor:
#      x y z
#    x 2.086750 0.000000 0.050260 
#    y 0.000000 2.119890 0.000000 
#    z 0.050260 0.000000 2.014810 
# 
# From -- ./inp_files/23056.got.cif
#   From: 2010.05.17/outbox.cif.g08.bks.cpg/sg9_12_cif.got.tgz:23056.got - 2010.06.03 20:04:27.
