data_PCOD9136900
_publ_section_title
;
Structure prediction by ZEFSAII (Michael W. Deem and Ramdas Pophale) SiO2 
 PCOD9136900
Probable space group: C C
;
_chemical_formula_sum "Si O2"
_cell_formula_units_Z 32
_cell_length_a 16.144030
_cell_length_b 16.590821
_cell_length_c 9.866582
_cell_angle_alpha 90.000000
_cell_angle_beta 30.931520
_cell_angle_gamma 90.000000
_cell_volume 1358.378665
_symmetry_space_group_name_H-M "C C"
_symmetry_group_IT_number 9
_symmetry_cell_setting 'monoclinic'
loop_
_space_group_symop_operation_xyz
x,y,z
x,-y,1/2+z
1/2+x,1/2+y,z
1/2+x,1/2-y,1/2+z
loop_
_atom_site_type_symbol
_atom_site_label
_atom_site_fract_x
_atom_site_fract_y
_atom_site_fract_z
Si Si1 0.145950 0.995146 0.945600
Si Si2 0.800775 0.194169 0.489204
Si Si3 0.599895 0.676825 0.609955
Si Si4 0.447574 0.403362 0.554638
Si Si5 0.937555 0.334848 0.741482
Si Si6 0.462298 0.154951 0.885751
Si Si7 0.984342 0.479968 0.884382
Si Si8 0.810793 0.974354 0.082205
O O1 0.331283 0.022677 0.704693
O O2 0.103017 0.041827 0.867742
O O3 0.137340 0.898019 0.957258
O O4 0.988881 0.015129 0.260796
O O5 0.928049 0.158825 0.203319
O O6 0.639793 0.192995 0.625008
O O7 0.842716 0.279798 0.491934
O O8 0.792302 0.122422 0.613699
O O9 0.747856 0.687641 0.506925
O O10 0.549024 0.758197 0.611661
O O11 0.454669 0.646445 0.907621
O O12 0.317055 0.473990 0.711227
O O13 0.953424 0.354622 0.560768
O O14 0.977533 0.404942 0.791501
O O15 0.453325 0.063968 0.847044
O O16 0.157755 0.491684 0.713370
#
# Coordination Sequence:
#
# PCOD9136900 Si02
#       8
#     4   4   4   4   4   4   4   4
#     4  10  21  45  69 102 146 184 244 297 371 440
#     4  10  24  45  66 100 140 188 239 298 365 439
#     4  11  25  43  71 107 141 195 237 309 374 436
#     4  10  22  46  68 105 144 184 245 297 377 438
#     4  12  26  45  72 104 148 186 253 303 370 446
#     4  11  25  46  67 102 139 193 242 298 366 436
#     4  11  24  46  72 106 141 201 246 305 369 454
#     4   9  23  42  73 104 141 191 240 307 370 441
#
# _framework density 23.557496
#
# number of rings (size 3 to 8) (size 9 to 14) (size 15 to 20)
#    0.000    1.500    2.500    0.750    5.250    7.000 
#    4.500    0.000    0.000    0.000    0.000    0.000 
#    0.000    0.000    0.000    0.000    0.000    0.000 
#
# Total GULP energy -89184.321514 kJ/mol
# GULP energy per Si atom -5574.020095 kJ/mol
# Density = 2.350388 g / cm^3
# Si number density = 23.557496 Si / 1000 Ang^3
#
#
#
# Elastic Constant Matrix: (Units=GPa)
#
#
# Indices 1 2 3 4 5 6 
#
# 1 37.9989 0.5092 13.3479 -0.0002 4.9470 0.0001
# 2 0.5092 69.1058 22.4249 -0.0005 12.7100 0.0003
# 3 13.3479 22.4249 91.5212 -0.0012 -8.2078 0.0005
# 4 -0.0002 -0.0005 -0.0012 29.4560 0.0004 -3.4843
# 5 4.9470 12.7100 -8.2078 0.0004 24.9058 -0.0001
# 6 0.0001 0.0003 0.0005 -3.4843 -0.0001 45.8080
#
#
#
# Elastic Compliance Matrix: (Units=1/GPa)
#
#
# Indices 1 2 3 4 5 6 
#
# 1 0.029659 0.003530 -0.006060 0.000000 -0.009689 0.000000
# 2 0.003530 0.018720 -0.006205 0.000000 -0.012299 0.000000
# 3 -0.006060 -0.006205 0.014140 0.000000 0.009030 0.000000
# 4 0.000000 0.000000 0.000000 0.034257 -0.000001 0.002606
# 5 -0.009689 -0.012299 0.009030 -0.000001 0.051328 0.000000
# 6 0.000000 0.000000 0.000000 0.002606 0.000000 0.022028
#
#
# Mechanical properties :
#
#
# Convention : Reuss Voigt Hill
#
# Bulk Modulus (GPa) = 22.19715 30.13223 26.16469
# Shear Modulus (GPa) = 24.67686 30.85689 27.76687
#
# Velocity S-wave (km/s) = 3.24005 3.62312 3.43692
# Velocity P-wave (km/s) = 4.84151 5.50648 5.18467
#
# Compressibility (1/GPa) = 0.04505084
#
# Stress axis : x y z
#
# Youngs Moduli (GPa) = 33.71635 53.41866 70.71980
#
# Poissons Ratio (x) = -0.18856 0.42853
# Poissons Ratio (y) = -0.11901 0.43879
# Poissons Ratio (z) = 0.20430 0.33145
#
# Static dielectric constant tensor:
#      x y z
#    x 1.887420 0.000000 -0.005610 
#    y 0.000000 1.871010 0.000000 
#    z -0.005610 0.000000 2.089900 
# 
# From -- ./inp_files/19387.got.cif
#   From: 2010.05.17/outbox.cif.g08.bks.cpg/sg9_10_cif.got.tgz:19387.got - 2010.06.03 20:04:27.
