data_PCOD9136404
_publ_section_title
;
Structure prediction by ZEFSAII (Michael W. Deem and Ramdas Pophale) SiO2 
 PCOD9136404
Probable space group: C C
;
_chemical_formula_sum "Si O2"
_cell_formula_units_Z 24
_cell_length_a 5.286626
_cell_length_b 23.254722
_cell_length_c 8.339990
_cell_angle_alpha 90.000000
_cell_angle_beta 91.784110
_cell_angle_gamma 90.000000
_cell_volume 1024.813144
_symmetry_space_group_name_H-M "C C"
_symmetry_group_IT_number 9
_symmetry_cell_setting 'monoclinic'
loop_
_space_group_symop_operation_xyz
x,y,z
x,-y,1/2+z
1/2+x,1/2+y,z
1/2+x,1/2-y,1/2+z
loop_
_atom_site_type_symbol
_atom_site_label
_atom_site_fract_x
_atom_site_fract_y
_atom_site_fract_z
Si Si1 0.342770 0.060103 0.895840
Si Si2 0.147237 0.450697 0.919071
Si Si3 0.148571 0.955960 0.726676
Si Si4 0.300805 0.755909 0.591076
Si Si5 0.561546 0.858754 0.170290
Si Si6 0.801322 0.723260 0.435884
O O1 0.573444 0.982801 0.450463
O O2 0.449537 0.119407 0.834017
O O3 0.203693 0.024729 0.750109
O O4 0.159014 0.062160 0.043414
O O5 0.394371 0.443311 0.816858
O O6 0.897187 0.430616 0.818143
O O7 0.167705 0.414352 0.080690
O O8 0.264293 0.692256 0.671328
O O9 0.046846 0.762018 0.482555
O O10 0.308404 0.794234 0.749992
O O11 0.543525 0.753549 0.483906
O O12 0.343564 0.830661 0.054939
#
# Coordination Sequence:
#
# PCOD9136404 Si02
#       6
#     4   4   4   4   4   4
#     4  10  21  41  58  94 126 177 208 267 309 395
#     4  10  22  40  58  93 125 173 210 266 313 384
#     4  10  23  35  62  82 138 161 217 258 311 373
#     4  10  23  44  73  91 138 166 229 277 347 385
#     4  10  24  41  71  92 136 174 222 267 339 390
#     4  10  23  45  68 102 125 179 216 291 331 403
#
# _framework density 23.418901999999999
#
# number of rings (size 3 to 8) (size 9 to 14) (size 15 to 20)
#    2.000    0.000    1.667    1.000    7.000    1.333 
#    3.000    0.000    0.000    0.000    0.000    0.000 
#    0.000    0.000    0.000    0.000    0.000    0.000 
#
# Total GULP energy -66958.390702 kJ/mol
# GULP energy per Si atom -5579.865892 kJ/mol
# Density = 2.336560 g / cm^3
# Si number density = 23.418902 Si / 1000 Ang^3
#
#
#
# Elastic Constant Matrix: (Units=GPa)
#
#
# Indices 1 2 3 4 5 6 
#
# 1 144.5564 6.3284 36.3101 0.0000 -36.0848 0.0000
# 2 6.3284 51.7987 -11.6904 0.0000 1.3611 0.0000
# 3 36.3101 -11.6904 76.9333 0.0000 -25.9286 0.0000
# 4 0.0000 0.0000 0.0000 32.0693 0.0000 7.9417
# 5 -36.0848 1.3611 -25.9286 0.0000 46.3195 0.0000
# 6 0.0000 0.0000 0.0000 7.9417 0.0000 0.6751
#
#
#
# Elastic Compliance Matrix: (Units=1/GPa)
#
#
# Indices 1 2 3 4 5 6 
#
# 1 0.009075 -0.001859 -0.002668 0.000000 0.005631 0.000000
# 2 -0.001859 0.020443 0.004059 0.000000 0.000223 0.000000
# 3 -0.002668 0.004059 0.017420 0.000000 0.007554 0.000000
# 4 0.000000 0.000000 0.000000 -0.016298 0.000000 0.191732
# 5 0.005631 0.000223 0.007554 0.000000 0.030198 0.000000
# 6 0.000000 0.000000 0.000000 0.191732 0.000000 -0.774235
#
#
# Mechanical properties :
#
#
# Convention : Reuss Voigt Hill
#
# Bulk Modulus (GPa) = 21.73794 37.24273 29.49033
# Shear Modulus (GPa) = -7.17228 31.96879 12.39825
#
# Velocity S-wave (km/s) = -1.75193 3.69871 2.30339
# Velocity P-wave (km/s) = 2.28255 5.84620 4.43780
#
# Compressibility (1/GPa) = 0.04600253
#
# Stress axis : x y z
#
# Youngs Moduli (GPa) = 110.19542 48.91700 57.40555
#
# Poissons Ratio (x) = 0.09092 0.15314
# Poissons Ratio (y) = 0.20482 -0.23300
# Poissons Ratio (z) = 0.29397 -0.19855
#
# Static dielectric constant tensor:
#      x y z
#    x 1.872670 0.000000 0.041380 
#    y 0.000000 1.946840 0.000000 
#    z 0.041380 0.000000 1.857130 
# 
# From -- ./inp_files/4070.got.cif
#   From: 2010.05.17/outbox.cif.g08.bks.cpg/sg9_3_cif.got.tgz:4070.got - 2010.06.03 20:04:27.
