data_PCOD9136755
_publ_section_title
;
Structure prediction by ZEFSAII (Michael W. Deem and Ramdas Pophale) SiO2 
 PCOD9136755
Probable space group: C C
;
_chemical_formula_sum "Si O2"
_cell_formula_units_Z 24
_cell_length_a 17.004839
_cell_length_b 8.970341
_cell_length_c 8.814765
_cell_angle_alpha 90.000000
_cell_angle_beta 138.211192
_cell_angle_gamma 90.000000
_cell_volume 896.021904
_symmetry_space_group_name_H-M "C C"
_symmetry_group_IT_number 9
_symmetry_cell_setting 'monoclinic'
loop_
_space_group_symop_operation_xyz
x,y,z
x,-y,1/2+z
1/2+x,1/2+y,z
1/2+x,1/2-y,1/2+z
loop_
_atom_site_type_symbol
_atom_site_label
_atom_site_fract_x
_atom_site_fract_y
_atom_site_fract_z
Si Si1 0.981760 0.053180 0.804450
Si Si2 0.235416 0.525148 0.619847
Si Si3 0.783710 0.435407 0.526057
Si Si4 0.500995 0.174127 0.150472
Si Si5 0.213352 0.803747 0.751043
Si Si6 0.610467 0.738028 0.542904
O O1 0.857800 0.043136 0.709013
O O2 0.974058 0.150825 0.641719
O O3 0.042150 0.894580 0.861319
O O4 0.075107 0.155353 0.033368
O O5 0.126962 0.607796 0.380788
O O6 0.241233 0.629074 0.780004
O O7 0.194713 0.357298 0.586805
O O8 0.771637 0.379194 0.681488
O O9 0.757233 0.608488 0.460304
O O10 0.905686 0.402837 0.618303
O O11 0.688803 0.347719 0.283321
O O12 0.509479 0.164041 0.982511
#
# Coordination Sequence:
#
# PCOD9136755 Si02
#       6
#     4   4   4   4   4   4
#     4  10  21  43  70  93 141 188 236 291 366 419
#     4  11  23  44  68 106 140 190 241 295 361 433
#     4  11  22  44  71 102 144 188 236 296 365 435
#     4  11  22  43  69  98 144 183 236 304 361 430
#     4  10  23  43  74 104 142 192 235 297 366 437
#     4  11  23  41  66 101 137 195 242 295 355 426
#
# _framework density 26.785056999999998
#
# number of rings (size 3 to 8) (size 9 to 14) (size 15 to 20)
#    0.000    1.333    5.000    1.000    2.333    0.000 
#    6.000    3.333    0.000    0.000    0.000    0.000 
#    0.000    0.000    0.000    0.000    0.000    0.000 
#
# Total GULP energy -67215.415417 kJ/mol
# GULP energy per Si atom -5601.284618 kJ/mol
# Density = 2.672409 g / cm^3
# Si number density = 26.785057 Si / 1000 Ang^3
#
#
#
# Elastic Constant Matrix: (Units=GPa)
#
#
# Indices 1 2 3 4 5 6 
#
# 1 200.3940 80.9942 56.0184 0.0000 62.1561 0.0000
# 2 80.9942 196.0071 32.8047 0.0000 12.8912 0.0000
# 3 56.0184 32.8047 65.8323 0.0000 25.0180 0.0000
# 4 0.0000 0.0000 0.0000 23.9851 0.0000 -1.0665
# 5 62.1561 12.8912 25.0180 0.0000 50.9050 0.0000
# 6 0.0000 0.0000 0.0000 -1.0665 0.0000 50.4828
#
#
#
# Elastic Compliance Matrix: (Units=1/GPa)
#
#
# Indices 1 2 3 4 5 6 
#
# 1 0.010315 -0.003024 -0.003413 0.000000 -0.010152 0.000000
# 2 -0.003024 0.006452 -0.001752 0.000000 0.002919 0.000000
# 3 -0.003413 -0.001752 0.021168 0.000000 -0.005793 0.000000
# 4 0.000000 0.000000 0.000000 0.041732 0.000000 0.000882
# 5 -0.010152 0.002919 -0.005793 0.000000 0.034148 0.000000
# 6 0.000000 0.000000 0.000000 0.000882 0.000000 0.019827
#
#
# Mechanical properties :
#
#
# Convention : Reuss Voigt Hill
#
# Bulk Modulus (GPa) = 46.38188 89.09643 67.73916
# Shear Modulus (GPa) = 31.80548 44.56897 38.18722
#
# Velocity S-wave (km/s) = 3.44965 4.08358 3.77993
# Velocity P-wave (km/s) = 5.76374 7.45452 6.66298
#
# Compressibility (1/GPa) = 0.02156014
#
# Stress axis : x y z
#
# Youngs Moduli (GPa) = 96.94594 154.97981 47.24033
#
# Poissons Ratio (x) = 0.46859 0.16121
# Poissons Ratio (y) = 0.29312 0.08275
# Poissons Ratio (z) = 0.33084 0.27147
#
# Static dielectric constant tensor:
#      x y z
#    x 2.095790 0.000000 -0.038530 
#    y 0.000000 2.121810 0.000000 
#    z -0.038530 0.000000 2.157540 
# 
# From -- ./inp_files/18989.got.cif
#   From: 2010.05.17/outbox.cif.g08.bks.cpg/sg9_10_cif.got.tgz:18989.got - 2010.06.03 20:04:27.
