data_PCOD9136678
_publ_section_title
;
Structure prediction by ZEFSAII (Michael W. Deem and Ramdas Pophale) SiO2 
 PCOD9136678
Probable space group: C C
;
_chemical_formula_sum "Si O2"
_cell_formula_units_Z 24
_cell_length_a 24.034430
_cell_length_b 5.093599
_cell_length_c 12.089247
_cell_angle_alpha 90.000000
_cell_angle_beta 46.497405
_cell_angle_gamma 90.000000
_cell_volume 1073.498321
_symmetry_space_group_name_H-M "C C"
_symmetry_group_IT_number 9
_symmetry_cell_setting 'monoclinic'
loop_
_space_group_symop_operation_xyz
x,y,z
x,-y,1/2+z
1/2+x,1/2+y,z
1/2+x,1/2-y,1/2+z
loop_
_atom_site_type_symbol
_atom_site_label
_atom_site_fract_x
_atom_site_fract_y
_atom_site_fract_z
Si Si1 0.846080 0.050752 0.712010
Si Si2 0.753722 0.556866 0.874605
Si Si3 0.219746 0.575840 0.246935
Si Si4 0.520907 0.519035 0.025806
Si Si5 0.627498 0.243065 0.702456
Si Si6 0.572261 0.963558 0.577191
O O1 0.809321 0.313512 0.809291
O O2 0.936067 0.023079 0.595316
O O3 0.806963 0.807466 0.827569
O O4 0.806143 0.026911 0.645378
O O5 0.726079 0.625134 0.785184
O O6 0.680927 0.572937 0.053441
O O7 0.180382 0.474413 0.191045
O O8 0.162467 0.451287 0.419071
O O9 0.537312 0.814784 0.042873
O O10 0.533711 0.315118 0.109565
O O11 0.581073 0.417327 0.852556
O O12 0.570425 0.081313 0.701517
#
# Coordination Sequence:
#
# PCOD9136678 Si02
#       6
#     4   4   4   4   4   4
#     4  10  21  43  61  91 129 159 195 275 308 352
#     4   9  21  39  64  89 121 160 208 245 313 362
#     4   8  21  38  65  88 124 157 211 250 303 365
#     4  11  24  43  62  92 132 158 206 266 311 362
#     4  10  22  41  68  91 121 169 218 244 311 378
#     4  10  23  40  64  91 125 169 206 252 310 379
#
# _framework density 22.356809999999999
#
# number of rings (size 3 to 8) (size 9 to 14) (size 15 to 20)
#    1.000    1.333    0.000    1.000    9.333    5.333 
#    6.000    0.000    0.000    0.000    0.000    0.000 
#    0.000    0.000    0.000    0.000    0.000    0.000 
#
# Total GULP energy -66950.248372 kJ/mol
# GULP energy per Si atom -5579.187364 kJ/mol
# Density = 2.230592 g / cm^3
# Si number density = 22.356810 Si / 1000 Ang^3
#
#
#
# Elastic Constant Matrix: (Units=GPa)
#
#
# Indices 1 2 3 4 5 6 
#
# 1 133.6222 26.9981 44.1138 0.0003 -27.2181 0.0053
# 2 26.9981 113.5066 25.9816 0.0011 -14.1231 0.0083
# 3 44.1138 25.9816 57.5085 -0.0001 -8.1011 0.0001
# 4 0.0003 0.0011 -0.0001 33.0991 0.0004 29.2065
# 5 -27.2181 -14.1231 -8.1011 0.0004 39.1889 0.0015
# 6 0.0053 0.0083 0.0001 29.2065 0.0015 82.6551
#
#
#
# Elastic Compliance Matrix: (Units=1/GPa)
#
#
# Indices 1 2 3 4 5 6 
#
# 1 0.011342 -0.000148 -0.007757 0.000001 0.006220 -0.000001
# 2 -0.000148 0.010114 -0.004075 0.000001 0.002700 -0.000001
# 3 -0.007757 -0.004075 0.024941 -0.000001 -0.001700 0.000001
# 4 0.000001 0.000001 -0.000001 0.043900 0.000001 -0.015512
# 5 0.006220 0.002700 -0.001700 0.000001 0.030459 -0.000001
# 6 -0.000001 -0.000001 0.000001 -0.015512 -0.000001 0.017580
#
#
# Mechanical properties :
#
#
# Convention : Reuss Voigt Hill
#
# Bulk Modulus (GPa) = 44.57247 55.42493 49.99870
# Shear Modulus (GPa) = 29.45083 44.82487 37.13785
#
# Velocity S-wave (km/s) = 3.63341 4.48255 4.08013
# Velocity P-wave (km/s) = 6.13045 7.18582 6.67901
#
# Compressibility (1/GPa) = 0.02243537
#
# Stress axis : x y z
#
# Youngs Moduli (GPa) = 88.17128 98.87217 40.09542
#
# Poissons Ratio (x) = 0.01465 0.31101
# Poissons Ratio (y) = 0.01306 0.16341
# Poissons Ratio (z) = 0.68392 0.40295
#
# Static dielectric constant tensor:
#      x y z
#    x 1.897130 0.000000 0.058000 
#    y 0.000000 1.874350 0.000000 
#    z 0.058000 0.000000 1.800290 
# 
# From -- ./inp_files/18744.got.cif
#   From: 2010.05.17/outbox.cif.g08.bks.cpg/sg9_10_cif.got.tgz:18744.got - 2010.06.03 20:04:27.
