data_PCOD9136824
_publ_section_title
;
Structure prediction by ZEFSAII (Michael W. Deem and Ramdas Pophale) SiO2 
 PCOD9136824
Probable space group: C C
;
_chemical_formula_sum "Si O2"
_cell_formula_units_Z 32
_cell_length_a 7.823676
_cell_length_b 21.817091
_cell_length_c 9.132755
_cell_angle_alpha 90.000000
_cell_angle_beta 75.380458
_cell_angle_gamma 90.000000
_cell_volume 1508.397323
_symmetry_space_group_name_H-M "C C"
_symmetry_group_IT_number 9
_symmetry_cell_setting 'monoclinic'
loop_
_space_group_symop_operation_xyz
x,y,z
x,-y,1/2+z
1/2+x,1/2+y,z
1/2+x,1/2-y,1/2+z
loop_
_atom_site_type_symbol
_atom_site_label
_atom_site_fract_x
_atom_site_fract_y
_atom_site_fract_z
Si Si1 0.465260 0.612752 0.528800
Si Si2 0.641686 0.852959 0.565408
Si Si3 0.270542 0.928615 0.406626
Si Si4 0.318709 0.432764 0.751396
Si Si5 0.157555 0.437397 0.298453
Si Si6 0.568948 0.741244 0.392708
Si Si7 0.765932 0.687368 0.073920
Si Si8 0.655149 0.486995 0.140600
O O1 0.390124 0.588850 0.391992
O O2 0.307168 0.598092 0.674979
O O3 0.537065 0.680766 0.495040
O O4 0.627570 0.572466 0.549504
O O5 0.744316 0.872409 0.687812
O O6 0.679000 0.911947 0.456942
O O7 0.683564 0.792176 0.458051
O O8 0.430099 0.843263 0.629886
O O9 0.462175 0.915734 0.295123
O O10 0.187073 0.867050 0.492074
O O11 0.166323 0.965252 0.304600
O O12 0.308945 0.972975 0.536985
O O13 0.180121 0.489313 0.786679
O O14 0.487377 0.468735 0.648545
O O15 0.646183 0.722213 0.218019
O O16 0.372561 0.770417 0.436205
#
# Coordination Sequence:
#
# PCOD9136824 Si02
#       8
#     4   4   4   4   4   4   4   4
#     4  11  23  40  66  91 137 179 223 277 338 408
#     4   9  22  39  67  96 131 174 226 271 338 407
#     4  11  24  40  65  99 140 173 227 283 346 400
#     4  11  22  41  65 100 126 178 221 280 342 408
#     4  10  22  39  65  97 134 176 223 283 337 410
#     4  10  21  44  68  94 140 178 228 281 343 399
#     4   9  22  42  69  99 135 181 226 289 335 407
#     4  11  24  41  63 100 133 181 220 286 349 399
#
# _framework density 21.214568
#
# number of rings (size 3 to 8) (size 9 to 14) (size 15 to 20)
#    0.750    1.000    1.250    3.000    7.000    0.000 
#    2.250    0.000    2.750    0.000    0.000    0.000 
#    0.000    0.000    0.000    0.000    0.000    0.000 
#
# Total GULP energy -89085.329934 kJ/mol
# GULP energy per Si atom -5567.833121 kJ/mol
# Density = 2.116628 g / cm^3
# Si number density = 21.214568 Si / 1000 Ang^3
#
#
#
# Elastic Constant Matrix: (Units=GPa)
#
#
# Indices 1 2 3 4 5 6 
#
# 1 28.8263 26.1948 25.1627 0.0000 -9.6013 0.0000
# 2 26.1948 129.5849 58.8234 0.0000 -7.7381 0.0000
# 3 25.1627 58.8234 100.2537 0.0000 1.9312 0.0000
# 4 0.0000 0.0000 0.0000 43.3104 0.0000 -0.5600
# 5 -9.6013 -7.7381 1.9312 0.0000 29.0699 0.0000
# 6 0.0000 0.0000 0.0000 -0.5600 0.0000 30.6062
#
#
#
# Elastic Compliance Matrix: (Units=1/GPa)
#
#
# Indices 1 2 3 4 5 6 
#
# 1 0.054788 -0.004953 -0.011183 0.000000 0.017520 0.000000
# 2 -0.004953 0.011275 -0.005406 0.000000 0.001725 0.000000
# 3 -0.011183 -0.005406 0.016073 0.000000 -0.006200 0.000000
# 4 0.000000 0.000000 0.000000 0.023095 0.000000 0.000423
# 5 0.017520 0.001725 -0.006200 0.000000 0.041057 0.000000
# 6 0.000000 0.000000 0.000000 0.000423 0.000000 0.032681
#
#
# Mechanical properties :
#
#
# Convention : Reuss Voigt Hill
#
# Bulk Modulus (GPa) = 25.60593 53.22521 39.41557
# Shear Modulus (GPa) = 21.27038 30.49624 25.88331
#
# Velocity S-wave (km/s) = 3.16987 3.79557 3.49674
# Velocity P-wave (km/s) = 5.04912 6.65972 5.90955
#
# Compressibility (1/GPa) = 0.03905346
#
# Stress axis : x y z
#
# Youngs Moduli (GPa) = 18.25212 88.69262 62.21733
#
# Poissons Ratio (x) = 0.43925 0.69577
# Poissons Ratio (y) = 0.09039 0.33633
# Poissons Ratio (z) = 0.20411 0.47944
#
# Static dielectric constant tensor:
#      x y z
#    x 1.846510 0.000000 -0.042350 
#    y 0.000000 1.818180 0.000000 
#    z -0.042350 0.000000 1.804360 
# 
# From -- ./inp_files/5756.got.cif
#   From: 2010.05.17/outbox.cif.g08.bks.cpg/sg9_3_cif.got.tgz:5756.got - 2010.06.03 20:04:27.
