data_PCOD9136204
_publ_section_title
;
Structure prediction by ZEFSAII (Michael W. Deem and Ramdas Pophale) SiO2 
 PCOD9136204
Probable space group: C C
;
_chemical_formula_sum "Si O2"
_cell_formula_units_Z 20
_cell_length_a 9.926483
_cell_length_b 10.223461
_cell_length_c 10.499358
_cell_angle_alpha 90.000000
_cell_angle_beta 123.939397
_cell_angle_gamma 90.000000
_cell_volume 883.974621
_symmetry_space_group_name_H-M "C C"
_symmetry_group_IT_number 9
_symmetry_cell_setting 'monoclinic'
loop_
_space_group_symop_operation_xyz
x,y,z
x,-y,1/2+z
1/2+x,1/2+y,z
1/2+x,1/2-y,1/2+z
loop_
_atom_site_type_symbol
_atom_site_label
_atom_site_fract_x
_atom_site_fract_y
_atom_site_fract_z
Si Si1 0.166750 0.747115 0.918780
Si Si2 0.255041 0.238385 0.179625
Si Si3 0.635958 0.194714 0.363306
Si Si4 0.141434 0.035693 0.944142
Si Si5 0.836815 0.119055 0.238845
O O1 0.211865 0.718980 0.797666
O O2 0.972854 0.765698 0.830628
O O3 0.228290 0.896762 0.979671
O O4 0.245568 0.650274 0.060638
O O5 0.442396 0.199674 0.261993
O O6 0.197815 0.336609 0.038007
O O7 0.155593 0.105071 0.089218
O O8 0.696597 0.346547 0.382341
O O9 0.712879 0.116205 0.289982
O O10 0.956096 0.004422 0.809524
#
# Coordination Sequence:
#
# PCOD9136204 Si02
#       5
#     4   4   4   4   4
#     4  10  21  39  68  91 133 173 215 282 327 398
#     4  10  21  40  65  96 134 171 222 277 336 391
#     4  10  21  40  69  93 131 176 218 275 332 409
#     4   8  24  38  68  89 142 165 220 277 337 386
#     4  10  21  41  68  97 132 173 225 273 338 400
#
# _framework density 22.625084000000001
#
# number of rings (size 3 to 8) (size 9 to 14) (size 15 to 20)
#    2.400    0.000    0.000    2.400    2.800    0.000 
#    0.000    6.000    0.000    0.000    0.000    0.000 
#    0.000    0.000    0.000    0.000    0.000    0.000 
#
# Total GULP energy -55718.477368 kJ/mol
# GULP energy per Si atom -5571.847737 kJ/mol
# Density = 2.257359 g / cm^3
# Si number density = 22.625084 Si / 1000 Ang^3
#
#
#
# Elastic Constant Matrix: (Units=GPa)
#
#
# Indices 1 2 3 4 5 6 
#
# 1 75.8610 1.1863 43.4816 0.0000 0.8583 0.0000
# 2 1.1863 77.7321 29.2124 0.0000 -13.5399 0.0000
# 3 43.4816 29.2124 175.4189 0.0000 -2.3212 0.0000
# 4 0.0000 0.0000 0.0000 25.7531 0.0000 16.9140
# 5 0.8583 -13.5399 -2.3212 0.0000 40.9603 0.0000
# 6 0.0000 0.0000 0.0000 16.9140 0.0000 27.3058
#
#
#
# Elastic Compliance Matrix: (Units=1/GPa)
#
#
# Indices 1 2 3 4 5 6 
#
# 1 0.015485 0.001262 -0.004050 0.000000 -0.000137 0.000000
# 2 0.001262 0.014672 -0.002694 0.000000 0.004671 0.000000
# 3 -0.004050 -0.002694 0.007148 0.000000 -0.000401 0.000000
# 4 0.000000 0.000000 0.000000 0.065462 0.000000 -0.040549
# 5 -0.000137 0.004671 -0.000401 0.000000 0.025938 0.000000
# 6 0.000000 0.000000 0.000000 -0.040549 0.000000 0.061740
#
#
# Mechanical properties :
#
#
# Convention : Reuss Voigt Hill
#
# Bulk Modulus (GPa) = 37.96558 52.97473 45.47016
# Shear Modulus (GPa) = 23.78798 35.81261 29.80029
#
# Velocity S-wave (km/s) = 3.24605 3.98285 3.63317
# Velocity P-wave (km/s) = 5.55570 6.67950 6.14335
#
# Compressibility (1/GPa) = 0.02633965
#
# Stress axis : x y z
#
# Youngs Moduli (GPa) = 64.57700 68.15921 139.89958
#
# Poissons Ratio (x) = -0.08602 0.56665
# Poissons Ratio (y) = -0.08150 0.37692
# Poissons Ratio (z) = 0.26156 0.18364
#
# Static dielectric constant tensor:
#      x y z
#    x 1.781690 0.000000 0.024490 
#    y 0.000000 1.892690 0.000000 
#    z 0.024490 0.000000 1.848790 
# 
# From -- ./inp_files/6836.got.cif
#   From: 2010.05.17/outbox.cif.g08.bks.cpg/sg9_4_cif.got.tgz:6836.got - 2010.06.03 20:04:27.
