data_PCOD9136393
_publ_section_title
;
Structure prediction by ZEFSAII (Michael W. Deem and Ramdas Pophale) SiO2 
 PCOD9136393
Probable space group: C C
;
_chemical_formula_sum "Si O2"
_cell_formula_units_Z 32
_cell_length_a 23.347884
_cell_length_b 7.427427
_cell_length_c 9.558028
_cell_angle_alpha 90.000000
_cell_angle_beta 58.627042
_cell_angle_gamma 90.000000
_cell_volume 1415.170088
_symmetry_space_group_name_H-M "C C"
_symmetry_group_IT_number 9
_symmetry_cell_setting 'monoclinic'
loop_
_space_group_symop_operation_xyz
x,y,z
x,-y,1/2+z
1/2+x,1/2+y,z
1/2+x,1/2-y,1/2+z
loop_
_atom_site_type_symbol
_atom_site_label
_atom_site_fract_x
_atom_site_fract_y
_atom_site_fract_z
Si Si1 0.278680 0.452409 0.082210
Si Si2 0.564005 0.560248 0.559690
Si Si3 0.474165 0.464920 0.414535
Si Si4 0.128060 0.390993 0.341955
Si Si5 0.339798 0.680408 0.222026
Si Si6 0.564757 0.846230 0.131467
Si Si7 0.916666 0.491713 0.264979
Si Si8 0.389900 0.203773 0.049395
O O1 0.201032 0.405235 0.181523
O O2 0.292507 0.637798 0.149228
O O3 0.318905 0.298719 0.118935
O O4 0.311105 0.440518 0.886842
O O5 0.528249 0.506470 0.462275
O O6 0.510241 0.634639 0.741397
O O7 0.617054 0.710073 0.447835
O O8 0.581854 0.366147 0.601383
O O9 0.412250 0.375339 0.570924
O O10 0.441399 0.655308 0.410684
O O11 0.075306 0.399575 0.280263
O O12 0.116172 0.551670 0.465051
O O13 0.357055 0.869734 0.272260
O O14 0.492251 0.911810 0.163406
O O15 0.911186 0.671133 0.180888
O O16 0.898347 0.480274 0.451658
#
# Coordination Sequence:
#
# PCOD9136393 Si02
#       8
#     4   4   4   4   4   4   4   4
#     4  10  23  47  62  97 131 186 233 269 340 418
#     4  12  23  43  66 103 143 182 227 286 354 420
#     4  11  20  41  65  99 130 174 223 288 360 401
#     4  12  28  46  70 100 147 195 232 282 337 435
#     4  10  21  40  72  90 133 170 226 290 340 409
#     4  12  25  44  70 108 138 182 234 288 360 414
#     4  11  20  38  62 102 126 162 217 294 350 396
#     4  10  22  39  63  95 134 169 226 287 341 409
#
# _framework density 22.612124999999999
#
# number of rings (size 3 to 8) (size 9 to 14) (size 15 to 20)
#    0.000    1.000    3.750    3.750    1.750    4.000 
#    6.750    0.000    0.000    0.000    0.000    0.000 
#    0.000    0.000    0.000    0.000    0.000    0.000 
#
# Total GULP energy -89304.399499 kJ/mol
# GULP energy per Si atom -5581.524969 kJ/mol
# Density = 2.256066 g / cm^3
# Si number density = 22.612125 Si / 1000 Ang^3
#
#
#
# Elastic Constant Matrix: (Units=GPa)
#
#
# Indices 1 2 3 4 5 6 
#
# 1 51.4938 8.4949 18.8537 0.0000 -3.7779 0.0000
# 2 8.4949 44.3734 30.6374 0.0000 -9.9925 0.0000
# 3 18.8537 30.6374 113.3839 0.0000 16.1594 0.0000
# 4 0.0000 0.0000 0.0000 33.3427 0.0000 4.4392
# 5 -3.7779 -9.9925 16.1594 0.0000 23.6313 0.0000
# 6 0.0000 0.0000 0.0000 4.4392 0.0000 19.0217
#
#
#
# Elastic Compliance Matrix: (Units=1/GPa)
#
#
# Indices 1 2 3 4 5 6 
#
# 1 0.021568 0.000777 -0.004803 0.000000 0.007061 0.000000
# 2 0.000777 0.037867 -0.014028 0.000000 0.025729 0.000000
# 3 -0.004803 -0.014028 0.015914 0.000000 -0.017582 0.000000
# 4 0.000000 0.000000 0.000000 0.030953 0.000000 -0.007224
# 5 0.007061 0.025729 -0.017582 0.000000 0.066348 0.000000
# 6 0.000000 0.000000 0.000000 -0.007224 0.000000 0.054257
#
#
# Mechanical properties :
#
#
# Convention : Reuss Voigt Hill
#
# Bulk Modulus (GPa) = 25.48297 36.13591 30.80944
# Shear Modulus (GPa) = 18.10967 25.28348 21.69658
#
# Velocity S-wave (km/s) = 2.83306 3.34749 3.10096
# Velocity P-wave (km/s) = 4.68996 5.56384 5.14549
#
# Compressibility (1/GPa) = 0.03924189
#
# Stress axis : x y z
#
# Youngs Moduli (GPa) = 46.36491 26.40845 62.83600
#
# Poissons Ratio (x) = -0.02052 0.30177
# Poissons Ratio (y) = -0.03602 0.88146
# Poissons Ratio (z) = 0.22267 0.37046
#
# Static dielectric constant tensor:
#      x y z
#    x 1.825030 0.000000 -0.005070 
#    y 0.000000 1.970470 0.000000 
#    z -0.005070 0.000000 1.849830 
# 
# From -- ./inp_files/12050.got.cif
#   From: 2010.05.17/outbox.cif.g08.bks.cpg/sg9_7_cif.got.tgz:12050.got - 2010.06.03 20:04:27.
