data_PCOD9136753
_publ_section_title
;
Structure prediction by ZEFSAII (Michael W. Deem and Ramdas Pophale) SiO2 
 PCOD9136753
Probable space group: C C
;
_chemical_formula_sum "Si O2"
_cell_formula_units_Z 32
_cell_length_a 11.018717
_cell_length_b 9.638952
_cell_length_c 18.730030
_cell_angle_alpha 90.000000
_cell_angle_beta 38.074600
_cell_angle_gamma 90.000000
_cell_volume 1226.772640
_symmetry_space_group_name_H-M "C C"
_symmetry_group_IT_number 9
_symmetry_cell_setting 'monoclinic'
loop_
_space_group_symop_operation_xyz
x,y,z
x,-y,1/2+z
1/2+x,1/2+y,z
1/2+x,1/2-y,1/2+z
loop_
_atom_site_type_symbol
_atom_site_label
_atom_site_fract_x
_atom_site_fract_y
_atom_site_fract_z
Si Si1 0.926100 0.218056 0.957940
Si Si2 0.341441 0.868587 0.812471
Si Si3 0.975104 0.521455 0.956461
Si Si4 0.855448 0.933651 0.355599
Si Si5 0.888958 0.746281 0.707671
Si Si6 0.792069 0.526725 0.178972
Si Si7 0.582073 0.891872 0.254711
Si Si8 0.986516 0.987643 0.561151
O O1 0.858806 0.376709 0.999230
O O2 0.803167 0.125745 0.958745
O O3 0.150014 0.240819 0.824683
O O4 0.942428 0.126653 0.020424
O O5 0.378850 0.708731 0.802826
O O6 0.293682 0.896989 0.753116
O O7 0.529501 0.954115 0.750468
O O8 0.172581 0.931170 0.942252
O O9 0.993296 0.610241 0.875960
O O10 0.191449 0.484732 0.887879
O O11 0.882388 0.596504 0.067307
O O12 0.064100 0.003530 0.267451
O O13 0.912659 0.615969 0.641394
O O14 0.982275 0.704040 0.740960
O O15 0.982995 0.887024 0.632442
O O16 0.815591 0.899426 0.150387
#
# Coordination Sequence:
#
# PCOD9136753 Si02
#       8
#     4   4   4   4   4   4   4   4
#     4  11  22  44  70 102 140 188 238 288 360 430
#     4  11  24  47  72 106 146 187 244 299 367 427
#     4  12  25  44  71 109 141 195 249 285 371 441
#     4  11  25  48  69 103 153 182 237 307 349 434
#     4  10  21  43  70 106 142 188 238 300 361 430
#     4  10  23  43  75 106 139 198 241 293 366 435
#     4  11  24  45  68 107 150 186 242 303 359 434
#     4  12  22  42  77 107 141 190 243 297 371 427
#
# _framework density 26.084702
#
# number of rings (size 3 to 8) (size 9 to 14) (size 15 to 20)
#    0.000    1.000    7.500    0.750    3.500    1.000 
#    6.750    0.000    0.000    0.000    0.000    0.000 
#    0.000    0.000    0.000    0.000    0.000    0.000 
#
# Total GULP energy -89570.408443 kJ/mol
# GULP energy per Si atom -5598.150528 kJ/mol
# Density = 2.602533 g / cm^3
# Si number density = 26.084702 Si / 1000 Ang^3
#
#
#
# Elastic Constant Matrix: (Units=GPa)
#
#
# Indices 1 2 3 4 5 6 
#
# 1 141.3592 15.7192 42.8873 0.0000 46.2156 0.0000
# 2 15.7192 60.0299 -5.4152 0.0000 20.7325 0.0000
# 3 42.8873 -5.4152 96.3169 -0.0001 31.0296 0.0001
# 4 0.0000 0.0000 -0.0001 16.6147 0.0000 14.9486
# 5 46.2156 20.7325 31.0296 0.0000 43.4634 0.0000
# 6 0.0000 0.0000 0.0001 14.9486 0.0000 37.7721
#
#
#
# Elastic Compliance Matrix: (Units=1/GPa)
#
#
# Indices 1 2 3 4 5 6 
#
# 1 0.011037 0.000898 -0.001228 0.000000 -0.011288 0.000000
# 2 0.000898 0.022480 0.006008 0.000000 -0.015967 0.000000
# 3 -0.001228 0.006008 0.015285 0.000000 -0.012473 0.000000
# 4 0.000000 0.000000 0.000000 0.093470 0.000000 -0.036992
# 5 -0.011288 -0.015967 -0.012473 0.000000 0.051532 0.000000
# 6 0.000000 0.000000 0.000000 -0.036992 0.000000 0.041114
#
#
# Mechanical properties :
#
#
# Convention : Reuss Voigt Hill
#
# Bulk Modulus (GPa) = 16.62279 44.89872 30.76076
# Shear Modulus (GPa) = 20.52423 35.87104 28.19763
#
# Velocity S-wave (km/s) = 2.80809 3.71236 3.29143
# Velocity P-wave (km/s) = 4.11100 5.96871 5.12473
#
# Compressibility (1/GPa) = 0.06015837
#
# Stress axis : x y z
#
# Youngs Moduli (GPa) = 90.60241 44.48446 65.42296
#
# Poissons Ratio (x) = -0.03993 0.08031
# Poissons Ratio (y) = -0.08132 -0.39307
# Poissons Ratio (z) = 0.11122 -0.26727
#
# Static dielectric constant tensor:
#      x y z
#    x 2.059540 0.000000 0.000820 
#    y 0.000000 2.064820 0.000000 
#    z 0.000820 0.000000 2.110600 
# 
# From -- ./inp_files/30065.got.cif
#   From: 2010.05.17/outbox.cif.g08.bks.cpg/sg9_16_cif.got.tgz:30065.got - 2010.06.03 20:04:27.
