data_PCOD9136532
_publ_section_title
;
Structure prediction by ZEFSAII (Michael W. Deem and Ramdas Pophale) SiO2 
 PCOD9136532
Probable space group: C C
;
_chemical_formula_sum "Si O2"
_cell_formula_units_Z 32
_cell_length_a 10.203023
_cell_length_b 14.725143
_cell_length_c 9.494964
_cell_angle_alpha 90.000000
_cell_angle_beta 101.191617
_cell_angle_gamma 90.000000
_cell_volume 1399.405060
_symmetry_space_group_name_H-M "C C"
_symmetry_group_IT_number 9
_symmetry_cell_setting 'monoclinic'
loop_
_space_group_symop_operation_xyz
x,y,z
x,-y,1/2+z
1/2+x,1/2+y,z
1/2+x,1/2-y,1/2+z
loop_
_atom_site_type_symbol
_atom_site_label
_atom_site_fract_x
_atom_site_fract_y
_atom_site_fract_z
Si Si1 0.679670 0.928897 0.014870
Si Si2 0.541752 0.960604 0.257759
Si Si3 0.480267 0.239633 0.429896
Si Si4 0.213986 0.838409 0.365075
Si Si5 0.913617 0.739585 0.729698
Si Si6 0.605802 0.499167 0.204563
Si Si7 0.961739 0.089841 0.416836
Si Si8 0.834146 0.624307 0.170079
O O1 0.665945 0.953454 0.175408
O O2 0.819873 0.918147 0.965895
O O3 0.595222 0.836143 0.980032
O O4 0.597297 0.006388 0.917104
O O5 0.475673 0.861441 0.250853
O O6 0.436987 0.039199 0.186888
O O7 0.561662 0.319286 0.373451
O O8 0.421826 0.267343 0.568305
O O9 0.378240 0.193105 0.301168
O O10 0.262179 0.772729 0.251506
O O11 0.213914 0.941708 0.315054
O O12 0.315509 0.828152 0.515819
O O13 0.978916 0.811084 0.850394
O O14 0.487533 0.525866 0.286062
O O15 0.563703 0.440878 0.060247
O O16 0.686390 0.586972 0.171529
#
# Coordination Sequence:
#
# PCOD9136532 Si02
#       8
#     4   4   4   4   4   4   4   4
#     4  10  21  42  67  96 145 178 237 283 360 425
#     4  10  21  41  72 104 131 191 235 293 347 430
#     4  10  25  44  70 107 141 187 237 302 356 426
#     4  12  24  46  68 106 142 186 237 299 360 422
#     4  11  24  43  73 102 144 180 244 292 359 422
#     4  12  27  44  72 101 143 193 240 292 366 430
#     4  12  26  47  68 105 146 189 235 303 359 429
#     4  11  24  45  74 105 144 188 245 298 355 436
#
# _framework density 22.866861
#
# number of rings (size 3 to 8) (size 9 to 14) (size 15 to 20)
#    0.000    1.000    3.750    2.250    7.000    0.000 
#    0.000    1.250    0.000    0.000    0.000    0.000 
#    0.000    0.000    0.000    0.000    0.000    0.000 
#
# Total GULP energy -89430.150338 kJ/mol
# GULP energy per Si atom -5589.384396 kJ/mol
# Density = 2.281482 g / cm^3
# Si number density = 22.866861 Si / 1000 Ang^3
#
#
#
# Elastic Constant Matrix: (Units=GPa)
#
#
# Indices 1 2 3 4 5 6 
#
# 1 86.0854 17.1133 52.9475 0.0000 -21.5062 0.0000
# 2 17.1133 66.8171 40.4309 0.0000 -4.7688 0.0000
# 3 52.9475 40.4309 132.1076 0.0000 -24.8470 0.0000
# 4 0.0000 0.0000 0.0000 36.8354 0.0000 -2.9480
# 5 -21.5062 -4.7688 -24.8470 0.0000 44.7429 0.0000
# 6 0.0000 0.0000 0.0000 -2.9480 0.0000 27.8569
#
#
#
# Elastic Compliance Matrix: (Units=1/GPa)
#
#
# Indices 1 2 3 4 5 6 
#
# 1 0.016265 -0.000518 -0.005472 0.000000 0.004724 0.000000
# 2 -0.000518 0.018452 -0.005713 0.000000 -0.001455 0.000000
# 3 -0.005472 -0.005713 0.012174 0.000000 0.003521 0.000000
# 4 0.000000 0.000000 0.000000 0.027380 0.000000 0.002898
# 5 0.004724 -0.001455 0.003521 0.000000 0.026421 0.000000
# 6 0.000000 0.000000 0.000000 0.002898 0.000000 0.036204
#
#
# Mechanical properties :
#
#
# Convention : Reuss Voigt Hill
#
# Bulk Modulus (GPa) = 42.58073 56.22150 49.40112
# Shear Modulus (GPa) = 29.73891 33.52159 31.63025
#
# Velocity S-wave (km/s) = 3.61019 3.83292 3.72322
# Velocity P-wave (km/s) = 6.00329 6.65043 6.33513
#
# Compressibility (1/GPa) = 0.02348480
#
# Stress axis : x y z
#
# Youngs Moduli (GPa) = 61.48158 54.19429 82.14548
#
# Poissons Ratio (x) = 0.02805 0.44950
# Poissons Ratio (y) = 0.03182 0.46933
# Poissons Ratio (z) = 0.33642 0.30963
#
# Static dielectric constant tensor:
#      x y z
#    x 1.864460 0.000000 -0.034890 
#    y 0.000000 1.853410 0.000000 
#    z -0.034890 0.000000 1.839020 
# 
# From -- ./inp_files/7466.got.cif
#   From: 2010.05.17/outbox.cif.g08.bks.cpg/sg9_4_cif.got.tgz:7466.got - 2010.06.03 20:04:27.
