data_PCOD9136967
_publ_section_title
;
Structure prediction by ZEFSAII (Michael W. Deem and Ramdas Pophale) SiO2 
 PCOD9136967
Probable space group: C C
;
_chemical_formula_sum "Si O2"
_cell_formula_units_Z 28
_cell_length_a 11.462479
_cell_length_b 8.812483
_cell_length_c 14.508175
_cell_angle_alpha 90.000000
_cell_angle_beta 51.223347
_cell_angle_gamma 90.000000
_cell_volume 1142.503896
_symmetry_space_group_name_H-M "C C"
_symmetry_group_IT_number 9
_symmetry_cell_setting 'monoclinic'
loop_
_space_group_symop_operation_xyz
x,y,z
x,-y,1/2+z
1/2+x,1/2+y,z
1/2+x,1/2-y,1/2+z
loop_
_atom_site_type_symbol
_atom_site_label
_atom_site_fract_x
_atom_site_fract_y
_atom_site_fract_z
Si Si1 0.288250 0.054663 0.611070
Si Si2 0.065569 0.047897 0.375737
Si Si3 0.761713 0.879247 0.528957
Si Si4 0.987156 0.590267 0.268267
Si Si5 0.744850 0.188155 0.831497
Si Si6 0.211768 0.102595 0.964342
Si Si7 0.608432 0.892388 0.905755
O O1 0.284973 0.231441 0.581843
O O2 0.466522 0.025927 0.525447
O O3 0.190873 0.032719 0.750291
O O4 0.217326 0.942818 0.568668
O O5 0.112487 0.223009 0.345223
O O6 0.093333 0.000655 0.467796
O O7 0.901321 0.987455 0.438033
O O8 0.629509 0.968281 0.643649
O O9 0.713817 0.809966 0.455786
O O10 0.037773 0.659071 0.342396
O O11 0.899378 0.717915 0.251554
O O12 0.870934 0.458030 0.348329
O O13 0.735738 0.012032 0.813168
O O14 0.172901 0.267478 0.943169
#
# Coordination Sequence:
#
# PCOD9136967 Si02
#       7
#     4   4   4   4   4   4   4
#     4  11  23  43  75 109 146 184 247 299 350 443
#     4  11  24  47  75 104 149 190 237 300 362 422
#     4  12  22  45  74 105 143 193 237 298 359 432
#     4  10  24  46  71 105 145 178 244 297 354 439
#     4  11  25  45  72 105 141 188 238 290 363 426
#     4  10  21  47  73 106 143 188 238 297 359 432
#     4  11  23  47  74 108 141 187 239 299 367 424
#
# _framework density 24.507577000000001
#
# number of rings (size 3 to 8) (size 9 to 14) (size 15 to 20)
#    0.000    1.143    5.714    1.714    4.000    3.429 
#    5.143    0.000    0.000    0.000    0.000    0.000 
#    0.000    0.000    0.000    0.000    0.000    0.000 
#
# Total GULP energy -78206.930162 kJ/mol
# GULP energy per Si atom -5586.209297 kJ/mol
# Density = 2.445180 g / cm^3
# Si number density = 24.507577 Si / 1000 Ang^3
#
#
#
# Elastic Constant Matrix: (Units=GPa)
#
#
# Indices 1 2 3 4 5 6 
#
# 1 106.4195 62.3713 33.1357 0.0000 0.6518 0.0000
# 2 62.3713 87.0627 -20.2339 0.0000 6.6642 0.0000
# 3 33.1357 -20.2339 69.3271 0.0000 -16.7620 0.0000
# 4 0.0000 0.0000 0.0000 14.7989 0.0000 10.0717
# 5 0.6518 6.6642 -16.7620 0.0000 28.3938 0.0000
# 6 0.0000 0.0000 0.0000 10.0717 0.0000 48.3394
#
#
#
# Elastic Compliance Matrix: (Units=1/GPa)
#
#
# Indices 1 2 3 4 5 6 
#
# 1 0.040713 -0.035881 -0.032804 0.000000 -0.011878 0.000000
# 2 -0.035881 0.043964 0.032295 0.000000 0.009570 0.000000
# 3 -0.032804 0.032295 0.044185 0.000000 0.019257 0.000000
# 4 0.000000 0.000000 0.000000 0.078737 0.000000 -0.016405
# 5 -0.011878 0.009570 0.019257 0.000000 0.044614 0.000000
# 6 0.000000 0.000000 0.000000 -0.016405 0.000000 0.024105
#
#
# Mechanical properties :
#
#
# Convention : Reuss Voigt Hill
#
# Bulk Modulus (GPa) = 17.83070 45.92838 31.87954
# Shear Modulus (GPa) = 13.59463 30.80884 22.20173
#
# Velocity S-wave (km/s) = 2.35779 3.54943 3.01310
# Velocity P-wave (km/s) = 3.83453 5.96482 5.01411
#
# Compressibility (1/GPa) = 0.05608304
#
# Stress axis : x y z
#
# Youngs Moduli (GPa) = 24.56211 22.74580 22.63208
#
# Poissons Ratio (x) = 0.81615 0.74241
# Poissons Ratio (y) = 0.88132 -0.73091
# Poissons Ratio (z) = 0.80573 -0.73458
#
# Static dielectric constant tensor:
#      x y z
#    x 2.021630 0.000000 -0.015180 
#    y 0.000000 2.109380 0.000000 
#    z -0.015180 0.000000 1.921880 
# 
# From -- ./inp_files/24155.got.cif
#   From: 2010.05.17/outbox.cif.g08.bks.cpg/sg9_13_cif.got.tgz:24155.got - 2010.06.03 20:04:27.
