data_PCOD9136128
_publ_section_title
;
Structure prediction by ZEFSAII (Michael W. Deem and Ramdas Pophale) SiO2 
 PCOD9136128
Probable space group: C C
;
_chemical_formula_sum "Si O2"
_cell_formula_units_Z 32
_cell_length_a 8.875160
_cell_length_b 10.346955
_cell_length_c 21.764328
_cell_angle_alpha 90.000000
_cell_angle_beta 134.854809
_cell_angle_gamma 90.000000
_cell_volume 1416.826792
_symmetry_space_group_name_H-M "C C"
_symmetry_group_IT_number 9
_symmetry_cell_setting 'monoclinic'
loop_
_space_group_symop_operation_xyz
x,y,z
x,-y,1/2+z
1/2+x,1/2+y,z
1/2+x,1/2-y,1/2+z
loop_
_atom_site_type_symbol
_atom_site_label
_atom_site_fract_x
_atom_site_fract_y
_atom_site_fract_z
Si Si1 0.759440 0.922461 0.081890
Si Si2 0.313802 0.300656 0.612409
Si Si3 0.119770 0.497465 0.405430
Si Si4 0.540827 0.541174 0.948583
Si Si5 0.536036 0.262697 0.339599
Si Si6 0.645595 0.905557 0.181601
Si Si7 0.975791 0.345077 0.621176
Si Si8 0.997668 0.240755 0.412511
O O1 0.603777 0.914562 0.095987
O O2 0.887373 0.789974 0.119141
O O3 0.896627 0.052410 0.132490
O O4 0.646363 0.950807 0.983705
O O5 0.492314 0.194027 0.671643
O O6 0.129215 0.303282 0.609788
O O7 0.192648 0.268581 0.514640
O O8 0.356248 0.480516 0.445489
O O9 0.993934 0.610500 0.334418
O O10 0.013264 0.357242 0.369089
O O11 0.509497 0.665376 0.896963
O O12 0.529347 0.409174 0.905417
O O13 0.766435 0.570437 0.044747
O O14 0.378234 0.344632 0.252633
O O15 0.778086 0.265306 0.385676
O O16 0.615354 0.050454 0.198929
#
# Coordination Sequence:
#
# PCOD9136128 Si02
#       8
#     4   4   4   4   4   4   4   4
#     4  10  23  39  64  96 124 168 220 265 323 388
#     4  10  21  39  62  97 120 166 219 266 316 394
#     4  10  23  38  67  98 122 168 224 269 322 394
#     4  11  21  38  67  97 125 165 219 274 322 387
#     4  11  24  44  61  95 137 167 211 278 331 383
#     4  11  26  41  64  94 136 172 212 276 337 373
#     4  11  21  38  64  96 124 166 218 267 320 391
#     4  10  21  39  67  91 126 166 219 263 317 394
#
# _framework density 22.585681999999998
#
# number of rings (size 3 to 8) (size 9 to 14) (size 15 to 20)
#    0.000    1.500    3.750    0.750    3.500    5.000 
#    0.000    1.250    0.000    0.000    0.000    0.000 
#    0.000    0.000    0.000    0.000    0.000    0.000 
#
# Total GULP energy -89247.720102 kJ/mol
# GULP energy per Si atom -5577.982506 kJ/mol
# Density = 2.253428 g / cm^3
# Si number density = 22.585682 Si / 1000 Ang^3
#
#
#
# Elastic Constant Matrix: (Units=GPa)
#
#
# Indices 1 2 3 4 5 6 
#
# 1 55.4835 28.8468 3.2859 0.0000 8.4802 0.0000
# 2 28.8468 137.0461 -19.4348 0.0000 14.2480 0.0000
# 3 3.2859 -19.4348 19.4858 0.0000 4.9565 0.0000
# 4 0.0000 0.0000 0.0000 16.5288 0.0000 6.1705
# 5 8.4802 14.2480 4.9565 0.0000 12.7155 0.0000
# 6 0.0000 0.0000 0.0000 6.1705 0.0000 35.3441
#
#
#
# Elastic Compliance Matrix: (Units=1/GPa)
#
#
# Indices 1 2 3 4 5 6 
#
# 1 0.021995 -0.004969 -0.007049 0.000000 -0.006354 0.000000
# 2 -0.004969 0.012817 0.018240 0.000000 -0.018158 0.000000
# 3 -0.007049 0.018240 0.082926 0.000000 -0.048062 0.000000
# 4 0.000000 0.000000 0.000000 0.064719 0.000000 -0.011299
# 5 -0.006354 -0.018158 -0.048062 0.000000 0.121962 0.000000
# 6 0.000000 0.000000 0.000000 -0.011299 0.000000 0.030266
#
#
# Mechanical properties :
#
#
# Convention : Reuss Voigt Hill
#
# Bulk Modulus (GPa) = 7.68142 26.37902 17.03022
# Shear Modulus (GPa) = 13.67487 26.20551 19.94019
#
# Velocity S-wave (km/s) = 2.46329 3.40997 2.97453
# Velocity P-wave (km/s) = 3.39099 5.21620 4.39929
#
# Compressibility (1/GPa) = 0.13018420
#
# Stress axis : x y z
#
# Youngs Moduli (GPa) = 45.46416 78.02020 12.05896
#
# Poissons Ratio (x) = 0.38767 0.08500
# Poissons Ratio (y) = 0.22590 -0.21996
# Poissons Ratio (z) = 0.32046 -1.42311
#
# Static dielectric constant tensor:
#      x y z
#    x 1.824420 0.000000 -0.046200 
#    y 0.000000 1.894440 0.000000 
#    z -0.046200 0.000000 1.889330 
# 
# From -- ./inp_files/36375.got.cif
#   From: 2010.05.17/outbox.cif.g08.bks.cpg/sg9_19_cif.got.tgz:36375.got - 2010.06.03 20:04:27.
