data_PCOD9136621
_publ_section_title
;
Structure prediction by ZEFSAII (Michael W. Deem and Ramdas Pophale) SiO2 
 PCOD9136621
Probable space group: C C
;
_chemical_formula_sum "Si O2"
_cell_formula_units_Z 28
_cell_length_a 10.681620
_cell_length_b 11.411496
_cell_length_c 19.192449
_cell_angle_alpha 90.000000
_cell_angle_beta 153.668850
_cell_angle_gamma 90.000000
_cell_volume 1037.674215
_symmetry_space_group_name_H-M "C C"
_symmetry_group_IT_number 9
_symmetry_cell_setting 'monoclinic'
loop_
_space_group_symop_operation_xyz
x,y,z
x,-y,1/2+z
1/2+x,1/2+y,z
1/2+x,1/2-y,1/2+z
loop_
_atom_site_type_symbol
_atom_site_label
_atom_site_fract_x
_atom_site_fract_y
_atom_site_fract_z
Si Si1 0.845450 0.794928 0.061240
Si Si2 0.082220 0.067304 0.941396
Si Si3 0.916938 0.525538 0.721774
Si Si4 0.550735 0.040600 0.590938
Si Si5 0.821056 0.202200 0.391980
Si Si6 0.359721 0.042449 0.342760
Si Si7 0.934884 0.262446 0.133576
O O1 0.084850 0.783632 0.237943
O O2 0.589405 0.705074 0.952875
O O3 0.923707 0.767924 0.020956
O O4 0.678337 0.913651 0.984153
O O5 0.870037 0.024376 0.776283
O O6 0.120488 0.002034 0.033537
O O7 0.386424 0.039781 0.062253
O O8 0.825323 0.536695 0.756564
O O9 0.039689 0.641888 0.745071
O O10 0.116229 0.412826 0.805740
O O11 0.425906 0.007464 0.454749
O O12 0.483507 0.173575 0.582998
O O13 0.098451 0.229792 0.482229
O O14 0.104219 0.139635 0.218204
#
# Coordination Sequence:
#
# PCOD9136621 Si02
#       7
#     4   4   4   4   4   4   4
#     4  10  21  42  68  92 134 185 226 286 357 423
#     4  10  22  42  69  93 138 182 227 285 358 420
#     4   9  24  45  71  99 139 188 235 289 361 428
#     4  11  25  42  68 103 134 180 236 288 356 430
#     4  10  23  41  66  98 137 180 235 290 356 421
#     4  11  24  47  72 104 137 182 240 292 350 428
#     4  11  25  41  72 101 139 185 237 292 358 426
#
# _framework density 26.983421
#
# number of rings (size 3 to 8) (size 9 to 14) (size 15 to 20)
#    0.000    1.714    1.429    0.857   18.000    0.000 
#    7.714    0.000    0.000    0.000    0.000    0.000 
#    0.000    0.000    0.000    0.000    0.000    0.000 
#
# Total GULP energy -78049.967581 kJ/mol
# GULP energy per Si atom -5574.997684 kJ/mol
# Density = 2.692201 g / cm^3
# Si number density = 26.983421 Si / 1000 Ang^3
#
#
#
# Elastic Constant Matrix: (Units=GPa)
#
#
# Indices 1 2 3 4 5 6 
#
# 1 141.2232 22.1309 56.4557 0.0011 -40.4515 -0.0002
# 2 22.1309 51.8869 50.1001 0.0005 -18.3322 -0.0002
# 3 56.4557 50.1001 140.6027 0.0043 -12.4099 0.0020
# 4 0.0011 0.0005 0.0043 37.5090 0.0010 -8.7446
# 5 -40.4515 -18.3322 -12.4099 0.0010 63.8932 -0.0001
# 6 -0.0002 -0.0002 0.0020 -8.7446 -0.0001 32.4206
#
#
#
# Elastic Compliance Matrix: (Units=1/GPa)
#
#
# Indices 1 2 3 4 5 6 
#
# 1 0.010265 0.001937 -0.004262 0.000000 0.006227 0.000000
# 2 0.001937 0.032672 -0.011684 0.000001 0.008331 0.000001
# 3 -0.004262 -0.011684 0.012670 -0.000001 -0.003590 -0.000001
# 4 0.000000 0.000001 -0.000001 0.028449 0.000000 0.007673
# 5 0.006227 0.008331 -0.003590 0.000000 0.021287 0.000000
# 6 0.000000 0.000001 -0.000001 0.007673 0.000000 0.032914
#
#
# Mechanical properties :
#
#
# Convention : Reuss Voigt Hill
#
# Bulk Modulus (GPa) = 36.24721 65.67625 50.96173
# Shear Modulus (GPa) = 28.49464 40.43298 34.46381
#
# Velocity S-wave (km/s) = 3.25315 3.87517 3.57770
# Velocity P-wave (km/s) = 5.25099 6.66445 5.99949
#
# Compressibility (1/GPa) = 0.02758833
#
# Stress axis : x y z
#
# Youngs Moduli (GPa) = 97.41933 30.60744 78.92529
#
# Poissons Ratio (x) = -0.05930 0.33641
# Poissons Ratio (y) = -0.18874 0.92219
# Poissons Ratio (z) = 0.41524 0.35763
#
# Static dielectric constant tensor:
#      x y z
#    x 2.258330 0.000000 0.005010 
#    y 0.000000 2.458530 0.000000 
#    z 0.005010 0.000000 2.144580 
# 
# From -- ./inp_files/33404.got.cif
#   From: 2010.05.17/outbox.cif.g08.bks.cpg/sg9_17_cif.got.tgz:33404.got - 2010.06.03 20:04:27.
