data_PCOD9136929
_publ_section_title
;
Structure prediction by ZEFSAII (Michael W. Deem and Ramdas Pophale) SiO2 
 PCOD9136929
Probable space group: C C
;
_chemical_formula_sum "Si O2"
_cell_formula_units_Z 28
_cell_length_a 17.756088
_cell_length_b 5.287727
_cell_length_c 13.646864
_cell_angle_alpha 90.000000
_cell_angle_beta 115.665612
_cell_angle_gamma 90.000000
_cell_volume 1154.878885
_symmetry_space_group_name_H-M "C C"
_symmetry_group_IT_number 9
_symmetry_cell_setting 'monoclinic'
loop_
_space_group_symop_operation_xyz
x,y,z
x,-y,1/2+z
1/2+x,1/2+y,z
1/2+x,1/2-y,1/2+z
loop_
_atom_site_type_symbol
_atom_site_label
_atom_site_fract_x
_atom_site_fract_y
_atom_site_fract_z
Si Si1 0.674090 0.648490 0.543290
Si Si2 0.494655 0.405923 0.438882
Si Si3 0.342627 0.410722 0.974307
Si Si4 0.667818 0.875127 0.340300
Si Si5 0.511068 0.163696 0.257969
Si Si6 0.577581 0.980543 0.107532
Si Si7 0.849672 0.588189 0.609906
O O1 0.587948 0.505214 0.510623
O O2 0.765578 0.562592 0.627416
O O3 0.683657 0.665947 0.430674
O O4 0.651597 0.911383 0.583219
O O5 0.417915 0.554295 0.441126
O O6 0.485040 0.381559 0.316727
O O7 0.503992 0.139024 0.501980
O O8 0.344393 0.141353 0.028407
O O9 0.352059 0.635986 0.060839
O O10 0.252935 0.470934 0.874478
O O11 0.596473 0.050050 0.349349
O O12 0.622201 0.800164 0.213984
O O13 0.435385 0.966116 0.214539
O O14 0.537750 0.191636 0.159409
#
# Coordination Sequence:
#
# PCOD9136929 Si02
#       7
#     4   4   4   4   4   4   4
#     4  11  24  43  74 100 144 188 246 298 369 432
#     4  12  24  41  74 101 143 190 244 300 362 440
#     4  11  24  48  70 105 142 188 235 302 362 433
#     4   9  22  44  69  98 142 183 239 292 362 432
#     4  10  22  44  68 103 137 190 239 296 363 434
#     4  10  21  46  66 101 138 189 238 301 360 432
#     4  11  25  46  73 102 146 184 239 301 364 427
#
# _framework density 24.244969000000001
#
# number of rings (size 3 to 8) (size 9 to 14) (size 15 to 20)
#    0.857    0.571    2.857    1.714    2.000    4.571 
#    7.714    0.000    0.000    0.000    0.000    0.000 
#    0.000    0.000    0.000    0.000    0.000    0.000 
#
# Total GULP energy -78091.108856 kJ/mol
# GULP energy per Si atom -5577.936347 kJ/mol
# Density = 2.418979 g / cm^3
# Si number density = 24.244969 Si / 1000 Ang^3
#
#
#
# Elastic Constant Matrix: (Units=GPa)
#
#
# Indices 1 2 3 4 5 6 
#
# 1 179.7311 31.0281 37.9234 0.0000 23.2802 0.0000
# 2 31.0281 63.7237 14.1717 0.0000 -3.3422 0.0000
# 3 37.9234 14.1717 76.4742 0.0000 -2.5400 0.0000
# 4 0.0000 0.0000 0.0000 23.8035 0.0000 1.3106
# 5 23.2802 -3.3422 -2.5400 0.0000 35.4864 0.0000
# 6 0.0000 0.0000 0.0000 1.3106 0.0000 39.7473
#
#
#
# Elastic Compliance Matrix: (Units=1/GPa)
#
#
# Indices 1 2 3 4 5 6 
#
# 1 0.007529 -0.003215 -0.003320 0.000000 -0.005480 0.000000
# 2 -0.003215 0.017803 -0.001583 0.000000 0.003673 0.000000
# 3 -0.003320 -0.001583 0.015119 0.000000 0.003111 0.000000
# 4 0.000000 0.000000 0.000000 0.042087 0.000000 -0.001388
# 5 -0.005480 0.003673 0.003111 0.000000 0.032343 0.000000
# 6 0.000000 0.000000 0.000000 -0.001388 0.000000 0.025205
#
#
# Mechanical properties :
#
#
# Convention : Reuss Voigt Hill
#
# Bulk Modulus (GPa) = 41.29547 54.01949 47.65748
# Shear Modulus (GPa) = 30.41472 35.59448 33.00460
#
# Velocity S-wave (km/s) = 3.54570 3.83576 3.69358
# Velocity P-wave (km/s) = 5.81655 6.47661 6.15543
#
# Compressibility (1/GPa) = 0.02421573
#
# Stress axis : x y z
#
# Youngs Moduli (GPa) = 132.81585 56.17065 66.14072
#
# Poissons Ratio (x) = 0.18060 0.21958
# Poissons Ratio (y) = 0.42703 0.10468
# Poissons Ratio (z) = 0.44094 0.08890
#
# Static dielectric constant tensor:
#      x y z
#    x 1.937340 0.000000 0.029210 
#    y 0.000000 2.061060 0.000000 
#    z 0.029210 0.000000 1.955690 
# 
# From -- ./inp_files/26418.got.cif
#   From: 2010.05.17/outbox.cif.g08.bks.cpg/sg9_14_cif.got.tgz:26418.got - 2010.06.03 20:04:27.
