data_PCOD9136027
_publ_section_title
;
Structure prediction by ZEFSAII (Michael W. Deem and Ramdas Pophale) SiO2 
 PCOD9136027
Probable space group: C C
;
_chemical_formula_sum "Si O2"
_cell_formula_units_Z 28
_cell_length_a 5.382192
_cell_length_b 20.982113
_cell_length_c 11.731442
_cell_angle_alpha 90.000000
_cell_angle_beta 109.685003
_cell_angle_gamma 90.000000
_cell_volume 1247.404274
_symmetry_space_group_name_H-M "C C"
_symmetry_group_IT_number 9
_symmetry_cell_setting 'monoclinic'
loop_
_space_group_symop_operation_xyz
x,y,z
x,-y,1/2+z
1/2+x,1/2+y,z
1/2+x,1/2-y,1/2+z
loop_
_atom_site_type_symbol
_atom_site_label
_atom_site_fract_x
_atom_site_fract_y
_atom_site_fract_z
Si Si1 0.331030 0.978792 0.359050
Si Si2 0.710446 0.388888 0.706378
Si Si3 0.756901 0.048931 0.757502
Si Si4 0.626641 0.278752 0.033839
Si Si5 0.669101 0.161227 0.600230
Si Si6 0.141235 0.428269 0.611752
Si Si7 0.062667 0.753907 0.773703
O O1 0.502021 0.937364 0.294934
O O2 0.505952 0.973299 0.498020
O O3 0.053712 0.945911 0.347028
O O4 0.282382 0.049211 0.296860
O O5 0.414509 0.399077 0.611353
O O6 0.689241 0.322843 0.770021
O O7 0.921723 0.384383 0.636855
O O8 0.742676 0.089904 0.641136
O O9 0.729859 0.974717 0.726581
O O10 0.356367 0.310388 0.033068
O O11 0.857678 0.328916 0.034609
O O12 0.776266 0.246260 0.165046
O O13 0.567043 0.240173 0.908903
O O14 0.719026 0.201140 0.724925
#
# Coordination Sequence:
#
# PCOD9136027 Si02
#       7
#     4   4   4   4   4   4   4
#     4  10  21  38  63  90 125 165 209 263 327 385
#     4  10  23  40  62  92 129 162 214 265 322 394
#     4  10  21  41  58  92 123 159 219 256 320 385
#     4  10  25  41  67  95 133 167 226 255 339 376
#     4  10  24  43  65  94 124 175 212 278 313 397
#     4  10  22  39  61  91 125 166 208 265 326 381
#     4  10  26  44  66 100 131 176 218 272 329 392
#
# _framework density 22.446612999999999
#
# number of rings (size 3 to 8) (size 9 to 14) (size 15 to 20)
#    0.857    1.143    0.000    1.714    6.000    2.286 
#    5.143    0.000    0.000    0.000    0.000    0.000 
#    0.000    0.000    0.000    0.000    0.000    0.000 
#
# Total GULP energy -77956.234568 kJ/mol
# GULP energy per Si atom -5568.302469 kJ/mol
# Density = 2.239552 g / cm^3
# Si number density = 22.446613 Si / 1000 Ang^3
#
#
#
# Elastic Constant Matrix: (Units=GPa)
#
#
# Indices 1 2 3 4 5 6 
#
# 1 116.5210 -2.8261 4.8309 0.0000 -13.4027 0.0000
# 2 -2.8261 19.9948 -17.8062 0.0000 -2.7954 0.0000
# 3 4.8309 -17.8062 66.8962 0.0000 1.6555 0.0000
# 4 0.0000 0.0000 0.0000 17.6335 0.0000 -4.6989
# 5 -13.4027 -2.7954 1.6555 0.0000 17.8916 0.0000
# 6 0.0000 0.0000 0.0000 -4.6989 0.0000 2.3332
#
#
#
# Elastic Compliance Matrix: (Units=1/GPa)
#
#
# Indices 1 2 3 4 5 6 
#
# 1 0.009507 0.002114 -0.000309 0.000000 0.007480 0.000000
# 2 0.002114 0.067384 0.017524 0.000000 0.010491 0.000000
# 3 -0.000309 0.017524 0.019618 0.000000 0.000691 0.000000
# 4 0.000000 0.000000 0.000000 0.122398 0.000000 0.246503
# 5 0.007480 0.010491 0.000691 0.000000 0.063071 0.000000
# 6 0.000000 0.000000 0.000000 0.246503 0.000000 0.925043
#
#
# Mechanical properties :
#
#
# Convention : Reuss Voigt Hill
#
# Bulk Modulus (GPa) = 7.39823 19.08992 13.24407
# Shear Modulus (GPa) = 4.12059 22.18587 13.15323
#
# Velocity S-wave (km/s) = 1.35636 3.14727 2.42333
# Velocity P-wave (km/s) = 2.39917 4.66156 3.70716
#
# Compressibility (1/GPa) = 0.13516755
#
# Stress axis : x y z
#
# Youngs Moduli (GPa) = 105.18945 14.84031 50.97326
#
# Poissons Ratio (x) = -0.03138 0.01574
# Poissons Ratio (y) = -0.22242 -0.89324
# Poissons Ratio (z) = 0.03248 -0.26006
#
# Static dielectric constant tensor:
#      x y z
#    x 1.869070 0.000000 0.005320 
#    y 0.000000 1.850360 0.000000 
#    z 0.005320 0.000000 1.863750 
# 
# From -- ./inp_files/13309.got.cif
#   From: 2010.05.17/outbox.cif.g08.bks.cpg/sg9_7_cif.got.tgz:13309.got - 2010.06.03 20:04:27.
