data_PCOD9136352
_publ_section_title
;
Structure prediction by ZEFSAII (Michael W. Deem and Ramdas Pophale) SiO2 
 PCOD9136352
Probable space group: C C
;
_chemical_formula_sum "Si O2"
_cell_formula_units_Z 28
_cell_length_a 18.676347
_cell_length_b 10.080450
_cell_length_c 9.120122
_cell_angle_alpha 90.000000
_cell_angle_beta 141.662195
_cell_angle_gamma 90.000000
_cell_volume 1065.054862
_symmetry_space_group_name_H-M "C C"
_symmetry_group_IT_number 9
_symmetry_cell_setting 'monoclinic'
loop_
_space_group_symop_operation_xyz
x,y,z
x,-y,1/2+z
1/2+x,1/2+y,z
1/2+x,1/2-y,1/2+z
loop_
_atom_site_type_symbol
_atom_site_label
_atom_site_fract_x
_atom_site_fract_y
_atom_site_fract_z
Si Si1 0.197840 0.257173 0.696830
Si Si2 0.241293 0.500752 0.555255
Si Si3 0.352750 0.667740 0.988371
Si Si4 0.440968 0.323314 0.169622
Si Si5 0.534454 0.452262 0.613345
Si Si6 0.782631 0.583633 0.571153
Si Si7 0.017646 0.385731 0.575517
O O1 0.205856 0.381981 0.603035
O O2 0.234261 0.139665 0.648316
O O3 0.073078 0.266494 0.568329
O O4 0.305905 0.287767 0.979564
O O5 0.281302 0.617426 0.730728
O O6 0.332376 0.439698 0.585239
O O7 0.126966 0.525209 0.278658
O O8 0.484801 0.663207 0.143069
O O9 0.308247 0.803618 0.989190
O O10 0.509202 0.385419 0.415550
O O11 0.460595 0.426705 0.065598
O O12 0.486014 0.184020 0.177694
O O13 0.669101 0.493530 0.835354
O O14 0.911043 0.541587 0.826104
#
# Coordination Sequence:
#
# PCOD9136352 Si02
#       7
#     4   4   4   4   4   4   4
#     4  10  21  40  68  93 120 169 210 271 304 374
#     4  11  20  38  69  98 118 161 223 260 311 367
#     4  11  21  39  69  95 120 166 219 265 309 374
#     4  11  26  39  70  95 124 170 220 257 322 361
#     4  12  23  43  62  97 129 169 210 269 306 391
#     4  10  25  38  62  94 131 166 207 256 332 365
#     4  11  22  43  62  96 130 163 213 264 314 384
#
# _framework density 26.289726000000002
#
# number of rings (size 3 to 8) (size 9 to 14) (size 15 to 20)
#    0.000    1.143    2.857    3.429    6.000    0.000 
#    2.571    0.000    3.143    0.000    0.000    0.000 
#    0.000    0.000    0.000    0.000    0.000    0.000 
#
# Total GULP energy -78169.662536 kJ/mol
# GULP energy per Si atom -5583.547324 kJ/mol
# Density = 2.622989 g / cm^3
# Si number density = 26.289726 Si / 1000 Ang^3
#
#
#
# Elastic Constant Matrix: (Units=GPa)
#
#
# Indices 1 2 3 4 5 6 
#
# 1 153.7472 8.8325 58.8171 0.0000 -5.4556 0.0000
# 2 8.8325 6.9803 3.5992 0.0000 -6.5078 0.0000
# 3 58.8171 3.5992 157.1463 0.0000 6.4693 0.0000
# 4 0.0000 0.0000 0.0000 23.1555 0.0000 4.7255
# 5 -5.4556 -6.5078 6.4693 0.0000 64.8526 0.0000
# 6 0.0000 0.0000 0.0000 4.7255 0.0000 32.1850
#
#
#
# Elastic Compliance Matrix: (Units=1/GPa)
#
#
# Indices 1 2 3 4 5 6 
#
# 1 0.008090 -0.008692 -0.002833 0.000000 0.000091 0.000000
# 2 -0.008692 0.170320 -0.001327 0.000000 0.016492 0.000000
# 3 -0.002833 -0.001327 0.007500 0.000000 -0.001120 0.000000
# 4 0.000000 0.000000 0.000000 0.044520 0.000000 -0.006537
# 5 0.000091 0.016492 -0.001120 0.000000 0.017194 0.000000
# 6 0.000000 0.000000 0.000000 -0.006537 0.000000 0.032030
#
#
# Mechanical properties :
#
#
# Convention : Reuss Voigt Hill
#
# Bulk Modulus (GPa) = 6.24189 51.15237 28.69713
# Shear Modulus (GPa) = 13.93690 40.48029 27.20859
#
# Velocity S-wave (km/s) = 2.30495 3.92825 3.22056
# Velocity P-wave (km/s) = 3.07622 6.33043 4.97682
#
# Compressibility (1/GPa) = 0.16020784
#
# Stress axis : x y z
#
# Youngs Moduli (GPa) = 123.60257 5.87131 133.32913
#
# Poissons Ratio (x) = 0.05103 0.37769
# Poissons Ratio (y) = 1.07434 0.17689
# Poissons Ratio (z) = 0.35014 0.00779
#
# Static dielectric constant tensor:
#      x y z
#    x 2.077370 0.000000 0.021310 
#    y 0.000000 2.185080 0.000000 
#    z 0.021310 0.000000 2.157400 
# 
# From -- ./inp_files/10908.got.cif
#   From: 2010.05.17/outbox.cif.g08.bks.cpg/sg9_6_cif.got.tgz:10908.got - 2010.06.03 20:04:27.
