data_PCOD9136186
_publ_section_title
;
Structure prediction by ZEFSAII (Michael W. Deem and Ramdas Pophale) SiO2 
 PCOD9136186
Probable space group: C C
;
_chemical_formula_sum "Si O2"
_cell_formula_units_Z 32
_cell_length_a 25.045290
_cell_length_b 5.202491
_cell_length_c 10.439991
_cell_angle_alpha 90.000000
_cell_angle_beta 113.968794
_cell_angle_gamma 90.000000
_cell_volume 1243.005142
_symmetry_space_group_name_H-M "C C"
_symmetry_group_IT_number 9
_symmetry_cell_setting 'monoclinic'
loop_
_space_group_symop_operation_xyz
x,y,z
x,-y,1/2+z
1/2+x,1/2+y,z
1/2+x,1/2-y,1/2+z
loop_
_atom_site_type_symbol
_atom_site_label
_atom_site_fract_x
_atom_site_fract_y
_atom_site_fract_z
Si Si1 0.773720 0.536053 0.277800
Si Si2 0.830899 0.948788 0.151997
Si Si3 0.061150 0.943332 0.133146
Si Si4 0.104786 0.469045 0.298979
Si Si5 0.001924 0.645678 0.865870
Si Si6 0.889851 0.315328 0.380414
Si Si7 0.228602 0.738443 0.981909
Si Si8 0.941345 0.989391 0.128585
O O1 0.797308 0.787295 0.225422
O O2 0.835847 0.441432 0.399905
O O3 0.732826 0.583237 0.360088
O O4 0.779733 0.972218 0.505879
O O5 0.893349 0.840169 0.166943
O O6 0.854439 0.227058 0.221262
O O7 0.741494 0.373643 0.132406
O O8 0.106935 0.723653 0.215136
O O9 0.004515 0.873978 0.164742
O O10 0.082550 0.226493 0.190835
O O11 0.034192 0.888192 0.967070
O O12 0.166102 0.395176 0.419946
O O13 0.056824 0.503302 0.364668
O O14 0.951509 0.544813 0.913676
O O15 0.961304 0.745259 0.710230
O O16 0.909037 0.043032 0.462057
#
# Coordination Sequence:
#
# PCOD9136186 Si02
#       8
#     4   4   4   4   4   4   4   4
#     4  11  24  43  70 103 145 188 252 308 382 450
#     4  10  21  39  67 100 140 183 237 301 374 442
#     4  10  24  44  69 103 137 187 239 302 368 440
#     4  11  26  45  70  99 141 190 245 299 369 441
#     4   9  21  42  68  98 136 182 238 303 370 434
#     4   9  19  39  63 102 131 182 226 303 367 444
#     4  11  27  44  69 106 141 201 248 311 376 454
#     4   9  18  40  66  97 139 171 239 293 374 435
#
# _framework density 25.744060000000001
#
# number of rings (size 3 to 8) (size 9 to 14) (size 15 to 20)
#    0.000    2.000    0.000    1.500    5.250    4.000 
#   27.000    0.000    0.000    0.000    0.000    0.000 
#    0.000    0.000    0.000    0.000    0.000    0.000 
#
# Total GULP energy -89084.000205 kJ/mol
# GULP energy per Si atom -5567.750013 kJ/mol
# Density = 2.568547 g / cm^3
# Si number density = 25.744060 Si / 1000 Ang^3
#
#
#
# Elastic Constant Matrix: (Units=GPa)
#
#
# Indices 1 2 3 4 5 6 
#
# 1 90.3545 10.1882 31.1466 0.0000 22.7761 0.0000
# 2 10.1882 62.2490 17.8159 0.0000 1.9429 0.0000
# 3 31.1466 17.8159 94.3298 0.0000 4.0502 0.0000
# 4 0.0000 0.0000 0.0000 42.8375 0.0000 3.6533
# 5 22.7761 1.9429 4.0502 0.0000 34.0456 0.0000
# 6 0.0000 0.0000 0.0000 3.6533 0.0000 13.8769
#
#
#
# Elastic Compliance Matrix: (Units=1/GPa)
#
#
# Indices 1 2 3 4 5 6 
#
# 1 0.015086 -0.000913 -0.004400 0.000000 -0.009517 0.000000
# 2 -0.000913 0.017050 -0.002918 0.000000 -0.000015 0.000000
# 3 -0.004400 -0.002918 0.012536 0.000000 0.001619 0.000000
# 4 0.000000 0.000000 0.000000 0.023880 0.000000 -0.006287
# 5 -0.009517 -0.000015 0.001619 0.000000 0.035547 0.000000
# 6 0.000000 0.000000 0.000000 -0.006287 0.000000 0.073718
#
#
# Mechanical properties :
#
#
# Convention : Reuss Voigt Hill
#
# Bulk Modulus (GPa) = 35.44937 40.58164 38.01551
# Shear Modulus (GPa) = 24.54808 30.67082 27.60945
#
# Velocity S-wave (km/s) = 3.09130 3.45537 3.27839
# Velocity P-wave (km/s) = 5.15183 5.63180 5.39715
#
# Compressibility (1/GPa) = 0.02820924
#
# Stress axis : x y z
#
# Youngs Moduli (GPa) = 66.28537 58.65260 79.77249
#
# Poissons Ratio (x) = 0.05353 0.35102
# Poissons Ratio (y) = 0.06050 0.23278
# Poissons Ratio (z) = 0.29168 0.17115
#
# Static dielectric constant tensor:
#      x y z
#    x 2.137170 0.000000 -0.091530 
#    y 0.000000 2.143470 0.000000 
#    z -0.091530 0.000000 2.084720 
# 
# From -- ./inp_files/21079.got.cif
#   From: 2010.05.17/outbox.cif.g08.bks.cpg/sg9_11_cif.got.tgz:21079.got - 2010.06.03 20:04:27.
