data_PCOD9136007
_publ_section_title
;
Structure prediction by ZEFSAII (Michael W. Deem and Ramdas Pophale) SiO2 
 PCOD9136007
Probable space group: C C
;
_chemical_formula_sum "Si O2"
_cell_formula_units_Z 24
_cell_length_a 4.841149
_cell_length_b 27.027576
_cell_length_c 7.452709
_cell_angle_alpha 90.000000
_cell_angle_beta 108.753912
_cell_angle_gamma 90.000000
_cell_volume 923.373867
_symmetry_space_group_name_H-M "C C"
_symmetry_group_IT_number 9
_symmetry_cell_setting 'monoclinic'
loop_
_space_group_symop_operation_xyz
x,y,z
x,-y,1/2+z
1/2+x,1/2+y,z
1/2+x,1/2-y,1/2+z
loop_
_atom_site_type_symbol
_atom_site_label
_atom_site_fract_x
_atom_site_fract_y
_atom_site_fract_z
Si Si1 0.222710 0.856182 0.111710
Si Si2 0.888717 0.696323 0.174631
Si Si3 0.718867 0.554878 0.831428
Si Si4 0.618828 0.891548 0.897466
Si Si5 0.403193 0.756771 0.297602
Si Si6 0.603865 0.985459 0.107101
O O1 0.186447 0.886890 0.288995
O O2 0.236934 0.797814 0.141244
O O3 0.519660 0.869835 0.071151
O O4 0.952834 0.876110 0.937415
O O5 0.627661 0.726708 0.216908
O O6 0.904615 0.638050 0.220449
O O7 0.171884 0.718790 0.330277
O O8 0.969704 0.708844 0.985156
O O9 0.406756 0.526836 0.774036
O O10 0.976046 0.538337 0.019263
O O11 0.841558 0.536200 0.667673
O O12 0.608835 0.950185 0.929781
#
# Coordination Sequence:
#
# PCOD9136007 Si02
#       6
#     4   4   4   4   4   4
#     4  10  21  39  60  83 116 156 197 244 300 358
#     4  12  24  39  60  87 118 155 198 247 298 357
#     4  10  21  38  61  88 120 159 200 249 305 361
#     4  10  21  39  60  83 116 156 197 244 300 358
#     4  12  24  39  60  87 118 155 198 247 298 357
#     4  10  21  38  61  88 120 159 200 249 305 361
#
# _framework density 25.991638999999999
#
# number of rings (size 3 to 8) (size 9 to 14) (size 15 to 20)
#    0.000    1.333    0.000    7.000    0.000    1.333 
#    0.000    3.333    0.000    0.000    0.000    0.000 
#    0.000    0.000    0.000    0.000    0.000    0.000 
#
# Total GULP energy -66907.750036 kJ/mol
# GULP energy per Si atom -5575.645836 kJ/mol
# Density = 2.593248 g / cm^3
# Si number density = 25.991639 Si / 1000 Ang^3
#
#
#
# Elastic Constant Matrix: (Units=GPa)
#
#
# Indices 1 2 3 4 5 6 
#
# 1 162.5383 30.3157 9.2138 0.0000 4.6167 0.0000
# 2 30.3157 107.0029 -18.0332 0.0000 0.6963 0.0000
# 3 9.2138 -18.0332 61.6671 0.0000 -0.4175 0.0000
# 4 0.0000 0.0000 0.0000 45.1859 0.0000 5.7287
# 5 4.6167 0.6963 -0.4175 0.0000 28.7954 0.0000
# 6 0.0000 0.0000 0.0000 5.7287 0.0000 39.6436
#
#
#
# Elastic Compliance Matrix: (Units=1/GPa)
#
#
# Indices 1 2 3 4 5 6 
#
# 1 0.006678 -0.002161 -0.001637 0.000000 -0.001042 0.000000
# 2 -0.002161 0.010530 0.003403 0.000000 0.000141 0.000000
# 3 -0.001637 0.003403 0.017459 0.000000 0.000433 0.000000
# 4 0.000000 0.000000 0.000000 0.022544 0.000000 -0.003258
# 5 -0.001042 0.000141 0.000433 0.000000 0.034898 0.000000
# 6 0.000000 0.000000 0.000000 -0.003258 0.000000 0.025695
#
#
# Mechanical properties :
#
#
# Convention : Reuss Voigt Hill
#
# Bulk Modulus (GPa) = 29.51767 41.57787 35.54777
# Shear Modulus (GPa) = 38.49539 43.37247 40.93393
#
# Velocity S-wave (km/s) = 3.85264 4.08941 3.97279
# Velocity P-wave (km/s) = 5.58316 6.19105 5.89495
#
# Compressibility (1/GPa) = 0.03387802
#
# Stress axis : x y z
#
# Youngs Moduli (GPa) = 149.74914 94.96296 57.27778
#
# Poissons Ratio (x) = 0.20522 0.09375
# Poissons Ratio (y) = 0.32361 -0.19493
# Poissons Ratio (z) = 0.24510 -0.32318
#
# Static dielectric constant tensor:
#      x y z
#    x 1.927880 0.000000 0.062740 
#    y 0.000000 2.160860 0.000000 
#    z 0.062740 0.000000 2.200370 
# 
# From -- ./inp_files/4017.got.cif
#   From: 2010.05.17/outbox.cif.g08.bks.cpg/sg9_3_cif.got.tgz:4017.got - 2010.06.03 20:04:27.
