data_PCOD9136276
_publ_section_title
;
Structure prediction by ZEFSAII (Michael W. Deem and Ramdas Pophale) SiO2 
 PCOD9136276
Probable space group: C C
;
_chemical_formula_sum "Si O2"
_cell_formula_units_Z 28
_cell_length_a 10.949269
_cell_length_b 24.008299
_cell_length_c 5.202106
_cell_angle_alpha 90.000000
_cell_angle_beta 68.319246
_cell_angle_gamma 90.000000
_cell_volume 1270.753821
_symmetry_space_group_name_H-M "C C"
_symmetry_group_IT_number 9
_symmetry_cell_setting 'monoclinic'
loop_
_space_group_symop_operation_xyz
x,y,z
x,-y,1/2+z
1/2+x,1/2+y,z
1/2+x,1/2-y,1/2+z
loop_
_atom_site_type_symbol
_atom_site_label
_atom_site_fract_x
_atom_site_fract_y
_atom_site_fract_z
Si Si1 0.039730 0.964745 0.503400
Si Si2 0.376197 0.301851 0.042302
Si Si3 0.197716 0.478394 0.572737
Si Si4 0.816601 0.126977 0.091061
Si Si5 0.909389 0.528385 0.703926
Si Si6 0.256507 0.875743 0.191874
Si Si7 0.191219 0.195115 0.239800
O O1 0.164708 0.928138 0.325559
O O2 0.924415 0.920090 0.560514
O O3 0.038567 0.013553 0.294174
O O4 0.355542 0.342187 0.300510
O O5 0.287964 0.248038 0.176368
O O6 0.319984 0.330920 0.827276
O O7 0.534117 0.291948 0.884750
O O8 0.266191 0.486098 0.243757
O O9 0.191020 0.413207 0.643774
O O10 0.061334 0.509780 0.617480
O O11 0.854569 0.487079 0.526686
O O12 0.894503 0.592267 0.628498
O O13 0.221818 0.831908 0.439855
O O14 0.230271 0.847845 0.937694
#
# Coordination Sequence:
#
# PCOD9136276 Si02
#       7
#     4   4   4   4   4   4   4
#     4  12  22  36  68 100 138 182 226 264 352 420
#     4  12  26  50  73 103 135 183 245 305 356 416
#     4  10  21  40  63  97 146 179 221 272 336 423
#     4  12  23  44  71 100 143 184 228 291 350 421
#     4  10  21  40  63  97 146 179 221 272 336 423
#     4  12  23  44  71 100 143 184 228 291 350 421
#     4  12  26  50  73 103 135 183 245 305 356 416
#
# _framework density 22.034162999999999
#
# number of rings (size 3 to 8) (size 9 to 14) (size 15 to 20)
#    0.000    0.571    2.857    6.000    0.000    0.000 
#   15.429    0.000    0.000    0.000    0.000    0.000 
#    0.000    0.000    0.000    0.000    0.000    0.000 
#
# Total GULP energy -78170.187417 kJ/mol
# GULP energy per Si atom -5583.584816 kJ/mol
# Density = 2.198401 g / cm^3
# Si number density = 22.034163 Si / 1000 Ang^3
#
#
#
# Elastic Constant Matrix: (Units=GPa)
#
#
# Indices 1 2 3 4 5 6 
#
# 1 78.6462 36.5333 23.5320 0.0000 -18.8173 0.0000
# 2 36.5333 80.1184 6.1734 0.0000 -15.9903 0.0000
# 3 23.5320 6.1734 90.3135 0.0000 19.0465 0.0000
# 4 0.0000 0.0000 0.0000 54.9925 0.0000 2.8385
# 5 -18.8173 -15.9903 19.0465 0.0000 39.1590 0.0000
# 6 0.0000 0.0000 0.0000 2.8385 0.0000 43.5071
#
#
#
# Elastic Compliance Matrix: (Units=1/GPa)
#
#
# Indices 1 2 3 4 5 6 
#
# 1 0.020472 -0.006679 -0.007106 0.000000 0.010567 0.000000
# 2 -0.006679 0.016226 -0.000100 0.000000 0.003465 0.000000
# 3 -0.007106 -0.000100 0.015221 0.000000 -0.010859 0.000000
# 4 0.000000 0.000000 0.000000 0.018246 0.000000 -0.001190
# 5 0.010567 0.003465 -0.010859 0.000000 0.037311 0.000000
# 6 0.000000 0.000000 0.000000 -0.001190 0.000000 0.023062
#
#
# Mechanical properties :
#
#
# Convention : Reuss Voigt Hill
#
# Bulk Modulus (GPa) = 41.40732 42.39505 41.90118
# Shear Modulus (GPa) = 30.05576 39.72101 34.88839
#
# Velocity S-wave (km/s) = 3.69732 4.25043 3.98348
# Velocity P-wave (km/s) = 6.08769 6.58563 6.34155
#
# Compressibility (1/GPa) = 0.02415032
#
# Stress axis : x y z
#
# Youngs Moduli (GPa) = 48.84704 61.62885 65.69884
#
# Poissons Ratio (x) = 0.41159 0.46686
# Poissons Ratio (y) = 0.32623 0.00655
# Poissons Ratio (z) = 0.34711 0.00615
#
# Static dielectric constant tensor:
#      x y z
#    x 2.178080 0.000000 -0.122320 
#    y 0.000000 1.822220 0.000000 
#    z -0.122320 0.000000 1.966690 
# 
# From -- ./inp_files/1830.got.cif
#   From: 2010.05.17/outbox.cif.g08.bks.cpg/sg9_1_cif.got.tgz:1830.got - 2010.06.03 20:04:27.
