data_PCOD9136177
_publ_section_title
;
Structure prediction by ZEFSAII (Michael W. Deem and Ramdas Pophale) SiO2 
 PCOD9136177
Probable space group: C C
;
_chemical_formula_sum "Si O2"
_cell_formula_units_Z 20
_cell_length_a 5.409598
_cell_length_b 20.100521
_cell_length_c 8.935612
_cell_angle_alpha 90.000000
_cell_angle_beta 57.364243
_cell_angle_gamma 90.000000
_cell_volume 818.217055
_symmetry_space_group_name_H-M "C C"
_symmetry_group_IT_number 9
_symmetry_cell_setting 'monoclinic'
loop_
_space_group_symop_operation_xyz
x,y,z
x,-y,1/2+z
1/2+x,1/2+y,z
1/2+x,1/2-y,1/2+z
loop_
_atom_site_type_symbol
_atom_site_label
_atom_site_fract_x
_atom_site_fract_y
_atom_site_fract_z
Si Si1 0.320780 0.493223 0.739370
Si Si2 0.179829 0.066010 0.373212
Si Si3 0.313992 0.685311 0.613035
Si Si4 0.265706 0.176395 0.972040
Si Si5 0.290349 0.633574 0.924120
O O1 0.472396 0.517218 0.539576
O O2 0.555532 0.449690 0.750828
O O3 0.298615 0.562014 0.842735
O O4 0.010806 0.456895 0.806436
O O5 0.059369 0.137714 0.464074
O O6 0.447514 0.148514 0.053264
O O7 0.264242 0.746339 0.517103
O O8 0.399289 0.688663 0.763539
O O9 0.982417 0.659388 0.759354
O O10 0.962984 0.146149 0.018640
#
# Coordination Sequence:
#
# PCOD9136177 Si02
#       5
#     4   4   4   4   4
#     4  11  23  44  68  94 137 173 224 273 339 389
#     4  11  24  42  68  98 134 176 220 280 328 403
#     4   9  24  40  66  92 134 167 220 268 340 377
#     4  10  21  39  66  90 129 172 210 271 325 400
#     4   9  22  39  66  86 132 168 214 262 336 377
#
# _framework density 24.443390000000001
#
# number of rings (size 3 to 8) (size 9 to 14) (size 15 to 20)
#    1.200    0.800    0.000    2.400    8.400    0.000 
#   10.800    0.000    0.000    0.000    0.000    0.000 
#    0.000    0.000    0.000    0.000    0.000    0.000 
#
# Total GULP energy -55690.388683 kJ/mol
# GULP energy per Si atom -5569.038868 kJ/mol
# Density = 2.438776 g / cm^3
# Si number density = 24.443390 Si / 1000 Ang^3
#
#
#
# Elastic Constant Matrix: (Units=GPa)
#
#
# Indices 1 2 3 4 5 6 
#
# 1 208.6490 100.7796 28.7284 0.0000 4.0789 0.0000
# 2 100.7796 98.0657 41.0585 0.0000 -5.1479 0.0000
# 3 28.7284 41.0585 58.3629 0.0000 -7.1904 0.0000
# 4 0.0000 0.0000 0.0000 25.2658 0.0000 2.5226
# 5 4.0789 -5.1479 -7.1904 0.0000 45.6331 0.0000
# 6 0.0000 0.0000 0.0000 2.5226 0.0000 43.3905
#
#
#
# Elastic Compliance Matrix: (Units=1/GPa)
#
#
# Indices 1 2 3 4 5 6 
#
# 1 0.010066 -0.011725 0.003080 0.000000 -0.001737 0.000000
# 2 -0.011725 0.028113 -0.013753 0.000000 0.002052 0.000000
# 3 0.003080 -0.013753 0.025565 0.000000 0.002201 0.000000
# 4 0.000000 0.000000 0.000000 0.039810 0.000000 -0.002314
# 5 -0.001737 0.002052 0.002201 0.000000 0.022648 0.000000
# 6 0.000000 0.000000 0.000000 -0.002314 0.000000 0.023181
#
#
# Mechanical properties :
#
#
# Convention : Reuss Voigt Hill
#
# Bulk Modulus (GPa) = 52.77957 78.46783 65.62370
# Shear Modulus (GPa) = 24.93819 35.82528 30.38174
#
# Velocity S-wave (km/s) = 3.19759 3.83252 3.52936
# Velocity P-wave (km/s) = 5.93904 7.19416 6.59652
#
# Compressibility (1/GPa) = 0.01894672
#
# Stress axis : x y z
#
# Youngs Moduli (GPa) = 99.34316 35.57063 39.11642
#
# Poissons Ratio (x) = 0.41708 -0.12048
# Poissons Ratio (y) = 1.16484 0.53797
# Poissons Ratio (z) = -0.30597 0.48921
#
# Static dielectric constant tensor:
#      x y z
#    x 2.003930 0.000000 0.052680 
#    y 0.000000 2.075600 0.000000 
#    z 0.052680 0.000000 2.044290 
# 
# From -- ./inp_files/3729.got.cif
#   From: 2010.05.17/outbox.cif.g08.bks.cpg/sg9_2_cif.got.tgz:3729.got - 2010.06.03 20:04:27.
