data_PCOD9136265
_publ_section_title
;
Structure prediction by ZEFSAII (Michael W. Deem and Ramdas Pophale) SiO2 
 PCOD9136265
Probable space group: C C
;
_chemical_formula_sum "Si O2"
_cell_formula_units_Z 28
_cell_length_a 10.722400
_cell_length_b 19.908148
_cell_length_c 9.132840
_cell_angle_alpha 90.000000
_cell_angle_beta 39.016612
_cell_angle_gamma 90.000000
_cell_volume 1227.314786
_symmetry_space_group_name_H-M "C C"
_symmetry_group_IT_number 9
_symmetry_cell_setting 'monoclinic'
loop_
_space_group_symop_operation_xyz
x,y,z
x,-y,1/2+z
1/2+x,1/2+y,z
1/2+x,1/2-y,1/2+z
loop_
_atom_site_type_symbol
_atom_site_label
_atom_site_fract_x
_atom_site_fract_y
_atom_site_fract_z
Si Si1 0.103960 0.550369 0.512580
Si Si2 0.204435 0.192916 0.638909
Si Si3 0.573563 0.916774 0.367243
Si Si4 0.103846 0.059393 0.280137
Si Si5 0.155923 0.345752 0.718690
Si Si6 0.633443 0.575651 0.915813
Si Si7 0.880657 0.146492 0.727294
O O1 0.139886 0.476979 0.414705
O O2 0.151436 0.561361 0.637579
O O3 0.186899 0.607278 0.329464
O O4 0.867021 0.560793 0.722217
O O5 0.227118 0.269074 0.670765
O O6 0.418557 0.160677 0.404732
O O7 0.121270 0.147095 0.846527
O O8 0.053353 0.193422 0.638544
O O9 0.336172 0.919124 0.581060
O O10 0.675377 0.846221 0.320695
O O11 0.997612 0.100849 0.505368
O O12 0.072842 0.982302 0.356814
O O13 0.051559 0.069556 0.156062
O O14 0.276024 0.375629 0.473873
#
# Coordination Sequence:
#
# PCOD9136265 Si02
#       7
#     4   4   4   4   4   4   4
#     4   9  20  39  67  95 136 175 213 280 329 398
#     4  11  23  44  68  94 130 180 231 266 327 394
#     4  10  21  40  63 100 134 170 217 271 348 384
#     4  10  21  40  63 100 134 170 217 271 348 384
#     4  11  23  44  68  94 130 180 231 266 327 394
#     4   9  20  39  67  95 136 175 213 280 329 398
#     4  12  24  38  66  94 132 170 218 280 316 402
#
# _framework density 22.814036000000002
#
# number of rings (size 3 to 8) (size 9 to 14) (size 15 to 20)
#    0.000    1.714    1.429    2.571    0.000   10.286 
#    0.000    1.429    6.286    0.000    0.000    0.000 
#    0.000    0.000    0.000    0.000    0.000    0.000 
#
# Total GULP energy -78074.853279 kJ/mol
# GULP energy per Si atom -5576.775234 kJ/mol
# Density = 2.276211 g / cm^3
# Si number density = 22.814036 Si / 1000 Ang^3
#
#
#
# Elastic Constant Matrix: (Units=GPa)
#
#
# Indices 1 2 3 4 5 6 
#
# 1 99.9472 35.5879 34.4320 0.0000 5.7166 0.0000
# 2 35.5879 100.5086 41.8602 0.0000 20.7412 0.0000
# 3 34.4320 41.8602 190.0202 0.0000 16.9861 0.0000
# 4 0.0000 0.0000 0.0000 26.2250 0.0000 -0.2936
# 5 5.7166 20.7412 16.9861 0.0000 49.8313 0.0000
# 6 0.0000 0.0000 0.0000 -0.2936 0.0000 32.4808
#
#
#
# Elastic Compliance Matrix: (Units=1/GPa)
#
#
# Indices 1 2 3 4 5 6 
#
# 1 0.011769 -0.003735 -0.001370 0.000000 0.000671 0.000000
# 2 -0.003735 0.012908 -0.001779 0.000000 -0.004338 0.000000
# 3 -0.001370 -0.001779 0.006005 0.000000 -0.001150 0.000000
# 4 0.000000 0.000000 0.000000 0.038135 0.000000 0.000345
# 5 0.000671 -0.004338 -0.001150 0.000000 0.022188 0.000000
# 6 0.000000 0.000000 0.000000 0.000345 0.000000 0.030791
#
#
# Mechanical properties :
#
#
# Convention : Reuss Voigt Hill
#
# Bulk Modulus (GPa) = 59.12088 68.24845 63.68467
# Shear Modulus (GPa) = 35.41026 40.28047 37.84536
#
# Velocity S-wave (km/s) = 3.94398 4.20646 4.07733
# Velocity P-wave (km/s) = 6.83450 7.31932 7.08106
#
# Compressibility (1/GPa) = 0.01691450
#
# Stress axis : x y z
#
# Youngs Moduli (GPa) = 84.97110 77.47141 166.51562
#
# Poissons Ratio (x) = 0.28937 0.22808
# Poissons Ratio (y) = 0.31738 0.29623
# Poissons Ratio (z) = 0.11639 0.13782
#
# Static dielectric constant tensor:
#      x y z
#    x 1.931180 0.000000 -0.098390 
#    y 0.000000 1.801940 0.000000 
#    z -0.098390 0.000000 1.884620 
# 
# From -- ./inp_files/8230.got.cif
#   From: 2010.05.17/outbox.cif.g08.bks.cpg/sg9_5_cif.got.tgz:8230.got - 2010.06.03 20:04:27.
