data_PCOD9136974
_publ_section_title
;
Structure prediction by ZEFSAII (Michael W. Deem and Ramdas Pophale) SiO2 
 PCOD9136974
Probable space group: C C
;
_chemical_formula_sum "Si O2"
_cell_formula_units_Z 24
_cell_length_a 13.015669
_cell_length_b 5.088923
_cell_length_c 21.872615
_cell_angle_alpha 90.000000
_cell_angle_beta 138.489247
_cell_angle_gamma 90.000000
_cell_volume 960.173608
_symmetry_space_group_name_H-M "C C"
_symmetry_group_IT_number 9
_symmetry_cell_setting 'monoclinic'
loop_
_space_group_symop_operation_xyz
x,y,z
x,-y,1/2+z
1/2+x,1/2+y,z
1/2+x,1/2-y,1/2+z
loop_
_atom_site_type_symbol
_atom_site_label
_atom_site_fract_x
_atom_site_fract_y
_atom_site_fract_z
Si Si1 0.169730 0.786392 0.674700
Si Si2 0.753148 0.841441 0.615408
Si Si3 0.626405 0.507471 0.962880
Si Si4 0.499220 0.993502 0.844856
Si Si5 0.404584 0.323554 0.085845
Si Si6 0.069535 0.445269 0.251848
O O1 0.180953 0.532494 0.634678
O O2 0.327004 0.952158 0.740710
O O3 0.171565 0.689325 0.745939
O O4 0.019689 0.977748 0.602725
O O5 0.660734 0.588312 0.547718
O O6 0.932282 0.762545 0.705614
O O7 0.775459 0.006049 0.562874
O O8 0.523206 0.760590 0.903471
O O9 0.534676 0.273624 0.889197
O O10 0.798507 0.585070 0.012310
O O11 0.618380 0.961900 0.840482
O O12 0.501377 0.187380 0.183151
#
# Coordination Sequence:
#
# PCOD9136974 Si02
#       6
#     4   4   4   4   4   4
#     4  11  25  44  79 111 141 206 271 303 368 469
#     4  10  21  48  72 106 145 204 252 310 371 467
#     4  11  25  46  75 107 159 199 237 325 397 428
#     4  12  25  47  72 110 156 191 247 327 380 439
#     4  10  22  46  73 109 142 199 261 299 374 465
#     4  10  24  43  73 105 147 195 260 308 376 456
#
# _framework density 24.995480000000001
#
# number of rings (size 3 to 8) (size 9 to 14) (size 15 to 20)
#    0.000    1.333    3.333    1.000    7.000    0.000 
#    3.000    5.000    0.000    0.000    0.000    0.000 
#    0.000    0.000    0.000    0.000    0.000    0.000 
#
# Total GULP energy -66924.379659 kJ/mol
# GULP energy per Si atom -5577.031638 kJ/mol
# Density = 2.493859 g / cm^3
# Si number density = 24.995480 Si / 1000 Ang^3
#
#
#
# Elastic Constant Matrix: (Units=GPa)
#
#
# Indices 1 2 3 4 5 6 
#
# 1 149.9297 63.0320 38.7943 -0.0001 7.4525 0.0014
# 2 63.0320 151.5982 40.3191 -0.0005 13.7103 0.0030
# 3 38.7943 40.3191 80.7212 0.0000 3.6443 0.0000
# 4 -0.0001 -0.0005 0.0000 38.2213 -0.0002 3.3955
# 5 7.4525 13.7103 3.6443 -0.0002 15.7979 -0.0003
# 6 0.0014 0.0030 0.0000 3.3955 -0.0003 57.8751
#
#
#
# Elastic Compliance Matrix: (Units=1/GPa)
#
#
# Indices 1 2 3 4 5 6 
#
# 1 0.008578 -0.002755 -0.002700 0.000000 -0.001033 0.000000
# 2 -0.002755 0.009054 -0.002933 0.000000 -0.005881 0.000000
# 3 -0.002700 -0.002933 0.015136 0.000000 0.000327 0.000000
# 4 0.000000 0.000000 0.000000 0.026300 0.000000 -0.001543
# 5 -0.001033 -0.005881 0.000327 0.000000 0.068815 0.000001
# 6 0.000000 0.000000 0.000000 -0.001543 0.000001 0.017369
#
#
# Mechanical properties :
#
#
# Convention : Reuss Voigt Hill
#
# Bulk Modulus (GPa) = 62.52904 74.05998 68.29451
# Shear Modulus (GPa) = 29.87602 38.38577 34.13090
#
# Velocity S-wave (km/s) = 3.46100 3.92306 3.69925
# Velocity P-wave (km/s) = 6.40639 7.08620 6.75485
#
# Compressibility (1/GPa) = 0.01599257
#
# Stress axis : x y z
#
# Youngs Moduli (GPa) = 116.57748 110.45121 66.06838
#
# Poissons Ratio (x) = 0.30431 0.17837
# Poissons Ratio (y) = 0.32119 0.19375
# Poissons Ratio (z) = 0.31473 0.32391
#
# Static dielectric constant tensor:
#      x y z
#    x 2.045380 0.000000 -0.004400 
#    y 0.000000 2.289230 0.000000 
#    z -0.004400 0.000000 2.058130 
# 
# From -- ./inp_files/36619.got.cif
#   From: 2010.05.17/outbox.cif.g08.bks.cpg/sg9_19_cif.got.tgz:36619.got - 2010.06.03 20:04:27.
