data_PCOD9136195
_publ_section_title
;
Structure prediction by ZEFSAII (Michael W. Deem and Ramdas Pophale) SiO2 
 PCOD9136195
Probable space group: C C
;
_chemical_formula_sum "Si O2"
_cell_formula_units_Z 32
_cell_length_a 9.490420
_cell_length_b 16.223163
_cell_length_c 10.163255
_cell_angle_alpha 90.000000
_cell_angle_beta 59.879941
_cell_angle_gamma 90.000000
_cell_volume 1353.498376
_symmetry_space_group_name_H-M "C C"
_symmetry_group_IT_number 9
_symmetry_cell_setting 'monoclinic'
loop_
_space_group_symop_operation_xyz
x,y,z
x,-y,1/2+z
1/2+x,1/2+y,z
1/2+x,1/2-y,1/2+z
loop_
_atom_site_type_symbol
_atom_site_label
_atom_site_fract_x
_atom_site_fract_y
_atom_site_fract_z
Si Si1 0.641180 0.344210 0.875000
Si Si2 0.637397 0.994796 0.818862
Si Si3 0.348195 0.647291 0.355900
Si Si4 0.705202 0.921479 0.537295
Si Si5 0.052027 0.863069 0.345901
Si Si6 0.821082 0.406024 0.044307
Si Si7 0.540474 0.764343 0.067902
Si Si8 0.976221 0.729873 0.153117
O O1 0.502171 0.390843 0.859945
O O2 0.720666 0.393224 0.958155
O O3 0.795897 0.307124 0.726162
O O4 0.543295 0.269272 0.988794
O O5 0.757518 0.920047 0.807668
O O6 0.646534 0.996831 0.657110
O O7 0.456998 0.972628 0.951838
O O8 0.685280 0.069264 0.890101
O O9 0.202760 0.682060 0.516654
O O10 0.436533 0.719797 0.229889
O O11 0.598587 0.844062 0.633673
O O12 0.894831 0.910167 0.468480
O O13 0.105902 0.806968 0.441238
O O14 0.993562 0.799632 0.257733
O O15 0.193238 0.919271 0.220546
O O16 0.916254 0.322162 0.042309
#
# Coordination Sequence:
#
# PCOD9136195 Si02
#       8
#     4   4   4   4   4   4   4   4
#     4  11  21  36  66 102 130 165 219 291 339 398
#     4  11  26  47  67  95 141 189 228 273 340 425
#     4  11  23  38  63 100 138 168 217 286 341 399
#     4  12  24  46  70 100 136 187 229 278 344 411
#     4  11  19  38  73  98 121 172 228 279 336 400
#     4  10  21  39  67  94 130 173 220 276 334 404
#     4  11  18  37  64  98 131 165 219 278 337 387
#     4  11  20  39  68 101 129 165 222 283 347 394
#
# _framework density 23.642436
#
# number of rings (size 3 to 8) (size 9 to 14) (size 15 to 20)
#    0.000    1.000    6.250    2.250    0.000    2.000 
#    6.750    1.250    0.000    0.000    0.000    0.000 
#    0.000    0.000    0.000    0.000    0.000    0.000 
#
# Total GULP energy -89443.802792 kJ/mol
# GULP energy per Si atom -5590.237675 kJ/mol
# Density = 2.358863 g / cm^3
# Si number density = 23.642436 Si / 1000 Ang^3
#
#
#
# Elastic Constant Matrix: (Units=GPa)
#
#
# Indices 1 2 3 4 5 6 
#
# 1 103.7267 -2.8545 21.6954 0.0000 -24.1956 0.0000
# 2 -2.8545 28.1252 17.1362 0.0000 -5.3532 0.0000
# 3 21.6954 17.1362 110.0630 0.0000 -35.6502 0.0000
# 4 0.0000 0.0000 0.0000 13.8936 0.0000 9.6940
# 5 -24.1956 -5.3532 -35.6502 0.0000 44.0495 0.0000
# 6 0.0000 0.0000 0.0000 9.6940 0.0000 10.7637
#
#
#
# Elastic Compliance Matrix: (Units=1/GPa)
#
#
# Indices 1 2 3 4 5 6 
#
# 1 0.011248 0.002708 -0.000720 0.000000 0.005925 0.000000
# 2 0.002708 0.039935 -0.006367 0.000000 0.001188 0.000000
# 3 -0.000720 -0.006367 0.013336 0.000000 0.009624 0.000000
# 4 0.000000 0.000000 0.000000 0.193681 0.000000 -0.174432
# 5 0.005925 0.001188 0.009624 0.000000 0.033890 0.000000
# 6 0.000000 0.000000 0.000000 -0.174432 0.000000 0.250000
#
#
# Mechanical properties :
#
#
# Convention : Reuss Voigt Hill
#
# Bulk Modulus (GPa) = 17.93334 34.87437 26.40386
# Shear Modulus (GPa) = 8.78063 27.47057 18.12560
#
# Velocity S-wave (km/s) = 1.92925 3.41239 2.77186
# Velocity P-wave (km/s) = 3.54462 5.50533 4.62996
#
# Compressibility (1/GPa) = 0.05576205
#
# Stress axis : x y z
#
# Youngs Moduli (GPa) = 88.90628 25.04053 74.98410
#
# Poissons Ratio (x) = -0.06780 0.05396
# Poissons Ratio (y) = -0.24073 0.47740
# Poissons Ratio (z) = 0.06398 0.15943
#
# Static dielectric constant tensor:
#      x y z
#    x 1.913710 0.000000 0.036620 
#    y 0.000000 1.897220 0.000000 
#    z 0.036620 0.000000 1.884880 
# 
# From -- ./inp_files/15156.got.cif
#   From: 2010.05.17/outbox.cif.g08.bks.cpg/sg9_8_cif.got.tgz:15156.got - 2010.06.03 20:04:27.
