data_PCOD9136547
_publ_section_title
;
Structure prediction by ZEFSAII (Michael W. Deem and Ramdas Pophale) SiO2 
 PCOD9136547
Probable space group: C C
;
_chemical_formula_sum "Si O2"
_cell_formula_units_Z 32
_cell_length_a 8.308124
_cell_length_b 37.597952
_cell_length_c 5.447120
_cell_angle_alpha 90.000000
_cell_angle_beta 59.343529
_cell_angle_gamma 90.000000
_cell_volume 1463.705423
_symmetry_space_group_name_H-M "C C"
_symmetry_group_IT_number 9
_symmetry_cell_setting 'monoclinic'
loop_
_space_group_symop_operation_xyz
x,y,z
x,-y,1/2+z
1/2+x,1/2+y,z
1/2+x,1/2-y,1/2+z
loop_
_atom_site_type_symbol
_atom_site_label
_atom_site_fract_x
_atom_site_fract_y
_atom_site_fract_z
Si Si1 0.146120 0.979129 0.692850
Si Si2 0.034157 0.755664 0.066977
Si Si3 0.687634 0.316790 0.241543
Si Si4 0.739904 0.754612 0.009855
Si Si5 0.380346 0.627634 0.010263
Si Si6 0.097678 0.685344 0.325670
Si Si7 0.370249 0.583840 0.516363
Si Si8 0.594862 0.020888 0.840524
O O1 0.370473 0.974899 0.516793
O O2 0.095334 0.996190 0.467991
O O3 0.042803 0.942100 0.817743
O O4 0.077298 0.796239 0.108243
O O5 0.049189 0.721677 0.225593
O O6 0.782470 0.753647 0.273358
O O7 0.994760 0.750322 0.802585
O O8 0.717328 0.282410 0.387011
O O9 0.562046 0.348779 0.428905
O O10 0.896223 0.330783 0.038701
O O11 0.721406 0.795752 0.940622
O O12 0.216938 0.656326 0.094610
O O13 0.332945 0.605745 0.294716
O O14 0.408642 0.606091 0.735460
O O15 0.197974 0.557956 0.716383
O O16 0.645717 0.996284 0.564967
#
# Coordination Sequence:
#
# PCOD9136547 Si02
#       8
#     4   4   4   4   4   4   4   4
#     4  10  21  41  75 109 136 170 225 276 316 375
#     4  11  21  38  66  89 116 152 221 302 358 399
#     4  11  25  42  61  93 121 169 226 285 351 408
#     4  11  21  38  66  89 116 152 221 302 358 399
#     4  12  30  43  64  94 142 186 228 266 334 430
#     4  11  25  42  61  93 121 169 226 285 351 408
#     4  12  26  45  66  98 144 190 212 266 332 402
#     4  10  21  41  75 109 136 170 225 276 316 375
#
# _framework density 21.862323
#
# number of rings (size 3 to 8) (size 9 to 14) (size 15 to 20)
#    0.000    1.000    2.500    3.750    8.750    2.000 
#    0.000    0.000    0.000    0.000    0.000    0.000 
#    0.000    0.000    0.000    0.000    0.000    0.000 
#
# Total GULP energy -89168.808106 kJ/mol
# GULP energy per Si atom -5573.050507 kJ/mol
# Density = 2.181256 g / cm^3
# Si number density = 21.862323 Si / 1000 Ang^3
#
#
#
# Elastic Constant Matrix: (Units=GPa)
#
#
# Indices 1 2 3 4 5 6 
#
# 1 69.3129 13.1379 21.9885 0.0000 -0.9935 0.0000
# 2 13.1379 66.4544 19.8733 0.0000 10.6932 0.0000
# 3 21.9885 19.8733 100.1228 0.0000 7.1750 0.0000
# 4 0.0000 0.0000 0.0000 -15.0271 0.0000 14.5665
# 5 -0.9935 10.6932 7.1750 0.0000 39.5439 0.0000
# 6 0.0000 0.0000 0.0000 14.5665 0.0000 -1.5412
#
#
#
# Elastic Compliance Matrix: (Units=1/GPa)
#
#
# Indices 1 2 3 4 5 6 
#
# 1 0.015910 -0.002475 -0.003120 0.000000 0.001635 0.000000
# 2 -0.002475 0.016967 -0.002524 0.000000 -0.004192 0.000000
# 3 -0.003120 -0.002524 0.011277 0.000000 -0.001442 0.000000
# 4 0.000000 0.000000 0.000000 0.008154 0.000000 0.077062
# 5 0.001635 -0.004192 -0.001442 0.000000 0.026725 0.000000
# 6 0.000000 0.000000 0.000000 0.077062 0.000000 0.079498
#
#
# Mechanical properties :
#
#
# Convention : Reuss Voigt Hill
#
# Bulk Modulus (GPa) = 35.82221 38.43217 37.12719
# Shear Modulus (GPa) = 27.16310 16.65448 21.90879
#
# Velocity S-wave (km/s) = 3.52868 2.76305 3.16907
# Velocity P-wave (km/s) = 5.74657 5.27225 5.51451
#
# Compressibility (1/GPa) = 0.02791564
#
# Stress axis : x y z
#
# Youngs Moduli (GPa) = 62.85469 58.93942 88.67483
#
# Poissons Ratio (x) = 0.14590 0.27665
# Poissons Ratio (y) = 0.15559 0.22378
# Poissons Ratio (z) = 0.19610 0.14874
#
# Static dielectric constant tensor:
#      x y z
#    x 3.147120 0.000000 -0.296380 
#    y 0.000000 1.689440 0.000000 
#    z -0.296380 0.000000 2.293360 
# 
# From -- ./inp_files/1356.got.cif
#   From: 2010.05.17/outbox.cif.g08.bks.cpg/sg9_1_cif.got.tgz:1356.got - 2010.06.03 20:04:27.
