data_PCOD9136834
_publ_section_title
;
Structure prediction by ZEFSAII (Michael W. Deem and Ramdas Pophale) SiO2 
 PCOD9136834
Probable space group: C C
;
_chemical_formula_sum "Si O2"
_cell_formula_units_Z 32
_cell_length_a 10.489353
_cell_length_b 8.753351
_cell_length_c 19.805484
_cell_angle_alpha 90.000000
_cell_angle_beta 42.747507
_cell_angle_gamma 90.000000
_cell_volume 1234.327407
_symmetry_space_group_name_H-M "C C"
_symmetry_group_IT_number 9
_symmetry_cell_setting 'monoclinic'
loop_
_space_group_symop_operation_xyz
x,y,z
x,-y,1/2+z
1/2+x,1/2+y,z
1/2+x,1/2-y,1/2+z
loop_
_atom_site_type_symbol
_atom_site_label
_atom_site_fract_x
_atom_site_fract_y
_atom_site_fract_z
Si Si1 0.832900 0.936675 0.856360
Si Si2 0.502172 0.338139 0.190602
Si Si3 0.645123 0.235786 0.311831
Si Si4 0.263763 0.952383 0.824893
Si Si5 0.359988 0.443208 0.624210
Si Si6 0.406968 0.303596 0.015574
Si Si7 0.716955 0.176293 0.998379
Si Si8 0.778691 0.638595 0.941550
O O1 0.726539 0.005875 0.962982
O O2 0.985738 0.049833 0.762707
O O3 0.692455 0.892842 0.849924
O O4 0.892432 0.771276 0.858832
O O5 0.434045 0.453432 0.158109
O O6 0.362090 0.196906 0.258136
O O7 0.674562 0.246926 0.088502
O O8 0.762887 0.390304 0.283571
O O9 0.428557 0.273433 0.402286
O O10 0.714144 0.172388 0.213500
O O11 0.329623 0.993945 0.875671
O O12 0.047808 0.903881 0.915858
O O13 0.281018 0.567926 0.601558
O O14 0.550689 0.360647 0.523643
O O15 0.547829 0.238796 0.017341
O O16 0.319474 0.169918 0.004308
#
# Coordination Sequence:
#
# PCOD9136834 Si02
#       8
#     4   4   4   4   4   4   4   4
#     4  10  22  45  68 101 147 193 239 303 364 431
#     4  10  22  45  72 104 148 186 252 299 370 438
#     4  10  23  45  71 105 149 189 249 307 365 443
#     4  10  21  44  69 103 141 195 244 304 365 435
#     4   9  22  45  72 110 144 193 250 300 373 443
#     4  10  21  44  71 105 147 189 244 296 367 441
#     4  11  23  43  74 108 146 190 241 312 366 428
#     4  10  22  43  77 106 148 191 247 303 364 449
#
# _framework density 25.925049999999999
#
# number of rings (size 3 to 8) (size 9 to 14) (size 15 to 20)
#    0.000    2.000    1.250    0.750    1.750    3.000 
#   11.250   12.500    0.000    0.000    0.000    0.000 
#    0.000    0.000    0.000    0.000    0.000    0.000 
#
# Total GULP energy -89268.216216 kJ/mol
# GULP energy per Si atom -5579.263513 kJ/mol
# Density = 2.586604 g / cm^3
# Si number density = 25.925050 Si / 1000 Ang^3
#
#
#
# Elastic Constant Matrix: (Units=GPa)
#
#
# Indices 1 2 3 4 5 6 
#
# 1 105.6786 9.1303 10.4610 0.0000 16.6938 0.0000
# 2 9.1303 105.8948 22.9231 0.0000 -1.4362 0.0000
# 3 10.4610 22.9231 94.9415 0.0000 17.7626 0.0000
# 4 0.0000 0.0000 0.0000 45.0639 0.0000 7.9121
# 5 16.6938 -1.4362 17.7626 0.0000 31.6638 0.0000
# 6 0.0000 0.0000 0.0000 7.9121 0.0000 44.3808
#
#
#
# Elastic Compliance Matrix: (Units=1/GPa)
#
#
# Indices 1 2 3 4 5 6 
#
# 1 0.010423 -0.001007 0.000147 0.000000 -0.005623 0.000000
# 2 -0.001007 0.010177 -0.002829 0.000000 0.002579 0.000000
# 3 0.000147 -0.002829 0.012556 0.000000 -0.007249 0.000000
# 4 0.000000 0.000000 0.000000 0.022908 0.000000 -0.004084
# 5 -0.005623 0.002579 -0.007249 0.000000 0.038730 0.000000
# 6 0.000000 0.000000 0.000000 -0.004084 0.000000 0.023260
#
#
# Mechanical properties :
#
#
# Convention : Reuss Voigt Hill
#
# Bulk Modulus (GPa) = 38.79157 43.50486 41.14822
# Shear Modulus (GPa) = 37.30616 41.82173 39.56395
#
# Velocity S-wave (km/s) = 3.79753 4.02080 3.91076
# Velocity P-wave (km/s) = 5.85011 6.19461 6.02482
#
# Compressibility (1/GPa) = 0.02577879
#
# Stress axis : x y z
#
# Youngs Moduli (GPa) = 95.93783 98.25598 79.64370
#
# Poissons Ratio (x) = 0.09892 -0.01168
# Poissons Ratio (y) = 0.09658 0.22531
# Poissons Ratio (z) = -0.01407 0.27796
#
# Static dielectric constant tensor:
#      x y z
#    x 2.164190 0.000000 0.080690 
#    y 0.000000 2.137300 0.000000 
#    z 0.080690 0.000000 2.048390 
# 
# From -- ./inp_files/35311.got.cif
#   From: 2010.05.17/outbox.cif.g08.bks.cpg/sg9_18_cif.got.tgz:35311.got - 2010.06.03 20:04:27.
