data_PCOD9136988
_publ_section_title
;
Structure prediction by ZEFSAII (Michael W. Deem and Ramdas Pophale) SiO2 
 PCOD9136988
Probable space group: C C
;
_chemical_formula_sum "Si O2"
_cell_formula_units_Z 32
_cell_length_a 16.180138
_cell_length_b 12.272847
_cell_length_c 12.581156
_cell_angle_alpha 90.000000
_cell_angle_beta 146.893521
_cell_angle_gamma 90.000000
_cell_volume 1364.574182
_symmetry_space_group_name_H-M "C C"
_symmetry_group_IT_number 9
_symmetry_cell_setting 'monoclinic'
loop_
_space_group_symop_operation_xyz
x,y,z
x,-y,1/2+z
1/2+x,1/2+y,z
1/2+x,1/2-y,1/2+z
loop_
_atom_site_type_symbol
_atom_site_label
_atom_site_fract_x
_atom_site_fract_y
_atom_site_fract_z
Si Si1 0.920480 0.889333 0.461630
Si Si2 0.368084 0.148619 0.429840
Si Si3 0.584854 0.602701 0.674713
Si Si4 0.631739 0.459734 0.536016
Si Si5 0.752573 0.808083 0.845479
Si Si6 0.734675 0.629173 0.515536
Si Si7 0.075069 0.669429 0.931187
Si Si8 0.645286 0.970587 0.301401
O O1 0.953028 0.762445 0.507765
O O2 0.759554 0.912125 0.341307
O O3 0.963751 0.918860 0.385374
O O4 0.022823 0.979796 0.631968
O O5 0.251604 0.125521 0.210361
O O6 0.277558 0.155291 0.441535
O O7 0.482617 0.049575 0.572342
O O8 0.644178 0.569410 0.621066
O O9 0.710336 0.689552 0.845926
O O10 0.429603 0.672106 0.514082
O O11 0.684106 0.504550 0.480803
O O12 0.664451 0.830414 0.638614
O O13 0.694117 0.904467 0.858660
O O14 0.605896 0.713450 0.411157
O O15 0.895890 0.649345 0.748825
O O16 0.138605 0.585100 0.910449
#
# Coordination Sequence:
#
# PCOD9136988 Si02
#       8
#     4   4   4   4   4   4   4   4
#     4   9  19  38  57  94 123 167 213 258 323 387
#     4  11  21  37  66  89 138 163 213 279 317 387
#     4   9  22  34  61  92 123 168 215 251 331 382
#     4  10  22  39  57  98 130 167 220 261 335 380
#     4  11  20  39  58  90 131 165 209 276 319 385
#     4  11  23  36  62 100 126 170 220 270 322 389
#     4  11  21  35  61  94 125 163 223 270 318 384
#     4  10  22  34  56  97 118 169 215 257 337 372
#
# _framework density 23.45054
#
# number of rings (size 3 to 8) (size 9 to 14) (size 15 to 20)
#    0.750    1.000    2.500    2.250    3.500    0.000 
#    0.000    0.000    0.000    7.500    0.000    0.000 
#    0.000    0.000    0.000    0.000    0.000    0.000 
#
# Total GULP energy -89155.968374 kJ/mol
# GULP energy per Si atom -5572.248023 kJ/mol
# Density = 2.339717 g / cm^3
# Si number density = 23.450540 Si / 1000 Ang^3
#
#
#
# Elastic Constant Matrix: (Units=GPa)
#
#
# Indices 1 2 3 4 5 6 
#
# 1 68.6797 32.3957 22.6068 0.0000 16.6673 0.0000
# 2 32.3957 118.5288 2.8393 0.0000 11.1912 0.0000
# 3 22.6068 2.8393 45.7336 0.0000 15.1193 0.0000
# 4 0.0000 0.0000 0.0000 17.7597 0.0000 13.2594
# 5 16.6673 11.1912 15.1193 0.0000 32.4188 0.0000
# 6 0.0000 0.0000 0.0000 13.2594 0.0000 45.2464
#
#
#
# Elastic Compliance Matrix: (Units=1/GPa)
#
#
# Indices 1 2 3 4 5 6 
#
# 1 0.020924 -0.005035 -0.008333 0.000000 -0.005133 0.000000
# 2 -0.005035 0.009944 0.002542 0.000000 -0.002030 0.000000
# 3 -0.008333 0.002542 0.029204 0.000000 -0.010213 0.000000
# 4 0.000000 0.000000 0.000000 0.072077 0.000000 -0.021122
# 5 -0.005133 -0.002030 -0.010213 0.000000 0.038949 0.000000
# 6 0.000000 0.000000 0.000000 -0.021122 0.000000 0.028291
#
#
# Mechanical properties :
#
#
# Convention : Reuss Voigt Hill
#
# Bulk Modulus (GPa) = 26.02824 38.73620 32.38222
# Shear Modulus (GPa) = 21.38157 30.75831 26.06994
#
# Velocity S-wave (km/s) = 3.02283 3.62557 3.33783
# Velocity P-wave (km/s) = 4.82770 5.83784 5.35664
#
# Compressibility (1/GPa) = 0.03841981
#
# Stress axis : x y z
#
# Youngs Moduli (GPa) = 47.79234 100.56780 34.24225
#
# Poissons Ratio (x) = 0.50631 0.28536
# Poissons Ratio (y) = 0.24061 -0.08706
# Poissons Ratio (z) = 0.39828 -0.25568
#
# Static dielectric constant tensor:
#      x y z
#    x 2.015040 0.000000 -0.026410 
#    y 0.000000 1.892640 0.000000 
#    z -0.026410 0.000000 1.902030 
# 
# From -- ./inp_files/26845.got.cif
#   From: 2010.05.17/outbox.cif.g08.bks.cpg/sg9_14_cif.got.tgz:26845.got - 2010.06.03 20:04:27.
