data_PCOD9136418
_publ_section_title
;
Structure prediction by ZEFSAII (Michael W. Deem and Ramdas Pophale) SiO2 
 PCOD9136418
Probable space group: C C
;
_chemical_formula_sum "Si O2"
_cell_formula_units_Z 32
_cell_length_a 6.505410
_cell_length_b 16.665228
_cell_length_c 13.728639
_cell_angle_alpha 90.000000
_cell_angle_beta 75.028100
_cell_angle_gamma 90.000000
_cell_volume 1437.852085
_symmetry_space_group_name_H-M "C C"
_symmetry_group_IT_number 9
_symmetry_cell_setting 'monoclinic'
loop_
_space_group_symop_operation_xyz
x,y,z
x,-y,1/2+z
1/2+x,1/2+y,z
1/2+x,1/2-y,1/2+z
loop_
_atom_site_type_symbol
_atom_site_label
_atom_site_fract_x
_atom_site_fract_y
_atom_site_fract_z
Si Si1 0.270230 0.925732 0.587520
Si Si2 0.453480 0.409634 0.785307
Si Si3 0.652705 0.303389 0.315937
Si Si4 0.818242 0.749349 0.001182
Si Si5 0.076571 0.355674 0.182767
Si Si6 0.155286 0.983462 0.394775
Si Si7 0.695834 0.744610 0.335810
Si Si8 0.057475 0.539629 0.219991
O O1 0.247065 0.834539 0.555829
O O2 0.233101 0.977868 0.495914
O O3 0.090866 0.953571 0.684956
O O4 0.484410 0.925256 0.625246
O O5 0.460190 0.460511 0.884272
O O6 0.593521 0.330148 0.789864
O O7 0.225493 0.408931 0.761334
O O8 0.738822 0.254169 0.399142
O O9 0.830673 0.323545 0.211691
O O10 0.605861 0.393273 0.363073
O O11 0.448263 0.253007 0.308570
O O12 0.713771 0.816193 0.080929
O O13 0.073270 0.755173 0.954164
O O14 0.136908 0.323589 0.282370
O O15 0.120958 0.449434 0.182523
O O16 0.354640 0.022574 0.313748
#
# Coordination Sequence:
#
# PCOD9136418 Si02
#       8
#     4   4   4   4   4   4   4   4
#     4  10  22  41  62  94 130 174 222 273 339 420
#     4  11  23  40  63  97 134 176 222 282 339 405
#     4   9  21  40  63  88 127 175 214 280 339 401
#     4  10  22  40  61  95 129 164 225 272 346 406
#     4  10  21  41  62  92 129 168 224 270 332 409
#     4   9  21  41  64  92 132 171 228 274 336 413
#     4  11  23  39  62  95 133 169 223 281 340 398
#     4  10  23  40  67  93 132 177 220 280 339 406
#
# _framework density 22.255417999999999
#
# number of rings (size 3 to 8) (size 9 to 14) (size 15 to 20)
#    0.000    2.000    1.250    1.500    0.000   11.000 
#    0.000    0.000    0.000    0.000    0.000    0.000 
#    0.000    0.000    0.000    0.000    0.000    0.000 
#
# Total GULP energy -89146.773858 kJ/mol
# GULP energy per Si atom -5571.673366 kJ/mol
# Density = 2.220476 g / cm^3
# Si number density = 22.255418 Si / 1000 Ang^3
#
#
#
# Elastic Constant Matrix: (Units=GPa)
#
#
# Indices 1 2 3 4 5 6 
#
# 1 128.7609 40.3189 26.7824 0.0000 15.1577 0.0000
# 2 40.3189 36.7964 6.7025 0.0000 3.4112 0.0000
# 3 26.7824 6.7025 77.3723 0.0000 4.0255 0.0000
# 4 0.0000 0.0000 0.0000 24.8992 0.0000 5.0462
# 5 15.1577 3.4112 4.0255 0.0000 31.9041 0.0000
# 6 0.0000 0.0000 0.0000 5.0462 0.0000 30.5418
#
#
#
# Elastic Compliance Matrix: (Units=1/GPa)
#
#
# Indices 1 2 3 4 5 6 
#
# 1 0.013144 -0.013418 -0.003158 0.000000 -0.004412 0.000000
# 2 -0.013418 0.041538 0.000952 0.000000 0.001814 0.000000
# 3 -0.003158 0.000952 0.013954 0.000000 -0.000362 0.000000
# 4 0.000000 0.000000 0.000000 0.041553 0.000000 -0.006865
# 5 -0.004412 0.001814 -0.000362 0.000000 0.033292 0.000000
# 6 0.000000 0.000000 0.000000 -0.006865 0.000000 0.033876
#
#
# Mechanical properties :
#
#
# Convention : Reuss Voigt Hill
#
# Bulk Modulus (GPa) = 26.74675 43.39301 35.06988
# Shear Modulus (GPa) = 22.61745 28.74407 25.68076
#
# Velocity S-wave (km/s) = 3.19135 3.59772 3.40061
# Velocity P-wave (km/s) = 5.06200 6.06615 5.58668
#
# Compressibility (1/GPa) = 0.03738773
#
# Stress axis : x y z
#
# Youngs Moduli (GPa) = 76.07920 24.07445 71.66400
#
# Poissons Ratio (x) = 0.32304 0.22631
# Poissons Ratio (y) = 1.02085 -0.06823
# Poissons Ratio (z) = 0.24025 -0.02292
#
# Static dielectric constant tensor:
#      x y z
#    x 1.965610 0.000000 -0.031640 
#    y 0.000000 1.857240 0.000000 
#    z -0.031640 0.000000 1.823190 
# 
# From -- ./inp_files/21947.got.cif
#   From: 2010.05.17/outbox.cif.g08.bks.cpg/sg9_11_cif.got.tgz:21947.got - 2010.06.03 20:04:27.
