data_PCOD9136215
_publ_section_title
;
Structure prediction by ZEFSAII (Michael W. Deem and Ramdas Pophale) SiO2 
 PCOD9136215
Probable space group: C C
;
_chemical_formula_sum "Si O2"
_cell_formula_units_Z 32
_cell_length_a 18.829205
_cell_length_b 14.730984
_cell_length_c 4.949436
_cell_angle_alpha 90.000000
_cell_angle_beta 67.100647
_cell_angle_gamma 90.000000
_cell_volume 1264.644835
_symmetry_space_group_name_H-M "C C"
_symmetry_group_IT_number 9
_symmetry_cell_setting 'monoclinic'
loop_
_space_group_symop_operation_xyz
x,y,z
x,-y,1/2+z
1/2+x,1/2+y,z
1/2+x,1/2-y,1/2+z
loop_
_atom_site_type_symbol
_atom_site_label
_atom_site_fract_x
_atom_site_fract_y
_atom_site_fract_z
Si Si1 0.973530 0.842074 0.830600
Si Si2 0.338874 0.437941 0.759917
Si Si3 0.690162 0.264406 0.745006
Si Si4 0.123459 0.059388 0.334227
Si Si5 0.344138 0.936485 0.996726
Si Si6 0.829877 0.227764 0.887774
Si Si7 0.027545 0.550399 0.179051
Si Si8 0.594479 0.215705 0.387042
O O1 0.927883 0.909937 0.697760
O O2 0.041304 0.894202 0.885680
O O3 0.015925 0.763685 0.598182
O O4 0.912032 0.797216 0.128474
O O5 0.318506 0.481226 0.080413
O O6 0.312304 0.347274 0.641395
O O7 0.629052 0.473311 0.130767
O O8 0.688927 0.368518 0.654071
O O9 0.769020 0.223963 0.734001
O O10 0.647957 0.210042 0.571101
O O11 0.638011 0.271961 0.092040
O O12 0.321659 0.830577 0.011362
O O13 0.437710 0.929376 0.855730
O O14 0.322240 0.999141 0.776438
O O15 0.041770 0.461360 0.341925
O O16 0.077855 0.624847 0.249740
#
# Coordination Sequence:
#
# PCOD9136215 Si02
#       8
#     4   4   4   4   4   4   4   4
#     4  11  26  43  78 110 142 196 250 321 375 449
#     4  12  26  45  71 111 150 192 249 318 386 452
#     4  11  28  47  69 101 146 197 238 294 381 460
#     4  11  24  44  73 106 144 186 248 312 376 455
#     4  10  25  42  70 110 144 183 245 309 372 442
#     4  12  29  48  76 109 156 205 251 321 381 454
#     4  10  21  39  68  98 129 170 230 299 351 418
#     4  11  25  46  69 101 137 187 243 298 368 446
#
# _framework density 25.303549
#
# number of rings (size 3 to 8) (size 9 to 14) (size 15 to 20)
#    0.000    1.000    1.250    3.750   17.500    1.000 
#    0.000    3.750    0.000    0.000    0.000    0.000 
#    0.000    0.000    0.000    0.000    0.000    0.000 
#
# Total GULP energy -89555.441386 kJ/mol
# GULP energy per Si atom -5597.215087 kJ/mol
# Density = 2.524596 g / cm^3
# Si number density = 25.303549 Si / 1000 Ang^3
#
#
#
# Elastic Constant Matrix: (Units=GPa)
#
#
# Indices 1 2 3 4 5 6 
#
# 1 75.9555 42.8909 38.5706 0.0000 25.5142 0.0000
# 2 42.8909 129.4689 23.3479 0.0000 3.9299 0.0000
# 3 38.5706 23.3479 109.1566 0.0000 21.0184 0.0000
# 4 0.0000 0.0000 0.0000 27.4442 0.0000 12.4003
# 5 25.5142 3.9299 21.0184 0.0000 44.3529 0.0000
# 6 0.0000 0.0000 0.0000 12.4003 0.0000 41.0607
#
#
#
# Elastic Compliance Matrix: (Units=1/GPa)
#
#
# Indices 1 2 3 4 5 6 
#
# 1 0.022509 -0.006310 -0.004642 0.000000 -0.010190 0.000000
# 2 -0.006310 0.009803 -0.000439 0.000000 0.002969 0.000000
# 3 -0.004642 -0.000439 0.011415 0.000000 -0.002700 0.000000
# 4 0.000000 0.000000 0.000000 0.042195 0.000000 -0.012743
# 5 -0.010190 0.002969 -0.002700 0.000000 0.029425 0.000000
# 6 0.000000 0.000000 0.000000 -0.012743 0.000000 0.028203
#
#
# Mechanical properties :
#
#
# Convention : Reuss Voigt Hill
#
# Bulk Modulus (GPa) = 47.74327 58.24442 52.99385
# Shear Modulus (GPa) = 28.84938 36.55632 32.70285
#
# Velocity S-wave (km/s) = 3.38025 3.80506 3.59893
# Velocity P-wave (km/s) = 5.84328 6.50945 6.18534
#
# Compressibility (1/GPa) = 0.02094536
#
# Stress axis : x y z
#
# Youngs Moduli (GPa) = 44.42689 102.00528 87.60276
#
# Poissons Ratio (x) = 0.64370 0.40663
# Poissons Ratio (y) = 0.28035 0.03845
# Poissons Ratio (z) = 0.20622 0.04477
#
# Static dielectric constant tensor:
#      x y z
#    x 1.985120 0.000000 -0.025110 
#    y 0.000000 2.092710 0.000000 
#    z -0.025110 0.000000 1.984470 
# 
# From -- ./inp_files/2966.got.cif
#   From: 2010.05.17/outbox.cif.g08.bks.cpg/sg9_2_cif.got.tgz:2966.got - 2010.06.03 20:04:27.
