data_PCOD9136100
_publ_section_title
;
Structure prediction by ZEFSAII (Michael W. Deem and Ramdas Pophale) SiO2 
 PCOD9136100
Probable space group: C C
;
_chemical_formula_sum "Si O2"
_cell_formula_units_Z 32
_cell_length_a 6.807961
_cell_length_b 25.572984
_cell_length_c 8.192449
_cell_angle_alpha 90.000000
_cell_angle_beta 97.753594
_cell_angle_gamma 90.000000
_cell_volume 1413.264291
_symmetry_space_group_name_H-M "C C"
_symmetry_group_IT_number 9
_symmetry_cell_setting 'monoclinic'
loop_
_space_group_symop_operation_xyz
x,y,z
x,-y,1/2+z
1/2+x,1/2+y,z
1/2+x,1/2-y,1/2+z
loop_
_atom_site_type_symbol
_atom_site_label
_atom_site_fract_x
_atom_site_fract_y
_atom_site_fract_z
Si Si1 0.119930 0.203080 0.658530
Si Si2 0.313003 0.660282 0.866693
Si Si3 0.201517 0.905973 0.004904
Si Si4 0.914836 0.052474 0.730712
Si Si5 0.012197 0.248987 0.314160
Si Si6 0.498748 0.976201 0.191325
Si Si7 0.295661 0.063021 0.987773
Si Si8 0.115965 0.852019 0.658486
O O1 0.207055 0.146852 0.613976
O O2 0.995407 0.223581 0.490812
O O3 0.300169 0.241817 0.710857
O O4 0.985654 0.194938 0.801257
O O5 0.308155 0.607856 0.759411
O O6 0.120857 0.695664 0.842386
O O7 0.398618 0.645243 0.052803
O O8 0.407629 0.936804 0.045096
O O9 0.035462 0.940673 0.077235
O O10 0.138836 0.888345 0.819280
O O11 0.731722 0.013395 0.702764
O O12 0.082813 0.045836 0.888164
O O13 0.138709 0.207452 0.221215
O O14 0.445768 0.949280 0.357574
O O15 0.372302 0.028373 0.145968
O O16 0.264536 0.122591 0.042472
#
# Coordination Sequence:
#
# PCOD9136100 Si02
#       8
#     4   4   4   4   4   4   4   4
#     4  10  22  36  59  88 124 166 211 265 320 377
#     4  10  21  39  60  89 126 166 215 264 320 376
#     4   9  20  40  62  89 128 163 211 273 322 382
#     4   9  21  41  64  92 127 165 214 268 326 392
#     4  11  21  38  59  90 125 171 216 262 319 389
#     4  11  21  41  67  94 124 173 219 261 340 390
#     4  10  23  40  63  94 132 168 214 277 323 393
#     4  10  21  41  62  92 132 172 210 270 330 379
#
# _framework density 22.642616
#
# number of rings (size 3 to 8) (size 9 to 14) (size 15 to 20)
#    0.000    2.000    1.250    2.250    1.750    2.000 
#    0.000    6.250    0.000    0.000    0.000    0.000 
#    0.000    0.000    0.000    0.000    0.000    0.000 
#
# Total GULP energy -89387.476560 kJ/mol
# GULP energy per Si atom -5586.717285 kJ/mol
# Density = 2.259108 g / cm^3
# Si number density = 22.642616 Si / 1000 Ang^3
#
#
#
# Elastic Constant Matrix: (Units=GPa)
#
#
# Indices 1 2 3 4 5 6 
#
# 1 80.8070 20.2604 26.4049 0.0000 9.6542 0.0000
# 2 20.2604 52.4985 12.5652 0.0000 -1.1116 0.0000
# 3 26.4049 12.5652 99.8841 0.0000 -3.5567 0.0000
# 4 0.0000 0.0000 0.0000 29.7158 0.0000 -0.2770
# 5 9.6542 -1.1116 -3.5567 0.0000 19.5617 0.0000
# 6 0.0000 0.0000 0.0000 -0.2770 0.0000 19.3387
#
#
#
# Elastic Compliance Matrix: (Units=1/GPa)
#
#
# Indices 1 2 3 4 5 6 
#
# 1 0.016085 -0.005468 -0.003883 0.000000 -0.008955 0.000000
# 2 -0.005468 0.021507 -0.001128 0.000000 0.003716 0.000000
# 3 -0.003883 -0.001128 0.011319 0.000000 0.003910 0.000000
# 4 0.000000 0.000000 0.000000 0.033657 0.000000 0.000482
# 5 -0.008955 0.003716 0.003910 0.000000 0.056462 0.000000
# 6 0.000000 0.000000 0.000000 0.000482 0.000000 0.051717
#
#
# Mechanical properties :
#
#
# Convention : Reuss Voigt Hill
#
# Bulk Modulus (GPa) = 35.77352 39.07228 37.42290
# Shear Modulus (GPa) = 22.62223 25.32051 23.97137
#
# Velocity S-wave (km/s) = 3.16428 3.34768 3.25727
# Velocity P-wave (km/s) = 5.40220 5.67769 5.54166
#
# Compressibility (1/GPa) = 0.02795364
#
# Stress axis : x y z
#
# Youngs Moduli (GPa) = 62.17045 46.49673 88.34502
#
# Poissons Ratio (x) = 0.25423 0.34306
# Poissons Ratio (y) = 0.33993 0.09963
# Poissons Ratio (z) = 0.24142 0.05244
#
# Static dielectric constant tensor:
#      x y z
#    x 1.827310 0.000000 -0.013260 
#    y 0.000000 1.867800 0.000000 
#    z -0.013260 0.000000 1.847020 
# 
# From -- ./inp_files/4329.got.cif
#   From: 2010.05.17/outbox.cif.g08.bks.cpg/sg9_3_cif.got.tgz:4329.got - 2010.06.03 20:04:27.
