data_PCOD9136793
_publ_section_title
;
Structure prediction by ZEFSAII (Michael W. Deem and Ramdas Pophale) SiO2 
 PCOD9136793
Probable space group: C C
;
_chemical_formula_sum "Si O2"
_cell_formula_units_Z 32
_cell_length_a 11.560178
_cell_length_b 8.217388
_cell_length_c 28.684312
_cell_angle_alpha 90.000000
_cell_angle_beta 32.503166
_cell_angle_gamma 90.000000
_cell_volume 1464.188337
_symmetry_space_group_name_H-M "C C"
_symmetry_group_IT_number 9
_symmetry_cell_setting 'monoclinic'
loop_
_space_group_symop_operation_xyz
x,y,z
x,-y,1/2+z
1/2+x,1/2+y,z
1/2+x,1/2-y,1/2+z
loop_
_atom_site_type_symbol
_atom_site_label
_atom_site_fract_x
_atom_site_fract_y
_atom_site_fract_z
Si Si1 0.083190 0.627062 0.375000
Si Si2 0.420819 0.677916 0.507492
Si Si3 0.694710 0.517205 0.065023
Si Si4 0.445667 0.140214 0.769070
Si Si5 0.565432 0.051554 0.142522
Si Si6 0.912605 0.691616 0.331430
Si Si7 0.482995 0.610313 0.724506
Si Si8 0.902922 0.253327 0.618498
O O1 0.223367 0.768763 0.350859
O O2 0.257478 0.488332 0.300893
O O3 0.908732 0.563826 0.470995
O O4 0.966677 0.690179 0.367634
O O5 0.314900 0.502178 0.553174
O O6 0.657193 0.688017 0.405880
O O7 0.456972 0.752917 0.546201
O O8 0.243725 0.791156 0.541937
O O9 0.646663 0.488589 0.136058
O O10 0.503331 0.417366 0.104489
O O11 0.647507 0.252887 0.711685
O O12 0.462928 0.090250 0.708662
O O13 0.484574 0.981332 0.786477
O O14 0.497074 0.214193 0.193760
O O15 0.495257 0.094475 0.114674
O O16 0.019091 0.838304 0.265996
#
# Coordination Sequence:
#
# PCOD9136793 Si02
#       8
#     4   4   4   4   4   4   4   4
#     4  12  24  44  69  99 135 182 225 280 338 403
#     4  11  22  40  65  98 129 174 223 274 330 398
#     4  11  23  42  70  96 136 181 225 278 336 404
#     4  10  24  40  65  96 130 172 221 273 333 397
#     4   9  21  40  67  92 128 170 215 273 328 400
#     4  11  23  41  66  95 137 175 221 279 336 399
#     4  10  22  43  68  97 135 173 228 276 338 393
#     4  10  21  44  64  93 132 171 218 277 333 390
#
# _framework density 21.855112999999999
#
# number of rings (size 3 to 8) (size 9 to 14) (size 15 to 20)
#    0.000    1.500    2.500    3.000    3.500    2.000 
#    0.000    8.750    0.000    0.000    0.000    0.000 
#    0.000    0.000    0.000    0.000    0.000    0.000 
#
# Total GULP energy -89186.144837 kJ/mol
# GULP energy per Si atom -5574.134052 kJ/mol
# Density = 2.180537 g / cm^3
# Si number density = 21.855113 Si / 1000 Ang^3
#
#
#
# Elastic Constant Matrix: (Units=GPa)
#
#
# Indices 1 2 3 4 5 6 
#
# 1 54.7751 14.4832 25.7755 0.0001 -6.6141 -0.0001
# 2 14.4832 51.1367 21.9247 -0.0001 -13.1431 -0.0001
# 3 25.7755 21.9247 114.0219 0.0006 -1.5160 0.0000
# 4 0.0001 -0.0001 0.0006 29.4974 -0.0002 -6.8350
# 5 -6.6141 -13.1431 -1.5160 -0.0002 20.6979 0.0000
# 6 -0.0001 -0.0001 0.0000 -6.8350 0.0000 35.9793
#
#
#
# Elastic Compliance Matrix: (Units=1/GPa)
#
#
# Indices 1 2 3 4 5 6 
#
# 1 0.021630 -0.003127 -0.004227 0.000000 0.004616 0.000000
# 2 -0.003127 0.026137 -0.004115 0.000000 0.015296 0.000000
# 3 -0.004227 -0.004115 0.010475 0.000000 -0.003197 0.000000
# 4 0.000000 0.000000 0.000000 0.035462 0.000001 0.006737
# 5 0.004616 0.015296 -0.003197 0.000001 0.059268 0.000000
# 6 0.000000 0.000000 0.000000 0.006737 0.000000 0.029074
#
#
# Mechanical properties :
#
#
# Convention : Reuss Voigt Hill
#
# Bulk Modulus (GPa) = 28.32684 38.25561 33.29122
# Shear Modulus (GPa) = 23.06783 27.75161 25.40972
#
# Velocity S-wave (km/s) = 3.25235 3.56729 3.41346
# Velocity P-wave (km/s) = 5.20510 5.87449 5.54990
#
# Compressibility (1/GPa) = 0.03530221
#
# Stress axis : x y z
#
# Youngs Moduli (GPa) = 46.23241 38.25990 95.46910
#
# Poissons Ratio (x) = 0.11965 0.40354
# Poissons Ratio (y) = 0.14458 0.39290
# Poissons Ratio (z) = 0.19542 0.15746
#
# Static dielectric constant tensor:
#      x y z
#    x 1.812660 0.000000 0.008740 
#    y 0.000000 1.856700 0.000000 
#    z 0.008740 0.000000 1.791350 
# 
# From -- ./inp_files/24186.got.cif
#   From: 2010.05.17/outbox.cif.g08.bks.cpg/sg9_13_cif.got.tgz:24186.got - 2010.06.03 20:04:27.
