data_PCOD9136105
_publ_section_title
;
Structure prediction by ZEFSAII (Michael W. Deem and Ramdas Pophale) SiO2 
 PCOD9136105
Probable space group: C C
;
_chemical_formula_sum "Si O2"
_cell_formula_units_Z 32
_cell_length_a 13.768417
_cell_length_b 17.726100
_cell_length_c 13.644478
_cell_angle_alpha 90.000000
_cell_angle_beta 158.661017
_cell_angle_gamma 90.000000
_cell_volume 1211.764840
_symmetry_space_group_name_H-M "C C"
_symmetry_group_IT_number 9
_symmetry_cell_setting 'monoclinic'
loop_
_space_group_symop_operation_xyz
x,y,z
x,-y,1/2+z
1/2+x,1/2+y,z
1/2+x,1/2-y,1/2+z
loop_
_atom_site_type_symbol
_atom_site_label
_atom_site_fract_x
_atom_site_fract_y
_atom_site_fract_z
Si Si1 0.501110 0.797462 0.399720
Si Si2 0.172157 0.957204 0.334855
Si Si3 0.938186 0.786638 0.331521
Si Si4 0.403050 0.117536 0.617091
Si Si5 0.977491 0.161077 0.071855
Si Si6 0.237791 0.550518 0.575366
Si Si7 0.905213 0.299650 0.541080
Si Si8 0.666364 0.516783 0.123506
O O1 0.429862 0.863694 0.257034
O O2 0.441940 0.811456 0.458139
O O3 0.806841 0.770863 0.683408
O O4 0.313521 0.879616 0.498033
O O5 0.871377 0.959278 0.094775
O O6 0.315841 0.032536 0.509058
O O7 0.176476 0.958676 0.221600
O O8 0.809656 0.864375 0.175808
O O9 0.251001 0.776599 0.608008
O O10 0.919838 0.779093 0.432309
O O11 0.182367 0.169909 0.354492
O O12 0.692710 0.134711 0.844847
O O13 0.102969 0.093785 0.123703
O O14 0.936968 0.531566 0.318960
O O15 0.425455 0.500626 0.823547
O O16 0.678018 0.235711 0.336178
#
# Coordination Sequence:
#
# PCOD9136105 Si02
#       8
#     4   4   4   4   4   4   4   4
#     4  10  22  43  66 100 145 187 234 294 359 429
#     4  11  26  46  75 105 138 188 241 301 359 422
#     4  11  21  36  59  88 129 178 219 266 331 416
#     4  11  23  39  68 106 135 177 240 295 353 419
#     4  10  21  39  60  93 139 171 219 281 352 417
#     4  11  25  43  66  99 136 176 229 287 359 406
#     4  10  25  47  70  99 142 193 237 291 360 426
#     4  10  23  45  64  96 140 170 219 299 347 417
#
# _framework density 26.407765000000001
#
# number of rings (size 3 to 8) (size 9 to 14) (size 15 to 20)
#    0.000    1.500    0.000    6.000    1.750   11.000 
#    4.500    0.000    0.000    0.000    0.000    0.000 
#    0.000    0.000    0.000    0.000    0.000    0.000 
#
# Total GULP energy -89694.455720 kJ/mol
# GULP energy per Si atom -5605.903483 kJ/mol
# Density = 2.634766 g / cm^3
# Si number density = 26.407765 Si / 1000 Ang^3
#
#
#
# Elastic Constant Matrix: (Units=GPa)
#
#
# Indices 1 2 3 4 5 6 
#
# 1 152.4889 34.2845 64.3807 0.0015 7.7762 0.0001
# 2 34.2845 65.3276 8.5836 0.0026 -13.4888 0.0005
# 3 64.3807 8.5836 138.1962 0.0063 17.5712 0.0014
# 4 0.0015 0.0026 0.0063 30.3506 0.0016 -10.6395
# 5 7.7762 -13.4888 17.5712 0.0016 51.2480 0.0003
# 6 0.0001 0.0005 0.0014 -10.6395 0.0003 40.3938
#
#
#
# Elastic Compliance Matrix: (Units=1/GPa)
#
#
# Indices 1 2 3 4 5 6 
#
# 1 0.009307 -0.004644 -0.003882 0.000001 -0.001304 0.000000
# 2 -0.004644 0.018857 0.000284 -0.000002 0.005571 -0.000001
# 3 -0.003882 0.000284 0.009350 -0.000002 -0.002542 -0.000001
# 4 0.000001 -0.000002 -0.000002 0.036300 -0.000001 0.009561
# 5 -0.001304 0.005571 -0.002542 -0.000001 0.022049 0.000000
# 6 0.000000 -0.000001 -0.000001 0.009561 0.000000 0.027275
#
#
# Mechanical properties :
#
#
# Convention : Reuss Voigt Hill
#
# Bulk Modulus (GPa) = 47.54785 63.39003 55.46894
# Shear Modulus (GPa) = 34.09902 40.98275 37.54088
#
# Velocity S-wave (km/s) = 3.59729 3.94372 3.77448
# Velocity P-wave (km/s) = 5.94124 6.69280 6.32819
#
# Compressibility (1/GPa) = 0.02103144
#
# Stress axis : x y z
#
# Youngs Moduli (GPa) = 107.44321 53.02949 106.95121
#
# Poissons Ratio (x) = 0.24625 0.41516
# Poissons Ratio (y) = 0.49893 -0.03035
# Poissons Ratio (z) = 0.41707 -0.01505
#
# Static dielectric constant tensor:
#      x y z
#    x 2.100160 0.000000 -0.051630 
#    y 0.000000 2.116830 0.000000 
#    z -0.051630 0.000000 2.051150 
# 
# From -- ./inp_files/26144.got.cif
#   From: 2010.05.17/outbox.cif.g08.bks.cpg/sg9_14_cif.got.tgz:26144.got - 2010.06.03 20:04:27.
