data_PCOD9136917
_publ_section_title
;
Structure prediction by ZEFSAII (Michael W. Deem and Ramdas Pophale) SiO2 
 PCOD9136917
Probable space group: C C
;
_chemical_formula_sum "Si O2"
_cell_formula_units_Z 32
_cell_length_a 18.151021
_cell_length_b 13.334665
_cell_length_c 10.415543
_cell_angle_alpha 90.000000
_cell_angle_beta 32.803459
_cell_angle_gamma 90.000000
_cell_volume 1365.749920
_symmetry_space_group_name_H-M "C C"
_symmetry_group_IT_number 9
_symmetry_cell_setting 'monoclinic'
loop_
_space_group_symop_operation_xyz
x,y,z
x,-y,1/2+z
1/2+x,1/2+y,z
1/2+x,1/2-y,1/2+z
loop_
_atom_site_type_symbol
_atom_site_label
_atom_site_fract_x
_atom_site_fract_y
_atom_site_fract_z
Si Si1 0.250000 0.781781 0.599360
Si Si2 0.502788 0.503217 0.225688
Si Si3 0.309695 0.675962 0.070365
Si Si4 0.787451 0.100008 0.374877
Si Si5 0.680179 0.892381 0.537641
Si Si6 0.940676 0.183016 0.513780
Si Si7 0.313073 0.042524 0.802793
Si Si8 0.396258 0.888784 0.899923
O O1 0.241778 0.668577 0.558125
O O2 0.371732 0.771927 0.527024
O O3 0.295141 0.858586 0.419943
O O4 0.089625 0.804030 0.859822
O O5 0.438686 0.395731 0.351867
O O6 0.429062 0.547232 0.207158
O O7 0.461856 0.584445 0.394134
O O8 0.663199 0.504282 0.982551
O O9 0.185941 0.619193 0.182131
O O10 0.303809 0.790529 0.035711
O O11 0.297884 0.671191 0.239079
O O12 0.686760 0.009031 0.494016
O O13 0.548443 0.846085 0.670149
O O14 0.818205 0.841123 0.288895
O O15 0.383017 0.061736 0.561847
O O16 0.371988 0.961039 0.815841
#
# Coordination Sequence:
#
# PCOD9136917 Si02
#       8
#     4   4   4   4   4   4   4   4
#     4  10  23  43  76 103 137 191 243 296 364 441
#     4   9  22  43  76 103 140 183 242 299 357 438
#     4  11  24  45  72 102 135 194 239 296 359 437
#     4  10  21  45  75 100 136 186 243 286 358 443
#     4  11  27  43  69 108 145 184 239 304 372 432
#     4  10  22  43  71 106 142 185 238 301 364 435
#     4  11  27  48  69 110 146 195 243 309 366 430
#     4  12  30  46  72 106 151 196 241 311 366 436
#
# _framework density 23.430351000000002
#
# number of rings (size 3 to 8) (size 9 to 14) (size 15 to 20)
#    0.000    1.500    2.500    0.000    8.750    2.000 
#    0.000    0.000    0.000    0.000    0.000    0.000 
#    0.000    0.000    0.000    0.000    0.000    0.000 
#
# Total GULP energy -89317.612363 kJ/mol
# GULP energy per Si atom -5582.350773 kJ/mol
# Density = 2.337702 g / cm^3
# Si number density = 23.430351 Si / 1000 Ang^3
#
#
#
# Elastic Constant Matrix: (Units=GPa)
#
#
# Indices 1 2 3 4 5 6 
#
# 1 75.0577 25.4005 36.6694 0.0000 -0.4057 0.0000
# 2 25.4005 87.7704 5.9070 0.0000 11.0342 0.0000
# 3 36.6694 5.9070 56.3311 0.0000 -6.9276 0.0000
# 4 0.0000 0.0000 0.0000 21.5464 0.0000 5.0530
# 5 -0.4057 11.0342 -6.9276 0.0000 25.2669 0.0000
# 6 0.0000 0.0000 0.0000 5.0530 0.0000 35.9732
#
#
#
# Elastic Compliance Matrix: (Units=1/GPa)
#
#
# Indices 1 2 3 4 5 6 
#
# 1 0.021837 -0.005247 -0.013806 0.000000 -0.001143 0.000000
# 2 -0.005247 0.013533 0.001303 0.000000 -0.005637 0.000000
# 3 -0.013806 0.001303 0.027430 0.000000 0.006730 0.000000
# 4 0.000000 0.000000 0.000000 0.047992 0.000000 -0.006741
# 5 -0.001143 -0.005637 0.006730 0.000000 0.043866 0.000000
# 6 0.000000 0.000000 0.000000 -0.006741 0.000000 0.028745
#
#
# Mechanical properties :
#
#
# Convention : Reuss Voigt Hill
#
# Bulk Modulus (GPa) = 36.62788 39.45700 38.04244
# Shear Modulus (GPa) = 21.92957 26.63611 24.28284
#
# Velocity S-wave (km/s) = 3.06264 3.37534 3.22278
# Velocity P-wave (km/s) = 5.30782 5.66279 5.48818
#
# Compressibility (1/GPa) = 0.02730161
#
# Stress axis : x y z
#
# Youngs Moduli (GPa) = 45.79340 73.89508 36.45628
#
# Poissons Ratio (x) = 0.38771 0.50330
# Poissons Ratio (y) = 0.24027 -0.04751
# Poissons Ratio (z) = 0.63221 -0.09630
#
# Static dielectric constant tensor:
#      x y z
#    x 1.930110 0.000000 0.044490 
#    y 0.000000 1.855100 0.000000 
#    z 0.044490 0.000000 1.933470 
# 
# From -- ./inp_files/20311.got.cif
#   From: 2010.05.17/outbox.cif.g08.bks.cpg/sg9_11_cif.got.tgz:20311.got - 2010.06.03 20:04:27.
