data_PCOD9136955
_publ_section_title
;
Structure prediction by ZEFSAII (Michael W. Deem and Ramdas Pophale) SiO2 
 PCOD9136955
Probable space group: C C
;
_chemical_formula_sum "Si O2"
_cell_formula_units_Z 28
_cell_length_a 9.846547
_cell_length_b 10.458125
_cell_length_c 14.683509
_cell_angle_alpha 90.000000
_cell_angle_beta 43.497217
_cell_angle_gamma 90.000000
_cell_volume 1040.776826
_symmetry_space_group_name_H-M "C C"
_symmetry_group_IT_number 9
_symmetry_cell_setting 'monoclinic'
loop_
_space_group_symop_operation_xyz
x,y,z
x,-y,1/2+z
1/2+x,1/2+y,z
1/2+x,1/2-y,1/2+z
loop_
_atom_site_type_symbol
_atom_site_label
_atom_site_fract_x
_atom_site_fract_y
_atom_site_fract_z
Si Si1 0.106070 0.424745 0.421540
Si Si2 0.243622 0.170668 0.456380
Si Si3 0.824248 0.815597 0.867602
Si Si4 0.749582 0.413694 0.154274
Si Si5 0.069775 0.324684 0.131294
Si Si6 0.565598 0.568243 0.933575
Si Si7 0.632649 0.041330 0.222215
O O1 0.134424 0.429332 0.298519
O O2 0.982261 0.648307 0.332694
O O3 0.236274 0.550311 0.381189
O O4 0.884413 0.466904 0.555781
O O5 0.182293 0.151762 0.592207
O O6 0.178113 0.302437 0.442005
O O7 0.152034 0.054045 0.444073
O O8 0.794324 0.813259 0.989415
O O9 0.695651 0.692404 0.897597
O O10 0.025900 0.788142 0.721122
O O11 0.910592 0.323825 0.127487
O O12 0.593127 0.444522 0.310462
O O13 0.038541 0.466460 0.183908
O O14 0.344644 0.580036 0.080654
#
# Coordination Sequence:
#
# PCOD9136955 Si02
#       7
#     4   4   4   4   4   4   4
#     4  10  24  47  78 118 158 214 277 339 413 496
#     4  11  24  52  82 116 172 214 279 357 404 503
#     4  10  21  47  73 103 155 201 266 320 402 486
#     4   9  22  50  78 115 167 212 275 339 413 498
#     4  10  21  46  75 108 153 211 259 329 407 486
#     4  11  24  50  79 117 164 226 271 337 431 497
#     4  11  24  50  79 119 167 212 277 343 412 502
#
# _framework density 26.902981
#
# number of rings (size 3 to 8) (size 9 to 14) (size 15 to 20)
#    0.000    1.714    2.857    0.857    0.000    2.286 
#   38.571    4.286    3.143    0.000    0.000    0.000 
#    0.000    0.000    0.000    0.000    0.000    0.000 
#
# Total GULP energy -78354.328208 kJ/mol
# GULP energy per Si atom -5596.737729 kJ/mol
# Density = 2.684175 g / cm^3
# Si number density = 26.902981 Si / 1000 Ang^3
#
#
#
# Elastic Constant Matrix: (Units=GPa)
#
#
# Indices 1 2 3 4 5 6 
#
# 1 85.0445 65.9778 42.4225 0.0000 8.3732 0.0000
# 2 65.9778 167.5135 30.1723 0.0000 10.1142 0.0000
# 3 42.4225 30.1723 188.7858 0.0000 16.8328 0.0000
# 4 0.0000 0.0000 0.0000 33.8542 0.0000 6.2067
# 5 8.3732 10.1142 16.8328 0.0000 46.7121 0.0000
# 6 0.0000 0.0000 0.0000 6.2067 0.0000 42.1572
#
#
#
# Elastic Compliance Matrix: (Units=1/GPa)
#
#
# Indices 1 2 3 4 5 6 
#
# 1 0.018556 -0.006716 -0.003027 0.000000 -0.000781 0.000000
# 2 -0.006716 0.008624 0.000196 0.000000 -0.000734 0.000000
# 3 -0.003027 0.000196 0.006097 0.000000 -0.001697 0.000000
# 4 0.000000 0.000000 0.000000 0.030358 0.000000 -0.004469
# 5 -0.000781 -0.000734 -0.001697 0.000000 0.022318 0.000000
# 6 0.000000 0.000000 0.000000 -0.004469 0.000000 0.024379
#
#
# Mechanical properties :
#
#
# Convention : Reuss Voigt Hill
#
# Bulk Modulus (GPa) = 70.50292 79.83212 75.16752
# Shear Modulus (GPa) = 37.27115 44.72946 41.00030
#
# Velocity S-wave (km/s) = 3.72612 4.08195 3.90809
# Velocity P-wave (km/s) = 6.69143 7.20797 6.95450
#
# Compressibility (1/GPa) = 0.01418381
#
# Stress axis : x y z
#
# Youngs Moduli (GPa) = 53.89213 115.95727 164.01335
#
# Poissons Ratio (x) = 0.77878 0.49641
# Poissons Ratio (y) = 0.36194 -0.03220
# Poissons Ratio (z) = 0.16311 -0.02277
#
# Static dielectric constant tensor:
#      x y z
#    x 2.140350 0.000000 0.029640 
#    y 0.000000 2.108600 0.000000 
#    z 0.029640 0.000000 2.331420 
# 
# From -- ./inp_files/16614.got.cif
#   From: 2010.05.17/outbox.cif.g08.bks.cpg/sg9_9_cif.got.tgz:16614.got - 2010.06.03 20:04:27.
