data_PCOD9136176
_publ_section_title
;
Structure prediction by ZEFSAII (Michael W. Deem and Ramdas Pophale) SiO2 
 PCOD9136176
Probable space group: C C
;
_chemical_formula_sum "Si O2"
_cell_formula_units_Z 24
_cell_length_a 17.018669
_cell_length_b 7.589013
_cell_length_c 9.478807
_cell_angle_alpha 90.000000
_cell_angle_beta 58.058630
_cell_angle_gamma 90.000000
_cell_volume 1038.872938
_symmetry_space_group_name_H-M "C C"
_symmetry_group_IT_number 9
_symmetry_cell_setting 'monoclinic'
loop_
_space_group_symop_operation_xyz
x,y,z
x,-y,1/2+z
1/2+x,1/2+y,z
1/2+x,1/2-y,1/2+z
loop_
_atom_site_type_symbol
_atom_site_label
_atom_site_fract_x
_atom_site_fract_y
_atom_site_fract_z
Si Si1 0.714780 0.782319 0.626540
Si Si2 0.861713 0.485491 0.065720
Si Si3 0.680206 0.329397 0.774481
Si Si4 0.470518 0.818316 0.220175
Si Si5 0.589930 0.500145 0.115146
Si Si6 0.666494 0.970531 0.942328
O O1 0.799998 0.648998 0.531021
O O2 0.619664 0.683620 0.664644
O O3 0.725082 0.951583 0.516527
O O4 0.709071 0.828495 0.796265
O O5 0.929809 0.595905 0.900856
O O6 0.786144 0.621108 0.200478
O O7 0.908067 0.373381 0.146170
O O8 0.658684 0.367677 0.632894
O O9 0.655003 0.137384 0.848908
O O10 0.617139 0.459374 0.929139
O O11 0.494016 0.608706 0.212778
O O12 0.567616 0.910631 0.091187
#
# Coordination Sequence:
#
# PCOD9136176 Si02
#       6
#     4   4   4   4   4   4
#     4  10  23  44  68  94 128 179 222 259 320 405
#     4  11  24  42  65 100 139 166 210 276 329 372
#     4  10  21  42  65  91 127 178 216 253 317 405
#     4  12  23  40  65  97 132 169 214 280 323 364
#     4  10  21  39  66  90 122 171 219 255 316 390
#     4  11  22  41  67  92 126 175 223 257 315 400
#
# _framework density 23.101958
#
# number of rings (size 3 to 8) (size 9 to 14) (size 15 to 20)
#    0.000    1.333    0.000    8.000    0.000    2.667 
#    0.000   16.667    0.000    0.000    0.000    0.000 
#    0.000    0.000    0.000    0.000    0.000    0.000 
#
# Total GULP energy -66985.775883 kJ/mol
# GULP energy per Si atom -5582.147990 kJ/mol
# Density = 2.304938 g / cm^3
# Si number density = 23.101958 Si / 1000 Ang^3
#
#
#
# Elastic Constant Matrix: (Units=GPa)
#
#
# Indices 1 2 3 4 5 6 
#
# 1 85.6846 23.6160 25.3344 0.0000 10.2582 0.0000
# 2 23.6160 82.2154 36.1039 0.0000 -3.1410 0.0000
# 3 25.3344 36.1039 67.4899 0.0000 9.4860 0.0000
# 4 0.0000 0.0000 0.0000 -112.3152 0.0000 -247.4329
# 5 10.2582 -3.1410 9.4860 0.0000 34.8593 0.0000
# 6 0.0000 0.0000 0.0000 -247.4329 0.0000 -358.4241
#
#
#
# Elastic Compliance Matrix: (Units=1/GPa)
#
#
# Indices 1 2 3 4 5 6 
#
# 1 0.013777 -0.002648 -0.003277 0.000000 -0.003401 0.000000
# 2 -0.002648 0.016933 -0.008722 0.000000 0.004678 0.000000
# 3 -0.003277 -0.008722 0.021510 0.000000 -0.005675 0.000000
# 4 0.000000 0.000000 0.000000 0.017095 0.000000 -0.011801
# 5 -0.003401 0.004678 -0.005675 0.000000 0.031653 0.000000
# 6 0.000000 0.000000 0.000000 -0.011801 0.000000 0.005357
#
#
# Mechanical properties :
#
#
# Convention : Reuss Voigt Hill
#
# Bulk Modulus (GPa) = 43.61794 45.05540 44.33667
# Shear Modulus (GPa) = 34.90153 -77.15363 -21.12605
#
# Velocity S-wave (km/s) = 3.89107 -5.78528 -3.02730
# Velocity P-wave (km/s) = 6.25370 5.00808 2.64839
#
# Compressibility (1/GPa) = 0.02292635
#
# Stress axis : x y z
#
# Youngs Moduli (GPa) = 72.58666 59.05773 46.48925
#
# Poissons Ratio (x) = 0.15640 0.15233
# Poissons Ratio (y) = 0.19223 0.40546
# Poissons Ratio (z) = 0.23785 0.51508
#
# Static dielectric constant tensor:
#      x y z
#    x 1.881450 0.000000 0.025650 
#    y 0.000000 1.973970 0.000000 
#    z 0.025650 0.000000 1.852130 
# 
# From -- ./inp_files/10333.got.cif
#   From: 2010.05.17/outbox.cif.g08.bks.cpg/sg9_6_cif.got.tgz:10333.got - 2010.06.03 20:04:27.
