data_PCOD9136922
_publ_section_title
;
Structure prediction by ZEFSAII (Michael W. Deem and Ramdas Pophale) SiO2 
 PCOD9136922
Probable space group: C C
;
_chemical_formula_sum "Si O2"
_cell_formula_units_Z 32
_cell_length_a 26.611560
_cell_length_b 9.014297
_cell_length_c 12.361504
_cell_angle_alpha 90.000000
_cell_angle_beta 153.266229
_cell_angle_gamma 90.000000
_cell_volume 1333.941791
_symmetry_space_group_name_H-M "C C"
_symmetry_group_IT_number 9
_symmetry_cell_setting 'monoclinic'
loop_
_space_group_symop_operation_xyz
x,y,z
x,-y,1/2+z
1/2+x,1/2+y,z
1/2+x,1/2-y,1/2+z
loop_
_atom_site_type_symbol
_atom_site_label
_atom_site_fract_x
_atom_site_fract_y
_atom_site_fract_z
Si Si1 0.767190 0.759177 0.532850
Si Si2 0.861835 0.449415 0.730506
Si Si3 0.859771 0.085201 0.397943
Si Si4 0.218236 0.314125 0.190156
Si Si5 0.500492 0.981182 0.302491
Si Si6 0.035902 0.738944 0.690636
Si Si7 0.773689 0.642107 0.848834
Si Si8 0.097626 0.041396 0.890027
O O1 0.788565 0.592714 0.621090
O O2 0.761949 0.757705 0.392324
O O3 0.647014 0.816670 0.342924
O O4 0.856581 0.862390 0.766739
O O5 0.787765 0.356290 0.503888
O O6 0.960143 0.529961 0.848121
O O7 0.928665 0.333630 0.929834
O O8 0.777831 0.199563 0.301475
O O9 0.976932 0.108449 0.684431
O O10 0.810928 0.922460 0.320303
O O11 0.106150 0.410960 0.994096
O O12 0.181340 0.180206 0.039945
O O13 0.526866 0.828463 0.293490
O O14 0.388130 0.054753 0.033775
O O15 0.053362 0.915963 0.721450
O O16 0.663991 0.552822 0.606333
#
# Coordination Sequence:
#
# PCOD9136922 Si02
#       8
#     4   4   4   4   4   4   4   4
#     4  12  24  46  72 108 148 194 247 307 361 445
#     4  10  24  41  78 107 145 194 246 303 375 436
#     4  12  27  45  75 108 147 192 252 300 374 442
#     4  12  24  48  74 105 152 193 247 309 369 435
#     4  10  21  45  78 101 147 199 234 306 376 431
#     4  12  25  43  76 110 143 194 247 300 372 440
#     4  10  21  47  73 102 146 194 233 309 364 436
#     4  12  26  45  72 107 142 194 244 306 365 439
#
# _framework density 23.989052999999998
#
# number of rings (size 3 to 8) (size 9 to 14) (size 15 to 20)
#    0.750    0.000    6.250    0.750    3.500    1.000 
#    0.000    0.000    0.000    0.000    0.000    0.000 
#    0.000    0.000    0.000    0.000    0.000    0.000 
#
# Total GULP energy -89280.963600 kJ/mol
# GULP energy per Si atom -5580.060225 kJ/mol
# Density = 2.393445 g / cm^3
# Si number density = 23.989053 Si / 1000 Ang^3
#
#
#
# Elastic Constant Matrix: (Units=GPa)
#
#
# Indices 1 2 3 4 5 6 
#
# 1 53.0155 28.6835 30.2794 0.0000 3.2633 0.0000
# 2 28.6835 135.9220 58.7145 0.0000 -2.8848 0.0000
# 3 30.2794 58.7145 171.2734 0.0000 17.5133 0.0000
# 4 0.0000 0.0000 0.0000 52.0677 0.0000 10.5086
# 5 3.2633 -2.8848 17.5133 0.0000 32.1088 0.0000
# 6 0.0000 0.0000 0.0000 10.5086 0.0000 34.7677
#
#
#
# Elastic Compliance Matrix: (Units=1/GPa)
#
#
# Indices 1 2 3 4 5 6 
#
# 1 0.022378 -0.003628 -0.002591 0.000000 -0.001187 0.000000
# 2 -0.003628 0.009423 -0.002873 0.000000 0.002783 0.000000
# 3 -0.002591 -0.002873 0.007711 0.000000 -0.004201 0.000000
# 4 0.000000 0.000000 0.000000 0.020453 0.000000 -0.006182
# 5 -0.001187 0.002783 -0.004201 0.000000 0.033806 0.000000
# 6 0.000000 0.000000 0.000000 -0.006182 0.000000 0.030631
#
#
# Mechanical properties :
#
#
# Convention : Reuss Voigt Hill
#
# Bulk Modulus (GPa) = 46.88873 66.17399 56.53136
# Shear Modulus (GPa) = 33.40055 39.95776 36.67916
#
# Velocity S-wave (km/s) = 3.73543 4.08569 3.91448
# Velocity P-wave (km/s) = 6.18004 7.06414 6.63683
#
# Compressibility (1/GPa) = 0.02132709
#
# Stress axis : x y z
#
# Youngs Moduli (GPa) = 44.68584 106.12137 129.68014
#
# Poissons Ratio (x) = 0.38506 0.33600
# Poissons Ratio (y) = 0.16214 0.37263
# Poissons Ratio (z) = 0.11578 0.30493
#
# Static dielectric constant tensor:
#      x y z
#    x 2.016900 0.000000 0.002350 
#    y 0.000000 1.936370 0.000000 
#    z 0.002350 0.000000 1.960480 
# 
# From -- ./inp_files/21444.got.cif
#   From: 2010.05.17/outbox.cif.g08.bks.cpg/sg9_11_cif.got.tgz:21444.got - 2010.06.03 20:04:27.
