data_PCOD9136680
_publ_section_title
;
Structure prediction by ZEFSAII (Michael W. Deem and Ramdas Pophale) SiO2 
 PCOD9136680
Probable space group: C C
;
_chemical_formula_sum "Si O2"
_cell_formula_units_Z 32
_cell_length_a 20.565540
_cell_length_b 9.435475
_cell_length_c 26.263927
_cell_angle_alpha 90.000000
_cell_angle_beta 16.911954
_cell_angle_gamma 90.000000
_cell_volume 1482.552144
_symmetry_space_group_name_H-M "C C"
_symmetry_group_IT_number 9
_symmetry_cell_setting 'monoclinic'
loop_
_space_group_symop_operation_xyz
x,y,z
x,-y,1/2+z
1/2+x,1/2+y,z
1/2+x,1/2-y,1/2+z
loop_
_atom_site_type_symbol
_atom_site_label
_atom_site_fract_x
_atom_site_fract_y
_atom_site_fract_z
Si Si1 0.957130 0.312715 0.500000
Si Si2 0.059579 0.005259 0.940502
Si Si3 0.702136 0.151814 0.516255
Si Si4 0.486036 0.838445 0.364154
Si Si5 0.197453 0.822793 0.415832
Si Si6 0.630826 0.098174 0.198480
Si Si7 0.396049 0.923283 0.102541
Si Si8 0.459196 0.395632 0.357306
O O1 0.700608 0.260807 0.694539
O O2 0.006278 0.426387 0.506491
O O3 0.996660 0.381114 0.415024
O O4 0.077461 0.161736 0.416035
O O5 0.055593 0.042129 0.003205
O O6 0.260202 0.073154 0.757218
O O7 0.833993 0.072481 0.086320
O O8 0.444324 0.121734 0.718382
O O9 0.705971 0.254607 0.464739
O O10 0.779122 0.237437 0.508559
O O11 0.874708 0.019959 0.382853
O O12 0.481495 0.964808 0.326979
O O13 0.083052 0.698416 0.466657
O O14 0.492642 0.241853 0.307931
O O15 0.761985 0.099503 0.047099
O O16 0.197482 0.913608 0.208561
#
# Coordination Sequence:
#
# PCOD9136680 Si02
#       8
#     4   4   4   4   4   4   4   4
#     4  11  21  39  73  97 140 174 233 293 338 410
#     4  10  21  43  62 102 135 176 230 285 344 413
#     4  12  25  43  66  99 139 182 222 287 350 423
#     4  11  22  40  64 105 132 180 227 281 350 406
#     4  12  25  42  70  93 142 181 225 284 357 419
#     4  10  23  38  70  99 135 173 235 296 330 404
#     4  11  22  42  66 104 132 181 229 288 342 418
#     4  11  23  43  67 101 141 177 241 290 339 411
#
# _framework density 21.584402000000001
#
# number of rings (size 3 to 8) (size 9 to 14) (size 15 to 20)
#    0.000    1.000    5.000    3.000    1.750    2.000 
#    0.000    3.750    0.000    0.000    0.000    0.000 
#    0.000    0.000    0.000    0.000    0.000    0.000 
#
# Total GULP energy -89186.584234 kJ/mol
# GULP energy per Si atom -5574.161515 kJ/mol
# Density = 2.153527 g / cm^3
# Si number density = 21.584402 Si / 1000 Ang^3
#
#
#
# Elastic Constant Matrix: (Units=GPa)
#
#
# Indices 1 2 3 4 5 6 
#
# 1 62.9687 25.0302 9.8103 0.0185 6.0589 0.0044
# 2 25.0302 77.7905 13.2982 0.0244 0.9445 0.0012
# 3 9.8103 13.2982 49.2283 0.0522 -4.3160 0.0066
# 4 0.0185 0.0244 0.0522 33.8947 -0.0147 -1.1030
# 5 6.0589 0.9445 -4.3160 -0.0147 23.4678 -0.0011
# 6 0.0044 0.0012 0.0066 -1.1030 -0.0011 39.7851
#
#
#
# Elastic Compliance Matrix: (Units=1/GPa)
#
#
# Indices 1 2 3 4 5 6 
#
# 1 0.019030 -0.005592 -0.002737 -0.000004 -0.005191 -0.000002
# 2 -0.005592 0.015156 -0.002954 -0.000003 0.000291 0.000001
# 3 -0.002737 -0.002954 0.022085 -0.000028 0.004887 -0.000004
# 4 -0.000004 -0.000003 -0.000028 0.029530 0.000015 0.000819
# 5 -0.005191 0.000291 0.004887 0.000015 0.044839 0.000001
# 6 -0.000002 0.000001 -0.000004 0.000819 0.000001 0.025158
#
#
# Mechanical properties :
#
#
# Convention : Reuss Voigt Hill
#
# Bulk Modulus (GPa) = 29.66947 31.80722 30.73835
# Shear Modulus (GPa) = 26.37146 28.88611 27.62878
#
# Velocity S-wave (km/s) = 3.49919 3.66223 3.58164
# Velocity P-wave (km/s) = 5.48648 5.71408 5.60144
#
# Compressibility (1/GPa) = 0.03370468
#
# Stress axis : x y z
#
# Youngs Moduli (GPa) = 52.54942 65.98094 45.27863
#
# Poissons Ratio (x) = 0.36898 0.12392
# Poissons Ratio (y) = 0.29387 0.13376
# Poissons Ratio (z) = 0.14382 0.19492
#
# Static dielectric constant tensor:
#      x y z
#    x 1.831910 0.000000 -0.009620 
#    y 0.000000 1.819040 0.000000 
#    z -0.009620 0.000000 1.800300 
# 
# From -- ./inp_files/12706.got.cif
#   From: 2010.05.17/outbox.cif.g08.bks.cpg/sg9_7_cif.got.tgz:12706.got - 2010.06.03 20:04:27.
