data_PCOD9136893
_publ_section_title
;
Structure prediction by ZEFSAII (Michael W. Deem and Ramdas Pophale) SiO2 
 PCOD9136893
Probable space group: C C
;
_chemical_formula_sum "Si O2"
_cell_formula_units_Z 32
_cell_length_a 6.632521
_cell_length_b 14.762993
_cell_length_c 14.978183
_cell_angle_alpha 90.000000
_cell_angle_beta 61.146618
_cell_angle_gamma 90.000000
_cell_volume 1284.534019
_symmetry_space_group_name_H-M "C C"
_symmetry_group_IT_number 9
_symmetry_cell_setting 'monoclinic'
loop_
_space_group_symop_operation_xyz
x,y,z
x,-y,1/2+z
1/2+x,1/2+y,z
1/2+x,1/2-y,1/2+z
loop_
_atom_site_type_symbol
_atom_site_label
_atom_site_fract_x
_atom_site_fract_y
_atom_site_fract_z
Si Si1 0.542600 0.542130 0.895110
Si Si2 0.742003 0.288450 0.041738
Si Si3 0.118014 0.724452 0.877821
Si Si4 0.302945 0.940129 0.614089
Si Si5 0.461009 0.398603 0.230207
Si Si6 0.091984 0.448561 0.916014
Si Si7 0.615450 0.683970 0.030363
Si Si8 0.931093 0.598733 0.275812
O O1 0.566944 0.613331 0.807677
O O2 0.332385 0.475689 0.911551
O O3 0.754051 0.474793 0.853252
O O4 0.539354 0.598700 0.985793
O O5 0.529398 0.337193 0.132171
O O6 0.879066 0.237199 0.089093
O O7 0.676710 0.227751 0.971334
O O8 0.935400 0.361603 0.973255
O O9 0.201011 0.632623 0.809825
O O10 0.286363 0.806680 0.808919
O O11 0.839456 0.730792 0.935058
O O12 0.197751 0.845120 0.609398
O O13 0.463205 0.929739 0.666390
O O14 0.093561 0.008612 0.678147
O O15 0.437523 0.974129 0.497986
O O16 0.134745 0.422974 0.802208
#
# Coordination Sequence:
#
# PCOD9136893 Si02
#       8
#     4   4   4   4   4   4   4   4
#     4  11  22  42  66  96 134 180 229 285 354 416
#     4  10  24  45  66  99 142 184 236 297 356 429
#     4  11  24  44  70  98 142 185 229 299 361 426
#     4  10  23  43  66 100 130 178 238 281 350 428
#     4  10  23  45  64  96 136 179 236 282 350 423
#     4  10  21  45  68  92 138 183 228 296 349 412
#     4  12  24  42  69 101 139 186 232 293 363 427
#     4  10  23  42  65  98 133 177 236 281 349 419
#
# _framework density 24.911757999999999
#
# number of rings (size 3 to 8) (size 9 to 14) (size 15 to 20)
#    0.000    1.500    2.500    1.500    1.750    1.000 
#   13.500    0.000    0.000    0.000    0.000    0.000 
#    0.000    0.000    0.000    0.000    0.000    0.000 
#
# Total GULP energy -89109.344456 kJ/mol
# GULP energy per Si atom -5569.334029 kJ/mol
# Density = 2.485506 g / cm^3
# Si number density = 24.911758 Si / 1000 Ang^3
#
#
#
# Elastic Constant Matrix: (Units=GPa)
#
#
# Indices 1 2 3 4 5 6 
#
# 1 80.1968 10.2285 31.1302 0.0000 -0.9319 0.0000
# 2 10.2285 39.3381 21.6998 0.0000 3.9428 0.0000
# 3 31.1302 21.6998 111.0296 0.0000 5.8188 0.0000
# 4 0.0000 0.0000 0.0000 37.5238 0.0000 1.5269
# 5 -0.9319 3.9428 5.8188 0.0000 41.5950 0.0000
# 6 0.0000 0.0000 0.0000 1.5269 0.0000 37.6114
#
#
#
# Elastic Compliance Matrix: (Units=1/GPa)
#
#
# Indices 1 2 3 4 5 6 
#
# 1 0.014129 -0.001748 -0.003672 0.000000 0.000996 0.000000
# 2 -0.001748 0.028864 -0.005043 0.000000 -0.002070 0.000000
# 3 -0.003672 -0.005043 0.011082 0.000000 -0.001155 0.000000
# 4 0.000000 0.000000 0.000000 0.026694 0.000000 -0.001084
# 5 0.000996 -0.002070 -0.001155 0.000000 0.024421 0.000000
# 6 0.000000 0.000000 0.000000 -0.001084 0.000000 0.026632
#
#
# Mechanical properties :
#
#
# Convention : Reuss Voigt Hill
#
# Bulk Modulus (GPa) = 30.16576 39.63128 34.89852
# Shear Modulus (GPa) = 30.52534 34.51312 32.51923
#
# Velocity S-wave (km/s) = 3.50428 3.72615 3.61692
# Velocity P-wave (km/s) = 5.33935 5.86988 5.61089
#
# Compressibility (1/GPa) = 0.03315016
#
# Stress axis : x y z
#
# Youngs Moduli (GPa) = 70.77514 34.64487 90.23445
#
# Poissons Ratio (x) = 0.06056 0.33135
# Poissons Ratio (y) = 0.12372 0.45503
# Poissons Ratio (z) = 0.25989 0.17470
#
# Static dielectric constant tensor:
#      x y z
#    x 1.989600 0.000000 0.006710 
#    y 0.000000 2.114350 0.000000 
#    z 0.006710 0.000000 2.009940 
# 
# From -- ./inp_files/21935.got.cif
#   From: 2010.05.17/outbox.cif.g08.bks.cpg/sg9_11_cif.got.tgz:21935.got - 2010.06.03 20:04:27.
