data_PCOD9136897
_publ_section_title
;
Structure prediction by ZEFSAII (Michael W. Deem and Ramdas Pophale) SiO2 
 PCOD9136897
Probable space group: C C
;
_chemical_formula_sum "Si O2"
_cell_formula_units_Z 28
_cell_length_a 7.916535
_cell_length_b 11.272206
_cell_length_c 13.433686
_cell_angle_alpha 90.000000
_cell_angle_beta 81.646583
_cell_angle_gamma 90.000000
_cell_volume 1186.061211
_symmetry_space_group_name_H-M "C C"
_symmetry_group_IT_number 9
_symmetry_cell_setting 'monoclinic'
loop_
_space_group_symop_operation_xyz
x,y,z
x,-y,1/2+z
1/2+x,1/2+y,z
1/2+x,1/2-y,1/2+z
loop_
_atom_site_type_symbol
_atom_site_label
_atom_site_fract_x
_atom_site_fract_y
_atom_site_fract_z
Si Si1 0.389240 0.657456 0.265520
Si Si2 0.727027 0.521230 0.231480
Si Si3 0.137856 0.570585 0.027838
Si Si4 0.337656 0.866243 0.409103
Si Si5 0.432756 0.144575 0.590240
Si Si6 0.971182 0.823138 0.425598
Si Si7 0.535137 0.811722 0.726578
O O1 0.532254 0.558396 0.255006
O O2 0.391893 0.737268 0.364071
O O3 0.434106 0.749150 0.171116
O O4 0.192205 0.618148 0.267700
O O5 0.802973 0.449223 0.317751
O O6 0.774981 0.440009 0.133575
O O7 0.847949 0.636279 0.224534
O O8 0.110810 0.678861 0.108458
O O9 0.096538 0.443943 0.082803
O O10 0.320927 0.585468 0.961538
O O11 0.986026 0.584031 0.962862
O O12 0.146382 0.855511 0.467585
O O13 0.419403 0.199197 0.481820
O O14 0.010849 0.796786 0.305935
#
# Coordination Sequence:
#
# PCOD9136897 Si02
#       7
#     4   4   4   4   4   4   4
#     4  10  21  45  68  97 139 178 227 289 338 400
#     4  10  22  42  68  98 137 176 225 287 338 409
#     4  11  23  42  67 100 139 181 227 284 343 400
#     4  10  24  40  66 102 133 181 230 277 344 409
#     4  10  23  40  67 102 136 174 235 277 333 423
#     4  11  23  43  67  96 142 180 224 288 334 404
#     4  10  22  40  67  97 132 176 226 278 334 401
#
# _framework density 23.60755
#
# number of rings (size 3 to 8) (size 9 to 14) (size 15 to 20)
#    0.000    1.714    1.429    1.714    4.000    3.429 
#    0.000   12.857    0.000    0.000    0.000    0.000 
#    0.000    0.000    0.000    0.000    0.000    0.000 
#
# Total GULP energy -78122.457715 kJ/mol
# GULP energy per Si atom -5580.175551 kJ/mol
# Density = 2.355382 g / cm^3
# Si number density = 23.607550 Si / 1000 Ang^3
#
#
#
# Elastic Constant Matrix: (Units=GPa)
#
#
# Indices 1 2 3 4 5 6 
#
# 1 129.0919 35.1871 24.0866 0.0000 -20.8343 0.0000
# 2 35.1871 65.4319 18.0462 0.0000 -0.0672 0.0000
# 3 24.0866 18.0462 64.3916 0.0000 -10.2141 0.0000
# 4 0.0000 0.0000 0.0000 26.4126 0.0000 -14.0552
# 5 -20.8343 -0.0672 -10.2141 0.0000 35.1841 0.0000
# 6 0.0000 0.0000 0.0000 -14.0552 0.0000 34.8198
#
#
#
# Elastic Compliance Matrix: (Units=1/GPa)
#
#
# Indices 1 2 3 4 5 6 
#
# 1 0.010348 -0.005137 -0.001531 0.000000 0.005673 0.000000
# 2 -0.005137 0.019177 -0.004119 0.000000 -0.004201 0.000000
# 3 -0.001531 -0.004119 0.017938 0.000000 0.004293 0.000000
# 4 0.000000 0.000000 0.000000 0.048218 0.000000 0.019463
# 5 0.005673 -0.004201 0.004293 0.000000 0.033020 0.000000
# 6 0.000000 0.000000 0.000000 0.019463 0.000000 0.036576
#
#
# Mechanical properties :
#
#
# Convention : Reuss Voigt Hill
#
# Bulk Modulus (GPa) = 38.62709 45.95057 42.28883
# Shear Modulus (GPa) = 25.57797 31.38967 28.48382
#
# Velocity S-wave (km/s) = 3.29517 3.65039 3.47732
# Velocity P-wave (km/s) = 5.55655 6.10522 5.83734
#
# Compressibility (1/GPa) = 0.02588856
#
# Stress axis : x y z
#
# Youngs Moduli (GPa) = 96.63875 52.14534 55.74679
#
# Poissons Ratio (x) = 0.26785 0.08536
# Poissons Ratio (y) = 0.49639 0.22965
# Poissons Ratio (z) = 0.14798 0.21481
#
# Static dielectric constant tensor:
#      x y z
#    x 1.882480 0.000000 -0.047400 
#    y 0.000000 2.000700 0.000000 
#    z -0.047400 0.000000 1.965670 
# 
# From -- ./inp_files/22574.got.cif
#   From: 2010.05.17/outbox.cif.g08.bks.cpg/sg9_12_cif.got.tgz:22574.got - 2010.06.03 20:04:27.
