data_PCOD9136873
_publ_section_title
;
Structure prediction by ZEFSAII (Michael W. Deem and Ramdas Pophale) SiO2 
 PCOD9136873
Probable space group: C C
;
_chemical_formula_sum "Si O2"
_cell_formula_units_Z 32
_cell_length_a 12.488964
_cell_length_b 7.860467
_cell_length_c 13.821268
_cell_angle_alpha 90.000000
_cell_angle_beta 65.684837
_cell_angle_gamma 90.000000
_cell_volume 1236.463565
_symmetry_space_group_name_H-M "C C"
_symmetry_group_IT_number 9
_symmetry_cell_setting 'monoclinic'
loop_
_space_group_symop_operation_xyz
x,y,z
x,-y,1/2+z
1/2+x,1/2+y,z
1/2+x,1/2-y,1/2+z
loop_
_atom_site_type_symbol
_atom_site_label
_atom_site_fract_x
_atom_site_fract_y
_atom_site_fract_z
Si Si1 0.446160 0.762647 0.462260
Si Si2 0.843832 0.075569 0.249031
Si Si3 0.263322 0.107582 0.891334
Si Si4 0.562889 0.897218 0.606509
Si Si5 0.158549 0.097637 0.278125
Si Si6 0.970620 0.797963 0.316650
Si Si7 0.822147 0.102422 0.031109
Si Si8 0.600103 0.707940 0.107293
O O1 0.372004 0.891210 0.424063
O O2 0.476438 0.822046 0.558422
O O3 0.570990 0.725372 0.365096
O O4 0.371816 0.586018 0.486040
O O5 0.767831 0.208189 0.337999
O O6 0.975781 0.148361 0.192753
O O7 0.867166 0.899028 0.295450
O O8 0.806446 0.083701 0.151950
O O9 0.260537 0.966017 0.810283
O O10 0.146130 0.100641 0.999817
O O11 0.517670 0.849148 0.729978
O O12 0.696001 0.832253 0.542404
O O13 0.582122 0.097534 0.588661
O O14 0.189164 0.177725 0.163443
O O15 0.081275 0.926973 0.287253
O O16 0.918158 0.776337 0.443919
#
# Coordination Sequence:
#
# PCOD9136873 Si02
#       8
#     4   4   4   4   4   4   4   4
#     4  11  23  49  72 108 154 196 253 321 371 458
#     4  11  22  45  74 103 150 201 256 312 380 461
#     4  12  23  48  79 103 150 210 250 319 391 437
#     4  12  25  45  73 114 151 199 252 322 382 455
#     4  10  24  47  76 105 148 203 256 312 381 457
#     4  10  21  44  75 105 149 203 254 313 387 451
#     4  11  22  47  73 103 149 210 251 311 387 451
#     4  11  24  47  72 111 153 188 260 320 373 470
#
# _framework density 25.880262999999999
#
# number of rings (size 3 to 8) (size 9 to 14) (size 15 to 20)
#    0.000    1.000    6.250    2.250    1.750    1.000 
#   15.750    0.000    0.000    0.000    0.000    0.000 
#    0.000    0.000    0.000    0.000    0.000    0.000 
#
# Total GULP energy -89604.861635 kJ/mol
# GULP energy per Si atom -5600.303852 kJ/mol
# Density = 2.582136 g / cm^3
# Si number density = 25.880263 Si / 1000 Ang^3
#
#
#
# Elastic Constant Matrix: (Units=GPa)
#
#
# Indices 1 2 3 4 5 6 
#
# 1 110.3956 20.6789 25.8370 0.0000 21.8974 0.0000
# 2 20.6789 68.9285 17.8810 0.0000 5.6987 0.0000
# 3 25.8370 17.8810 106.1954 0.0000 14.9848 0.0000
# 4 0.0000 0.0000 0.0000 25.2228 0.0000 5.1728
# 5 21.8974 5.6987 14.9848 0.0000 43.7573 0.0000
# 6 0.0000 0.0000 0.0000 5.1728 0.0000 33.3303
#
#
#
# Elastic Compliance Matrix: (Units=1/GPa)
#
#
# Indices 1 2 3 4 5 6 
#
# 1 0.010786 -0.002453 -0.001570 0.000000 -0.004540 0.000000
# 2 -0.002453 0.015784 -0.002043 0.000000 -0.000129 0.000000
# 3 -0.001570 -0.002043 0.010502 0.000000 -0.002544 0.000000
# 4 0.000000 0.000000 0.000000 0.040950 0.000000 -0.006355
# 5 -0.004540 -0.000129 -0.002544 0.000000 0.026013 0.000000
# 6 0.000000 0.000000 0.000000 -0.006355 0.000000 0.030989
#
#
# Mechanical properties :
#
#
# Convention : Reuss Voigt Hill
#
# Bulk Modulus (GPa) = 40.09738 46.03481 43.06609
# Shear Modulus (GPa) = 32.16049 35.20359 33.68204
#
# Velocity S-wave (km/s) = 3.52897 3.69216 3.61148
# Velocity P-wave (km/s) = 5.66850 6.00019 5.83670
#
# Compressibility (1/GPa) = 0.02493928
#
# Stress axis : x y z
#
# Youngs Moduli (GPa) = 92.71301 63.35421 95.22283
#
# Poissons Ratio (x) = 0.15541 0.14955
# Poissons Ratio (y) = 0.22743 0.19452
# Poissons Ratio (z) = 0.14560 0.12942
#
# Static dielectric constant tensor:
#      x y z
#    x 2.119430 0.000000 0.058680 
#    y 0.000000 2.036160 0.000000 
#    z 0.058680 0.000000 2.024110 
# 
# From -- ./inp_files/24213.got.cif
#   From: 2010.05.17/outbox.cif.g08.bks.cpg/sg9_13_cif.got.tgz:24213.got - 2010.06.03 20:04:27.
