data_PCOD9136288
_publ_section_title
;
Structure prediction by ZEFSAII (Michael W. Deem and Ramdas Pophale) SiO2 
 PCOD9136288
Probable space group: C C
;
_chemical_formula_sum "Si O2"
_cell_formula_units_Z 24
_cell_length_a 18.035114
_cell_length_b 7.732509
_cell_length_c 13.548673
_cell_angle_alpha 90.000000
_cell_angle_beta 27.911479
_cell_angle_gamma 90.000000
_cell_volume 884.465906
_symmetry_space_group_name_H-M "C C"
_symmetry_group_IT_number 9
_symmetry_cell_setting 'monoclinic'
loop_
_space_group_symop_operation_xyz
x,y,z
x,-y,1/2+z
1/2+x,1/2+y,z
1/2+x,1/2-y,1/2+z
loop_
_atom_site_type_symbol
_atom_site_label
_atom_site_fract_x
_atom_site_fract_y
_atom_site_fract_z
Si Si1 0.126120 0.041428 0.740540
Si Si2 0.383332 0.837613 0.328067
Si Si3 0.442133 0.742877 0.567981
Si Si4 0.223375 0.074626 0.826558
Si Si5 0.655298 0.920228 0.482412
Si Si6 0.413776 0.536812 0.822102
O O1 0.279223 0.989004 0.497773
O O2 0.167736 0.150308 0.788279
O O3 0.994746 0.118953 0.822061
O O4 0.065655 0.852834 0.852764
O O5 0.362547 0.659032 0.408381
O O6 0.324680 0.817187 0.284756
O O7 0.561258 0.906793 0.115947
O O8 0.339953 0.912923 0.662086
O O9 0.527400 0.807648 0.570359
O O10 0.308856 0.592566 0.733054
O O11 0.063406 0.012770 0.072489
O O12 0.755930 0.875261 0.463547
#
# Coordination Sequence:
#
# PCOD9136288 Si02
#       6
#     4   4   4   4   4   4
#     4  11  21  40  66  97 120 165 231 269 302 376
#     4  10  24  39  66  94 133 167 215 268 324 380
#     4  11  21  38  71  96 124 166 224 268 317 367
#     4  10  21  40  64  93 132 163 213 268 319 373
#     4  11  21  40  64  98 132 168 206 275 329 372
#     4  11  22  39  65  96 131 169 211 262 329 378
#
# _framework density 27.135020000000001
#
# number of rings (size 3 to 8) (size 9 to 14) (size 15 to 20)
#    0.000    1.333    3.333    3.000    0.000    0.000 
#    3.000    0.000   25.667    0.000    0.000    0.000 
#    0.000    0.000    0.000    0.000    0.000    0.000 
#
# Total GULP energy -66967.584585 kJ/mol
# GULP energy per Si atom -5580.632049 kJ/mol
# Density = 2.707326 g / cm^3
# Si number density = 27.135020 Si / 1000 Ang^3
#
#
#
# Elastic Constant Matrix: (Units=GPa)
#
#
# Indices 1 2 3 4 5 6 
#
# 1 263.3279 1.9181 45.8436 0.0000 -17.2994 0.0000
# 2 1.9181 58.1294 26.6331 0.0000 -21.4513 0.0000
# 3 45.8436 26.6331 98.8471 0.0000 -27.7070 0.0000
# 4 0.0000 0.0000 0.0000 49.5285 0.0000 -14.5543
# 5 -17.2994 -21.4513 -27.7070 0.0000 48.1456 0.0000
# 6 0.0000 0.0000 0.0000 -14.5543 0.0000 35.3627
#
#
#
# Elastic Compliance Matrix: (Units=1/GPa)
#
#
# Indices 1 2 3 4 5 6 
#
# 1 0.004193 0.001089 -0.002003 0.000000 0.000839 0.000000
# 2 0.001089 0.021970 -0.004258 0.000000 0.007730 0.000000
# 3 -0.002003 -0.004258 0.013663 0.000000 0.005246 0.000000
# 4 0.000000 0.000000 0.000000 0.022968 0.000000 0.009453
# 5 0.000839 0.007730 0.005246 0.000000 0.027535 0.000000
# 6 0.000000 0.000000 0.000000 0.009453 0.000000 0.032169
#
#
# Mechanical properties :
#
#
# Convention : Reuss Voigt Hill
#
# Bulk Modulus (GPa) = 33.91751 63.23267 48.57509
# Shear Modulus (GPa) = 35.04554 49.66800 42.35677
#
# Velocity S-wave (km/s) = 3.59768 4.28296 3.95519
# Velocity P-wave (km/s) = 5.45751 6.91462 6.22882
#
# Compressibility (1/GPa) = 0.02948330
#
# Stress axis : x y z
#
# Youngs Moduli (GPa) = 238.46611 45.51558 73.18814
#
# Poissons Ratio (x) = -0.04957 0.14660
# Poissons Ratio (y) = -0.25971 0.31164
# Poissons Ratio (z) = 0.47766 0.19381
#
# Static dielectric constant tensor:
#      x y z
#    x 2.181840 0.000000 0.097250 
#    y 0.000000 2.207680 0.000000 
#    z 0.097250 0.000000 2.097090 
# 
# From -- ./inp_files/6935.got.cif
#   From: 2010.05.17/outbox.cif.g08.bks.cpg/sg9_4_cif.got.tgz:6935.got - 2010.06.03 20:04:27.
