data_PCOD9136557
_publ_section_title
;
Structure prediction by ZEFSAII (Michael W. Deem and Ramdas Pophale) SiO2 
 PCOD9136557
Probable space group: C C
;
_chemical_formula_sum "Si O2"
_cell_formula_units_Z 20
_cell_length_a 9.346489
_cell_length_b 20.869163
_cell_length_c 7.344150
_cell_angle_alpha 90.000000
_cell_angle_beta 34.256032
_cell_angle_gamma 90.000000
_cell_volume 806.343527
_symmetry_space_group_name_H-M "C C"
_symmetry_group_IT_number 9
_symmetry_cell_setting 'monoclinic'
loop_
_space_group_symop_operation_xyz
x,y,z
x,-y,1/2+z
1/2+x,1/2+y,z
1/2+x,1/2-y,1/2+z
loop_
_atom_site_type_symbol
_atom_site_label
_atom_site_fract_x
_atom_site_fract_y
_atom_site_fract_z
Si Si1 0.500000 0.409256 0.049890
Si Si2 0.254640 0.141251 0.619567
Si Si3 0.004401 0.051505 0.144601
Si Si4 0.737014 0.828339 0.821499
Si Si5 0.690833 0.788433 0.281904
O O1 0.707441 0.377725 0.962384
O O2 0.271594 0.358494 0.269228
O O3 0.433339 0.477572 0.208199
O O4 0.593283 0.425388 0.749335
O O5 0.210884 0.075141 0.780374
O O6 0.509458 0.173911 0.418849
O O7 0.012129 0.183099 0.941808
O O8 0.765574 0.096460 0.347688
O O9 0.701771 0.792423 0.048811
O O10 0.419654 0.757418 0.607881
#
# Coordination Sequence:
#
# PCOD9136557 Si02
#       5
#     4   4   4   4   4
#     4  11  21  44  71 101 146 174 232 284 342 420
#     4  10  21  42  63 108 128 171 221 279 352 402
#     4   9  20  41  64 107 129 183 210 294 347 395
#     4   9  21  43  67  92 136 168 231 277 341 399
#     4  11  25  46  69 100 137 190 232 280 336 404
#
# _framework density 24.803325999999998
#
# number of rings (size 3 to 8) (size 9 to 14) (size 15 to 20)
#    1.200    0.800    2.000    1.200    0.000    1.600 
#   18.000    6.000    0.000    0.000    0.000    0.000 
#    0.000    0.000    0.000    0.000    0.000    0.000 
#
# Total GULP energy -55891.895331 kJ/mol
# GULP energy per Si atom -5589.189533 kJ/mol
# Density = 2.474687 g / cm^3
# Si number density = 24.803326 Si / 1000 Ang^3
#
#
#
# Elastic Constant Matrix: (Units=GPa)
#
#
# Indices 1 2 3 4 5 6 
#
# 1 193.5222 48.4502 51.4591 0.0000 -17.7172 0.0000
# 2 48.4502 166.2400 31.1558 0.0000 -7.7891 0.0000
# 3 51.4591 31.1558 91.7280 0.0000 -31.7373 0.0000
# 4 0.0000 0.0000 0.0000 10.9999 0.0000 15.2528
# 5 -17.7172 -7.7891 -31.7373 0.0000 42.4378 0.0000
# 6 0.0000 0.0000 0.0000 15.2528 0.0000 37.9996
#
#
#
# Elastic Compliance Matrix: (Units=1/GPa)
#
#
# Indices 1 2 3 4 5 6 
#
# 1 0.006310 -0.001257 -0.003077 0.000000 0.000102 0.000000
# 2 -0.001257 0.006687 -0.001784 0.000000 -0.000632 0.000000
# 3 -0.003077 -0.001784 0.017102 0.000000 0.011177 0.000000
# 4 0.000000 0.000000 0.000000 0.205023 0.000000 -0.082295
# 5 0.000102 -0.000632 0.011177 0.000000 0.031849 0.000000
# 6 0.000000 0.000000 0.000000 -0.082295 0.000000 0.059349
#
#
# Mechanical properties :
#
#
# Convention : Reuss Voigt Hill
#
# Bulk Modulus (GPa) = 55.99291 79.29116 67.64203
# Shear Modulus (GPa) = 14.51333 39.64914 27.08124
#
# Velocity S-wave (km/s) = 2.42158 4.00251 3.30788
# Velocity P-wave (km/s) = 5.51747 7.30736 6.47457
#
# Compressibility (1/GPa) = 0.01785940
#
# Stress axis : x y z
#
# Youngs Moduli (GPa) = 158.48297 149.55070 58.47430
#
# Poissons Ratio (x) = 0.18805 0.17995
# Poissons Ratio (y) = 0.19929 0.10435
# Poissons Ratio (z) = 0.48771 0.26687
#
# Static dielectric constant tensor:
#      x y z
#    x 1.944730 0.000000 0.051480 
#    y 0.000000 1.956500 0.000000 
#    z 0.051480 0.000000 1.971530 
# 
# From -- ./inp_files/591.got.cif
#   From: 2010.05.17/outbox.cif.g08.bks.cpg/sg9_1_cif.got.tgz:591.got - 2010.06.03 20:04:27.
