data_PCOD9136242
_publ_section_title
;
Structure prediction by ZEFSAII (Michael W. Deem and Ramdas Pophale) SiO2 
 PCOD9136242
Probable space group: C C
;
_chemical_formula_sum "Si O2"
_cell_formula_units_Z 28
_cell_length_a 19.707697
_cell_length_b 5.507929
_cell_length_c 9.866855
_cell_angle_alpha 90.000000
_cell_angle_beta 99.754538
_cell_angle_gamma 90.000000
_cell_volume 1055.548945
_symmetry_space_group_name_H-M "C C"
_symmetry_group_IT_number 9
_symmetry_cell_setting 'monoclinic'
loop_
_space_group_symop_operation_xyz
x,y,z
x,-y,1/2+z
1/2+x,1/2+y,z
1/2+x,1/2-y,1/2+z
loop_
_atom_site_type_symbol
_atom_site_label
_atom_site_fract_x
_atom_site_fract_y
_atom_site_fract_z
Si Si1 0.726370 0.000475 0.864800
Si Si2 0.567318 0.969030 0.232286
Si Si3 0.102457 0.029701 0.621777
Si Si4 0.699443 0.496601 0.408097
Si Si5 0.843714 0.952296 0.712611
Si Si6 0.417593 0.667029 0.966836
Si Si7 0.952029 0.335725 0.406120
O O1 0.643941 0.018331 0.822301
O O2 0.743949 0.261279 0.933535
O O3 0.738773 0.753185 0.951091
O O4 0.765421 0.967649 0.735509
O O5 0.565686 0.722314 0.145302
O O6 0.510244 0.939550 0.327039
O O7 0.565310 0.219121 0.148456
O O8 0.169749 0.023173 0.745551
O O9 0.133817 0.019890 0.483396
O O10 0.869336 0.938889 0.568789
O O11 0.881445 0.726199 0.801206
O O12 0.879889 0.171658 0.808029
O O13 0.470028 0.440546 0.960100
O O14 0.438670 0.942734 0.004189
#
# Coordination Sequence:
#
# PCOD9136242 Si02
#       7
#     4   4   4   4   4   4   4
#     4  10  23  41  68  97 132 174 220 282 338 399
#     4  10  21  44  64 100 129 177 220 281 335 404
#     4  10  21  40  60  93 130 168 211 269 333 397
#     4  10  22  39  60  93 132 165 214 264 340 391
#     4  10  26  45  71 101 141 180 238 283 351 412
#     4  10  25  44  71  97 138 187 230 286 342 421
#     4  10  24  45  68  99 138 181 233 281 345 416
#
# _framework density 26.526482999999999
#
# number of rings (size 3 to 8) (size 9 to 14) (size 15 to 20)
#    0.857    1.143    0.000    1.714    4.000    4.571 
#   15.429    0.000    0.000    0.000    0.000    0.000 
#    0.000    0.000    0.000    0.000    0.000    0.000 
#
# Total GULP energy -78271.618435 kJ/mol
# GULP energy per Si atom -5590.829888 kJ/mol
# Density = 2.646611 g / cm^3
# Si number density = 26.526483 Si / 1000 Ang^3
#
#
#
# Elastic Constant Matrix: (Units=GPa)
#
#
# Indices 1 2 3 4 5 6 
#
# 1 67.1556 22.6166 26.4695 0.0000 -23.3446 0.0000
# 2 22.6166 238.3969 34.6374 0.0000 -17.9764 0.0000
# 3 26.4695 34.6374 84.7735 0.0000 -32.5723 0.0000
# 4 0.0000 0.0000 0.0000 47.3318 0.0000 -5.0872
# 5 -23.3446 -17.9764 -32.5723 0.0000 53.4611 0.0000
# 6 0.0000 0.0000 0.0000 -5.0872 0.0000 35.9700
#
#
#
# Elastic Compliance Matrix: (Units=1/GPa)
#
#
# Indices 1 2 3 4 5 6 
#
# 1 0.018458 -0.000850 -0.003171 0.000000 0.005842 0.000000
# 2 -0.000850 0.004509 -0.001485 0.000000 0.000241 0.000000
# 3 -0.003171 -0.001485 0.016541 0.000000 0.008194 0.000000
# 4 0.000000 0.000000 0.000000 0.021454 0.000000 0.003034
# 5 0.005842 0.000241 0.008194 0.000000 0.026329 0.000000
# 6 0.000000 0.000000 0.000000 0.003034 0.000000 0.028230
#
#
# Mechanical properties :
#
#
# Convention : Reuss Voigt Hill
#
# Bulk Modulus (GPa) = 35.09179 61.97477 48.53328
# Shear Modulus (GPa) = 36.75613 47.79276 42.27444
#
# Velocity S-wave (km/s) = 3.72646 4.24925 3.99641
# Velocity P-wave (km/s) = 5.63675 6.89122 6.29531
#
# Compressibility (1/GPa) = 0.02849669
#
# Stress axis : x y z
#
# Youngs Moduli (GPa) = 54.17787 221.77129 60.45449
#
# Poissons Ratio (x) = 0.18846 0.19172
# Poissons Ratio (y) = 0.04604 0.08975
# Poissons Ratio (z) = 0.17182 0.32924
#
# Static dielectric constant tensor:
#      x y z
#    x 2.156040 0.000000 0.101760 
#    y 0.000000 2.117460 0.000000 
#    z 0.101760 0.000000 2.019370 
# 
# From -- ./inp_files/19574.got.cif
#   From: 2010.05.17/outbox.cif.g08.bks.cpg/sg9_10_cif.got.tgz:19574.got - 2010.06.03 20:04:27.
