data_PCOD9136868
_publ_section_title
;
Structure prediction by ZEFSAII (Michael W. Deem and Ramdas Pophale) SiO2 
 PCOD9136868
Probable space group: C C
;
_chemical_formula_sum "Si O2"
_cell_formula_units_Z 28
_cell_length_a 9.637230
_cell_length_b 10.571944
_cell_length_c 13.269273
_cell_angle_alpha 90.000000
_cell_angle_beta 112.432460
_cell_angle_gamma 90.000000
_cell_volume 1249.629457
_symmetry_space_group_name_H-M "C C"
_symmetry_group_IT_number 9
_symmetry_cell_setting 'monoclinic'
loop_
_space_group_symop_operation_xyz
x,y,z
x,-y,1/2+z
1/2+x,1/2+y,z
1/2+x,1/2-y,1/2+z
loop_
_atom_site_type_symbol
_atom_site_label
_atom_site_fract_x
_atom_site_fract_y
_atom_site_fract_z
Si Si1 0.244200 0.556897 0.618140
Si Si2 0.852373 0.578440 0.807910
Si Si3 0.887479 0.836015 0.557863
Si Si4 0.686040 0.065131 0.821426
Si Si5 0.855420 0.830695 0.941571
Si Si6 0.397628 0.052795 0.507956
Si Si7 0.143645 0.987617 0.074295
O O1 0.337847 0.426162 0.635562
O O2 0.244535 0.612742 0.729929
O O3 0.300928 0.647073 0.543014
O O4 0.071354 0.516423 0.553832
O O5 0.855708 0.696228 0.886633
O O6 0.846544 0.455003 0.878162
O O7 0.713288 0.575385 0.693456
O O8 0.008897 0.576878 0.790132
O O9 0.771507 0.868506 0.436550
O O10 0.888716 0.687440 0.560530
O O11 0.049450 0.888173 0.573307
O O12 0.741148 0.920337 0.847980
O O13 0.022916 0.892728 0.988859
O O14 0.280209 0.974279 0.540458
#
# Coordination Sequence:
#
# PCOD9136868 Si02
#       7
#     4   4   4   4   4   4   4
#     4  10  22  44  69  97 137 188 225 282 357 409
#     4  12  24  44  72 108 137 188 239 283 358 415
#     4  10  25  46  63 102 141 174 232 293 343 414
#     4  10  21  44  73  96 137 192 226 283 363 410
#     4  10  25  46  69 106 145 178 233 303 341 416
#     4  12  24  42  69  98 140 178 233 292 339 419
#     4  10  25  44  69 105 135 182 236 288 343 417
#
# _framework density 22.406642000000002
#
# number of rings (size 3 to 8) (size 9 to 14) (size 15 to 20)
#    0.000    1.714    4.286    0.857    4.000    5.714 
#    0.000    0.000    0.000    0.000    0.000    0.000 
#    0.000    0.000    0.000    0.000    0.000    0.000 
#
# Total GULP energy -78164.244113 kJ/mol
# GULP energy per Si atom -5583.160294 kJ/mol
# Density = 2.235564 g / cm^3
# Si number density = 22.406642 Si / 1000 Ang^3
#
#
#
# Elastic Constant Matrix: (Units=GPa)
#
#
# Indices 1 2 3 4 5 6 
#
# 1 117.2500 19.8645 20.3511 0.0000 3.2265 0.0000
# 2 19.8645 69.4243 18.7770 0.0000 6.4541 0.0000
# 3 20.3511 18.7770 74.2530 0.0000 -6.6139 0.0000
# 4 0.0000 0.0000 0.0000 12.3310 0.0000 2.3360
# 5 3.2265 6.4541 -6.6139 0.0000 41.0033 0.0000
# 6 0.0000 0.0000 0.0000 2.3360 0.0000 10.3337
#
#
#
# Elastic Compliance Matrix: (Units=1/GPa)
#
#
# Indices 1 2 3 4 5 6 
#
# 1 0.009254 -0.002012 -0.002094 0.000000 -0.000749 0.000000
# 2 -0.002012 0.016300 -0.003840 0.000000 -0.003027 0.000000
# 3 -0.002094 -0.003840 0.015301 0.000000 0.003237 0.000000
# 4 0.000000 0.000000 0.000000 0.084725 0.000000 -0.019153
# 5 -0.000749 -0.003027 0.003237 0.000000 0.025446 0.000000
# 6 0.000000 0.000000 0.000000 -0.019153 0.000000 0.101100
#
#
# Mechanical properties :
#
#
# Convention : Reuss Voigt Hill
#
# Bulk Modulus (GPa) = 40.06046 42.10140 41.08093
# Shear Modulus (GPa) = 18.09376 26.19591 22.14483
#
# Velocity S-wave (km/s) = 2.84477 3.42294 3.14716
# Velocity P-wave (km/s) = 5.35798 5.86963 5.61963
#
# Compressibility (1/GPa) = 0.02496227
#
# Stress axis : x y z
#
# Youngs Moduli (GPa) = 108.06458 61.35042 65.35563
#
# Poissons Ratio (x) = 0.12342 0.13687
# Poissons Ratio (y) = 0.21739 0.25097
# Poissons Ratio (z) = 0.22632 0.23559
#
# Static dielectric constant tensor:
#      x y z
#    x 1.824060 0.000000 -0.026980 
#    y 0.000000 1.875510 0.000000 
#    z -0.026980 0.000000 1.844560 
# 
# From -- ./inp_files/22644.got.cif
#   From: 2010.05.17/outbox.cif.g08.bks.cpg/sg9_12_cif.got.tgz:22644.got - 2010.06.03 20:04:27.
