data_PCOD9136720
_publ_section_title
;
Structure prediction by ZEFSAII (Michael W. Deem and Ramdas Pophale) SiO2 
 PCOD9136720
Probable space group: C C
;
_chemical_formula_sum "Si O2"
_cell_formula_units_Z 24
_cell_length_a 4.996886
_cell_length_b 13.441802
_cell_length_c 15.786141
_cell_angle_alpha 90.000000
_cell_angle_beta 111.782089
_cell_angle_gamma 90.000000
_cell_volume 984.605978
_symmetry_space_group_name_H-M "C C"
_symmetry_group_IT_number 9
_symmetry_cell_setting 'monoclinic'
loop_
_space_group_symop_operation_xyz
x,y,z
x,-y,1/2+z
1/2+x,1/2+y,z
1/2+x,1/2-y,1/2+z
loop_
_atom_site_type_symbol
_atom_site_label
_atom_site_fract_x
_atom_site_fract_y
_atom_site_fract_z
Si Si1 0.913060 0.165016 0.440960
Si Si2 0.915825 0.285308 0.287792
Si Si3 0.044545 0.146614 0.883618
Si Si4 0.845835 0.964257 0.082779
Si Si5 0.511808 0.224228 0.603475
Si Si6 0.824125 0.577771 0.076165
O O1 0.927622 0.179787 0.341178
O O2 0.676939 0.249372 0.433216
O O3 0.802526 0.069648 0.479091
O O4 0.219409 0.201868 0.515468
O O5 0.666042 0.349900 0.302817
O O6 0.909566 0.268207 0.188285
O O7 0.205798 0.345081 0.344598
O O8 0.184324 0.070200 0.965215
O O9 0.722568 0.869448 0.116112
O O10 0.179929 0.994553 0.119712
O O11 0.655528 0.055837 0.095091
O O12 0.702932 0.320610 0.601518
#
# Coordination Sequence:
#
# PCOD9136720 Si02
#       6
#     4   4   4   4   4   4
#     4  10  21  46  69 100 133 186 228 279 353 403
#     4  10  23  39  75  99 132 186 229 279 355 405
#     4  10  21  43  67 100 130 178 232 268 350 407
#     4  12  25  39  73 101 133 181 235 277 352 413
#     4  12  24  47  74  96 147 181 230 299 342 413
#     4  12  24  42  72 100 133 188 226 278 352 419
#
# _framework density 24.375232
#
# number of rings (size 3 to 8) (size 9 to 14) (size 15 to 20)
#    1.000    0.000    5.000    2.000    2.333    0.000 
#    0.000    5.000    0.000    0.000    0.000    0.000 
#    0.000    0.000    0.000    0.000    0.000    0.000 
#
# Total GULP energy -66909.415910 kJ/mol
# GULP energy per Si atom -5575.784659 kJ/mol
# Density = 2.431975 g / cm^3
# Si number density = 24.375232 Si / 1000 Ang^3
#
#
#
# Elastic Constant Matrix: (Units=GPa)
#
#
# Indices 1 2 3 4 5 6 
#
# 1 127.1775 33.0694 22.5612 0.0000 -20.0487 0.0000
# 2 33.0694 69.9933 21.5832 0.0000 -20.0663 0.0000
# 3 22.5612 21.5832 109.7310 0.0000 -36.0596 0.0000
# 4 0.0000 0.0000 0.0000 16.9969 0.0000 -15.7960
# 5 -20.0487 -20.0663 -36.0596 0.0000 50.3308 0.0000
# 6 0.0000 0.0000 0.0000 -15.7960 0.0000 38.7446
#
#
#
# Elastic Compliance Matrix: (Units=1/GPa)
#
#
# Indices 1 2 3 4 5 6 
#
# 1 0.009199 -0.003653 -0.000585 0.000000 0.001789 0.000000
# 2 -0.003653 0.017744 -0.001167 0.000000 0.004783 0.000000
# 3 -0.000585 -0.001167 0.012077 0.000000 0.007954 0.000000
# 4 0.000000 0.000000 0.000000 0.094724 0.000000 0.038618
# 5 0.001789 0.004783 0.007954 0.000000 0.028187 0.000000
# 6 0.000000 0.000000 0.000000 0.038618 0.000000 0.041555
#
#
# Mechanical properties :
#
#
# Convention : Reuss Voigt Hill
#
# Bulk Modulus (GPa) = 35.44921 51.25884 43.35402
# Shear Modulus (GPa) = 22.35153 36.52699 29.43926
#
# Velocity S-wave (km/s) = 3.03145 3.87528 3.47904
# Velocity P-wave (km/s) = 5.17954 6.41081 5.82778
#
# Compressibility (1/GPa) = 0.02820938
#
# Stress axis : x y z
#
# Youngs Moduli (GPa) = 108.71208 56.35681 82.80230
#
# Poissons Ratio (x) = 0.20586 0.04844
# Poissons Ratio (y) = 0.39711 0.09666
# Poissons Ratio (z) = 0.06360 0.06579
#
# Static dielectric constant tensor:
#      x y z
#    x 1.912740 0.000000 -0.030230 
#    y 0.000000 2.023660 0.000000 
#    z -0.030230 0.000000 2.006820 
# 
# From -- ./inp_files/28496.got.cif
#   From: 2010.05.17/outbox.cif.g08.bks.cpg/sg9_15_cif.got.tgz:28496.got - 2010.06.03 20:04:27.
