data_PCOD9136859
_publ_section_title
;
Structure prediction by ZEFSAII (Michael W. Deem and Ramdas Pophale) SiO2 
 PCOD9136859
Probable space group: C C
;
_chemical_formula_sum "Si O2"
_cell_formula_units_Z 20
_cell_length_a 11.252412
_cell_length_b 10.314814
_cell_length_c 9.330142
_cell_angle_alpha 90.000000
_cell_angle_beta 128.311611
_cell_angle_gamma 90.000000
_cell_volume 849.711855
_symmetry_space_group_name_H-M "C C"
_symmetry_group_IT_number 9
_symmetry_cell_setting 'monoclinic'
loop_
_space_group_symop_operation_xyz
x,y,z
x,-y,1/2+z
1/2+x,1/2+y,z
1/2+x,1/2-y,1/2+z
loop_
_atom_site_type_symbol
_atom_site_label
_atom_site_fract_x
_atom_site_fract_y
_atom_site_fract_z
Si Si1 0.904840 0.649949 0.244140
Si Si2 0.933301 0.411827 0.447175
Si Si3 0.893983 0.124084 0.934280
Si Si4 0.150981 0.043063 0.575957
Si Si5 0.101788 0.743689 0.828663
O O1 0.972527 0.555875 0.418242
O O2 0.908203 0.796270 0.297208
O O3 0.732147 0.595874 0.112200
O O4 0.970180 0.618377 0.137723
O O5 0.752695 0.398418 0.279585
O O6 0.015430 0.318075 0.397809
O O7 0.721985 0.142080 0.856143
O O8 0.988789 0.200368 0.126571
O O9 0.976050 0.986016 0.976900
O O10 0.180599 0.130103 0.458670
#
# Coordination Sequence:
#
# PCOD9136859 Si02
#       5
#     4   4   4   4   4
#     4  10  21  44  71  97 139 186 239 294 361 416
#     4  10  22  43  73  98 147 188 235 302 355 425
#     4  12  23  46  75 103 143 195 236 302 367 427
#     4  10  23  44  74  98 145 187 236 297 362 424
#     4  12  23  47  71 106 148 190 240 303 363 428
#
# _framework density 23.537391
#
# number of rings (size 3 to 8) (size 9 to 14) (size 15 to 20)
#    1.200    0.000    4.000    3.600    0.000    3.200 
#    7.200    0.000    0.000    0.000    0.000    0.000 
#    0.000    0.000    0.000    0.000    0.000    0.000 
#
# Total GULP energy -55826.979151 kJ/mol
# GULP energy per Si atom -5582.697915 kJ/mol
# Density = 2.348382 g / cm^3
# Si number density = 23.537391 Si / 1000 Ang^3
#
#
#
# Elastic Constant Matrix: (Units=GPa)
#
#
# Indices 1 2 3 4 5 6 
#
# 1 100.7351 25.6742 34.1205 0.0000 -22.5455 0.0000
# 2 25.6742 41.6574 11.8695 0.0000 -2.7538 0.0000
# 3 34.1205 11.8695 90.7560 0.0000 -23.2879 0.0000
# 4 0.0000 0.0000 0.0000 14.0066 0.0000 -4.4587
# 5 -22.5455 -2.7538 -23.2879 0.0000 42.1630 0.0000
# 6 0.0000 0.0000 0.0000 -4.4587 0.0000 44.1908
#
#
#
# Elastic Compliance Matrix: (Units=1/GPa)
#
#
# Indices 1 2 3 4 5 6 
#
# 1 0.014022 -0.007456 -0.002910 0.000000 0.005404 0.000000
# 2 -0.007456 0.028900 -0.001766 0.000000 -0.003074 0.000000
# 3 -0.002910 -0.001766 0.013882 0.000000 0.005996 0.000000
# 4 0.000000 0.000000 0.000000 0.073764 0.000000 0.007442
# 5 0.005404 -0.003074 0.005996 0.000000 0.029718 0.000000
# 6 0.000000 0.000000 0.000000 0.007442 0.000000 0.023380
#
#
# Mechanical properties :
#
#
# Convention : Reuss Voigt Hill
#
# Bulk Modulus (GPa) = 30.72964 41.83077 36.28020
# Shear Modulus (GPa) = 22.85427 30.83769 26.84598
#
# Velocity S-wave (km/s) = 3.11943 3.62354 3.38089
# Velocity P-wave (km/s) = 5.10475 5.94284 5.53967
#
# Compressibility (1/GPa) = 0.03254188
#
# Stress axis : x y z
#
# Youngs Moduli (GPa) = 71.31444 34.60173 72.03497
#
# Poissons Ratio (x) = 0.25798 0.20963
# Poissons Ratio (y) = 0.53171 0.12718
# Poissons Ratio (z) = 0.20753 0.06109
#
# Static dielectric constant tensor:
#      x y z
#    x 1.926510 0.000000 0.037340 
#    y 0.000000 1.919650 0.000000 
#    z 0.037340 0.000000 1.885480 
# 
# From -- ./inp_files/4810.got.cif
#   From: 2010.05.17/outbox.cif.g08.bks.cpg/sg9_3_cif.got.tgz:4810.got - 2010.06.03 20:04:27.
