data_PCOD9136498
_publ_section_title
;
Structure prediction by ZEFSAII (Michael W. Deem and Ramdas Pophale) SiO2 
 PCOD9136498
Probable space group: C C
;
_chemical_formula_sum "Si O2"
_cell_formula_units_Z 32
_cell_length_a 22.981459
_cell_length_b 5.023018
_cell_length_c 11.053177
_cell_angle_alpha 90.000000
_cell_angle_beta 87.167606
_cell_angle_gamma 90.000000
_cell_volume 1274.378922
_symmetry_space_group_name_H-M "C C"
_symmetry_group_IT_number 9
_symmetry_cell_setting 'monoclinic'
loop_
_space_group_symop_operation_xyz
x,y,z
x,-y,1/2+z
1/2+x,1/2+y,z
1/2+x,1/2-y,1/2+z
loop_
_atom_site_type_symbol
_atom_site_label
_atom_site_fract_x
_atom_site_fract_y
_atom_site_fract_z
Si Si1 0.223600 0.130322 0.473170
Si Si2 0.121771 0.129547 0.673828
Si Si3 0.950869 0.019484 0.183765
Si Si4 0.850373 0.533804 0.501114
Si Si5 0.972424 0.823277 0.441820
Si Si6 0.048148 0.620763 0.618916
Si Si7 0.333453 0.768279 0.248982
Si Si8 0.708544 0.870812 0.836355
O O1 0.176555 0.172869 0.580189
O O2 0.291314 0.205952 0.483881
O O3 0.203497 0.318619 0.364878
O O4 0.222571 0.813298 0.451024
O O5 0.072243 0.333051 0.638434
O O6 0.149860 0.235394 0.794272
O O7 0.094918 0.836475 0.663041
O O8 0.965882 0.936927 0.043602
O O9 0.882404 0.059462 0.205165
O O10 0.986112 0.302162 0.185398
O O11 0.973496 0.881475 0.301488
O O12 0.912415 0.669605 0.473882
O O13 0.847066 0.332330 0.388100
O O14 0.843099 0.496532 0.647674
O O15 0.030801 0.677624 0.481279
O O16 0.266720 0.675653 0.251255
#
# Coordination Sequence:
#
# PCOD9136498 Si02
#       8
#     4   4   4   4   4   4   4   4
#     4  11  24  43  70 102 137 182 226 286 345 412
#     4  12  24  47  66 101 136 184 236 282 336 404
#     4   9  21  42  65  99 137 176 231 281 348 403
#     4  10  21  41  68 105 138 179 225 286 352 416
#     4   9  21  42  65  99 137 176 231 281 348 403
#     4  10  26  41  70  97 138 188 232 282 336 406
#     4  10  21  41  68 105 138 179 225 286 352 416
#     4  11  24  43  70 102 137 182 226 286 345 412
#
# _framework density 25.110268000000001
#
# number of rings (size 3 to 8) (size 9 to 14) (size 15 to 20)
#    0.750    1.000    1.250    2.250    0.000    6.000 
#    2.250    0.000    0.000    0.000    0.000    0.000 
#    0.000    0.000    0.000    0.000    0.000    0.000 
#
# Total GULP energy -89215.907263 kJ/mol
# GULP energy per Si atom -5575.994204 kJ/mol
# Density = 2.505312 g / cm^3
# Si number density = 25.110268 Si / 1000 Ang^3
#
#
#
# Elastic Constant Matrix: (Units=GPa)
#
#
# Indices 1 2 3 4 5 6 
#
# 1 129.6528 14.8284 21.2856 0.0000 9.4468 0.0000
# 2 14.8284 63.9512 13.4696 0.0000 -2.4439 0.0000
# 3 21.2856 13.4696 65.1296 0.0000 -0.5101 0.0000
# 4 0.0000 0.0000 0.0000 12.5696 0.0000 8.1618
# 5 9.4468 -2.4439 -0.5101 0.0000 45.5456 0.0000
# 6 0.0000 0.0000 0.0000 8.1618 0.0000 20.2972
#
#
#
# Elastic Compliance Matrix: (Units=1/GPa)
#
#
# Indices 1 2 3 4 5 6 
#
# 1 0.008424 -0.001507 -0.002456 0.000000 -0.001856 0.000000
# 2 -0.001507 0.016651 -0.002942 0.000000 0.001173 0.000000
# 3 -0.002456 -0.002942 0.016769 0.000000 0.000539 0.000000
# 4 0.000000 0.000000 0.000000 0.107671 0.000000 -0.043296
# 5 -0.001856 0.001173 0.000539 0.000000 0.022410 0.000000
# 6 0.000000 0.000000 0.000000 -0.043296 0.000000 0.066678
#
#
# Mechanical properties :
#
#
# Convention : Reuss Voigt Hill
#
# Bulk Modulus (GPa) = 35.67051 39.76674 37.71863
# Shear Modulus (GPa) = 19.10175 29.62581 24.36378
#
# Velocity S-wave (km/s) = 2.76110 3.43859 3.11830
# Velocity P-wave (km/s) = 4.93976 5.62463 5.29328
#
# Compressibility (1/GPa) = 0.02803436
#
# Stress axis : x y z
#
# Youngs Moduli (GPa) = 118.71361 60.05721 59.63276
#
# Poissons Ratio (x) = 0.09050 0.14645
# Poissons Ratio (y) = 0.17888 0.17544
# Poissons Ratio (z) = 0.29155 0.17669
#
# Static dielectric constant tensor:
#      x y z
#    x 1.966520 0.000000 0.063540 
#    y 0.000000 2.019430 0.000000 
#    z 0.063540 0.000000 2.109770 
# 
# From -- ./inp_files/20481.got.cif
#   From: 2010.05.17/outbox.cif.g08.bks.cpg/sg9_11_cif.got.tgz:20481.got - 2010.06.03 20:04:27.
