data_PCOD9136432
_publ_section_title
;
Structure prediction by ZEFSAII (Michael W. Deem and Ramdas Pophale) SiO2 
 PCOD9136432
Probable space group: C C
;
_chemical_formula_sum "Si O2"
_cell_formula_units_Z 24
_cell_length_a 7.775489
_cell_length_b 13.760217
_cell_length_c 11.502462
_cell_angle_alpha 90.000000
_cell_angle_beta 49.539690
_cell_angle_gamma 90.000000
_cell_volume 936.366963
_symmetry_space_group_name_H-M "C C"
_symmetry_group_IT_number 9
_symmetry_cell_setting 'monoclinic'
loop_
_space_group_symop_operation_xyz
x,y,z
x,-y,1/2+z
1/2+x,1/2+y,z
1/2+x,1/2-y,1/2+z
loop_
_atom_site_type_symbol
_atom_site_label
_atom_site_fract_x
_atom_site_fract_y
_atom_site_fract_z
Si Si1 0.219540 0.260231 0.982900
Si Si2 0.400579 0.478489 0.906127
Si Si3 0.581476 0.851199 0.589233
Si Si4 0.559013 0.445816 0.088950
Si Si5 0.443901 0.798423 0.887774
Si Si6 0.171995 0.720108 0.751782
O O1 0.434752 0.191802 0.913822
O O2 0.074516 0.246705 0.933651
O O3 0.331890 0.366790 0.927264
O O4 0.078579 0.264860 0.161519
O O5 0.172071 0.543325 0.019012
O O6 0.532233 0.495294 0.972343
O O7 0.519634 0.504033 0.731116
O O8 0.744827 0.778717 0.444366
O O9 0.616070 0.826845 0.711094
O O10 0.318864 0.818873 0.705143
O O11 0.359416 0.364137 0.172133
O O12 0.801462 0.392819 0.986458
#
# Coordination Sequence:
#
# PCOD9136432 Si02
#       6
#     4   4   4   4   4   4
#     4  11  23  39  61  92 123 162 212 260 313 375
#     4  11  23  41  64  95 128 163 214 271 320 371
#     4  11  21  40  65  90 125 169 212 261 317 379
#     4  10  23  43  66  94 130 171 213 263 322 380
#     4  11  23  40  64  92 127 173 214 256 318 389
#     4  10  21  41  64  87 123 168 209 253 314 384
#
# _framework density 25.630977000000001
#
# number of rings (size 3 to 8) (size 9 to 14) (size 15 to 20)
#    0.000    1.333    0.000    8.000    0.000    2.667 
#    0.000    8.333    0.000    0.000    0.000    0.000 
#    0.000    0.000    0.000    0.000    0.000    0.000 
#
# Total GULP energy -66991.536777 kJ/mol
# GULP energy per Si atom -5582.628065 kJ/mol
# Density = 2.557264 g / cm^3
# Si number density = 25.630977 Si / 1000 Ang^3
#
#
#
# Elastic Constant Matrix: (Units=GPa)
#
#
# Indices 1 2 3 4 5 6 
#
# 1 103.3500 -2.8145 12.5063 -0.0002 -0.4976 0.0000
# 2 -2.8145 47.5534 12.0512 0.0000 -6.1786 0.0000
# 3 12.5063 12.0512 127.0290 -0.0002 -0.0036 0.0002
# 4 -0.0002 0.0000 -0.0002 39.4665 0.0003 1.9534
# 5 -0.4976 -6.1786 -0.0036 0.0003 41.8171 -0.0002
# 6 0.0000 0.0000 0.0002 1.9534 -0.0002 21.0783
#
#
#
# Elastic Compliance Matrix: (Units=1/GPa)
#
#
# Indices 1 2 3 4 5 6 
#
# 1 0.009828 0.000880 -0.001051 0.000000 0.000247 0.000000
# 2 0.000880 0.022058 -0.002179 0.000000 0.003269 0.000000
# 3 -0.001051 -0.002179 0.008182 0.000000 -0.000334 0.000000
# 4 0.000000 0.000000 0.000000 0.025455 0.000000 -0.002359
# 5 0.000247 0.003269 -0.000334 0.000000 0.024400 0.000000
# 6 0.000000 0.000000 0.000000 -0.002359 0.000000 0.047661
#
#
# Mechanical properties :
#
#
# Convention : Reuss Voigt Hill
#
# Bulk Modulus (GPa) = 28.27379 35.71317 31.99348
# Shear Modulus (GPa) = 32.45200 37.55169 35.00184
#
# Velocity S-wave (km/s) = 3.56212 3.83180 3.69942
# Velocity P-wave (km/s) = 5.28898 5.79144 5.54591
#
# Compressibility (1/GPa) = 0.03536844
#
# Stress axis : x y z
#
# Youngs Moduli (GPa) = 101.74795 45.33476 122.21307
#
# Poissons Ratio (x) = -0.03990 0.12846
# Poissons Ratio (y) = -0.08955 0.26633
# Poissons Ratio (z) = 0.10695 0.09879
#
# Static dielectric constant tensor:
#      x y z
#    x 2.111040 0.000000 0.124820 
#    y 0.000000 2.002000 0.000000 
#    z 0.124820 0.000000 2.053870 
# 
# From -- ./inp_files/15022.got.cif
#   From: 2010.05.17/outbox.cif.g08.bks.cpg/sg9_8_cif.got.tgz:15022.got - 2010.06.03 20:04:27.
