data_PCOD9136701
_publ_section_title
;
Structure prediction by ZEFSAII (Michael W. Deem and Ramdas Pophale) SiO2 
 PCOD9136701
Probable space group: C C
;
_chemical_formula_sum "Si O2"
_cell_formula_units_Z 32
_cell_length_a 9.527477
_cell_length_b 14.086952
_cell_length_c 18.270778
_cell_angle_alpha 90.000000
_cell_angle_beta 35.746159
_cell_angle_gamma 90.000000
_cell_volume 1432.550735
_symmetry_space_group_name_H-M "C C"
_symmetry_group_IT_number 9
_symmetry_cell_setting 'monoclinic'
loop_
_space_group_symop_operation_xyz
x,y,z
x,-y,1/2+z
1/2+x,1/2+y,z
1/2+x,1/2-y,1/2+z
loop_
_atom_site_type_symbol
_atom_site_label
_atom_site_fract_x
_atom_site_fract_y
_atom_site_fract_z
Si Si1 0.989590 0.936268 0.846010
Si Si2 0.417773 0.617371 0.795741
Si Si3 0.180413 0.152155 0.117826
Si Si4 0.376753 0.925279 0.809653
Si Si5 0.025641 0.412278 0.355503
Si Si6 0.088317 0.773455 0.006417
Si Si7 0.738159 0.764107 0.606291
Si Si8 0.698334 0.756614 0.977669
O O1 0.052579 0.899007 0.737841
O O2 0.219654 0.937189 0.802039
O O3 0.904799 0.042427 0.866299
O O4 0.784159 0.862637 0.957922
O O5 0.673924 0.665260 0.674756
O O6 0.293601 0.579714 0.773741
O O7 0.256216 0.706484 0.885985
O O8 0.330671 0.238795 0.089432
O O9 0.049418 0.205742 0.106673
O O10 0.353681 0.077643 0.000810
O O11 0.601728 0.855122 0.698085
O O12 0.469622 0.017739 0.813028
O O13 0.182672 0.876791 0.946585
O O14 0.941688 0.305879 0.369392
O O15 0.128527 0.748420 0.072783
O O16 0.026324 0.763512 0.482425
#
# Coordination Sequence:
#
# PCOD9136701 Si02
#       8
#     4   4   4   4   4   4   4   4
#     4  12  23  42  68  95 130 175 218 270 321 395
#     4  10  25  41  65  95 127 172 215 265 331 387
#     4   9  21  42  65  90 132 171 212 261 331 380
#     4  11  23  43  67  96 129 170 221 270 320 387
#     4   9  23  45  63  95 130 167 212 269 323 384
#     4  10  21  43  65  88 133 169 212 268 326 385
#     4  11  24  42  67  95 129 174 216 267 328 390
#     4  10  24  44  64  94 132 170 218 266 324 386
#
# _framework density 22.337776999999999
#
# number of rings (size 3 to 8) (size 9 to 14) (size 15 to 20)
#    0.750    1.000    2.500    0.750    7.000    2.000 
#    0.000    0.000    0.000    0.000    0.000    0.000 
#    0.000    0.000    0.000    0.000    0.000    0.000 
#
# Total GULP energy -89150.977189 kJ/mol
# GULP energy per Si atom -5571.936074 kJ/mol
# Density = 2.228694 g / cm^3
# Si number density = 22.337777 Si / 1000 Ang^3
#
#
#
# Elastic Constant Matrix: (Units=GPa)
#
#
# Indices 1 2 3 4 5 6 
#
# 1 99.3853 44.4718 3.5309 0.0008 -4.9899 -0.0004
# 2 44.4718 63.5263 -10.9723 -0.0024 -0.3660 0.0004
# 3 3.5309 -10.9723 37.2807 -0.0045 11.6350 0.0003
# 4 0.0008 -0.0024 -0.0045 11.2344 -0.0003 11.4275
# 5 -4.9899 -0.3660 11.6350 -0.0003 28.3971 0.0003
# 6 -0.0004 0.0004 0.0003 11.4275 0.0003 27.4810
#
#
#
# Elastic Compliance Matrix: (Units=1/GPa)
#
#
# Indices 1 2 3 4 5 6 
#
# 1 0.016173 -0.012487 -0.006930 -0.000012 0.005520 0.000005
# 2 -0.012487 0.026330 0.010905 0.000019 -0.006323 -0.000009
# 3 -0.006930 0.010905 0.035575 0.000029 -0.015653 -0.000013
# 4 -0.000012 0.000019 0.000029 0.154263 -0.000012 -0.064148
# 5 0.005520 -0.006323 -0.015653 -0.000012 0.042517 0.000005
# 6 0.000005 -0.000009 -0.000013 -0.064148 0.000005 0.063063
#
#
# Mechanical properties :
#
#
# Convention : Reuss Voigt Hill
#
# Bulk Modulus (GPa) = 16.37859 30.47257 23.42558
# Shear Modulus (GPa) = 13.32288 24.29995 18.81142
#
# Velocity S-wave (km/s) = 2.44484 3.30182 2.90510
# Velocity P-wave (km/s) = 3.91380 5.31106 4.66504
#
# Compressibility (1/GPa) = 0.06105533
#
# Stress axis : x y z
#
# Youngs Moduli (GPa) = 61.83283 37.97937 28.10994
#
# Poissons Ratio (x) = 0.47424 0.19479
# Poissons Ratio (y) = 0.77209 -0.30655
# Poissons Ratio (z) = 0.42848 -0.41418
#
# Static dielectric constant tensor:
#      x y z
#    x 1.797460 0.000000 -0.001460 
#    y 0.000000 1.855970 0.000000 
#    z -0.001460 0.000000 1.892800 
# 
# From -- ./inp_files/29388.got.cif
#   From: 2010.05.17/outbox.cif.g08.bks.cpg/sg9_15_cif.got.tgz:29388.got - 2010.06.03 20:04:27.
