data_PCOD9136020
_publ_section_title
;
Structure prediction by ZEFSAII (Michael W. Deem and Ramdas Pophale) SiO2 
 PCOD9136020
Probable space group: C C
;
_chemical_formula_sum "Si O2"
_cell_formula_units_Z 32
_cell_length_a 15.414835
_cell_length_b 20.687537
_cell_length_c 5.183796
_cell_angle_alpha 90.000000
_cell_angle_beta 55.874517
_cell_angle_gamma 90.000000
_cell_volume 1368.442999
_symmetry_space_group_name_H-M "C C"
_symmetry_group_IT_number 9
_symmetry_cell_setting 'monoclinic'
loop_
_space_group_symop_operation_xyz
x,y,z
x,-y,1/2+z
1/2+x,1/2+y,z
1/2+x,1/2-y,1/2+z
loop_
_atom_site_type_symbol
_atom_site_label
_atom_site_fract_x
_atom_site_fract_y
_atom_site_fract_z
Si Si1 0.353040 0.044661 0.879040
Si Si2 0.312056 0.657149 0.841701
Si Si3 0.999026 0.977139 0.957349
Si Si4 0.734860 0.669807 0.218046
Si Si5 0.571601 0.962015 0.156224
Si Si6 0.209060 0.229035 0.755033
Si Si7 0.307202 0.425375 0.832487
Si Si8 0.024072 0.172280 0.344133
O O1 0.344382 0.008745 0.620517
O O2 0.469173 0.076419 0.733415
O O3 0.269885 0.101154 0.053060
O O4 0.288442 0.611044 0.636878
O O5 0.411067 0.700302 0.590447
O O6 0.219392 0.701832 0.101883
O O7 0.352209 0.619391 0.029650
O O8 0.052902 0.980859 0.145513
O O9 0.887336 0.013696 0.214013
O O10 0.001167 0.904313 0.847464
O O11 0.766205 0.681879 0.457706
O O12 0.608548 0.674937 0.430568
O O13 0.761868 0.722550 0.949887
O O14 0.561733 0.977300 0.475654
O O15 0.691230 0.941118 0.920587
O O16 0.090940 0.206073 0.010359
#
# Coordination Sequence:
#
# PCOD9136020 Si02
#       8
#     4   4   4   4   4   4   4   4
#     4  10  21  40  65  95 133 180 221 286 348 423
#     4  12  25  45  69  94 143 176 239 289 352 417
#     4  12  22  37  61 105 145 175 211 278 367 433
#     4  10  23  45  66  97 136 174 241 283 351 419
#     4  10  21  38  62  92 137 175 218 270 340 426
#     4  10  25  47  64  93 135 185 235 294 334 414
#     4  12  23  40  66 105 137 180 224 287 360 434
#     4  10  26  42  71 101 140 181 229 287 360 424
#
# _framework density 23.384239999999998
#
# number of rings (size 3 to 8) (size 9 to 14) (size 15 to 20)
#    0.750    0.500    2.500    3.000    3.500    1.000 
#    2.250    0.000    0.000    0.000    0.000    0.000 
#    0.000    0.000    0.000    0.000    0.000    0.000 
#
# Total GULP energy -89089.628668 kJ/mol
# GULP energy per Si atom -5568.101792 kJ/mol
# Density = 2.333102 g / cm^3
# Si number density = 23.384240 Si / 1000 Ang^3
#
#
#
# Elastic Constant Matrix: (Units=GPa)
#
#
# Indices 1 2 3 4 5 6 
#
# 1 50.1030 8.5177 44.2782 0.0000 11.2072 0.0000
# 2 8.5177 69.4891 49.1697 0.0000 4.3962 0.0000
# 3 44.2782 49.1697 135.0496 0.0000 19.6475 0.0000
# 4 0.0000 0.0000 0.0000 47.7457 0.0000 -1.4050
# 5 11.2072 4.3962 19.6475 0.0000 33.5524 0.0000
# 6 0.0000 0.0000 0.0000 -1.4050 0.0000 22.2711
#
#
#
# Elastic Compliance Matrix: (Units=1/GPa)
#
#
# Indices 1 2 3 4 5 6 
#
# 1 0.029548 0.004130 -0.010578 0.000000 -0.004217 0.000000
# 2 0.004130 0.020055 -0.008825 0.000000 0.001160 0.000000
# 3 -0.010578 -0.008825 0.014652 0.000000 -0.003890 0.000000
# 4 0.000000 0.000000 0.000000 0.020983 0.000000 0.001324
# 5 -0.004217 0.001160 -0.003890 0.000000 0.033339 0.000000
# 6 0.000000 0.000000 0.000000 0.001324 0.000000 0.044985
#
#
# Mechanical properties :
#
#
# Convention : Reuss Voigt Hill
#
# Bulk Modulus (GPa) = 29.66526 50.95256 40.30891
# Shear Modulus (GPa) = 24.34934 30.89225 27.62079
#
# Velocity S-wave (km/s) = 3.23037 3.63860 3.44055
# Velocity P-wave (km/s) = 5.16016 6.28404 5.74963
#
# Compressibility (1/GPa) = 0.03370947
#
# Stress axis : x y z
#
# Youngs Moduli (GPa) = 33.84291 49.86193 68.25113
#
# Poissons Ratio (x) = -0.20592 0.72196
# Poissons Ratio (y) = -0.13976 0.60230
# Poissons Ratio (z) = 0.35799 0.44002
#
# Static dielectric constant tensor:
#      x y z
#    x 1.984640 0.000000 0.005220 
#    y 0.000000 1.935540 0.000000 
#    z 0.005220 0.000000 1.942970 
# 
# From -- ./inp_files/3083.got.cif
#   From: 2010.05.17/outbox.cif.g08.bks.cpg/sg9_2_cif.got.tgz:3083.got - 2010.06.03 20:04:27.
