data_PCOD9136066
_publ_section_title
;
Structure prediction by ZEFSAII (Michael W. Deem and Ramdas Pophale) SiO2 
 PCOD9136066
Probable space group: C C
;
_chemical_formula_sum "Si O2"
_cell_formula_units_Z 32
_cell_length_a 11.027138
_cell_length_b 12.538586
_cell_length_c 18.115954
_cell_angle_alpha 90.000000
_cell_angle_beta 146.733027
_cell_angle_gamma 90.000000
_cell_volume 1373.983857
_symmetry_space_group_name_H-M "C C"
_symmetry_group_IT_number 9
_symmetry_cell_setting 'monoclinic'
loop_
_space_group_symop_operation_xyz
x,y,z
x,-y,1/2+z
1/2+x,1/2+y,z
1/2+x,1/2-y,1/2+z
loop_
_atom_site_type_symbol
_atom_site_label
_atom_site_fract_x
_atom_site_fract_y
_atom_site_fract_z
Si Si1 0.630640 0.044035 0.581410
Si Si2 0.771187 0.189704 0.094625
Si Si3 0.343787 0.235982 0.791339
Si Si4 0.598859 0.625977 0.956406
Si Si5 0.464872 0.119949 0.257479
Si Si6 0.783417 0.331597 0.815593
Si Si7 0.249663 0.525867 0.299365
Si Si8 0.589488 0.344583 0.293841
O O1 0.408383 0.099607 0.441001
O O2 0.837057 0.116713 0.658752
O O3 0.681028 0.926478 0.575182
O O4 0.647265 0.037550 0.678273
O O5 0.779143 0.264365 0.172280
O O6 0.024827 0.181112 0.197981
O O7 0.602171 0.225384 0.944510
O O8 0.273200 0.353647 0.783227
O O9 0.213824 0.154735 0.779695
O O10 0.415155 0.719279 0.872934
O O11 0.488336 0.521970 0.934745
O O12 0.665761 0.594624 0.906708
O O13 0.809263 0.652967 0.110759
O O14 0.329984 0.107330 0.262668
O O15 0.606041 0.022282 0.300034
O O16 0.617040 0.224706 0.341118
#
# Coordination Sequence:
#
# PCOD9136066 Si02
#       8
#     4   4   4   4   4   4   4   4
#     4  10  22  43  68 100 129 184 231 287 348 426
#     4  11  27  43  69  99 142 188 231 293 355 417
#     4  10  24  44  67 101 138 186 232 292 352 416
#     4  10  21  38  66  96 132 176 221 288 346 415
#     4  10  21  39  64  97 127 175 221 286 342 409
#     4  11  25  42  66  99 139 176 233 288 354 421
#     4   9  22  41  67  98 131 177 234 279 351 414
#     4   9  20  38  69  94 130 174 231 285 336 420
#
# _framework density 23.289937999999999
#
# number of rings (size 3 to 8) (size 9 to 14) (size 15 to 20)
#    0.000    2.000    1.250    0.000    8.750    5.000 
#    2.250    0.000    0.000    0.000    0.000    0.000 
#    0.000    0.000    0.000    0.000    0.000    0.000 
#
# Total GULP energy -89325.239727 kJ/mol
# GULP energy per Si atom -5582.827483 kJ/mol
# Density = 2.323693 g / cm^3
# Si number density = 23.289938 Si / 1000 Ang^3
#
#
#
# Elastic Constant Matrix: (Units=GPa)
#
#
# Indices 1 2 3 4 5 6 
#
# 1 92.4437 19.6800 5.9755 0.0000 20.9864 0.0001
# 2 19.6800 44.9065 12.8029 0.0000 0.2975 0.0000
# 3 5.9755 12.8029 79.4858 0.0000 11.1542 0.0001
# 4 0.0000 0.0000 0.0000 17.9701 -0.0001 11.7060
# 5 20.9864 0.2975 11.1542 -0.0001 23.6786 0.0000
# 6 0.0001 0.0000 0.0001 11.7060 0.0000 27.2448
#
#
#
# Elastic Compliance Matrix: (Units=1/GPa)
#
#
# Indices 1 2 3 4 5 6 
#
# 1 0.015576 -0.007319 0.002069 0.000000 -0.014688 0.000000
# 2 -0.007319 0.026835 -0.004963 0.000000 0.008488 0.000000
# 3 0.002069 -0.004963 0.014427 0.000000 -0.008568 0.000000
# 4 0.000000 0.000000 0.000000 0.077277 0.000000 -0.033203
# 5 -0.014688 0.008488 -0.008568 0.000000 0.059180 0.000000
# 6 0.000000 0.000000 0.000000 -0.033203 0.000000 0.050970
#
#
# Mechanical properties :
#
#
# Convention : Reuss Voigt Hill
#
# Bulk Modulus (GPa) = 27.46339 32.63920 30.05130
# Shear Modulus (GPa) = 18.06178 25.67051 21.86614
#
# Velocity S-wave (km/s) = 2.78783 3.32356 3.06742
# Velocity P-wave (km/s) = 4.70959 5.36403 5.04743
#
# Compressibility (1/GPa) = 0.03641211
#
# Stress axis : x y z
#
# Youngs Moduli (GPa) = 64.20073 37.26519 69.31434
#
# Poissons Ratio (x) = 0.27273 -0.14341
# Poissons Ratio (y) = 0.46987 0.34402
# Poissons Ratio (z) = -0.13283 0.18495
#
# Static dielectric constant tensor:
#      x y z
#    x 1.906470 0.000000 0.006280 
#    y 0.000000 2.054450 0.000000 
#    z 0.006280 0.000000 1.868030 
# 
# From -- ./inp_files/33373.got.cif
#   From: 2010.05.17/outbox.cif.g08.bks.cpg/sg9_17_cif.got.tgz:33373.got - 2010.06.03 20:04:27.
