data_PCOD9136455
_publ_section_title
;
Structure prediction by ZEFSAII (Michael W. Deem and Ramdas Pophale) SiO2 
 PCOD9136455
Probable space group: C C
;
_chemical_formula_sum "Si O2"
_cell_formula_units_Z 32
_cell_length_a 14.991785
_cell_length_b 16.493702
_cell_length_c 5.617672
_cell_angle_alpha 90.000000
_cell_angle_beta 62.264290
_cell_angle_gamma 90.000000
_cell_volume 1229.481624
_symmetry_space_group_name_H-M "C C"
_symmetry_group_IT_number 9
_symmetry_cell_setting 'monoclinic'
loop_
_space_group_symop_operation_xyz
x,y,z
x,-y,1/2+z
1/2+x,1/2+y,z
1/2+x,1/2-y,1/2+z
loop_
_atom_site_type_symbol
_atom_site_label
_atom_site_fract_x
_atom_site_fract_y
_atom_site_fract_z
Si Si1 0.720840 0.464079 0.968720
Si Si2 0.985552 0.021234 0.248880
Si Si3 0.847976 0.300660 0.452212
Si Si4 0.536824 0.097005 0.831629
Si Si5 0.619319 0.913616 0.721873
Si Si6 0.212872 0.803149 0.213119
Si Si7 0.981657 0.184926 0.005033
Si Si8 0.815231 0.155878 0.866619
O O1 0.757896 0.497493 0.671509
O O2 0.598865 0.482554 0.120299
O O3 0.745505 0.369623 0.977313
O O4 0.936000 0.007547 0.564487
O O5 0.988231 0.117373 0.203364
O O6 0.749726 0.330557 0.428715
O O7 0.822959 0.218340 0.633993
O O8 0.922685 0.370150 0.458275
O O9 0.922766 0.263728 0.157564
O O10 0.597380 0.120877 0.514613
O O11 0.560863 0.000458 0.810558
O O12 0.575022 0.130133 0.040307
O O13 0.737233 0.919101 0.490932
O O14 0.095935 0.797646 0.315577
O O15 0.257408 0.715943 0.118659
O O16 0.924186 0.147259 0.850858
#
# Coordination Sequence:
#
# PCOD9136455 Si02
#       8
#     4   4   4   4   4   4   4   4
#     4  10  21  41  66 100 135 186 238 286 372 455
#     4  10  21  41  66 100 135 186 238 286 372 455
#     4  11  28  44  74 115 151 200 271 325 398 477
#     4  10  24  51  80 109 153 209 264 329 395 471
#     4  10  24  51  80 109 153 209 264 329 395 471
#     4  11  25  46  72 102 154 201 251 324 401 475
#     4  11  25  46  72 102 154 201 251 324 401 475
#     4  11  28  44  74 115 151 200 271 325 398 477
#
# _framework density 26.027229999999999
#
# number of rings (size 3 to 8) (size 9 to 14) (size 15 to 20)
#    0.000    1.500    2.500    0.750   14.000    0.000 
#    9.000    0.000    0.000    0.000    0.000    0.000 
#    0.000    0.000    0.000    0.000    0.000    0.000 
#
# Total GULP energy -89242.663928 kJ/mol
# GULP energy per Si atom -5577.666495 kJ/mol
# Density = 2.596799 g / cm^3
# Si number density = 26.027230 Si / 1000 Ang^3
#
#
#
# Elastic Constant Matrix: (Units=GPa)
#
#
# Indices 1 2 3 4 5 6 
#
# 1 137.4691 -2.0490 47.1178 0.0000 -1.4608 0.0000
# 2 -2.0490 60.1639 5.2733 0.0000 -1.3706 0.0000
# 3 47.1178 5.2733 136.8026 0.0000 26.8431 0.0000
# 4 0.0000 0.0000 0.0000 44.6378 0.0000 3.3737
# 5 -1.4608 -1.3706 26.8431 0.0000 48.0556 0.0000
# 6 0.0000 0.0000 0.0000 3.3737 0.0000 32.2964
#
#
#
# Elastic Compliance Matrix: (Units=1/GPa)
#
#
# Indices 1 2 3 4 5 6 
#
# 1 0.008458 0.000632 -0.003360 0.000000 0.002152 0.000000
# 2 0.000632 0.016762 -0.001080 0.000000 0.001100 0.000000
# 3 -0.003360 -0.001080 0.009585 0.000000 -0.005487 0.000000
# 4 0.000000 0.000000 0.000000 0.022581 0.000000 -0.002359
# 5 0.002152 0.001100 -0.005487 0.000000 0.023971 0.000000
# 6 0.000000 0.000000 0.000000 -0.002359 0.000000 0.031210
#
#
# Mechanical properties :
#
#
# Convention : Reuss Voigt Hill
#
# Bulk Modulus (GPa) = 36.77771 48.34666 42.56219
# Shear Modulus (GPa) = 38.68581 43.93753 41.31167
#
# Velocity S-wave (km/s) = 3.85952 4.11315 3.98835
# Velocity P-wave (km/s) = 5.83286 6.41663 6.13170
#
# Compressibility (1/GPa) = 0.02719038
#
# Stress axis : x y z
#
# Youngs Moduli (GPa) = 118.22832 59.65712 104.32675
#
# Poissons Ratio (x) = -0.03768 0.35051
# Poissons Ratio (y) = -0.07467 0.11263
# Poissons Ratio (z) = 0.39722 0.06440
#
# Static dielectric constant tensor:
#      x y z
#    x 2.112090 0.000000 0.012100 
#    y 0.000000 2.188140 0.000000 
#    z 0.012100 0.000000 2.093150 
# 
# From -- ./inp_files/2583.got.cif
#   From: 2010.05.17/outbox.cif.g08.bks.cpg/sg9_2_cif.got.tgz:2583.got - 2010.06.03 20:04:27.
