data_PCOD9136870
_publ_section_title
;
Structure prediction by ZEFSAII (Michael W. Deem and Ramdas Pophale) SiO2 
 PCOD9136870
Probable space group: C C
;
_chemical_formula_sum "Si O2"
_cell_formula_units_Z 32
_cell_length_a 29.082461
_cell_length_b 7.621361
_cell_length_c 17.863263
_cell_angle_alpha 90.000000
_cell_angle_beta 19.799759
_cell_angle_gamma 90.000000
_cell_volume 1341.168124
_symmetry_space_group_name_H-M "C C"
_symmetry_group_IT_number 9
_symmetry_cell_setting 'monoclinic'
loop_
_space_group_symop_operation_xyz
x,y,z
x,-y,1/2+z
1/2+x,1/2+y,z
1/2+x,1/2-y,1/2+z
loop_
_atom_site_type_symbol
_atom_site_label
_atom_site_fract_x
_atom_site_fract_y
_atom_site_fract_z
Si Si1 0.216500 0.611236 0.104320
Si Si2 0.803767 0.732711 0.330515
Si Si3 0.905251 0.219422 0.302472
Si Si4 0.317909 0.541912 0.666431
Si Si5 0.926773 0.248206 0.899400
Si Si6 0.636359 0.474582 0.986008
Si Si7 0.037159 0.507937 0.005465
Si Si8 0.835165 0.613829 0.056581
O O1 0.292149 0.721544 0.053690
O O2 0.091531 0.525702 0.338727
O O3 0.200427 0.729623 0.056151
O O4 0.317713 0.454790 0.923127
O O5 0.810885 0.896086 0.262581
O O6 0.764172 0.557568 0.344379
O O7 0.947885 0.683233 0.145060
O O8 0.822481 0.331385 0.490074
O O9 0.948782 0.344045 0.169029
O O10 0.046802 0.148533 0.121878
O O11 0.399139 0.372154 0.514426
O O12 0.383018 0.710273 0.524842
O O13 0.167574 0.525440 0.860418
O O14 0.936184 0.450774 0.904742
O O15 0.040734 0.173827 0.669425
O O16 0.698048 0.442635 0.809497
#
# Coordination Sequence:
#
# PCOD9136870 Si02
#       8
#     4   4   4   4   4   4   4   4
#     4  10  23  46  63 102 140 178 237 292 348 425
#     4  11  26  43  69 106 142 189 239 294 358 416
#     4  11  23  43  76 100 133 190 236 288 359 425
#     4  10  23  48  68 104 141 188 238 294 349 423
#     4  10  21  44  74  94 139 185 235 282 365 418
#     4  10  23  43  65 105 139 179 238 292 345 422
#     4  11  24  49  69  99 148 184 234 298 357 420
#     4  11  21  38  72 104 124 187 231 278 359 415
#
# _framework density 23.859798000000001
#
# number of rings (size 3 to 8) (size 9 to 14) (size 15 to 20)
#    0.000    1.500    3.750    2.250   10.500    2.000 
#   11.250    0.000    0.000    0.000    0.000    0.000 
#    0.000    0.000    0.000    0.000    0.000    0.000 
#
# Total GULP energy -89410.871850 kJ/mol
# GULP energy per Si atom -5588.179491 kJ/mol
# Density = 2.380549 g / cm^3
# Si number density = 23.859798 Si / 1000 Ang^3
#
#
#
# Elastic Constant Matrix: (Units=GPa)
#
#
# Indices 1 2 3 4 5 6 
#
# 1 76.6351 34.0767 41.5310 0.0000 20.6009 0.0000
# 2 34.0767 89.7480 15.6579 0.0000 9.9276 0.0000
# 3 41.5310 15.6579 98.3555 0.0000 18.4115 0.0000
# 4 0.0000 0.0000 0.0000 35.9017 0.0000 8.3844
# 5 20.6009 9.9276 18.4115 0.0000 31.0949 0.0000
# 6 0.0000 0.0000 0.0000 8.3844 0.0000 33.7390
#
#
#
# Elastic Compliance Matrix: (Units=1/GPa)
#
#
# Indices 1 2 3 4 5 6 
#
# 1 0.021605 -0.006121 -0.006562 0.000000 -0.008474 0.000000
# 2 -0.006121 0.013432 0.000551 0.000000 -0.000559 0.000000
# 3 -0.006562 0.000551 0.013574 0.000000 -0.003866 0.000000
# 4 0.000000 0.000000 0.000000 0.029570 0.000000 -0.007348
# 5 -0.008474 -0.000559 -0.003866 0.000000 0.040241 0.000000
# 6 0.000000 0.000000 0.000000 -0.007348 0.000000 0.031465
#
#
# Mechanical properties :
#
#
# Convention : Reuss Voigt Hill
#
# Bulk Modulus (GPa) = 41.07310 49.69665 45.38488
# Shear Modulus (GPa) = 27.43232 31.71199 29.57215
#
# Velocity S-wave (km/s) = 3.39444 3.64963 3.52435
# Velocity P-wave (km/s) = 5.71093 6.21559 5.96860
#
# Compressibility (1/GPa) = 0.02434683
#
# Stress axis : x y z
#
# Youngs Moduli (GPa) = 46.28635 74.44820 73.67060
#
# Poissons Ratio (x) = 0.45569 0.48342
# Poissons Ratio (y) = 0.28332 -0.04059
# Poissons Ratio (z) = 0.30373 -0.04102
#
# Static dielectric constant tensor:
#      x y z
#    x 1.957790 0.000000 -0.045030 
#    y 0.000000 1.885680 0.000000 
#    z -0.045030 0.000000 1.920770 
# 
# From -- ./inp_files/31859.got.cif
#   From: 2010.05.17/outbox.cif.g08.bks.cpg/sg9_16_cif.got.tgz:31859.got - 2010.06.03 20:04:27.
