data_PCOD9136136
_publ_section_title
;
Structure prediction by ZEFSAII (Michael W. Deem and Ramdas Pophale) SiO2 
 PCOD9136136
Probable space group: C C
;
_chemical_formula_sum "Si O2"
_cell_formula_units_Z 28
_cell_length_a 6.690065
_cell_length_b 12.565761
_cell_length_c 16.251730
_cell_angle_alpha 90.000000
_cell_angle_beta 56.706864
_cell_angle_gamma 90.000000
_cell_volume 1141.981569
_symmetry_space_group_name_H-M "C C"
_symmetry_group_IT_number 9
_symmetry_cell_setting 'monoclinic'
loop_
_space_group_symop_operation_xyz
x,y,z
x,-y,1/2+z
1/2+x,1/2+y,z
1/2+x,1/2-y,1/2+z
loop_
_atom_site_type_symbol
_atom_site_label
_atom_site_fract_x
_atom_site_fract_y
_atom_site_fract_z
Si Si1 0.253620 0.021871 0.407820
Si Si2 0.576817 0.630095 0.607066
Si Si3 0.962313 0.302421 0.437783
Si Si4 0.967086 0.745109 0.601126
Si Si5 0.611177 0.753966 0.229757
Si Si6 0.612990 0.992727 0.196193
Si Si7 0.786810 0.096353 0.001591
O O1 0.359530 0.916841 0.429765
O O2 0.448381 0.057007 0.296412
O O3 0.002478 0.981647 0.426267
O O4 0.197125 0.107129 0.491712
O O5 0.780510 0.650353 0.627778
O O6 0.396129 0.731262 0.655453
O O7 0.389526 0.532239 0.659296
O O8 0.750483 0.229928 0.522829
O O9 0.054389 0.239538 0.337124
O O10 0.162867 0.342157 0.455566
O O11 0.896723 0.820120 0.541127
O O12 0.973951 0.805593 0.687785
O O13 0.516278 0.872474 0.226717
O O14 0.612934 0.032140 0.102790
#
# Coordination Sequence:
#
# PCOD9136136 Si02
#       7
#     4   4   4   4   4   4   4
#     4   9  19  39  62  93 119 163 217 259 329 368
#     4   9  20  36  63  90 125 159 212 263 313 374
#     4  10  22  40  59  91 129 164 211 257 321 382
#     4  11  22  38  63  90 125 170 207 264 314 380
#     4   9  21  40  59  90 124 165 212 250 322 379
#     4   8  19  40  61  90 120 161 212 264 318 381
#     4  10  21  39  63  90 128 164 213 271 313 374
#
# _framework density 24.518785999999999
#
# number of rings (size 3 to 8) (size 9 to 14) (size 15 to 20)
#    0.857    1.714    0.000    0.857    2.000    4.571 
#    0.000    4.286    0.000    0.000    0.000    0.000 
#    0.000    0.000    0.000    0.000    0.000    0.000 
#
# Total GULP energy -77998.766402 kJ/mol
# GULP energy per Si atom -5571.340457 kJ/mol
# Density = 2.446298 g / cm^3
# Si number density = 24.518786 Si / 1000 Ang^3
#
#
#
# Elastic Constant Matrix: (Units=GPa)
#
#
# Indices 1 2 3 4 5 6 
#
# 1 174.7272 28.8039 73.1266 -0.0002 27.3986 0.0000
# 2 28.8039 60.3175 2.4531 -0.0001 -3.3248 0.0000
# 3 73.1266 2.4531 149.5044 -0.0003 -1.1318 0.0001
# 4 -0.0002 -0.0001 -0.0003 25.0659 0.0002 -6.7848
# 5 27.3986 -3.3248 -1.1318 0.0002 27.6437 0.0000
# 6 0.0000 0.0000 0.0001 -6.7848 0.0000 16.3200
#
#
#
# Elastic Compliance Matrix: (Units=1/GPa)
#
#
# Indices 1 2 3 4 5 6 
#
# 1 0.010561 -0.005458 -0.005162 0.000000 -0.011335 0.000000
# 2 -0.005458 0.019520 0.002409 0.000000 0.007856 0.000000
# 3 -0.005162 0.002409 0.009218 0.000000 0.005783 0.000000
# 4 0.000000 0.000000 0.000000 0.044953 0.000000 0.018689
# 5 -0.011335 0.007856 0.005783 0.000000 0.048590 0.000000
# 6 0.000000 0.000000 0.000000 0.018689 0.000000 0.069044
#
#
# Mechanical properties :
#
#
# Convention : Reuss Voigt Hill
#
# Bulk Modulus (GPa) = 43.71200 65.92402 54.81801
# Shear Modulus (GPa) = 22.13038 32.48364 27.30701
#
# Velocity S-wave (km/s) = 3.00757 3.64379 3.34086
# Velocity P-wave (km/s) = 5.47059 6.68195 6.10638
#
# Compressibility (1/GPa) = 0.02287701
#
# Stress axis : x y z
#
# Youngs Moduli (GPa) = 94.69152 51.22848 108.48621
#
# Poissons Ratio (x) = 0.27960 0.55998
# Poissons Ratio (y) = 0.51682 -0.26132
# Poissons Ratio (z) = 0.48877 -0.12340
#
# Static dielectric constant tensor:
#      x y z
#    x 1.968570 0.000000 0.029080 
#    y 0.000000 2.155550 0.000000 
#    z 0.029080 0.000000 2.086030 
# 
# From -- ./inp_files/21901.got.cif
#   From: 2010.05.17/outbox.cif.g08.bks.cpg/sg9_11_cif.got.tgz:21901.got - 2010.06.03 20:04:27.
