data_PCOD9136576
_publ_section_title
;
Structure prediction by ZEFSAII (Michael W. Deem and Ramdas Pophale) SiO2 
 PCOD9136576
Probable space group: C C
;
_chemical_formula_sum "Si O2"
_cell_formula_units_Z 28
_cell_length_a 12.032649
_cell_length_b 16.665096
_cell_length_c 11.128865
_cell_angle_alpha 90.000000
_cell_angle_beta 38.235882
_cell_angle_gamma 90.000000
_cell_volume 1381.149602
_symmetry_space_group_name_H-M "C C"
_symmetry_group_IT_number 9
_symmetry_cell_setting 'monoclinic'
loop_
_space_group_symop_operation_xyz
x,y,z
x,-y,1/2+z
1/2+x,1/2+y,z
1/2+x,1/2-y,1/2+z
loop_
_atom_site_type_symbol
_atom_site_label
_atom_site_fract_x
_atom_site_fract_y
_atom_site_fract_z
Si Si1 0.416190 0.482228 0.707690
Si Si2 0.215009 0.619113 0.983410
Si Si3 0.930453 0.706933 0.676104
Si Si4 0.374973 0.191497 0.149490
Si Si5 0.659318 0.651901 0.096362
Si Si6 0.211298 0.652365 0.252920
Si Si7 0.535376 0.651995 0.568022
O O1 0.259367 0.526495 0.916515
O O2 0.540006 0.427604 0.686957
O O3 0.340061 0.421721 0.674360
O O4 0.516765 0.557450 0.560129
O O5 0.415400 0.657693 0.791978
O O6 0.148592 0.640760 0.171176
O O7 0.064228 0.649933 0.019109
O O8 0.038240 0.768771 0.672115
O O9 0.060856 0.655479 0.483007
O O10 0.818003 0.764984 0.683571
O O11 0.800549 0.653982 0.867190
O O12 0.266645 0.157865 0.128736
O O13 0.239396 0.178713 0.377432
O O14 0.423632 0.284578 0.082960
#
# Coordination Sequence:
#
# PCOD9136576 Si02
#       7
#     4   4   4   4   4   4   4
#     4   9  23  43  59  94 135 171 214 274 341 380
#     4  10  25  42  64  99 126 177 215 278 332 394
#     4   9  21  38  68  99 123 179 225 263 340 388
#     4  12  22  42  68  98 129 180 224 274 339 393
#     4  10  21  42  66 100 133 172 226 284 322 414
#     4  10  21  42  65  91 135 169 218 279 323 412
#     4  10  23  39  62  97 131 170 222 266 335 401
#
# _framework density 20.272966
#
# number of rings (size 3 to 8) (size 9 to 14) (size 15 to 20)
#    0.857    1.143    1.429    0.857    4.000    1.143 
#   10.286    0.000    0.000    0.000    0.000    0.000 
#    0.000    0.000    0.000    0.000    0.000    0.000 
#
# Total GULP energy -77956.785704 kJ/mol
# GULP energy per Si atom -5568.341836 kJ/mol
# Density = 2.022682 g / cm^3
# Si number density = 20.272966 Si / 1000 Ang^3
#
#
#
# Elastic Constant Matrix: (Units=GPa)
#
#
# Indices 1 2 3 4 5 6 
#
# 1 97.0779 30.8678 1.2324 -0.0015 3.6997 0.0003
# 2 30.8678 87.4346 22.9867 -0.0013 1.7397 0.0010
# 3 1.2324 22.9867 70.0050 -0.0020 -15.4479 0.0010
# 4 -0.0015 -0.0013 -0.0020 27.4508 0.0000 -10.0101
# 5 3.6997 1.7397 -15.4479 0.0000 19.8283 0.0002
# 6 0.0003 0.0010 0.0010 -10.0101 0.0002 13.8397
#
#
#
# Elastic Compliance Matrix: (Units=1/GPa)
#
#
# Indices 1 2 3 4 5 6 
#
# 1 0.011721 -0.004383 0.001008 0.000001 -0.001017 0.000001
# 2 -0.004383 0.014616 -0.005826 0.000000 -0.005004 -0.000001
# 3 0.001008 -0.005826 0.019625 0.000001 0.015613 0.000000
# 4 0.000001 0.000000 0.000001 0.049479 0.000000 0.035788
# 5 -0.001017 -0.005004 0.015613 0.000000 0.063225 -0.000001
# 6 0.000001 -0.000001 0.000000 0.035788 -0.000001 0.098141
#
#
# Mechanical properties :
#
#
# Convention : Reuss Voigt Hill
#
# Bulk Modulus (GPa) = 36.28379 40.52127 38.40253
# Shear Modulus (GPa) = 17.58120 25.51912 21.55016
#
# Velocity S-wave (km/s) = 2.94806 3.55177 3.26390
# Velocity P-wave (km/s) = 5.43365 6.07053 5.76090
#
# Compressibility (1/GPa) = 0.02756052
#
# Stress axis : x y z
#
# Youngs Moduli (GPa) = 85.32051 68.41983 50.95467
#
# Poissons Ratio (x) = 0.29986 -0.05138
# Poissons Ratio (y) = 0.37393 0.29687
# Poissons Ratio (z) = -0.08604 0.39863
#
# Static dielectric constant tensor:
#      x y z
#    x 1.693070 0.000000 -0.004640 
#    y 0.000000 1.721470 0.000000 
#    z -0.004640 0.000000 1.771980 
# 
# From -- ./inp_files/16990.got.cif
#   From: 2010.05.17/outbox.cif.g08.bks.cpg/sg9_9_cif.got.tgz:16990.got - 2010.06.03 20:04:27.
