data_PCOD9136183
_publ_section_title
;
Structure prediction by ZEFSAII (Michael W. Deem and Ramdas Pophale) SiO2 
 PCOD9136183
Probable space group: C C
;
_chemical_formula_sum "Si O2"
_cell_formula_units_Z 24
_cell_length_a 12.838339
_cell_length_b 13.026035
_cell_length_c 5.467078
_cell_angle_alpha 90.000000
_cell_angle_beta 92.967782
_cell_angle_gamma 90.000000
_cell_volume 913.047740
_symmetry_space_group_name_H-M "C C"
_symmetry_group_IT_number 9
_symmetry_cell_setting 'monoclinic'
loop_
_space_group_symop_operation_xyz
x,y,z
x,-y,1/2+z
1/2+x,1/2+y,z
1/2+x,1/2-y,1/2+z
loop_
_atom_site_type_symbol
_atom_site_label
_atom_site_fract_x
_atom_site_fract_y
_atom_site_fract_z
Si Si1 0.652480 0.652184 0.422440
Si Si2 0.422963 0.036461 0.287883
Si Si3 0.962337 0.761908 0.128916
Si Si4 0.659819 0.961107 0.851161
Si Si5 0.991069 0.030719 0.890807
Si Si6 0.235906 0.238014 0.927041
O O1 0.555527 0.732008 0.444800
O O2 0.596042 0.540456 0.422795
O O3 0.721458 0.675924 0.671877
O O4 0.706017 0.675344 0.169785
O O5 0.441539 0.156196 0.261384
O O6 0.541621 0.993644 0.315934
O O7 0.371035 0.003707 0.533583
O O8 0.995519 0.850185 0.324340
O O9 0.853207 0.779479 0.978480
O O10 0.665445 0.840004 0.899586
O O11 0.707264 0.984352 0.592886
O O12 0.938817 0.983496 0.644556
#
# Coordination Sequence:
#
# PCOD9136183 Si02
#       6
#     4   4   4   4   4   4
#     4  11  25  47  71 107 156 186 245 311 382 430
#     4  10  23  41  68  96 133 186 232 288 357 422
#     4  11  26  48  77 105 152 195 254 298 372 456
#     4  10  21  39  66  98 134 178 236 298 358 423
#     4  10  23  43  73 106 143 195 243 305 371 436
#     4  12  26  44  75 112 146 198 246 310 376 455
#
# _framework density 26.285592999999999
#
# number of rings (size 3 to 8) (size 9 to 14) (size 15 to 20)
#    0.000    1.333    1.667    3.000    4.667    9.333 
#    0.000   10.000    0.000    0.000    0.000    0.000 
#    0.000    0.000    0.000    0.000    0.000    0.000 
#
# Total GULP energy -67127.966561 kJ/mol
# GULP energy per Si atom -5593.997213 kJ/mol
# Density = 2.622577 g / cm^3
# Si number density = 26.285593 Si / 1000 Ang^3
#
#
#
# Elastic Constant Matrix: (Units=GPa)
#
#
# Indices 1 2 3 4 5 6 
#
# 1 -2.9620 -40.8693 -18.4489 0.0000 59.8056 0.0000
# 2 -40.8693 156.3043 51.3796 0.0000 15.5022 0.0000
# 3 -18.4489 51.3796 240.1482 0.0000 23.2008 0.0000
# 4 0.0000 0.0000 0.0000 57.2026 0.0000 0.6650
# 5 59.8056 15.5022 23.2008 0.0000 -22.7786 0.0000
# 6 0.0000 0.0000 0.0000 0.6650 0.0000 20.9157
#
#
#
# Elastic Compliance Matrix: (Units=1/GPa)
#
#
# Indices 1 2 3 4 5 6 
#
# 1 0.006830 0.000501 -0.001227 0.000000 0.017023 0.000000
# 2 0.000501 0.006715 -0.001790 0.000000 0.004061 0.000000
# 3 -0.001227 -0.001790 0.004445 0.000000 0.000087 0.000000
# 4 0.000000 0.000000 0.000000 0.017488 0.000000 -0.000556
# 5 0.017023 0.004061 0.000087 0.000000 0.003645 0.000000
# 6 0.000000 0.000000 0.000000 -0.000556 0.000000 0.047829
#
#
# Mechanical properties :
#
#
# Convention : Reuss Voigt Hill
#
# Bulk Modulus (GPa) = 77.18693 41.95704 59.57199
# Shear Modulus (GPa) = 51.91971 37.82987 44.87479
#
# Velocity S-wave (km/s) = 4.44916 3.79778 4.13631
# Velocity P-wave (km/s) = 7.47140 5.93527 6.74720
#
# Compressibility (1/GPa) = 0.01295556
#
# Stress axis : x y z
#
# Youngs Moduli (GPa) = 146.41697 148.93129 224.99682
#
# Poissons Ratio (x) = -0.07459 0.27608
# Poissons Ratio (y) = -0.07333 0.40284
# Poissons Ratio (z) = 0.17966 0.26665
#
# Static dielectric constant tensor:
#      x y z
#    x 2.131740 0.000000 0.039990 
#    y 0.000000 2.027240 0.000000 
#    z 0.039990 0.000000 2.184520 
# 
# From -- ./inp_files/2410.got.cif
#   From: 2010.05.17/outbox.cif.g08.bks.cpg/sg9_2_cif.got.tgz:2410.got - 2010.06.03 20:04:27.
