data_PCOD9136964
_publ_section_title
;
Structure prediction by ZEFSAII (Michael W. Deem and Ramdas Pophale) SiO2 
 PCOD9136964
Probable space group: C C
;
_chemical_formula_sum "Si O2"
_cell_formula_units_Z 24
_cell_length_a 9.069888
_cell_length_b 10.444129
_cell_length_c 11.469474
_cell_angle_alpha 90.000000
_cell_angle_beta 90.806980
_cell_angle_gamma 90.000000
_cell_volume 1086.362024
_symmetry_space_group_name_H-M "C C"
_symmetry_group_IT_number 9
_symmetry_cell_setting 'monoclinic'
loop_
_space_group_symop_operation_xyz
x,y,z
x,-y,1/2+z
1/2+x,1/2+y,z
1/2+x,1/2-y,1/2+z
loop_
_atom_site_type_symbol
_atom_site_label
_atom_site_fract_x
_atom_site_fract_y
_atom_site_fract_z
Si Si1 0.443780 0.744681 0.865150
Si Si2 0.784749 0.258828 0.304923
Si Si3 0.978637 0.313881 0.521684
Si Si4 0.980623 0.067700 0.665724
Si Si5 0.785348 0.455262 0.706977
Si Si6 0.787827 0.118787 0.064493
O O1 0.621067 0.754034 0.859245
O O2 0.353649 0.861049 0.805430
O O3 0.412944 0.617915 0.785739
O O4 0.383709 0.718420 0.992119
O O5 0.906223 0.255055 0.406882
O O6 0.811645 0.398993 0.247253
O O7 0.790003 0.158208 0.200415
O O8 0.863269 0.403027 0.590548
O O9 0.035548 0.199773 0.607205
O O10 0.865799 0.016714 0.571333
O O11 0.108779 0.963436 0.686484
O O12 0.628272 0.891253 0.504844
#
# Coordination Sequence:
#
# PCOD9136964 Si02
#       6
#     4   4   4   4   4   4
#     4  10  24  45  69 104 136 181 229 277 342 405
#     4  11  25  45  69 101 141 177 227 282 339 406
#     4  11  25  46  68 103 136 178 229 282 334 408
#     4  10  24  46  68  96 143 178 224 281 342 398
#     4  10  21  47  71  93 141 182 221 281 343 396
#     4  12  25  43  71 103 133 180 230 275 344 399
#
# _framework density 22.092082999999999
#
# number of rings (size 3 to 8) (size 9 to 14) (size 15 to 20)
#    0.000    1.333    5.000    1.000    7.000    4.000 
#    3.000    0.000    0.000    0.000    0.000    0.000 
#    0.000    0.000    0.000    0.000    0.000    0.000 
#
# Total GULP energy -66966.698160 kJ/mol
# GULP energy per Si atom -5580.558180 kJ/mol
# Density = 2.204180 g / cm^3
# Si number density = 22.092083 Si / 1000 Ang^3
#
#
#
# Elastic Constant Matrix: (Units=GPa)
#
#
# Indices 1 2 3 4 5 6 
#
# 1 89.9337 31.3764 23.1180 0.0000 15.8819 0.0000
# 2 31.3764 55.7910 -7.1528 0.0000 8.3050 0.0000
# 3 23.1180 -7.1528 73.4520 0.0000 11.8028 0.0000
# 4 0.0000 0.0000 0.0000 25.8610 0.0000 14.2341
# 5 15.8819 8.3050 11.8028 0.0000 40.6573 0.0000
# 6 0.0000 0.0000 0.0000 14.2341 0.0000 33.5537
#
#
#
# Elastic Compliance Matrix: (Units=1/GPa)
#
#
# Indices 1 2 3 4 5 6 
#
# 1 0.016385 -0.009517 -0.005630 0.000000 -0.002822 0.000000
# 2 -0.009517 0.024471 0.005857 0.000000 -0.002982 0.000000
# 3 -0.005630 0.005857 0.016569 0.000000 -0.003807 0.000000
# 4 0.000000 0.000000 0.000000 0.050447 0.000000 -0.021401
# 5 -0.002822 -0.002982 -0.003807 0.000000 0.027412 0.000000
# 6 0.000000 0.000000 0.000000 -0.021401 0.000000 0.038881
#
#
# Mechanical properties :
#
#
# Convention : Reuss Voigt Hill
#
# Bulk Modulus (GPa) = 25.74306 34.87332 30.30819
# Shear Modulus (GPa) = 24.30803 31.47008 27.88905
#
# Velocity S-wave (km/s) = 3.32068 3.77834 3.55688
# Velocity P-wave (km/s) = 5.13619 5.90375 5.53330
#
# Compressibility (1/GPa) = 0.03884542
#
# Stress axis : x y z
#
# Youngs Moduli (GPa) = 61.03089 40.86491 60.35549
#
# Poissons Ratio (x) = 0.38890 0.33982
# Poissons Ratio (y) = 0.58081 -0.35352
# Poissons Ratio (z) = 0.34362 -0.23936
#
# Static dielectric constant tensor:
#      x y z
#    x 1.830950 0.000000 0.006520 
#    y 0.000000 1.837670 0.000000 
#    z 0.006520 0.000000 1.813570 
# 
# From -- ./inp_files/16044.got.cif
#   From: 2010.05.17/outbox.cif.g08.bks.cpg/sg9_9_cif.got.tgz:16044.got - 2010.06.03 20:04:27.
