data_PCOD9136645
_publ_section_title
;
Structure prediction by ZEFSAII (Michael W. Deem and Ramdas Pophale) SiO2 
 PCOD9136645
Probable space group: C C
;
_chemical_formula_sum "Si O2"
_cell_formula_units_Z 32
_cell_length_a 9.696845
_cell_length_b 10.453416
_cell_length_c 26.717023
_cell_angle_alpha 90.000000
_cell_angle_beta 148.649341
_cell_angle_gamma 90.000000
_cell_volume 1408.994191
_symmetry_space_group_name_H-M "C C"
_symmetry_group_IT_number 9
_symmetry_cell_setting 'monoclinic'
loop_
_space_group_symop_operation_xyz
x,y,z
x,-y,1/2+z
1/2+x,1/2+y,z
1/2+x,1/2-y,1/2+z
loop_
_atom_site_type_symbol
_atom_site_label
_atom_site_fract_x
_atom_site_fract_y
_atom_site_fract_z
Si Si1 0.172850 0.838093 0.806120
Si Si2 0.885413 0.093683 0.900540
Si Si3 0.479839 0.170022 0.926533
Si Si4 0.189747 0.253323 0.077814
Si Si5 0.026457 0.027130 0.097763
Si Si6 0.694951 0.594304 0.428246
Si Si7 0.613765 0.448849 0.228537
Si Si8 0.755737 0.137624 0.435771
O O1 0.156124 0.685107 0.807760
O O2 0.151123 0.893212 0.855599
O O3 0.463385 0.848805 0.868708
O O4 0.982051 0.923046 0.712353
O O5 0.779990 0.984653 0.905635
O O6 0.074341 0.188327 0.991907
O O7 0.059167 0.026358 0.911764
O O8 0.577495 0.284525 0.921262
O O9 0.340527 0.237902 0.930392
O O10 0.296450 0.091690 0.831690
O O11 0.732747 0.083944 0.019493
O O12 0.163457 0.139911 0.109299
O O13 0.471889 0.317435 0.168741
O O14 0.005170 0.377013 0.032012
O O15 0.191355 0.000041 0.198196
O O16 0.960141 0.904048 0.042982
#
# Coordination Sequence:
#
# PCOD9136645 Si02
#       8
#     4   4   4   4   4   4   4   4
#     4  11  23  35  63  95 124 162 207 261 319 377
#     4   9  20  41  67  89 120 167 213 261 321 378
#     4  10  23  43  71  93 131 175 214 266 324 380
#     4   9  21  38  60  91 128 165 213 268 313 374
#     4  10  21  43  63  92 133 171 212 270 319 379
#     4   9  20  44  66  91 125 167 216 267 319 379
#     4  12  25  38  62 100 132 170 216 264 322 388
#     4  10  21  42  70  91 121 171 217 261 323 381
#
# _framework density 22.711236
#
# number of rings (size 3 to 8) (size 9 to 14) (size 15 to 20)
#    0.000    2.000    1.250    2.250    3.500    0.000 
#    4.500    0.000    5.500    0.000    0.000    0.000 
#    0.000    0.000    0.000    0.000    0.000    0.000 
#
# Total GULP energy -89210.434543 kJ/mol
# GULP energy per Si atom -5575.652159 kJ/mol
# Density = 2.265954 g / cm^3
# Si number density = 22.711236 Si / 1000 Ang^3
#
#
#
# Elastic Constant Matrix: (Units=GPa)
#
#
# Indices 1 2 3 4 5 6 
#
# 1 124.3707 52.1725 29.9900 0.0000 -30.9227 0.0000
# 2 52.1725 101.6581 35.8696 0.0000 -17.8993 0.0000
# 3 29.9900 35.8696 50.2320 0.0002 -22.7514 0.0000
# 4 0.0000 0.0000 0.0002 4.2259 0.0000 -22.5641
# 5 -30.9227 -17.8993 -22.7514 0.0000 25.4239 0.0000
# 6 0.0000 0.0000 0.0000 -22.5641 0.0000 37.3463
#
#
#
# Elastic Compliance Matrix: (Units=1/GPa)
#
#
# Indices 1 2 3 4 5 6 
#
# 1 0.013228 -0.005032 0.002318 0.000000 0.014620 0.000000
# 2 -0.005032 0.015096 -0.009642 0.000000 -0.004121 0.000000
# 3 0.002318 -0.009642 0.039704 0.000001 0.031561 0.000000
# 4 0.000000 0.000000 0.000001 -0.106304 0.000001 -0.064227
# 5 0.014620 -0.004121 0.031561 0.000001 0.082458 0.000000
# 6 0.000000 0.000000 0.000000 -0.064227 0.000000 -0.012029
#
#
# Mechanical properties :
#
#
# Convention : Reuss Voigt Hill
#
# Bulk Modulus (GPa) = 23.08661 56.92500 40.00581
# Shear Modulus (GPa) = 70.12372 23.94780 47.03576
#
# Velocity S-wave (km/s) = 5.56267 3.25075 4.55580
# Velocity P-wave (km/s) = 7.17252 6.26170 6.73253
#
# Compressibility (1/GPa) = 0.04331514
#
# Stress axis : x y z
#
# Youngs Moduli (GPa) = 75.59989 66.24261 25.18652
#
# Poissons Ratio (x) = 0.33335 -0.05838
# Poissons Ratio (y) = 0.38044 0.24284
# Poissons Ratio (z) = -0.17524 0.63870
#
# Static dielectric constant tensor:
#      x y z
#    x 1.873200 0.000000 0.053670 
#    y 0.000000 1.907220 0.000000 
#    z 0.053670 0.000000 1.902560 
# 
# From -- ./inp_files/35010.got.cif
#   From: 2010.05.17/outbox.cif.g08.bks.cpg/sg9_18_cif.got.tgz:35010.got - 2010.06.03 20:04:27.
