data_PCOD9136522
_publ_section_title
;
Structure prediction by ZEFSAII (Michael W. Deem and Ramdas Pophale) SiO2 
 PCOD9136522
Probable space group: C C
;
_chemical_formula_sum "Si O2"
_cell_formula_units_Z 28
_cell_length_a 5.722582
_cell_length_b 14.179717
_cell_length_c 13.662549
_cell_angle_alpha 90.000000
_cell_angle_beta 76.601461
_cell_angle_gamma 90.000000
_cell_volume 1078.466728
_symmetry_space_group_name_H-M "C C"
_symmetry_group_IT_number 9
_symmetry_cell_setting 'monoclinic'
loop_
_space_group_symop_operation_xyz
x,y,z
x,-y,1/2+z
1/2+x,1/2+y,z
1/2+x,1/2-y,1/2+z
loop_
_atom_site_type_symbol
_atom_site_label
_atom_site_fract_x
_atom_site_fract_y
_atom_site_fract_z
Si Si1 0.477180 0.968149 0.730480
Si Si2 0.613792 0.769438 0.398279
Si Si3 0.277169 0.376418 0.976033
Si Si4 0.032294 0.045195 0.133166
Si Si5 0.416208 0.962370 0.451799
Si Si6 0.578933 0.229843 0.305080
Si Si7 0.022218 0.268030 0.175984
O O1 0.250960 0.987367 0.682630
O O2 0.470889 0.855996 0.753005
O O3 0.757978 0.988528 0.675442
O O4 0.426800 0.019558 0.836396
O O5 0.549401 0.666980 0.449384
O O6 0.465568 0.851733 0.463413
O O7 0.893330 0.788799 0.386456
O O8 0.608181 0.779390 0.279988
O O9 0.135214 0.475195 0.975427
O O10 0.220362 0.325051 0.876938
O O11 0.152807 0.328039 0.081649
O O12 0.022231 0.157987 0.147756
O O13 0.150585 0.017735 0.018626
O O14 0.740112 0.290669 0.217397
#
# Coordination Sequence:
#
# PCOD9136522 Si02
#       7
#     4   4   4   4   4   4   4
#     4  10  24  45  70 105 152 191 249 317 374 450
#     4  11  22  44  68 100 139 193 244 308 385 451
#     4  10  23  44  64 102 142 185 248 312 374 455
#     4  11  23  47  73 107 148 201 248 313 389 456
#     4  11  26  43  71 113 145 201 255 320 381 466
#     4   9  21  40  68  93 134 191 239 305 372 446
#     4  10  21  41  70  96 138 188 245 305 383 454
#
# _framework density 25.962786000000001
#
# number of rings (size 3 to 8) (size 9 to 14) (size 15 to 20)
#    0.000    1.714    2.857    0.857    2.000    5.714 
#    5.143    0.000    0.000    0.000    0.000    0.000 
#    0.000    0.000    0.000    0.000    0.000    0.000 
#
# Total GULP energy -78120.638530 kJ/mol
# GULP energy per Si atom -5580.045609 kJ/mol
# Density = 2.590369 g / cm^3
# Si number density = 25.962786 Si / 1000 Ang^3
#
#
#
# Elastic Constant Matrix: (Units=GPa)
#
#
# Indices 1 2 3 4 5 6 
#
# 1 98.1827 19.8258 58.1935 0.0000 -32.5767 0.0000
# 2 19.8258 111.6516 48.2804 0.0000 6.3131 0.0000
# 3 58.1935 48.2804 147.7974 0.0000 -47.6398 0.0000
# 4 0.0000 0.0000 0.0000 29.3515 0.0000 -3.0048
# 5 -32.5767 6.3131 -47.6398 0.0000 44.8492 0.0000
# 6 0.0000 0.0000 0.0000 -3.0048 0.0000 7.6324
#
#
#
# Elastic Compliance Matrix: (Units=1/GPa)
#
#
# Indices 1 2 3 4 5 6 
#
# 1 0.014868 -0.002065 -0.002440 0.000000 0.008498 0.000000
# 2 -0.002065 0.012841 -0.006763 0.000000 -0.010492 0.000000
# 3 -0.002440 -0.006763 0.014707 0.000000 0.014802 0.000000
# 4 0.000000 0.000000 0.000000 0.035501 0.000000 0.013976
# 5 0.008498 -0.010492 0.014802 0.000000 0.045670 0.000000
# 6 0.000000 0.000000 0.000000 0.013976 0.000000 0.136522
#
#
# Mechanical properties :
#
#
# Convention : Reuss Voigt Hill
#
# Bulk Modulus (GPa) = 50.30543 67.80345 59.05444
# Shear Modulus (GPa) = 17.28467 31.78877 24.53672
#
# Velocity S-wave (km/s) = 2.58301 3.50294 3.07754
# Velocity P-wave (km/s) = 5.32108 6.52174 5.95176
#
# Compressibility (1/GPa) = 0.01987857
#
# Stress axis : x y z
#
# Youngs Moduli (GPa) = 67.25756 77.87493 67.99312
#
# Poissons Ratio (x) = 0.16085 0.16591
# Poissons Ratio (y) = 0.13892 0.45987
# Poissons Ratio (z) = 0.16412 0.52670
#
# Static dielectric constant tensor:
#      x y z
#    x 2.406250 0.000000 0.000920 
#    y 0.000000 2.050580 0.000000 
#    z 0.000920 0.000000 2.026410 
# 
# From -- ./inp_files/21906.got.cif
#   From: 2010.05.17/outbox.cif.g08.bks.cpg/sg9_11_cif.got.tgz:21906.got - 2010.06.03 20:04:27.
