data_PCOD9136368
_publ_section_title
;
Structure prediction by ZEFSAII (Michael W. Deem and Ramdas Pophale) SiO2 
 PCOD9136368
Probable space group: C C
;
_chemical_formula_sum "Si O2"
_cell_formula_units_Z 32
_cell_length_a 22.512006
_cell_length_b 7.434290
_cell_length_c 10.013194
_cell_angle_alpha 90.000000
_cell_angle_beta 116.488995
_cell_angle_gamma 90.000000
_cell_volume 1499.888889
_symmetry_space_group_name_H-M "C C"
_symmetry_group_IT_number 9
_symmetry_cell_setting 'monoclinic'
loop_
_space_group_symop_operation_xyz
x,y,z
x,-y,1/2+z
1/2+x,1/2+y,z
1/2+x,1/2-y,1/2+z
loop_
_atom_site_type_symbol
_atom_site_label
_atom_site_fract_x
_atom_site_fract_y
_atom_site_fract_z
Si Si1 0.737150 0.514524 0.515610
Si Si2 0.405153 0.372501 0.842980
Si Si3 0.823441 0.467411 0.356892
Si Si4 0.549205 0.764933 0.550614
Si Si5 0.404476 0.690679 0.034338
Si Si6 0.544511 0.184181 0.584850
Si Si7 0.150051 0.342464 0.413518
Si Si8 0.616466 0.259500 0.394937
O O1 0.763974 0.441339 0.402039
O O2 0.791632 0.482328 0.683211
O O3 0.717006 0.725849 0.486391
O O4 0.671044 0.405873 0.484470
O O5 0.391045 0.373912 0.671078
O O6 0.367433 0.206699 0.873755
O O7 0.483864 0.341105 0.942920
O O8 0.384041 0.549012 0.901203
O O9 0.867450 0.624222 0.465312
O O10 0.603199 0.778244 0.487868
O O11 0.583257 0.696226 0.719851
O O12 0.528899 0.971809 0.560041
O O13 0.483065 0.723019 0.094679
O O14 0.611105 0.203020 0.738355
O O15 0.560255 0.250834 0.452127
O O16 0.150597 0.560204 0.422395
#
# Coordination Sequence:
#
# PCOD9136368 Si02
#       8
#     4   4   4   4   4   4   4   4
#     4  12  26  44  72  98 140 198 238 282 346 438
#     4  12  28  46  73 108 142 191 242 299 360 427
#     4  12  28  50  72  98 150 196 238 294 352 426
#     4  10  21  40  69 102 146 178 225 298 363 416
#     4  12  28  46  73 108 142 191 242 299 360 427
#     4  10  21  40  69 102 146 178 225 298 363 416
#     4  10  22  41  63 101 141 182 232 291 350 414
#     4  10  24  39  67 107 139 182 230 295 356 418
#
# _framework density 21.334916
#
# number of rings (size 3 to 8) (size 9 to 14) (size 15 to 20)
#    0.000    1.000    3.750    1.500    7.000    2.000 
#    0.000    0.000    0.000    0.000    0.000    0.000 
#    0.000    0.000    0.000    0.000    0.000    0.000 
#
# Total GULP energy -89533.557160 kJ/mol
# GULP energy per Si atom -5595.847323 kJ/mol
# Density = 2.128636 g / cm^3
# Si number density = 21.334916 Si / 1000 Ang^3
#
#
#
# Elastic Constant Matrix: (Units=GPa)
#
#
# Indices 1 2 3 4 5 6 
#
# 1 35.6936 16.8960 -5.7685 0.0000 -2.2512 0.0000
# 2 16.8960 53.2768 -7.6575 0.0000 -1.0949 0.0000
# 3 -5.7685 -7.6575 56.3018 0.0000 -10.2273 0.0000
# 4 0.0000 0.0000 0.0000 27.8286 0.0000 0.6898
# 5 -2.2512 -1.0949 -10.2273 0.0000 27.5692 0.0000
# 6 0.0000 0.0000 0.0000 0.6898 0.0000 22.4126
#
#
#
# Elastic Compliance Matrix: (Units=1/GPa)
#
#
# Indices 1 2 3 4 5 6 
#
# 1 0.033464 -0.010164 0.002648 0.000000 0.003311 0.000000
# 2 -0.010164 0.022320 0.002149 0.000000 0.000854 0.000000
# 3 0.002648 0.002149 0.019708 0.000000 0.007613 0.000000
# 4 0.000000 0.000000 0.000000 0.035962 0.000000 -0.001107
# 5 0.003311 0.000854 0.007613 0.000000 0.039401 0.000000
# 6 0.000000 0.000000 0.000000 -0.001107 0.000000 0.044652
#
#
# Mechanical properties :
#
#
# Convention : Reuss Voigt Hill
#
# Bulk Modulus (GPa) = 15.44217 16.91249 16.17733
# Shear Modulus (GPa) = 21.94654 25.01553 23.48104
#
# Velocity S-wave (km/s) = 3.21076 3.42792 3.32112
# Velocity P-wave (km/s) = 4.58247 4.85920 4.72286
#
# Compressibility (1/GPa) = 0.06475774
#
# Stress axis : x y z
#
# Youngs Moduli (GPa) = 29.88263 44.80327 50.74111
#
# Poissons Ratio (x) = 0.45539 -0.13435
# Poissons Ratio (y) = 0.30373 -0.10906
# Poissons Ratio (z) = -0.07912 -0.09630
#
# Static dielectric constant tensor:
#      x y z
#    x 1.741010 0.000000 0.007110 
#    y 0.000000 1.789510 0.000000 
#    z 0.007110 0.000000 1.734660 
# 
# From -- ./inp_files/12032.got.cif
#   From: 2010.05.17/outbox.cif.g08.bks.cpg/sg9_7_cif.got.tgz:12032.got - 2010.06.03 20:04:27.
