data_PCOD9136037
_publ_section_title
;
Structure prediction by ZEFSAII (Michael W. Deem and Ramdas Pophale) SiO2 
 PCOD9136037
Probable space group: C C
;
_chemical_formula_sum "Si O2"
_cell_formula_units_Z 32
_cell_length_a 15.055391
_cell_length_b 12.534563
_cell_length_c 21.182926
_cell_angle_alpha 90.000000
_cell_angle_beta 24.605396
_cell_angle_gamma 90.000000
_cell_volume 1664.419834
_symmetry_space_group_name_H-M "C C"
_symmetry_group_IT_number 9
_symmetry_cell_setting 'monoclinic'
loop_
_space_group_symop_operation_xyz
x,y,z
x,-y,1/2+z
1/2+x,1/2+y,z
1/2+x,1/2-y,1/2+z
loop_
_atom_site_type_symbol
_atom_site_label
_atom_site_fract_x
_atom_site_fract_y
_atom_site_fract_z
Si Si1 0.757390 0.375644 0.769900
Si Si2 0.532101 0.530582 0.064254
Si Si3 0.460872 0.126277 0.824035
Si Si4 0.039504 0.911919 0.409644
Si Si5 0.129404 0.483960 0.603432
Si Si6 0.768817 0.208004 0.285709
Si Si7 0.894937 0.824121 0.102755
Si Si8 0.202708 0.673296 0.473221
O O1 0.682670 0.490336 0.790535
O O2 0.847161 0.291238 0.662049
O O3 0.944757 0.406446 0.697972
O O4 0.551151 0.327461 0.940595
O O5 0.324155 0.594838 0.220036
O O6 0.506603 0.404119 0.079915
O O7 0.732179 0.567089 0.978107
O O8 0.557355 0.566751 0.974088
O O9 0.668224 0.119637 0.733589
O O10 0.401642 0.251273 0.861705
O O11 0.536233 0.074397 0.709897
O O12 0.118135 0.792127 0.348044
O O13 0.809331 0.926541 0.527996
O O14 0.220924 0.553280 0.486019
O O15 0.684409 0.186031 0.410098
O O16 0.994027 0.271475 0.138125
#
# Coordination Sequence:
#
# PCOD9136037 Si02
#       8
#     4   4   4   4   4   4   4   4
#     4  11  23  42  61  88 128 165 202 259 314 374
#     4  10  21  38  64  86 124 164 212 260 304 376
#     4  11  19  36  65  90 113 166 208 248 307 368
#     4  11  20  40  63  91 121 169 207 254 321 379
#     4  12  21  39  65  91 125 170 208 250 325 383
#     4  11  20  38  65  89 122 159 208 264 306 361
#     4  11  24  40  62  88 126 164 208 253 316 374
#     4  11  20  35  65  93 121 155 209 262 303 363
#
# _framework density 19.225918
#
# number of rings (size 3 to 8) (size 9 to 14) (size 15 to 20)
#    0.000    1.000   10.000    0.750    0.000    1.000 
#    4.500    0.000    0.000    0.000    0.000    0.000 
#    0.000    0.000    0.000    0.000    0.000    0.000 
#
# Total GULP energy -89112.870929 kJ/mol
# GULP energy per Si atom -5569.554433 kJ/mol
# Density = 1.918216 g / cm^3
# Si number density = 19.225918 Si / 1000 Ang^3
#
#
#
# Elastic Constant Matrix: (Units=GPa)
#
#
# Indices 1 2 3 4 5 6 
#
# 1 43.5996 11.6474 27.8315 0.0031 -15.6698 -0.0008
# 2 11.6474 51.7724 24.6659 0.0030 12.5698 0.0024
# 3 27.8315 24.6659 72.5161 -0.0076 -16.5804 0.0003
# 4 0.0031 0.0030 -0.0076 29.7654 -0.0014 -1.0846
# 5 -15.6698 12.5698 -16.5804 -0.0014 32.6136 0.0016
# 6 -0.0008 0.0024 0.0003 -1.0846 0.0016 26.7600
#
#
#
# Elastic Compliance Matrix: (Units=1/GPa)
#
#
# Indices 1 2 3 4 5 6 
#
# 1 0.035874 -0.009071 -0.006724 -0.000004 0.017314 0.000001
# 2 -0.009071 0.033663 -0.013501 -0.000007 -0.024196 -0.000002
# 3 -0.006724 -0.013501 0.024231 0.000009 0.014291 0.000000
# 4 -0.000004 -0.000007 0.000009 0.033646 0.000007 0.001364
# 5 0.017314 -0.024196 0.014291 0.000007 0.055572 0.000000
# 6 0.000001 -0.000002 0.000000 0.001364 0.000000 0.037424
#
#
# Mechanical properties :
#
#
# Convention : Reuss Voigt Hill
#
# Bulk Modulus (GPa) = 28.42893 32.90861 30.66877
# Shear Modulus (GPa) = 17.19815 24.74402 20.97108
#
# Velocity S-wave (km/s) = 2.99411 3.59139 3.30627
# Velocity P-wave (km/s) = 5.17415 5.86101 5.52826
#
# Compressibility (1/GPa) = 0.03517544
#
# Stress axis : x y z
#
# Youngs Moduli (GPa) = 27.87506 29.70614 41.26955
#
# Poissons Ratio (x) = 0.26945 0.27751
# Poissons Ratio (y) = 0.25285 0.55719
# Poissons Ratio (z) = 0.18744 0.40107
#
# Static dielectric constant tensor:
#      x y z
#    x 1.666290 0.000000 0.000870 
#    y 0.000000 1.703210 0.000000 
#    z 0.000870 0.000000 1.722650 
# 
# From -- ./inp_files/36886.got.cif
#   From: 2010.05.17/outbox.cif.g08.bks.cpg/sg9_19_cif.got.tgz:36886.got - 2010.06.03 20:04:27.
