data_PCOD9136603
_publ_section_title
;
Structure prediction by ZEFSAII (Michael W. Deem and Ramdas Pophale) SiO2 
 PCOD9136603
Probable space group: C C
;
_chemical_formula_sum "Si O2"
_cell_formula_units_Z 28
_cell_length_a 14.045710
_cell_length_b 6.500884
_cell_length_c 14.136815
_cell_angle_alpha 90.000000
_cell_angle_beta 53.979926
_cell_angle_gamma 90.000000
_cell_volume 1044.034243
_symmetry_space_group_name_H-M "C C"
_symmetry_group_IT_number 9
_symmetry_cell_setting 'monoclinic'
loop_
_space_group_symop_operation_xyz
x,y,z
x,-y,1/2+z
1/2+x,1/2+y,z
1/2+x,1/2-y,1/2+z
loop_
_atom_site_type_symbol
_atom_site_label
_atom_site_fract_x
_atom_site_fract_y
_atom_site_fract_z
Si Si1 0.567260 0.168066 0.715210
Si Si2 0.751492 0.602869 0.647684
Si Si3 0.323367 0.425190 0.130173
Si Si4 0.396945 0.549609 0.794985
Si Si5 0.032123 0.890609 0.391674
Si Si6 0.661507 0.845996 0.526252
Si Si7 0.507022 0.951366 0.460822
O O1 0.483200 0.353526 0.730846
O O2 0.571331 0.988193 0.636531
O O3 0.709387 0.185722 0.650608
O O4 0.517184 0.106838 0.845919
O O5 0.779494 0.836178 0.666449
O O6 0.654662 0.527843 0.779520
O O7 0.871951 0.475626 0.571319
O O8 0.701698 0.657840 0.570550
O O9 0.363480 0.363888 0.212077
O O10 0.435310 0.462463 0.996291
O O11 0.468887 0.680236 0.830439
O O12 0.274354 0.526494 0.923215
O O13 0.052388 0.688458 0.441897
O O14 0.590542 0.804494 0.472912
#
# Coordination Sequence:
#
# PCOD9136603 Si02
#       7
#     4   4   4   4   4   4   4
#     4  11  22  39  68  99 135 181 226 288 349 406
#     4  10  21  42  68  97 131 183 233 283 342 420
#     4  10  21  42  67  93 136 180 223 289 346 402
#     4  12  23  39  69  99 136 184 228 283 353 416
#     4  11  21  44  67  95 142 184 231 287 351 413
#     4  11  21  41  69  95 138 181 225 288 354 401
#     4  11  21  41  70  94 136 181 226 290 347 412
#
# _framework density 26.819044000000002
#
# number of rings (size 3 to 8) (size 9 to 14) (size 15 to 20)
#    0.000    1.143    8.571    1.714    0.000    1.143 
#    2.571    1.429    6.286    0.000    0.000    0.000 
#    0.000    0.000    0.000    0.000    0.000    0.000 
#
# Total GULP energy -78279.424012 kJ/mol
# GULP energy per Si atom -5591.387429 kJ/mol
# Density = 2.675800 g / cm^3
# Si number density = 26.819044 Si / 1000 Ang^3
#
#
#
# Elastic Constant Matrix: (Units=GPa)
#
#
# Indices 1 2 3 4 5 6 
#
# 1 147.7938 38.2546 59.8662 0.0000 0.0481 0.0000
# 2 38.2546 44.0459 43.1994 0.0000 -19.9039 0.0000
# 3 59.8662 43.1994 220.4550 0.0000 -35.9833 0.0000
# 4 0.0000 0.0000 0.0000 55.0469 0.0000 -9.2779
# 5 0.0481 -19.9039 -35.9833 0.0000 65.4017 0.0000
# 6 0.0000 0.0000 0.0000 -9.2779 0.0000 49.1763
#
#
#
# Elastic Compliance Matrix: (Units=1/GPa)
#
#
# Indices 1 2 3 4 5 6 
#
# 1 0.009532 -0.008323 -0.001508 0.000000 -0.003369 0.000000
# 2 -0.008323 0.037749 -0.003583 0.000000 0.009523 0.000000
# 3 -0.001508 -0.003583 0.006009 0.000000 0.002217 0.000000
# 4 0.000000 0.000000 0.000000 0.018763 0.000000 0.003540
# 5 -0.003369 0.009523 0.002217 0.000000 0.019411 0.000000
# 6 0.000000 0.000000 0.000000 0.003540 0.000000 0.021003
#
#
# Mechanical properties :
#
#
# Convention : Reuss Voigt Hill
#
# Bulk Modulus (GPa) = 37.78596 77.21502 57.50049
# Shear Modulus (GPa) = 33.75742 51.98993 42.87368
#
# Velocity S-wave (km/s) = 3.55168 4.40767 4.00262
# Velocity P-wave (km/s) = 5.56229 7.39980 6.54584
#
# Compressibility (1/GPa) = 0.02646485
#
# Stress axis : x y z
#
# Youngs Moduli (GPa) = 104.90722 26.49042 166.40619
#
# Poissons Ratio (x) = 0.22048 0.25087
# Poissons Ratio (y) = 0.87313 0.59618
# Poissons Ratio (z) = 0.15816 0.09491
#
# Static dielectric constant tensor:
#      x y z
#    x 2.081800 0.000000 -0.036070 
#    y 0.000000 2.294810 0.000000 
#    z -0.036070 0.000000 2.048080 
# 
# From -- ./inp_files/24140.got.cif
#   From: 2010.05.17/outbox.cif.g08.bks.cpg/sg9_13_cif.got.tgz:24140.got - 2010.06.03 20:04:27.
