data_PCOD9136138
_publ_section_title
;
Structure prediction by ZEFSAII (Michael W. Deem and Ramdas Pophale) SiO2 
 PCOD9136138
Probable space group: C C
;
_chemical_formula_sum "Si O2"
_cell_formula_units_Z 28
_cell_length_a 7.628605
_cell_length_b 12.220860
_cell_length_c 14.749447
_cell_angle_alpha 90.000000
_cell_angle_beta 120.108771
_cell_angle_gamma 90.000000
_cell_volume 1189.532232
_symmetry_space_group_name_H-M "C C"
_symmetry_group_IT_number 9
_symmetry_cell_setting 'monoclinic'
loop_
_space_group_symop_operation_xyz
x,y,z
x,-y,1/2+z
1/2+x,1/2+y,z
1/2+x,1/2-y,1/2+z
loop_
_atom_site_type_symbol
_atom_site_label
_atom_site_fract_x
_atom_site_fract_y
_atom_site_fract_z
Si Si1 0.065800 0.572045 0.815020
Si Si2 0.366545 0.396805 0.933086
Si Si3 0.530703 0.171568 0.982608
Si Si4 0.256856 0.091458 0.239601
Si Si5 0.222220 0.930090 0.523909
Si Si6 0.924421 0.745827 0.637342
Si Si7 0.536321 0.200080 0.461795
O O1 0.212848 0.470173 0.833679
O O2 0.838948 0.529345 0.781042
O O3 0.033035 0.659764 0.730012
O O4 0.151651 0.622178 0.929878
O O5 0.239360 0.371261 0.992756
O O6 0.403910 0.273451 0.908545
O O7 0.576545 0.464645 0.992647
O O8 0.406477 0.077374 0.001248
O O9 0.687665 0.232613 0.089262
O O10 0.307369 0.099798 0.145486
O O11 0.376860 0.161618 0.345225
O O12 0.030554 0.136550 0.180996
O O13 0.088537 0.826747 0.458720
O O14 0.962322 0.698752 0.545890
#
# Coordination Sequence:
#
# PCOD9136138 Si02
#       7
#     4   4   4   4   4   4   4
#     4  11  24  42  66  95 128 169 217 268 326 392
#     4  10  22  43  66  94 131 169 217 273 330 392
#     4  11  25  41  64  97 134 172 215 269 329 398
#     4  10  21  39  63  91 124 164 215 267 324 390
#     4  10  21  41  65  92 129 169 213 266 327 395
#     4  11  22  41  66  94 131 174 218 270 331 397
#     4   9  21  41  64  91 127 165 213 277 327 380
#
# _framework density 23.538664000000001
#
# number of rings (size 3 to 8) (size 9 to 14) (size 15 to 20)
#    0.000    1.714    0.000    4.286    0.000    9.143 
#    0.000   11.429    0.000    0.000    0.000    0.000 
#    0.000    0.000    0.000    0.000    0.000    0.000 
#
# Total GULP energy -78082.557433 kJ/mol
# GULP energy per Si atom -5577.325531 kJ/mol
# Density = 2.348509 g / cm^3
# Si number density = 23.538664 Si / 1000 Ang^3
#
#
#
# Elastic Constant Matrix: (Units=GPa)
#
#
# Indices 1 2 3 4 5 6 
#
# 1 89.7386 33.7347 19.2445 0.0000 11.0943 0.0000
# 2 33.7347 95.5647 11.4866 0.0000 9.8115 0.0000
# 3 19.2445 11.4866 63.3393 0.0000 8.7590 0.0000
# 4 0.0000 0.0000 0.0000 17.6565 0.0000 6.1718
# 5 11.0943 9.8115 8.7590 0.0000 20.2203 0.0000
# 6 0.0000 0.0000 0.0000 6.1718 0.0000 48.9067
#
#
#
# Elastic Compliance Matrix: (Units=1/GPa)
#
#
# Indices 1 2 3 4 5 6 
#
# 1 0.013834 -0.004092 -0.002857 0.000000 -0.004367 0.000000
# 2 -0.004092 0.012331 -0.000506 0.000000 -0.003519 0.000000
# 3 -0.002857 -0.000506 0.017548 0.000000 -0.005788 0.000000
# 4 0.000000 0.000000 0.000000 0.059250 0.000000 -0.007477
# 5 -0.004367 -0.003519 -0.005788 0.000000 0.056066 0.000000
# 6 0.000000 0.000000 0.000000 -0.007477 0.000000 0.021391
#
#
# Mechanical properties :
#
#
# Convention : Reuss Voigt Hill
#
# Bulk Modulus (GPa) = 34.71916 41.95268 38.33592
# Shear Modulus (GPa) = 24.39834 29.63514 27.01674
#
# Velocity S-wave (km/s) = 3.22300 3.55209 3.39154
# Velocity P-wave (km/s) = 5.35090 5.88937 5.62658
#
# Compressibility (1/GPa) = 0.02880254
#
# Stress axis : x y z
#
# Youngs Moduli (GPa) = 72.28387 81.09873 56.98524
#
# Poissons Ratio (x) = 0.33183 0.16283
# Poissons Ratio (y) = 0.29577 0.02885
# Poissons Ratio (z) = 0.20654 0.04106
#
# Static dielectric constant tensor:
#      x y z
#    x 1.968720 0.000000 0.039480 
#    y 0.000000 1.918990 0.000000 
#    z 0.039480 0.000000 1.937620 
# 
# From -- ./inp_files/14229.got.cif
#   From: 2010.05.17/outbox.cif.g08.bks.cpg/sg9_8_cif.got.tgz:14229.got - 2010.06.03 20:04:27.
