data_PCOD9136087
_publ_section_title
;
Structure prediction by ZEFSAII (Michael W. Deem and Ramdas Pophale) SiO2 
 PCOD9136087
Probable space group: C C
;
_chemical_formula_sum "Si O2"
_cell_formula_units_Z 32
_cell_length_a 14.134814
_cell_length_b 11.483653
_cell_length_c 8.889067
_cell_angle_alpha 90.000000
_cell_angle_beta 64.759870
_cell_angle_gamma 90.000000
_cell_volume 1305.114602
_symmetry_space_group_name_H-M "C C"
_symmetry_group_IT_number 9
_symmetry_cell_setting 'monoclinic'
loop_
_space_group_symop_operation_xyz
x,y,z
x,-y,1/2+z
1/2+x,1/2+y,z
1/2+x,1/2-y,1/2+z
loop_
_atom_site_type_symbol
_atom_site_label
_atom_site_fract_x
_atom_site_fract_y
_atom_site_fract_z
Si Si1 0.566440 0.299830 0.953620
Si Si2 0.270794 0.543278 0.879530
Si Si3 0.674813 0.328640 0.577008
Si Si4 0.224273 0.756121 0.102970
Si Si5 0.816134 0.555032 0.760819
Si Si6 0.451987 0.065786 0.957459
Si Si7 0.099021 0.370780 0.948039
Si Si8 0.341063 0.370331 0.030919
O O1 0.629750 0.354773 0.771138
O O2 0.633921 0.308266 0.057947
O O3 0.537492 0.164073 0.936855
O O4 0.450697 0.350053 0.036089
O O5 0.165009 0.471366 0.988711
O O6 0.273156 0.565169 0.702248
O O7 0.283219 0.665866 0.954148
O O8 0.357373 0.452856 0.877164
O O9 0.714376 0.431080 0.439633
O O10 0.588461 0.244080 0.557257
O O11 0.775911 0.242709 0.525549
O O12 0.291237 0.851343 0.146764
O O13 0.170756 0.677656 0.266059
O O14 0.856578 0.440701 0.644214
O O15 0.909005 0.578806 0.818007
O O16 0.502610 0.938530 0.943380
#
# Coordination Sequence:
#
# PCOD9136087 Si02
#       8
#     4   4   4   4   4   4   4   4
#     4  12  24  42  74 105 136 184 244 286 352 427
#     4  11  21  40  69 101 136 177 226 299 353 409
#     4  10  22  44  67 104 143 176 219 307 360 404
#     4  11  23  43  66 102 142 184 229 297 361 416
#     4  11  27  43  67 102 148 185 226 297 368 408
#     4  12  23  43  72 109 134 187 248 294 341 437
#     4  10  21  38  70 103 133 170 238 298 348 405
#     4  11  23  41  71 100 136 179 234 286 353 418
#
# _framework density 24.518920999999999
#
# number of rings (size 3 to 8) (size 9 to 14) (size 15 to 20)
#    0.000    1.000    5.000    1.500    1.750    3.000 
#    0.000    6.250    0.000    0.000    0.000    0.000 
#    0.000    0.000    0.000    0.000    0.000    0.000 
#
# Total GULP energy -89416.674358 kJ/mol
# GULP energy per Si atom -5588.542147 kJ/mol
# Density = 2.446311 g / cm^3
# Si number density = 24.518921 Si / 1000 Ang^3
#
#
#
# Elastic Constant Matrix: (Units=GPa)
#
#
# Indices 1 2 3 4 5 6 
#
# 1 126.1622 40.5075 24.2434 0.0000 27.1992 0.0000
# 2 40.5075 61.1620 22.4615 0.0000 9.6464 0.0000
# 3 24.2434 22.4615 101.8965 0.0000 20.2165 0.0000
# 4 0.0000 0.0000 0.0000 39.1172 0.0000 -2.0383
# 5 27.1992 9.6464 20.2165 0.0000 48.9996 0.0000
# 6 0.0000 0.0000 0.0000 -2.0383 0.0000 42.8397
#
#
#
# Elastic Compliance Matrix: (Units=1/GPa)
#
#
# Indices 1 2 3 4 5 6 
#
# 1 0.011091 -0.006498 -0.000260 0.000000 -0.004770 0.000000
# 2 -0.006498 0.021788 -0.003400 0.000000 0.000720 0.000000
# 3 -0.000260 -0.003400 0.011397 0.000000 -0.003888 0.000000
# 4 0.000000 0.000000 0.000000 0.025628 0.000000 0.001219
# 5 -0.004770 0.000720 -0.003888 0.000000 0.024519 0.000000
# 6 0.000000 0.000000 0.000000 0.001219 0.000000 0.023401
#
#
# Mechanical properties :
#
#
# Convention : Reuss Voigt Hill
#
# Bulk Modulus (GPa) = 41.73486 51.51618 46.62552
# Shear Modulus (GPa) = 34.21722 39.65852 36.93787
#
# Velocity S-wave (km/s) = 3.73975 4.02614 3.88558
# Velocity P-wave (km/s) = 5.97546 6.53218 6.26001
#
# Compressibility (1/GPa) = 0.02396079
#
# Stress axis : x y z
#
# Youngs Moduli (GPa) = 90.16437 45.89598 87.74486
#
# Poissons Ratio (x) = 0.29822 0.02282
# Poissons Ratio (y) = 0.58585 0.29832
# Poissons Ratio (z) = 0.02345 0.15604
#
# Static dielectric constant tensor:
#      x y z
#    x 2.000580 0.000000 -0.043100 
#    y 0.000000 2.005080 0.000000 
#    z -0.043100 0.000000 1.942230 
# 
# From -- ./inp_files/9267.got.cif
#   From: 2010.05.17/outbox.cif.g08.bks.cpg/sg9_5_cif.got.tgz:9267.got - 2010.06.03 20:04:27.
