data_PCOD9136012
_publ_section_title
;
Structure prediction by ZEFSAII (Michael W. Deem and Ramdas Pophale) SiO2 
 PCOD9136012
Probable space group: C C
;
_chemical_formula_sum "Si O2"
_cell_formula_units_Z 24
_cell_length_a 18.459832
_cell_length_b 5.079620
_cell_length_c 25.530779
_cell_angle_alpha 90.000000
_cell_angle_beta 157.729864
_cell_angle_gamma 90.000000
_cell_volume 907.261113
_symmetry_space_group_name_H-M "C C"
_symmetry_group_IT_number 9
_symmetry_cell_setting 'monoclinic'
loop_
_space_group_symop_operation_xyz
x,y,z
x,-y,1/2+z
1/2+x,1/2+y,z
1/2+x,1/2-y,1/2+z
loop_
_atom_site_type_symbol
_atom_site_label
_atom_site_fract_x
_atom_site_fract_y
_atom_site_fract_z
Si Si1 0.472540 0.558188 0.347980
Si Si2 0.006579 0.940586 0.516580
Si Si3 0.711612 0.220612 0.754096
Si Si4 0.889624 0.450329 0.730403
Si Si5 0.656815 0.249862 0.326595
Si Si6 0.862851 0.579630 0.066679
O O1 0.327787 0.504830 0.298747
O O2 0.386703 0.356448 0.246167
O O3 0.693424 0.467781 0.494443
O O4 0.477228 0.859629 0.333343
O O5 0.884082 0.699174 0.408880
O O6 0.119947 0.889463 0.646334
O O7 0.168881 0.034707 0.585090
O O8 0.838699 0.137726 0.418632
O O9 0.533878 0.118821 0.668621
O O10 0.033414 0.465155 0.777981
O O11 0.750486 0.412463 0.436296
O O12 0.490335 0.326766 0.173782
#
# Coordination Sequence:
#
# PCOD9136012 Si02
#       6
#     4   4   4   4   4   4
#     4  10  21  40  64  92 126 164 208 258 314 374
#     4  10  21  38  61  92 128 169 216 266 322 383
#     4  10  21  38  61  92 128 169 216 266 322 383
#     4  10  21  40  64  92 126 164 208 258 314 374
#     4  10  21  38  61  92 128 169 216 266 322 383
#     4  10  21  38  61  92 128 169 216 266 322 383
#
# _framework density 26.453243000000001
#
# number of rings (size 3 to 8) (size 9 to 14) (size 15 to 20)
#    0.000    2.000    0.000    3.000    0.000    1.333 
#    0.000   33.333    0.000    0.000    0.000    0.000 
#    0.000    0.000    0.000    0.000    0.000    0.000 
#
# Total GULP energy -66834.575616 kJ/mol
# GULP energy per Si atom -5569.547968 kJ/mol
# Density = 2.639303 g / cm^3
# Si number density = 26.453243 Si / 1000 Ang^3
#
#
#
# Elastic Constant Matrix: (Units=GPa)
#
#
# Indices 1 2 3 4 5 6 
#
# 1 190.6432 31.2244 28.7616 -0.0137 39.6654 0.0046
# 2 31.2244 54.5234 27.9304 -0.0175 5.1169 0.0300
# 3 28.7616 27.9304 162.6881 -0.0066 30.4979 0.0093
# 4 -0.0137 -0.0175 -0.0066 -0.1658 0.0053 -4.6693
# 5 39.6654 5.1169 30.4979 0.0053 66.9188 -0.0103
# 6 0.0046 0.0300 0.0093 -4.6693 -0.0103 22.3290
#
#
#
# Elastic Compliance Matrix: (Units=1/GPa)
#
#
# Indices 1 2 3 4 5 6 
#
# 1 0.006562 -0.003477 0.000127 -0.000050 -0.003681 -0.000009
# 2 -0.003477 0.021952 -0.003527 -0.000156 0.001990 -0.000059
# 3 0.000127 -0.003527 0.007319 -0.000005 -0.003141 -0.000001
# 4 -0.000050 -0.000156 -0.000005 -0.875512 0.000085 -0.183081
# 5 -0.003681 0.001990 -0.003141 0.000085 0.018405 0.000026
# 6 -0.000009 -0.000059 -0.000001 -0.183081 0.000026 0.006500
#
#
# Mechanical properties :
#
#
# Convention : Reuss Voigt Hill
#
# Bulk Modulus (GPa) = 45.29436 64.85416 55.07426
# Shear Modulus (GPa) = -6.29992 39.14563 16.42286
#
# Velocity S-wave (km/s) = -1.54490 3.85100 2.49434
# Velocity P-wave (km/s) = 3.73863 6.65908 5.40003
#
# Compressibility (1/GPa) = 0.02207780
#
# Stress axis : x y z
#
# Youngs Moduli (GPa) = 152.39909 45.55356 136.63778
#
# Poissons Ratio (x) = 0.15841 -0.01736
# Poissons Ratio (y) = 0.52995 0.48193
# Poissons Ratio (z) = -0.01937 0.16067
#
# Static dielectric constant tensor:
#      x y z
#    x 2.204940 -0.000010 -0.176340 
#    y -0.000010 2.150230 -0.000010 
#    z -0.176340 -0.000010 2.164430 
# 
# From -- ./inp_files/19626.got.cif
#   From: 2010.05.17/outbox.cif.g08.bks.cpg/sg9_10_cif.got.tgz:19626.got - 2010.06.03 20:04:27.
