data_PCOD9136681
_publ_section_title
;
Structure prediction by ZEFSAII (Michael W. Deem and Ramdas Pophale) SiO2 
 PCOD9136681
Probable space group: C C
;
_chemical_formula_sum "Si O2"
_cell_formula_units_Z 24
_cell_length_a 8.515680
_cell_length_b 12.073733
_cell_length_c 10.108688
_cell_angle_alpha 90.000000
_cell_angle_beta 96.538714
_cell_angle_gamma 90.000000
_cell_volume 1032.574605
_symmetry_space_group_name_H-M "C C"
_symmetry_group_IT_number 9
_symmetry_cell_setting 'monoclinic'
loop_
_space_group_symop_operation_xyz
x,y,z
x,-y,1/2+z
1/2+x,1/2+y,z
1/2+x,1/2-y,1/2+z
loop_
_atom_site_type_symbol
_atom_site_label
_atom_site_fract_x
_atom_site_fract_y
_atom_site_fract_z
Si Si1 0.364610 0.424163 0.002600
Si Si2 0.031955 0.928146 0.738301
Si Si3 0.313138 0.231146 0.636991
Si Si4 0.597599 0.903244 0.492702
Si Si5 0.321125 0.024455 0.121920
Si Si6 0.288456 0.186827 0.912525
O O1 0.450018 0.477622 0.137781
O O2 0.468424 0.436357 0.880493
O O3 0.203299 0.492868 0.967158
O O4 0.324904 0.294169 0.004528
O O5 0.964355 0.810029 0.678643
O O6 0.219206 0.946866 0.740734
O O7 0.209339 0.299080 0.523804
O O8 0.216929 0.224156 0.767732
O O9 0.332697 0.105332 0.595444
O O10 0.497068 0.928624 0.616919
O O11 0.456041 0.868819 0.382689
O O12 0.221609 0.092908 0.000597
#
# Coordination Sequence:
#
# PCOD9136681 Si02
#       6
#     4   4   4   4   4   4
#     4  10  21  44  63  93 132 169 217 261 328 384
#     4  10  23  40  66  93 131 172 209 274 320 379
#     4  10  21  43  62  90 131 165 214 266 321 383
#     4   9  22  41  64  93 124 173 213 262 321 387
#     4  10  23  39  62  94 127 166 218 261 317 380
#     4   9  22  39  63  93 127 163 219 262 315 379
#
# _framework density 23.242871999999998
#
# number of rings (size 3 to 8) (size 9 to 14) (size 15 to 20)
#    1.000    1.333    0.000    1.000    4.667    4.000 
#    3.000    1.667    0.000    0.000    0.000    0.000 
#    0.000    0.000    0.000    0.000    0.000    0.000 
#
# Total GULP energy -66922.107392 kJ/mol
# GULP energy per Si atom -5576.842283 kJ/mol
# Density = 2.318997 g / cm^3
# Si number density = 23.242872 Si / 1000 Ang^3
#
#
#
# Elastic Constant Matrix: (Units=GPa)
#
#
# Indices 1 2 3 4 5 6 
#
# 1 73.4968 37.9753 3.4564 0.0000 -16.8732 0.0000
# 2 37.9753 180.0650 31.9378 0.0000 -2.7610 0.0000
# 3 3.4564 31.9378 50.3405 0.0000 -7.7335 0.0000
# 4 0.0000 0.0000 0.0000 33.1493 0.0000 -7.9839
# 5 -16.8732 -2.7610 -7.7335 0.0000 23.3726 0.0000
# 6 0.0000 0.0000 0.0000 -7.9839 0.0000 27.1471
#
#
#
# Elastic Compliance Matrix: (Units=1/GPa)
#
#
# Indices 1 2 3 4 5 6 
#
# 1 0.019057 -0.004461 0.003745 0.000000 0.014470 0.000000
# 2 -0.004461 0.007310 -0.004945 0.000000 -0.003993 0.000000
# 3 0.003745 -0.004945 0.024306 0.000000 0.010162 0.000000
# 4 0.000000 0.000000 0.000000 0.032466 0.000000 0.009548
# 5 0.014470 -0.003993 0.010162 0.000000 0.056122 0.000000
# 6 0.000000 0.000000 0.000000 0.009548 0.000000 0.039645
#
#
# Mechanical properties :
#
#
# Convention : Reuss Voigt Hill
#
# Bulk Modulus (GPa) = 25.41286 50.07127 37.74206
# Shear Modulus (GPa) = 24.58865 32.10266 28.34566
#
# Velocity S-wave (km/s) = 3.25607 3.72046 3.49598
# Velocity P-wave (km/s) = 5.00932 6.32812 5.70695
#
# Compressibility (1/GPa) = 0.03935016
#
# Stress axis : x y z
#
# Youngs Moduli (GPa) = 52.47404 136.79276 41.14205
#
# Poissons Ratio (x) = 0.61029 -0.15407
# Poissons Ratio (y) = 0.23411 0.20345
# Poissons Ratio (z) = -0.19651 0.67645
#
# Static dielectric constant tensor:
#      x y z
#    x 1.905150 0.000000 0.042980 
#    y 0.000000 1.868600 0.000000 
#    z 0.042980 0.000000 1.956750 
# 
# From -- ./inp_files/14203.got.cif
#   From: 2010.05.17/outbox.cif.g08.bks.cpg/sg9_8_cif.got.tgz:14203.got - 2010.06.03 20:04:27.
