data_PCOD9136501
_publ_section_title
;
Structure prediction by ZEFSAII (Michael W. Deem and Ramdas Pophale) SiO2 
 PCOD9136501
Probable space group: C C
;
_chemical_formula_sum "Si O2"
_cell_formula_units_Z 32
_cell_length_a 9.979580
_cell_length_b 16.236767
_cell_length_c 17.227933
_cell_angle_alpha 90.000000
_cell_angle_beta 145.696502
_cell_angle_gamma 90.000000
_cell_volume 1573.250429
_symmetry_space_group_name_H-M "C C"
_symmetry_group_IT_number 9
_symmetry_cell_setting 'monoclinic'
loop_
_space_group_symop_operation_xyz
x,y,z
x,-y,1/2+z
1/2+x,1/2+y,z
1/2+x,1/2-y,1/2+z
loop_
_atom_site_type_symbol
_atom_site_label
_atom_site_fract_x
_atom_site_fract_y
_atom_site_fract_z
Si Si1 0.256590 0.102062 0.564170
Si Si2 0.293222 0.285608 0.622128
Si Si3 0.031923 0.927980 0.113355
Si Si4 0.572255 0.154682 0.317814
Si Si5 0.197949 0.907254 0.760653
Si Si6 0.439322 0.995018 0.514498
Si Si7 0.246295 0.619843 0.241153
Si Si8 0.259616 0.167473 0.861351
O O1 0.344986 0.194744 0.617393
O O2 0.222472 0.068423 0.634402
O O3 0.399580 0.047769 0.572443
O O4 0.996492 0.106901 0.401132
O O5 0.517790 0.341985 0.710863
O O6 0.251430 0.296172 0.694449
O O7 0.032744 0.312978 0.466400
O O8 0.111162 0.864754 0.217617
O O9 0.036589 0.018428 0.151391
O O10 0.787096 0.896103 0.960220
O O11 0.345928 0.135537 0.262364
O O12 0.692723 0.951843 0.652935
O O13 0.558672 0.125080 0.221612
O O14 0.377186 0.948301 0.910457
O O15 0.279890 0.912235 0.427597
O O16 0.150884 0.750651 0.348069
#
# Coordination Sequence:
#
# PCOD9136501 Si02
#       8
#     4   4   4   4   4   4   4   4
#     4  11  21  41  65  97 126 176 217 275 320 399
#     4  11  22  42  69  92 131 175 221 273 325 403
#     4  10  23  40  69  94 127 175 225 262 339 394
#     4  11  23  42  68  98 133 172 226 278 328 405
#     4  11  25  43  64 103 135 165 224 285 332 387
#     4  10  23  40  65  95 133 167 216 275 337 390
#     4  10  21  41  68  92 127 173 224 259 329 408
#     4  10  22  41  68  93 128 183 217 269 334 410
#
# _framework density 20.340053999999999
#
# number of rings (size 3 to 8) (size 9 to 14) (size 15 to 20)
#    0.000    1.500    3.750    1.500    7.000    0.000 
#    4.500    0.000    0.000    0.000    0.000    0.000 
#    0.000    0.000    0.000    0.000    0.000    0.000 
#
# Total GULP energy -89246.357573 kJ/mol
# GULP energy per Si atom -5577.897348 kJ/mol
# Density = 2.029376 g / cm^3
# Si number density = 20.340054 Si / 1000 Ang^3
#
#
#
# Elastic Constant Matrix: (Units=GPa)
#
#
# Indices 1 2 3 4 5 6 
#
# 1 102.7299 51.6058 21.5548 0.0022 -13.6470 0.0003
# 2 51.6058 114.2985 26.2504 -0.0010 -15.6234 0.0005
# 3 21.5548 26.2504 76.0950 -0.0026 -18.1520 0.0009
# 4 0.0022 -0.0010 -0.0026 70.0023 -0.0007 -21.0853
# 5 -13.6470 -15.6234 -18.1520 -0.0007 22.5342 0.0005
# 6 0.0003 0.0005 0.0009 -21.0853 0.0005 37.4114
#
#
#
# Elastic Compliance Matrix: (Units=1/GPa)
#
#
# Indices 1 2 3 4 5 6 
#
# 1 0.013007 -0.005154 -0.001089 -0.000001 0.003427 0.000000
# 2 -0.005154 0.012000 -0.001782 0.000000 0.003763 0.000000
# 3 -0.001089 -0.001782 0.016851 0.000001 0.011679 0.000000
# 4 -0.000001 0.000000 0.000001 0.017206 0.000001 0.009698
# 5 0.003427 0.003763 0.011679 0.000001 0.058469 -0.000001
# 6 0.000000 0.000000 0.000000 0.009698 -0.000001 0.032195
#
#
# Mechanical properties :
#
#
# Convention : Reuss Voigt Hill
#
# Bulk Modulus (GPa) = 38.74912 54.66060 46.70486
# Shear Modulus (GPa) = 28.67294 38.90373 33.78834
#
# Velocity S-wave (km/s) = 3.75864 4.37815 4.08017
# Velocity P-wave (km/s) = 6.15861 7.24495 6.72376
#
# Compressibility (1/GPa) = 0.02580704
#
# Stress axis : x y z
#
# Youngs Moduli (GPa) = 76.88064 83.33508 59.34534
#
# Poissons Ratio (x) = 0.42953 0.06463
# Poissons Ratio (y) = 0.39626 0.10575
# Poissons Ratio (z) = 0.08372 0.14850
#
# Static dielectric constant tensor:
#      x y z
#    x 1.753220 0.000000 -0.006720 
#    y 0.000000 1.740030 0.000000 
#    z -0.006720 0.000000 1.747570 
# 
# From -- ./inp_files/15165.got.cif
#   From: 2010.05.17/outbox.cif.g08.bks.cpg/sg9_8_cif.got.tgz:15165.got - 2010.06.03 20:04:27.
