data_PCOD9136367
_publ_section_title
;
Structure prediction by ZEFSAII (Michael W. Deem and Ramdas Pophale) SiO2 
 PCOD9136367
Probable space group: C C
;
_chemical_formula_sum "Si O2"
_cell_formula_units_Z 32
_cell_length_a 19.745419
_cell_length_b 7.474168
_cell_length_c 22.071370
_cell_angle_alpha 90.000000
_cell_angle_beta 153.894317
_cell_angle_gamma 90.000000
_cell_volume 1433.306434
_symmetry_space_group_name_H-M "C C"
_symmetry_group_IT_number 9
_symmetry_cell_setting 'monoclinic'
loop_
_space_group_symop_operation_xyz
x,y,z
x,-y,1/2+z
1/2+x,1/2+y,z
1/2+x,1/2-y,1/2+z
loop_
_atom_site_type_symbol
_atom_site_label
_atom_site_fract_x
_atom_site_fract_y
_atom_site_fract_z
Si Si1 0.788640 0.543702 0.859970
Si Si2 0.700470 0.602174 0.420552
Si Si3 0.134124 0.371984 0.598808
Si Si4 0.034476 0.566441 0.739001
Si Si5 0.604687 0.459001 0.597071
Si Si6 0.483480 0.726358 0.774681
Si Si7 0.258020 0.458098 0.819458
Si Si8 0.639474 0.825112 0.016719
O O1 0.712197 0.438507 0.742395
O O2 0.728700 0.748428 0.810673
O O3 0.750894 0.455872 0.893286
O O4 0.969183 0.571513 0.993823
O O5 0.615330 0.789898 0.346647
O O6 0.579278 0.455039 0.345752
O O7 0.855794 0.608131 0.584256
O O8 0.144795 0.158153 0.603924
O O9 0.253693 0.454665 0.743011
O O10 0.144403 0.472736 0.544249
O O11 0.048715 0.374209 0.781731
O O12 0.126122 0.562610 0.749000
O O13 0.426117 0.474624 0.474081
O O14 0.621587 0.307760 0.559806
O O15 0.303332 0.708322 0.617021
O O16 0.505858 0.793208 0.861326
#
# Coordination Sequence:
#
# PCOD9136367 Si02
#       8
#     4   4   4   4   4   4   4   4
#     4  10  21  40  69 102 146 177 225 299 365 421
#     4  12  28  46  73 108 140 190 242 299 361 426
#     4  10  22  41  65 101 139 184 230 295 354 418
#     4  12  28  46  73 108 140 190 242 299 361 426
#     4  10  24  39  65 107 141 180 230 293 360 424
#     4  12  28  50  72  98 150 196 240 296 352 424
#     4  10  21  40  69 102 146 177 225 299 365 421
#     4  12  26  44  72  98 140 198 238 284 348 442
#
# _framework density 22.326000000000001
#
# number of rings (size 3 to 8) (size 9 to 14) (size 15 to 20)
#    0.000    1.000    3.750    1.500    7.000    2.000 
#    0.000    0.000    0.000    0.000    0.000    0.000 
#    0.000    0.000    0.000    0.000    0.000    0.000 
#
# Total GULP energy -89551.672739 kJ/mol
# GULP energy per Si atom -5596.979546 kJ/mol
# Density = 2.227519 g / cm^3
# Si number density = 22.326000 Si / 1000 Ang^3
#
#
#
# Elastic Constant Matrix: (Units=GPa)
#
#
# Indices 1 2 3 4 5 6 
#
# 1 32.2894 8.3017 -18.7014 -0.0001 -3.4017 0.0000
# 2 8.3017 52.0648 -9.8595 -0.0001 18.5696 0.0000
# 3 -18.7014 -9.8595 58.2696 -0.0004 0.0690 0.0000
# 4 -0.0001 -0.0001 -0.0004 20.7972 -0.0001 -4.7130
# 5 -3.4017 18.5696 0.0690 -0.0001 24.6844 0.0000
# 6 0.0000 0.0000 0.0000 -4.7130 0.0000 26.3510
#
#
#
# Elastic Compliance Matrix: (Units=1/GPa)
#
#
# Indices 1 2 3 4 5 6 
#
# 1 0.041315 -0.008716 0.011771 0.000000 0.012218 0.000000
# 2 -0.008716 0.029304 0.002189 0.000000 -0.023252 0.000000
# 3 0.011771 0.002189 0.021310 0.000001 -0.000084 0.000000
# 4 0.000000 0.000000 0.000001 0.050115 0.000000 0.008963
# 5 0.012218 -0.023252 -0.000084 0.000000 0.059687 0.000000
# 6 0.000000 0.000000 0.000000 0.008963 0.000000 0.039552
#
#
# Mechanical properties :
#
#
# Convention : Reuss Voigt Hill
#
# Bulk Modulus (GPa) = 9.76415 11.34503 10.55459
# Shear Modulus (GPa) = 18.87244 25.22539 22.04891
#
# Velocity S-wave (km/s) = 2.91058 3.36499 3.14600
# Velocity P-wave (km/s) = 3.95958 4.49334 4.23488
#
# Compressibility (1/GPa) = 0.10241548
#
# Stress axis : x y z
#
# Youngs Moduli (GPa) = 24.20403 34.12471 46.92678
#
# Poissons Ratio (x) = 0.29744 -0.55236
# Poissons Ratio (y) = 0.21097 -0.10270
# Poissons Ratio (z) = -0.28490 -0.07468
#
# Static dielectric constant tensor:
#      x y z
#    x 1.802280 0.000000 -0.005780 
#    y 0.000000 1.821920 0.000000 
#    z -0.005780 0.000000 1.789850 
# 
# From -- ./inp_files/34068.got.cif
#   From: 2010.05.17/outbox.cif.g08.bks.cpg/sg9_18_cif.got.tgz:34068.got - 2010.06.03 20:04:27.
