data_PCOD9136503
_publ_section_title
;
Structure prediction by ZEFSAII (Michael W. Deem and Ramdas Pophale) SiO2 
 PCOD9136503
Probable space group: C C
;
_chemical_formula_sum "Si O2"
_cell_formula_units_Z 32
_cell_length_a 16.570718
_cell_length_b 9.230887
_cell_length_c 21.597337
_cell_angle_alpha 90.000000
_cell_angle_beta 151.907215
_cell_angle_gamma 90.000000
_cell_volume 1555.658943
_symmetry_space_group_name_H-M "C C"
_symmetry_group_IT_number 9
_symmetry_cell_setting 'monoclinic'
loop_
_space_group_symop_operation_xyz
x,y,z
x,-y,1/2+z
1/2+x,1/2+y,z
1/2+x,1/2-y,1/2+z
loop_
_atom_site_type_symbol
_atom_site_label
_atom_site_fract_x
_atom_site_fract_y
_atom_site_fract_z
Si Si1 0.742360 0.365048 0.565780
Si Si2 0.741206 0.881752 0.406409
Si Si3 0.961882 0.393568 0.606354
Si Si4 0.275176 0.965210 0.770903
Si Si5 0.554843 0.795788 0.165545
Si Si6 0.552353 0.892367 0.868448
Si Si7 0.282102 0.209000 0.864981
Si Si8 0.503150 0.543178 0.491353
O O1 0.837960 0.452806 0.576365
O O2 0.671831 0.227887 0.480455
O O3 0.586501 0.449175 0.493230
O O4 0.890092 0.334735 0.717294
O O5 0.603998 0.799018 0.271218
O O6 0.872158 0.777228 0.529724
O O7 0.857087 0.961468 0.432299
O O8 0.655474 0.996042 0.394935
O O9 0.856462 0.304268 0.484179
O O10 0.050144 0.537976 0.638980
O O11 0.101860 0.289963 0.733550
O O12 0.193196 0.806079 0.724099
O O13 0.459349 0.963238 0.864536
O O14 0.156254 0.057867 0.644229
O O15 0.269811 0.047257 0.831698
O O16 0.418854 0.303697 0.918442
#
# Coordination Sequence:
#
# PCOD9136503 Si02
#       8
#     4   4   4   4   4   4   4   4
#     4  11  23  42  68  99 136 175 221 282 339 395
#     4  11  22  44  64  97 132 179 222 278 336 403
#     4  12  24  41  72 100 132 181 228 276 342 407
#     4  10  24  43  67  98 134 181 226 282 335 407
#     4  11  23  42  68  98 133 179 225 276 342 399
#     4  11  24  44  67  97 141 173 230 278 339 406
#     4  12  23  43  70 101 134 180 229 278 346 402
#     4  10  21  41  68  92 140 170 221 284 335 395
#
# _framework density 20.570062
#
# number of rings (size 3 to 8) (size 9 to 14) (size 15 to 20)
#    0.000    1.000    3.750    3.000    1.750    3.000 
#    2.250    0.000    0.000    0.000    0.000    0.000 
#    0.000    0.000    0.000    0.000    0.000    0.000 
#
# Total GULP energy -89288.710076 kJ/mol
# GULP energy per Si atom -5580.544380 kJ/mol
# Density = 2.052324 g / cm^3
# Si number density = 20.570062 Si / 1000 Ang^3
#
#
#
# Elastic Constant Matrix: (Units=GPa)
#
#
# Indices 1 2 3 4 5 6 
#
# 1 104.0751 40.6956 38.3918 0.0000 10.4136 0.0000
# 2 40.6956 79.9100 46.4526 0.0002 0.4005 0.0001
# 3 38.3918 46.4526 112.8076 0.0004 -8.1383 0.0001
# 4 0.0000 0.0002 0.0004 37.6901 0.0001 -6.5207
# 5 10.4136 0.4005 -8.1383 0.0001 26.7244 0.0000
# 6 0.0000 0.0001 0.0001 -6.5207 0.0000 34.7823
#
#
#
# Elastic Compliance Matrix: (Units=1/GPa)
#
#
# Indices 1 2 3 4 5 6 
#
# 1 0.013230 -0.005050 -0.002852 0.000000 -0.005948 0.000000
# 2 -0.005050 0.018527 -0.005919 0.000000 -0.000112 0.000000
# 3 -0.002852 -0.005919 0.012637 0.000000 0.005048 0.000000
# 4 0.000000 0.000000 0.000000 0.027422 0.000000 0.005141
# 5 -0.005948 -0.000112 0.005048 0.000000 0.041276 0.000000
# 6 0.000000 0.000000 0.000000 0.005141 0.000000 0.029714
#
#
# Mechanical properties :
#
#
# Convention : Reuss Voigt Hill
#
# Bulk Modulus (GPa) = 59.69283 60.87475 60.28379
# Shear Modulus (GPa) = 28.40397 31.25620 29.83008
#
# Velocity S-wave (km/s) = 3.72000 3.90230 3.81224
# Velocity P-wave (km/s) = 6.89445 7.06839 6.98196
#
# Compressibility (1/GPa) = 0.01675243
#
# Stress axis : x y z
#
# Youngs Moduli (GPa) = 75.58318 53.97544 79.13393
#
# Poissons Ratio (x) = 0.27257 0.22572
# Poissons Ratio (y) = 0.38169 0.46836
# Poissons Ratio (z) = 0.21559 0.31946
#
# Static dielectric constant tensor:
#      x y z
#    x 1.759460 0.000000 0.021450 
#    y 0.000000 1.756690 0.000000 
#    z 0.021450 0.000000 1.780280 
# 
# From -- ./inp_files/33740.got.cif
#   From: 2010.05.17/outbox.cif.g08.bks.cpg/sg9_17_cif.got.tgz:33740.got - 2010.06.03 20:04:27.
