data_PCOD9136314
_publ_section_title
;
Structure prediction by ZEFSAII (Michael W. Deem and Ramdas Pophale) SiO2 
 PCOD9136314
Probable space group: C C
;
_chemical_formula_sum "Si O2"
_cell_formula_units_Z 32
_cell_length_a 11.453070
_cell_length_b 7.553017
_cell_length_c 27.631977
_cell_angle_alpha 90.000000
_cell_angle_beta 31.717048
_cell_angle_gamma 90.000000
_cell_volume 1256.645513
_symmetry_space_group_name_H-M "C C"
_symmetry_group_IT_number 9
_symmetry_cell_setting 'monoclinic'
loop_
_space_group_symop_operation_xyz
x,y,z
x,-y,1/2+z
1/2+x,1/2+y,z
1/2+x,1/2-y,1/2+z
loop_
_atom_site_type_symbol
_atom_site_label
_atom_site_fract_x
_atom_site_fract_y
_atom_site_fract_z
Si Si1 0.430770 0.791612 0.071370
Si Si2 0.884391 0.866516 0.395278
Si Si3 0.497778 0.003073 0.145999
Si Si4 0.029350 0.098735 0.551052
Si Si5 0.519237 0.802841 0.237107
Si Si6 0.436335 0.614298 0.764557
Si Si7 0.584664 0.262901 0.815834
Si Si8 0.867338 0.717794 0.496614
O O1 0.484578 0.882077 0.102971
O O2 0.540614 0.599838 0.028977
O O3 0.159387 0.792290 0.165688
O O4 0.491823 0.870014 0.997207
O O5 0.649252 0.764822 0.483406
O O6 0.999423 0.766433 0.401065
O O7 0.943541 0.835766 0.318744
O O8 0.927894 0.075356 0.388245
O O9 0.442704 0.904802 0.215711
O O10 0.295336 0.141194 0.215699
O O11 0.735647 0.100811 0.057101
O O12 0.166153 0.090418 0.552669
O O13 0.776657 0.146261 0.643099
O O14 0.472436 0.595369 0.247470
O O15 0.468891 0.844207 0.312137
O O16 0.209600 0.665444 0.816116
#
# Coordination Sequence:
#
# PCOD9136314 Si02
#       8
#     4   4   4   4   4   4   4   4
#     4  12  22  38  68  97 120 177 225 260 319 388
#     4   9  23  39  68  94 133 175 208 273 341 381
#     4  12  23  37  68  94 126 170 221 267 315 392
#     4  10  21  40  66  91 132 167 216 266 323 385
#     4  11  22  38  64  99 124 165 224 265 315 391
#     4  11  22  41  71  96 128 175 216 278 325 381
#     4  11  21  43  64  91 135 167 214 271 332 382
#     4  10  22  42  61  94 128 172 214 268 322 382
#
# _framework density 25.464621000000001
#
# number of rings (size 3 to 8) (size 9 to 14) (size 15 to 20)
#    0.750    0.500    6.250    0.000    5.250    0.000 
#    0.000    2.500   13.750    0.000    0.000    0.000 
#    0.000    0.000    0.000    0.000    0.000    0.000 
#
# Total GULP energy -89220.569185 kJ/mol
# GULP energy per Si atom -5576.285574 kJ/mol
# Density = 2.540666 g / cm^3
# Si number density = 25.464621 Si / 1000 Ang^3
#
#
#
# Elastic Constant Matrix: (Units=GPa)
#
#
# Indices 1 2 3 4 5 6 
#
# 1 173.8211 44.1942 26.9033 0.0007 42.5545 0.0014
# 2 44.1942 75.8707 8.0681 0.0013 5.6529 0.0023
# 3 26.9033 8.0681 76.3991 -0.0003 12.7315 0.0002
# 4 0.0007 0.0013 -0.0003 28.5240 -0.0002 -0.5887
# 5 42.5545 5.6529 12.7315 -0.0002 42.2839 0.0003
# 6 0.0014 0.0023 0.0002 -0.5887 0.0003 42.0572
#
#
#
# Elastic Compliance Matrix: (Units=1/GPa)
#
#
# Indices 1 2 3 4 5 6 
#
# 1 0.009122 -0.004560 -0.001371 0.000000 -0.008158 0.000000
# 2 -0.004560 0.015692 -0.000491 -0.000001 0.002639 -0.000001
# 3 -0.001371 -0.000491 0.014090 0.000000 -0.002797 0.000000
# 4 0.000000 -0.000001 0.000000 0.035068 0.000000 0.000491
# 5 -0.008158 0.002639 -0.002797 0.000000 0.032349 0.000000
# 6 0.000000 -0.000001 0.000000 0.000491 0.000000 0.023784
#
#
# Mechanical properties :
#
#
# Convention : Reuss Voigt Hill
#
# Bulk Modulus (GPa) = 38.37397 53.82466 46.09932
# Shear Modulus (GPa) = 32.97379 39.03470 36.00425
#
# Velocity S-wave (km/s) = 3.60236 3.91947 3.76426
# Velocity P-wave (km/s) = 5.69253 6.45492 6.08567
#
# Compressibility (1/GPa) = 0.02605933
#
# Stress axis : x y z
#
# Youngs Moduli (GPa) = 109.62830 63.72688 70.97255
#
# Poissons Ratio (x) = 0.29058 0.09732
# Poissons Ratio (y) = 0.49988 0.03486
# Poissons Ratio (z) = 0.15032 0.03130
#
# Static dielectric constant tensor:
#      x y z
#    x 2.193110 0.000000 0.015080 
#    y 0.000000 2.005980 0.000000 
#    z 0.015080 0.000000 2.064280 
# 
# From -- ./inp_files/36499.got.cif
#   From: 2010.05.17/outbox.cif.g08.bks.cpg/sg9_19_cif.got.tgz:36499.got - 2010.06.03 20:04:27.
