data_PCOD9136637
_publ_section_title
;
Structure prediction by ZEFSAII (Michael W. Deem and Ramdas Pophale) SiO2 
 PCOD9136637
Probable space group: C C
;
_chemical_formula_sum "Si O2"
_cell_formula_units_Z 32
_cell_length_a 13.632955
_cell_length_b 13.845533
_cell_length_c 19.290831
_cell_angle_alpha 90.000000
_cell_angle_beta 153.018802
_cell_angle_gamma 90.000000
_cell_volume 1652.028606
_symmetry_space_group_name_H-M "C C"
_symmetry_group_IT_number 9
_symmetry_cell_setting 'monoclinic'
loop_
_space_group_symop_operation_xyz
x,y,z
x,-y,1/2+z
1/2+x,1/2+y,z
1/2+x,1/2-y,1/2+z
loop_
_atom_site_type_symbol
_atom_site_label
_atom_site_fract_x
_atom_site_fract_y
_atom_site_fract_z
Si Si1 0.399980 0.717910 0.803020
Si Si2 0.845706 0.356032 0.639645
Si Si3 0.806236 0.738224 0.555979
Si Si4 0.837666 0.729026 0.731919
Si Si5 0.160273 0.976885 0.116782
Si Si6 0.722474 0.108452 0.272520
Si Si7 0.694853 0.621561 0.264956
Si Si8 0.995574 0.418857 0.080341
O O1 0.374017 0.773476 0.714939
O O2 0.359421 0.800192 0.835509
O O3 0.203194 0.643475 0.687634
O O4 0.631735 0.668835 0.960353
O O5 0.794264 0.457066 0.646704
O O6 0.064561 0.356132 0.733767
O O7 0.736089 0.741971 0.591814
O O8 0.591992 0.759949 0.378124
O O9 0.983919 0.818819 0.653262
O O10 0.900552 0.636254 0.588285
O O11 0.783097 0.619719 0.717978
O O12 0.770448 0.808000 0.746500
O O13 0.131438 0.045044 0.165710
O O14 0.938594 0.940215 0.941047
O O15 0.583765 0.024125 0.150128
O O16 0.813320 0.579499 0.406554
#
# Coordination Sequence:
#
# PCOD9136637 Si02
#       8
#     4   4   4   4   4   4   4   4
#     4  10  21  42  69  96 133 168 221 267 330 393
#     4  11  24  44  68  97 132 179 214 274 334 398
#     4  11  24  42  73  95 135 175 226 277 340 394
#     4  12  26  47  63  96 138 181 222 281 336 401
#     4  11  26  46  67  98 137 175 226 275 336 400
#     4  12  28  42  68  95 137 178 223 272 337 400
#     4  10  23  41  70 105 126 173 225 281 323 400
#     4  11  22  42  68 102 128 171 227 273 328 400
#
# _framework density 19.370124000000001
#
# number of rings (size 3 to 8) (size 9 to 14) (size 15 to 20)
#    0.000    1.000    5.000    0.750    7.000    0.000 
#    0.000    0.000    0.000    0.000    0.000    0.000 
#    0.000    0.000    0.000    0.000    0.000    0.000 
#
# Total GULP energy -89359.172961 kJ/mol
# GULP energy per Si atom -5584.948310 kJ/mol
# Density = 1.932604 g / cm^3
# Si number density = 19.370124 Si / 1000 Ang^3
#
#
#
# Elastic Constant Matrix: (Units=GPa)
#
#
# Indices 1 2 3 4 5 6 
#
# 1 86.8942 28.3131 6.2964 -0.0052 -2.0135 -0.0004
# 2 28.3131 90.7457 16.3854 -0.0083 -4.5724 -0.0008
# 3 6.2964 16.3854 59.6517 -0.0115 -4.0532 -0.0004
# 4 -0.0052 -0.0083 -0.0115 30.4346 -0.0042 -3.1253
# 5 -2.0135 -4.5724 -4.0532 -0.0042 26.3729 -0.0010
# 6 -0.0004 -0.0008 -0.0004 -3.1253 -0.0010 28.1049
#
#
#
# Elastic Compliance Matrix: (Units=1/GPa)
#
#
# Indices 1 2 3 4 5 6 
#
# 1 0.012816 -0.003940 -0.000253 0.000001 0.000256 0.000000
# 2 -0.003940 0.012868 -0.003019 0.000002 0.001466 0.000001
# 3 -0.000253 -0.003019 0.017769 0.000006 0.002188 0.000001
# 4 0.000001 0.000002 0.000006 0.033237 0.000007 0.003696
# 5 0.000256 0.001466 0.002188 0.000007 0.038528 0.000002
# 6 0.000000 0.000001 0.000001 0.003696 0.000002 0.035992
#
#
# Mechanical properties :
#
#
# Convention : Reuss Voigt Hill
#
# Bulk Modulus (GPa) = 34.44897 37.69793 36.07345
# Shear Modulus (GPa) = 28.52080 29.40229 28.96154
#
# Velocity S-wave (km/s) = 3.84136 3.90028 3.87093
# Velocity P-wave (km/s) = 6.12356 6.30769 6.21631
#
# Compressibility (1/GPa) = 0.02902845
#
# Stress axis : x y z
#
# Youngs Moduli (GPa) = 78.02531 77.71110 56.27876
#
# Poissons Ratio (x) = 0.30619 0.01424
# Poissons Ratio (y) = 0.30743 0.16992
# Poissons Ratio (z) = 0.01975 0.23462
#
# Static dielectric constant tensor:
#      x y z
#    x 1.693560 0.000000 -0.003400 
#    y 0.000000 1.658230 0.000000 
#    z -0.003400 0.000000 1.646890 
# 
# From -- ./inp_files/7492.got.cif
#   From: 2010.05.17/outbox.cif.g08.bks.cpg/sg9_4_cif.got.tgz:7492.got - 2010.06.03 20:04:27.
