data_PCOD9136670
_publ_section_title
;
Structure prediction by ZEFSAII (Michael W. Deem and Ramdas Pophale) SiO2 
 PCOD9136670
Probable space group: C C
;
_chemical_formula_sum "Si O2"
_cell_formula_units_Z 28
_cell_length_a 14.338314
_cell_length_b 13.538925
_cell_length_c 8.964125
_cell_angle_alpha 90.000000
_cell_angle_beta 138.835476
_cell_angle_gamma 90.000000
_cell_volume 1145.416750
_symmetry_space_group_name_H-M "C C"
_symmetry_group_IT_number 9
_symmetry_cell_setting 'monoclinic'
loop_
_space_group_symop_operation_xyz
x,y,z
x,-y,1/2+z
1/2+x,1/2+y,z
1/2+x,1/2-y,1/2+z
loop_
_atom_site_type_symbol
_atom_site_label
_atom_site_fract_x
_atom_site_fract_y
_atom_site_fract_z
Si Si1 0.656310 0.650512 0.486800
Si Si2 0.469389 0.934706 0.682656
Si Si3 0.654714 0.438534 0.385953
Si Si4 0.157481 0.265059 0.803357
Si Si5 0.630699 0.078972 0.674918
Si Si6 0.852165 0.091018 0.394366
Si Si7 0.856023 0.211223 0.090158
O O1 0.651644 0.532330 0.491368
O O2 0.650959 0.706930 0.638473
O O3 0.799827 0.682642 0.575121
O O4 0.517266 0.694354 0.233801
O O5 0.302631 0.949318 0.476552
O O6 0.526384 0.840284 0.658384
O O7 0.550579 0.030842 0.719294
O O8 0.517283 0.908687 0.907894
O O9 0.658476 0.320889 0.428544
O O10 0.505311 0.448018 0.121905
O O11 0.295124 0.334183 0.954005
O O12 0.739658 0.995466 0.751245
O O13 0.734475 0.168392 0.837645
O O14 0.851979 0.144899 0.235993
#
# Coordination Sequence:
#
# PCOD9136670 Si02
#       7
#     4   4   4   4   4   4   4
#     4  11  26  41  75 103 147 190 252 300 371 438
#     4  11  27  44  76 105 152 192 253 304 381 438
#     4  12  24  43  71 113 138 195 252 311 349 452
#     4  10  24  47  70 103 148 195 236 309 378 442
#     4  11  23  47  69 104 145 199 239 313 369 451
#     4  10  21  42  75 103 140 189 245 302 379 436
#     4  11  23  44  70 103 142 196 243 305 369 447
#
# _framework density 24.445250999999999
#
# number of rings (size 3 to 8) (size 9 to 14) (size 15 to 20)
#    0.000    1.143    4.286    0.857    6.000    0.000 
#    5.143    0.000    0.000    0.000    0.000    0.000 
#    0.000    0.000    0.000    0.000    0.000    0.000 
#
# Total GULP energy -78241.790977 kJ/mol
# GULP energy per Si atom -5588.699356 kJ/mol
# Density = 2.438961 g / cm^3
# Si number density = 24.445251 Si / 1000 Ang^3
#
#
#
# Elastic Constant Matrix: (Units=GPa)
#
#
# Indices 1 2 3 4 5 6 
#
# 1 82.3208 32.6515 38.6668 0.0000 33.3390 0.0000
# 2 32.6515 106.2872 26.4222 0.0000 1.3324 0.0000
# 3 38.6668 26.4222 134.0405 0.0000 19.0029 0.0000
# 4 0.0000 0.0000 0.0000 23.8157 0.0000 1.2917
# 5 33.3390 1.3324 19.0029 0.0000 42.4194 0.0000
# 6 0.0000 0.0000 0.0000 1.2917 0.0000 36.9513
#
#
#
# Elastic Compliance Matrix: (Units=1/GPa)
#
#
# Indices 1 2 3 4 5 6 
#
# 1 0.022443 -0.005942 -0.003021 0.000000 -0.016099 0.000000
# 2 -0.005942 0.011481 -0.001239 0.000000 0.004864 0.000000
# 3 -0.003021 -0.001239 0.008792 0.000000 -0.001526 0.000000
# 4 0.000000 0.000000 0.000000 0.042069 0.000000 -0.001471
# 5 -0.016099 0.004864 -0.001526 0.000000 0.036758 0.000000
# 6 0.000000 0.000000 0.000000 -0.001471 0.000000 0.027114
#
#
# Mechanical properties :
#
#
# Convention : Reuss Voigt Hill
#
# Bulk Modulus (GPa) = 44.81485 57.56992 51.19239
# Shear Modulus (GPa) = 28.32912 35.63113 31.98012
#
# Velocity S-wave (km/s) = 3.40793 3.82198 3.62088
# Velocity P-wave (km/s) = 5.81875 6.56341 6.20227
#
# Compressibility (1/GPa) = 0.02231403
#
# Stress axis : x y z
#
# Youngs Moduli (GPa) = 44.55719 87.10239 113.73640
#
# Poissons Ratio (x) = 0.51755 0.34355
# Poissons Ratio (y) = 0.26475 0.14088
# Poissons Ratio (z) = 0.13459 0.10789
#
# Static dielectric constant tensor:
#      x y z
#    x 1.984230 0.000000 -0.011850 
#    y 0.000000 1.956460 0.000000 
#    z -0.011850 0.000000 1.919350 
# 
# From -- ./inp_files/7335.got.cif
#   From: 2010.05.17/outbox.cif.g08.bks.cpg/sg9_4_cif.got.tgz:7335.got - 2010.06.03 20:04:27.
