data_PCOD9136139
_publ_section_title
;
Structure prediction by ZEFSAII (Michael W. Deem and Ramdas Pophale) SiO2 
 PCOD9136139
Probable space group: C C
;
_chemical_formula_sum "Si O2"
_cell_formula_units_Z 28
_cell_length_a 12.425572
_cell_length_b 8.729788
_cell_length_c 12.895610
_cell_angle_alpha 90.000000
_cell_angle_beta 118.824868
_cell_angle_gamma 90.000000
_cell_volume 1225.503117
_symmetry_space_group_name_H-M "C C"
_symmetry_group_IT_number 9
_symmetry_cell_setting 'monoclinic'
loop_
_space_group_symop_operation_xyz
x,y,z
x,-y,1/2+z
1/2+x,1/2+y,z
1/2+x,1/2-y,1/2+z
loop_
_atom_site_type_symbol
_atom_site_label
_atom_site_fract_x
_atom_site_fract_y
_atom_site_fract_z
Si Si1 0.814490 0.856337 0.470100
Si Si2 0.062225 0.777431 0.317523
Si Si3 0.724761 0.544439 0.396509
Si Si4 0.947635 0.462523 0.615392
Si Si5 0.338690 0.496202 0.276695
Si Si6 0.479103 0.282094 0.728266
Si Si7 0.129057 0.475072 0.020644
O O1 0.811621 0.691787 0.410427
O O2 0.809521 0.987065 0.383041
O O3 0.934506 0.857657 0.598530
O O4 0.699379 0.889460 0.491923
O O5 0.996878 0.686248 0.194972
O O6 0.101096 0.660684 0.427093
O O7 0.958365 0.891674 0.313817
O O8 0.175689 0.882440 0.329961
O O9 0.599975 0.642109 0.329241
O O10 0.801331 0.485354 0.532446
O O11 0.989707 0.605019 0.706540
O O12 0.010875 0.471904 0.531362
O O13 0.371708 0.667282 0.256135
O O14 0.228097 0.431260 0.155703
#
# Coordination Sequence:
#
# PCOD9136139 Si02
#       7
#     4   4   4   4   4   4   4
#     4  10  21  41  64  90 127 172 216 261 323 386
#     4  11  22  39  62  92 125 168 218 268 323 383
#     4  10  21  41  64  91 128 167 214 266 322 384
#     4  11  23  42  65  95 131 166 213 269 328 389
#     4  10  21  39  63  91 125 166 214 265 321 387
#     4   9  20  39  65  94 124 168 213 262 326 385
#     4  11  22  39  63  89 128 171 208 263 323 386
#
# _framework density 22.847757999999999
#
# number of rings (size 3 to 8) (size 9 to 14) (size 15 to 20)
#    0.000    1.714    0.000    5.143    0.000    0.000 
#    0.000   38.571    0.000    0.000    0.000    0.000 
#    0.000    0.000    0.000    0.000    0.000    0.000 
#
# Total GULP energy -77946.741063 kJ/mol
# GULP energy per Si atom -5567.624362 kJ/mol
# Density = 2.279576 g / cm^3
# Si number density = 22.847758 Si / 1000 Ang^3
#
#
#
# Elastic Constant Matrix: (Units=GPa)
#
#
# Indices 1 2 3 4 5 6 
#
# 1 64.5787 26.2259 43.2682 0.0000 4.1054 0.0000
# 2 26.2259 86.7535 35.0160 0.0000 -0.0321 0.0000
# 3 43.2682 35.0160 84.3377 0.0000 21.2315 0.0000
# 4 0.0000 0.0000 0.0000 30.8468 0.0000 4.3281
# 5 4.1054 -0.0321 21.2315 0.0000 46.0619 0.0000
# 6 0.0000 0.0000 0.0000 4.3281 0.0000 15.9942
#
#
#
# Elastic Compliance Matrix: (Units=1/GPa)
#
#
# Indices 1 2 3 4 5 6 
#
# 1 0.024634 -0.002378 -0.012554 0.000000 0.003589 0.000000
# 2 -0.002378 0.014456 -0.005473 0.000000 0.002745 0.000000
# 3 -0.012554 -0.005473 0.022953 0.000000 -0.009465 0.000000
# 4 0.000000 0.000000 0.000000 0.033698 0.000000 -0.009119
# 5 0.003589 0.002745 -0.009465 0.000000 0.025754 0.000000
# 6 0.000000 0.000000 0.000000 -0.009119 0.000000 0.064990
#
#
# Mechanical properties :
#
#
# Convention : Reuss Voigt Hill
#
# Bulk Modulus (GPa) = 47.09870 49.41001 48.25435
# Shear Modulus (GPa) = 21.33349 27.32456 24.32903
#
# Velocity S-wave (km/s) = 3.05900 3.46199 3.26672
# Velocity P-wave (km/s) = 5.75635 6.13622 5.94932
#
# Compressibility (1/GPa) = 0.02123201
#
# Stress axis : x y z
#
# Youngs Moduli (GPa) = 40.59396 69.17631 43.56786
#
# Poissons Ratio (x) = 0.16453 0.54697
# Poissons Ratio (y) = 0.09655 0.23843
# Poissons Ratio (z) = 0.50963 0.37857
#
# Static dielectric constant tensor:
#      x y z
#    x 1.919250 0.000000 0.036920 
#    y 0.000000 1.888270 0.000000 
#    z 0.036920 0.000000 1.865040 
# 
# From -- ./inp_files/17815.got.cif
#   From: 2010.05.17/outbox.cif.g08.bks.cpg/sg9_9_cif.got.tgz:17815.got - 2010.06.03 20:04:27.
