data_PCOD9136505
_publ_section_title
;
Structure prediction by ZEFSAII (Michael W. Deem and Ramdas Pophale) SiO2 
 PCOD9136505
Probable space group: C C
;
_chemical_formula_sum "Si O2"
_cell_formula_units_Z 32
_cell_length_a 13.750568
_cell_length_b 11.628931
_cell_length_c 16.426509
_cell_angle_alpha 90.000000
_cell_angle_beta 148.507833
_cell_angle_gamma 90.000000
_cell_volume 1372.125725
_symmetry_space_group_name_H-M "C C"
_symmetry_group_IT_number 9
_symmetry_cell_setting 'monoclinic'
loop_
_space_group_symop_operation_xyz
x,y,z
x,-y,1/2+z
1/2+x,1/2+y,z
1/2+x,1/2-y,1/2+z
loop_
_atom_site_type_symbol
_atom_site_label
_atom_site_fract_x
_atom_site_fract_y
_atom_site_fract_z
Si Si1 0.486160 0.257191 0.896170
Si Si2 0.340037 0.965351 0.369257
Si Si3 0.854053 0.339116 0.544664
Si Si4 0.521160 0.704181 0.912906
Si Si5 0.871725 0.153016 0.157832
Si Si6 0.487588 0.385186 0.568893
Si Si7 0.201143 0.580818 0.584973
Si Si8 0.780953 0.883751 0.891543
O O1 0.369055 0.139116 0.825859
O O2 0.516955 0.311263 0.829588
O O3 0.391015 0.348121 0.887879
O O4 0.692488 0.218157 0.066331
O O5 0.289005 0.910396 0.419295
O O6 0.185315 0.053643 0.228467
O O7 0.544081 0.020188 0.527317
O O8 0.704142 0.358104 0.508258
O O9 0.851004 0.207346 0.509449
O O10 0.061996 0.367897 0.720541
O O11 0.344650 0.659193 0.737220
O O12 0.493934 0.682902 0.989084
O O13 0.573735 0.837573 0.937961
O O14 0.932340 0.183762 0.110515
O O15 0.816785 0.018777 0.123229
O O16 0.338253 0.487369 0.452398
#
# Coordination Sequence:
#
# PCOD9136505 Si02
#       8
#     4   4   4   4   4   4   4   4
#     4  10  21  41  68  94 123 162 216 276 327 378
#     4  10  22  42  67  95 126 167 221 280 332 389
#     4  11  22  39  67  96 126 166 222 285 336 387
#     4  12  25  42  63  93 133 178 217 269 329 396
#     4  11  24  43  66  95 129 169 214 268 326 391
#     4  12  25  40  62  94 136 178 217 263 327 399
#     4  11  24  44  66  92 130 172 221 272 330 394
#     4  11  21  41  67  97 127 168 224 281 333 388
#
# _framework density 23.321477999999999
#
# number of rings (size 3 to 8) (size 9 to 14) (size 15 to 20)
#    0.000    1.000    0.000    9.000    0.000    4.000 
#    0.000    2.500    0.000    0.000    0.000    0.000 
#    0.000    0.000    0.000    0.000    0.000    0.000 
#
# Total GULP energy -89511.919074 kJ/mol
# GULP energy per Si atom -5594.494942 kJ/mol
# Density = 2.326840 g / cm^3
# Si number density = 23.321478 Si / 1000 Ang^3
#
#
#
# Elastic Constant Matrix: (Units=GPa)
#
#
# Indices 1 2 3 4 5 6 
#
# 1 121.2304 6.5673 22.9000 0.0003 -9.6992 0.0001
# 2 6.5673 31.8940 29.6460 0.0003 1.0068 0.0002
# 3 22.9000 29.6460 86.8667 0.0012 -0.1229 0.0005
# 4 0.0003 0.0003 0.0012 29.4316 0.0001 -3.1292
# 5 -9.6992 1.0068 -0.1229 0.0001 13.6441 0.0000
# 6 0.0001 0.0002 0.0005 -3.1292 0.0000 15.0779
#
#
#
# Elastic Compliance Matrix: (Units=1/GPa)
#
#
# Indices 1 2 3 4 5 6 
#
# 1 0.009231 0.000215 -0.002498 0.000000 0.006524 0.000000
# 2 0.000215 0.046097 -0.015793 0.000000 -0.003391 0.000000
# 3 -0.002498 -0.015793 0.017560 -0.000001 -0.000452 -0.000001
# 4 0.000000 0.000000 -0.000001 0.034744 0.000000 0.007211
# 5 0.006524 -0.003391 -0.000452 0.000000 0.078175 0.000000
# 6 0.000000 0.000000 -0.000001 0.007211 0.000000 0.067819
#
#
# Mechanical properties :
#
#
# Convention : Reuss Voigt Hill
#
# Bulk Modulus (GPa) = 27.22191 39.80196 33.51193
# Shear Modulus (GPa) = 16.55506 23.68925 20.12216
#
# Velocity S-wave (km/s) = 2.66722 3.19057 2.94056
# Velocity P-wave (km/s) = 4.60252 5.53866 5.09215
#
# Compressibility (1/GPa) = 0.03673511
#
# Stress axis : x y z
#
# Youngs Moduli (GPa) = 108.33273 21.69343 56.94860
#
# Poissons Ratio (x) = -0.00466 0.14223
# Poissons Ratio (y) = -0.02328 0.89942
# Poissons Ratio (z) = 0.27057 0.34261
#
# Static dielectric constant tensor:
#      x y z
#    x 1.885860 0.000000 -0.004440 
#    y 0.000000 1.897830 0.000000 
#    z -0.004440 0.000000 1.870110 
# 
# From -- ./inp_files/9100.got.cif
#   From: 2010.05.17/outbox.cif.g08.bks.cpg/sg9_5_cif.got.tgz:9100.got - 2010.06.03 20:04:27.
