data_PCOD9136134
_publ_section_title
;
Structure prediction by ZEFSAII (Michael W. Deem and Ramdas Pophale) SiO2 
 PCOD9136134
Probable space group: C C
;
_chemical_formula_sum "Si O2"
_cell_formula_units_Z 32
_cell_length_a 11.383582
_cell_length_b 8.980871
_cell_length_c 14.829015
_cell_angle_alpha 90.000000
_cell_angle_beta 123.583046
_cell_angle_gamma 90.000000
_cell_volume 1262.987331
_symmetry_space_group_name_H-M "C C"
_symmetry_group_IT_number 9
_symmetry_cell_setting 'monoclinic'
loop_
_space_group_symop_operation_xyz
x,y,z
x,-y,1/2+z
1/2+x,1/2+y,z
1/2+x,1/2-y,1/2+z
loop_
_atom_site_type_symbol
_atom_site_label
_atom_site_fract_x
_atom_site_fract_y
_atom_site_fract_z
Si Si1 0.819810 0.560968 0.396110
Si Si2 0.289891 0.133845 0.039238
Si Si3 0.544553 0.293564 0.201514
Si Si4 0.457144 0.376389 0.663443
Si Si5 0.252265 0.397349 0.413393
Si Si6 0.804341 0.915405 0.771470
Si Si7 0.443471 0.035560 0.263768
Si Si8 0.112977 0.659735 0.594855
O O1 0.743201 0.444314 0.428685
O O2 0.763401 0.727081 0.386091
O O3 0.839471 0.518559 0.301640
O O4 0.982812 0.569413 0.498772
O O5 0.424563 0.239720 0.079143
O O6 0.356459 0.008080 0.134668
O O7 0.178150 0.230289 0.047441
O O8 0.538717 0.468125 0.199895
O O9 0.484331 0.210872 0.265995
O O10 0.688277 0.209969 0.241649
O O11 0.318852 0.400188 0.541403
O O12 0.416754 0.346962 0.750123
O O13 0.548706 0.257254 0.648394
O O14 0.339980 0.503806 0.381289
O O15 0.091872 0.454590 0.339448
O O16 0.728121 0.047724 0.682967
#
# Coordination Sequence:
#
# PCOD9136134 Si02
#       8
#     4   4   4   4   4   4   4   4
#     4  11  20  38  63  88 122 165 198 254 306 352
#     4  10  21  39  63  90 121 158 206 247 300 366
#     4   9  20  39  64  87 122 162 201 249 301 364
#     4  11  23  38  66  93 123 162 203 257 308 355
#     4  10  22  36  65  93 119 158 211 249 302 368
#     4  11  20  45  65  84 128 167 202 250 308 364
#     4   9  20  37  64  87 116 165 203 240 307 364
#     4  11  22  38  64  92 125 163 208 248 302 365
#
# _framework density 25.336755
#
# number of rings (size 3 to 8) (size 9 to 14) (size 15 to 20)
#    0.750    1.000    2.500    2.250    0.000    2.000 
#    0.000    8.750    5.500    0.000    0.000    0.000 
#    0.000    0.000    0.000    0.000    0.000    0.000 
#
# Total GULP energy -89619.116833 kJ/mol
# GULP energy per Si atom -5601.194802 kJ/mol
# Density = 2.527909 g / cm^3
# Si number density = 25.336755 Si / 1000 Ang^3
#
#
#
# Elastic Constant Matrix: (Units=GPa)
#
#
# Indices 1 2 3 4 5 6 
#
# 1 119.6132 51.6346 22.9865 0.0000 -29.6041 0.0000
# 2 51.6346 83.3172 12.9223 0.0000 -15.6794 0.0000
# 3 22.9865 12.9223 97.6497 0.0000 -10.5585 0.0000
# 4 0.0000 0.0000 0.0000 36.5955 0.0000 -1.0483
# 5 -29.6041 -15.6794 -10.5585 0.0000 43.2801 0.0000
# 6 0.0000 0.0000 0.0000 -1.0483 0.0000 42.9482
#
#
#
# Elastic Compliance Matrix: (Units=1/GPa)
#
#
# Indices 1 2 3 4 5 6 
#
# 1 0.013067 -0.006707 -0.001525 0.000000 0.006136 0.000000
# 2 -0.006707 0.016469 -0.000464 0.000000 0.001266 0.000000
# 3 -0.001525 -0.000464 0.010815 0.000000 0.001427 0.000000
# 4 0.000000 0.000000 0.000000 0.027345 0.000000 0.000667
# 5 0.006136 0.001266 0.001427 0.000000 0.028109 0.000000
# 6 0.000000 0.000000 0.000000 0.000667 0.000000 0.023300
#
#
# Mechanical properties :
#
#
# Convention : Reuss Voigt Hill
#
# Bulk Modulus (GPa) = 43.55339 52.85187 48.20263
# Shear Modulus (GPa) = 34.68586 38.76721 36.72653
#
# Velocity S-wave (km/s) = 3.70401 3.91586 3.81141
# Velocity P-wave (km/s) = 5.95987 6.43043 6.19961
#
# Compressibility (1/GPa) = 0.02296033
#
# Stress axis : x y z
#
# Youngs Moduli (GPa) = 76.52648 60.72021 92.46106
#
# Poissons Ratio (x) = 0.40725 0.14100
# Poissons Ratio (y) = 0.51326 0.04288
# Poissons Ratio (z) = 0.11670 0.02816
#
# Static dielectric constant tensor:
#      x y z
#    x 1.981430 0.000000 0.039490 
#    y 0.000000 1.992980 0.000000 
#    z 0.039490 0.000000 2.073810 
# 
# From -- ./inp_files/29912.got.cif
#   From: 2010.05.17/outbox.cif.g08.bks.cpg/sg9_15_cif.got.tgz:29912.got - 2010.06.03 20:04:27.
