data_PCOD9136143
_publ_section_title
;
Structure prediction by ZEFSAII (Michael W. Deem and Ramdas Pophale) SiO2 
 PCOD9136143
Probable space group: C C
;
_chemical_formula_sum "Si O2"
_cell_formula_units_Z 32
_cell_length_a 5.377612
_cell_length_b 13.088032
_cell_length_c 20.438553
_cell_angle_alpha 90.000000
_cell_angle_beta 117.085740
_cell_angle_gamma 90.000000
_cell_volume 1280.746240
_symmetry_space_group_name_H-M "C C"
_symmetry_group_IT_number 9
_symmetry_cell_setting 'monoclinic'
loop_
_space_group_symop_operation_xyz
x,y,z
x,-y,1/2+z
1/2+x,1/2+y,z
1/2+x,1/2-y,1/2+z
loop_
_atom_site_type_symbol
_atom_site_label
_atom_site_fract_x
_atom_site_fract_y
_atom_site_fract_z
Si Si1 0.613410 0.137944 0.322990
Si Si2 0.299983 0.526306 0.942792
Si Si3 0.828143 0.406744 0.458151
Si Si4 0.337619 0.279310 0.054530
Si Si5 0.595482 0.101880 0.170207
Si Si6 0.920593 0.386232 0.092419
Si Si7 0.566489 0.249637 0.727747
Si Si8 0.441125 0.178235 0.843312
O O1 0.584794 0.087708 0.247514
O O2 0.357249 0.216440 0.293834
O O3 0.893746 0.205381 0.357642
O O4 0.635625 0.061696 0.385490
O O5 0.627584 0.515483 0.971715
O O6 0.150159 0.554180 0.992428
O O7 0.240178 0.629887 0.893855
O O8 0.811396 0.297433 0.490346
O O9 0.764994 0.391554 0.372908
O O10 0.417356 0.197651 0.121250
O O11 0.063172 0.340699 0.043728
O O12 0.597522 0.353904 0.067958
O O13 0.905792 0.144723 0.193112
O O14 0.500596 0.001458 0.121425
O O15 0.084927 0.320618 0.167799
O O16 0.391216 0.184512 0.760537
#
# Coordination Sequence:
#
# PCOD9136143 Si02
#       8
#     4   4   4   4   4   4   4   4
#     4  11  21  39  64  96 135 161 217 271 326 396
#     4  10  23  40  62  92 124 170 215 264 328 381
#     4  10  23  46  63  89 133 172 219 271 315 386
#     4  11  24  47  64  95 134 169 226 274 312 391
#     4  10  24  40  66  99 130 170 218 268 334 388
#     4  11  24  42  69  94 126 176 212 269 334 380
#     4  10  21  39  63  95 137 161 212 275 324 394
#     4   9  22  37  63  90 127 169 209 262 325 380
#
# _framework density 24.985431999999999
#
# number of rings (size 3 to 8) (size 9 to 14) (size 15 to 20)
#    0.750    1.000    1.250    2.250    5.250    1.000 
#    4.500    0.000    0.000    0.000    0.000    0.000 
#    0.000    0.000    0.000    0.000    0.000    0.000 
#
# Total GULP energy -89272.749839 kJ/mol
# GULP energy per Si atom -5579.546865 kJ/mol
# Density = 2.492856 g / cm^3
# Si number density = 24.985432 Si / 1000 Ang^3
#
#
#
# Elastic Constant Matrix: (Units=GPa)
#
#
# Indices 1 2 3 4 5 6 
#
# 1 104.5897 28.3807 5.1929 0.0000 -12.8532 0.0000
# 2 28.3807 69.5876 2.0613 0.0000 -13.9861 0.0000
# 3 5.1929 2.0613 36.7791 0.0000 -20.7006 0.0000
# 4 0.0000 0.0000 0.0000 48.3456 0.0000 -8.7621
# 5 -12.8532 -13.9861 -20.7006 0.0000 38.3504 0.0000
# 6 0.0000 0.0000 0.0000 -8.7621 0.0000 26.8082
#
#
#
# Elastic Compliance Matrix: (Units=1/GPa)
#
#
# Indices 1 2 3 4 5 6 
#
# 1 0.010920 -0.004022 -0.000118 0.000000 0.002129 0.000000
# 2 -0.004022 0.017277 0.003429 0.000000 0.006803 0.000000
# 3 -0.000118 0.003429 0.039781 0.000000 0.022684 0.000000
# 4 0.000000 0.000000 0.000000 0.021987 0.000000 0.007186
# 5 0.002129 0.006803 0.022684 0.000000 0.041514 0.000000
# 6 0.000000 0.000000 0.000000 0.007186 0.000000 0.039651
#
#
# Mechanical properties :
#
#
# Convention : Reuss Voigt Hill
#
# Bulk Modulus (GPa) = 15.02507 31.35846 23.19176
# Shear Modulus (GPa) = 25.67555 34.38893 30.03224
#
# Velocity S-wave (km/s) = 3.20913 3.71396 3.47073
# Velocity P-wave (km/s) = 4.44499 5.56500 5.03623
#
# Compressibility (1/GPa) = 0.06655544
#
# Stress axis : x y z
#
# Youngs Moduli (GPa) = 91.57385 57.88169 25.13749
#
# Poissons Ratio (x) = 0.23281 0.00296
# Poissons Ratio (y) = 0.36833 -0.08619
# Poissons Ratio (z) = 0.01080 -0.19847
#
# Static dielectric constant tensor:
#      x y z
#    x 2.105710 0.000000 -0.010750 
#    y 0.000000 1.932520 0.000000 
#    z -0.010750 0.000000 2.032540 
# 
# From -- ./inp_files/32190.got.cif
#   From: 2010.05.17/outbox.cif.g08.bks.cpg/sg9_17_cif.got.tgz:32190.got - 2010.06.03 20:04:27.
