data_PCOD9136123
_publ_section_title
;
Structure prediction by ZEFSAII (Michael W. Deem and Ramdas Pophale) SiO2 
 PCOD9136123
Probable space group: C C
;
_chemical_formula_sum "Si O2"
_cell_formula_units_Z 32
_cell_length_a 17.099749
_cell_length_b 9.258960
_cell_length_c 9.534203
_cell_angle_alpha 90.000000
_cell_angle_beta 88.754779
_cell_angle_gamma 90.000000
_cell_volume 1509.154713
_symmetry_space_group_name_H-M "C C"
_symmetry_group_IT_number 9
_symmetry_cell_setting 'monoclinic'
loop_
_space_group_symop_operation_xyz
x,y,z
x,-y,1/2+z
1/2+x,1/2+y,z
1/2+x,1/2-y,1/2+z
loop_
_atom_site_type_symbol
_atom_site_label
_atom_site_fract_x
_atom_site_fract_y
_atom_site_fract_z
Si Si1 0.837040 0.747398 0.956970
Si Si2 0.127839 0.633165 0.712707
Si Si3 0.901835 0.553286 0.416058
Si Si4 0.168107 0.656511 0.379810
Si Si5 0.783471 0.743271 0.270590
Si Si6 0.963077 0.270326 0.150932
Si Si7 0.516199 0.707125 0.850023
Si Si8 0.391710 0.515370 0.305930
O O1 0.888508 0.615354 0.896676
O O2 0.756224 0.784720 0.879650
O O3 0.882791 0.900084 0.954482
O O4 0.812190 0.703534 0.113919
O O5 0.144761 0.622322 0.543828
O O6 0.150529 0.484391 0.788044
O O7 0.190491 0.746398 0.771573
O O8 0.038276 0.681208 0.737702
O O9 0.822165 0.634957 0.378300
O O10 0.923941 0.592569 0.575280
O O11 0.969198 0.640865 0.327562
O O12 0.107078 0.773961 0.323158
O O13 0.821295 0.902226 0.295552
O O14 0.900119 0.156551 0.209537
O O15 0.002241 0.187840 0.016488
O O16 0.469425 0.578226 0.782539
#
# Coordination Sequence:
#
# PCOD9136123 Si02
#       8
#     4   4   4   4   4   4   4   4
#     4  11  23  36  64  90 118 165 208 253 318 370
#     4  10  21  39  62  90 128 168 203 260 320 373
#     4   9  22  39  59  89 122 163 202 260 306 363
#     4  10  21  41  61  89 126 164 209 255 317 376
#     4  10  22  40  60  89 129 158 210 262 309 374
#     4   9  21  36  61  85 125 159 205 258 303 370
#     4   8  20  39  57  83 124 157 199 259 302 363
#     4  11  20  36  62  89 120 158 210 249 311 365
#
# _framework density 21.203921999999999
#
# number of rings (size 3 to 8) (size 9 to 14) (size 15 to 20)
#    0.750    1.500    1.250    0.750    3.500    2.000 
#    0.000    1.250    0.000    0.000    0.000    0.000 
#    0.000    0.000    0.000    0.000    0.000    0.000 
#
# Total GULP energy -89112.921232 kJ/mol
# GULP energy per Si atom -5569.557577 kJ/mol
# Density = 2.115566 g / cm^3
# Si number density = 21.203922 Si / 1000 Ang^3
#
#
#
# Elastic Constant Matrix: (Units=GPa)
#
#
# Indices 1 2 3 4 5 6 
#
# 1 129.3587 49.9744 29.1285 0.0000 19.9363 0.0000
# 2 49.9744 108.9000 11.4494 0.0000 10.9688 0.0000
# 3 29.1285 11.4494 22.5095 0.0000 13.2127 0.0000
# 4 0.0000 0.0000 0.0000 28.3494 0.0000 6.1179
# 5 19.9363 10.9688 13.2127 0.0000 30.5128 0.0000
# 6 0.0000 0.0000 0.0000 6.1179 0.0000 24.6099
#
#
#
# Elastic Compliance Matrix: (Units=1/GPa)
#
#
# Indices 1 2 3 4 5 6 
#
# 1 0.012565 -0.004254 -0.013642 0.000000 -0.000773 0.000000
# 2 -0.004254 0.011217 0.000717 0.000000 -0.001563 0.000000
# 3 -0.013642 0.000717 0.075935 0.000000 -0.024226 0.000000
# 4 0.000000 0.000000 0.000000 0.037274 0.000000 -0.009266
# 5 -0.000773 -0.001563 -0.024226 0.000000 0.044330 0.000000
# 6 0.000000 0.000000 0.000000 -0.009266 0.000000 0.042938
#
#
# Mechanical properties :
#
#
# Convention : Reuss Voigt Hill
#
# Bulk Modulus (GPa) = 15.30025 49.09700 32.19863
# Shear Modulus (GPa) = 17.83150 28.04212 22.93681
#
# Velocity S-wave (km/s) = 2.90306 3.64056 3.29253
# Velocity P-wave (km/s) = 4.29750 6.39347 5.44725
#
# Compressibility (1/GPa) = 0.06535840
#
# Stress axis : x y z
#
# Youngs Moduli (GPa) = 79.58714 89.15091 13.16919
#
# Poissons Ratio (x) = 0.37924 0.17966
# Poissons Ratio (y) = 0.33855 -0.00944
# Poissons Ratio (z) = 1.08574 -0.06391
#
# Static dielectric constant tensor:
#      x y z
#    x 1.793380 0.000000 -0.035450 
#    y 0.000000 1.749840 0.000000 
#    z -0.035450 0.000000 1.841750 
# 
# From -- ./inp_files/19058.got.cif
#   From: 2010.05.17/outbox.cif.g08.bks.cpg/sg9_10_cif.got.tgz:19058.got - 2010.06.03 20:04:27.
