data_PCOD9136617
_publ_section_title
;
Structure prediction by ZEFSAII (Michael W. Deem and Ramdas Pophale) SiO2 
 PCOD9136617
Probable space group: C C
;
_chemical_formula_sum "Si O2"
_cell_formula_units_Z 32
_cell_length_a 9.968469
_cell_length_b 13.488998
_cell_length_c 10.088959
_cell_angle_alpha 90.000000
_cell_angle_beta 75.361061
_cell_angle_gamma 90.000000
_cell_volume 1312.569711
_symmetry_space_group_name_H-M "C C"
_symmetry_group_IT_number 9
_symmetry_cell_setting 'monoclinic'
loop_
_space_group_symop_operation_xyz
x,y,z
x,-y,1/2+z
1/2+x,1/2+y,z
1/2+x,1/2-y,1/2+z
loop_
_atom_site_type_symbol
_atom_site_label
_atom_site_fract_x
_atom_site_fract_y
_atom_site_fract_z
Si Si1 0.812240 0.017159 0.196140
Si Si2 0.994380 0.592980 0.290869
Si Si3 0.639286 0.408413 0.474198
Si Si4 0.931291 0.377949 0.347471
Si Si5 0.529393 0.230060 0.043850
Si Si6 0.571740 0.410652 0.185471
Si Si7 0.528164 0.203116 0.550830
Si Si8 0.333788 0.390045 0.957403
O O1 0.649212 0.044800 0.240425
O O2 0.860981 0.094585 0.295825
O O3 0.839585 0.995624 0.033698
O O4 0.902044 0.921183 0.226281
O O5 0.975535 0.658515 0.425847
O O6 0.908950 0.494026 0.329184
O O7 0.963634 0.657944 0.170170
O O8 0.787392 0.354443 0.454922
O O9 0.621271 0.428204 0.322207
O O10 0.621944 0.502099 0.574492
O O11 0.533812 0.320768 0.536966
O O12 0.056711 0.346107 0.414733
O O13 0.947916 0.328723 0.201596
O O14 0.620216 0.303625 0.115333
O O15 0.445228 0.314383 0.986361
O O16 0.680562 0.152002 0.523995
#
# Coordination Sequence:
#
# PCOD9136617 Si02
#       8
#     4   4   4   4   4   4   4   4
#     4  10  22  42  74  98 135 181 245 290 350 426
#     4  11  24  45  72 106 139 188 245 299 364 428
#     4  12  28  48  72 105 151 191 246 300 374 437
#     4  12  27  45  73 105 143 193 239 309 363 434
#     4  11  24  46  69 103 147 181 244 291 367 438
#     4  11  26  49  70 105 142 195 236 305 364 439
#     4  11  24  45  68 102 143 188 238 296 366 428
#     4  10  21  42  68 104 134 181 233 296 350 430
#
# _framework density 24.379657999999999
#
# number of rings (size 3 to 8) (size 9 to 14) (size 15 to 20)
#    0.000    1.000    3.750    2.250    8.750    0.000 
#    0.000    0.000    0.000    0.000    0.000    0.000 
#    0.000    0.000    0.000    0.000    0.000    0.000 
#
# Total GULP energy -89164.167170 kJ/mol
# GULP energy per Si atom -5572.760448 kJ/mol
# Density = 2.432417 g / cm^3
# Si number density = 24.379658 Si / 1000 Ang^3
#
#
#
# Elastic Constant Matrix: (Units=GPa)
#
#
# Indices 1 2 3 4 5 6 
#
# 1 43.1306 -7.3083 23.2473 0.0000 5.1110 0.0000
# 2 -7.3083 120.4395 82.2320 0.0000 -5.1092 0.0000
# 3 23.2473 82.2320 185.7156 0.0000 22.2033 0.0000
# 4 0.0000 0.0000 0.0000 56.0893 0.0000 11.3090
# 5 5.1110 -5.1092 22.2033 0.0000 28.1032 0.0000
# 6 0.0000 0.0000 0.0000 11.3090 0.0000 6.2526
#
#
#
# Elastic Compliance Matrix: (Units=1/GPa)
#
#
# Indices 1 2 3 4 5 6 
#
# 1 0.027393 0.005909 -0.006160 0.000000 0.000959 0.000000
# 2 0.005909 0.014562 -0.008145 0.000000 0.008008 0.000000
# 3 -0.006160 -0.008145 0.010828 0.000000 -0.008915 0.000000
# 4 0.000000 0.000000 0.000000 0.028063 0.000000 -0.050757
# 5 0.000959 0.008008 -0.008915 0.000000 0.043908 0.000000
# 6 0.000000 0.000000 0.000000 -0.050757 0.000000 0.251739
#
#
# Mechanical properties :
#
#
# Convention : Reuss Voigt Hill
#
# Bulk Modulus (GPa) = 27.78473 60.62532 44.20502
# Shear Modulus (GPa) = 12.33707 34.82999 23.58353
#
# Velocity S-wave (km/s) = 2.25197 3.78385 3.11359
# Velocity P-wave (km/s) = 4.26418 6.63409 5.57649
#
# Compressibility (1/GPa) = 0.03599100
#
# Stress axis : x y z
#
# Youngs Moduli (GPa) = 36.50549 68.67056 92.35324
#
# Poissons Ratio (x) = -0.40575 0.56889
# Poissons Ratio (y) = -0.21570 0.75221
# Poissons Ratio (z) = 0.22487 0.55932
#
# Static dielectric constant tensor:
#      x y z
#    x 2.026090 0.000000 -0.020260 
#    y 0.000000 1.974480 0.000000 
#    z -0.020260 0.000000 1.931440 
# 
# From -- ./inp_files/7424.got.cif
#   From: 2010.05.17/outbox.cif.g08.bks.cpg/sg9_4_cif.got.tgz:7424.got - 2010.06.03 20:04:27.
