data_PCOD9136931
_publ_section_title
;
Structure prediction by ZEFSAII (Michael W. Deem and Ramdas Pophale) SiO2 
 PCOD9136931
Probable space group: C C
;
_chemical_formula_sum "Si O2"
_cell_formula_units_Z 32
_cell_length_a 7.575254
_cell_length_b 31.740415
_cell_length_c 5.790356
_cell_angle_alpha 90.000000
_cell_angle_beta 69.643695
_cell_angle_gamma 90.000000
_cell_volume 1305.294076
_symmetry_space_group_name_H-M "C C"
_symmetry_group_IT_number 9
_symmetry_cell_setting 'monoclinic'
loop_
_space_group_symop_operation_xyz
x,y,z
x,-y,1/2+z
1/2+x,1/2+y,z
1/2+x,1/2-y,1/2+z
loop_
_atom_site_type_symbol
_atom_site_label
_atom_site_fract_x
_atom_site_fract_y
_atom_site_fract_z
Si Si1 0.878850 0.813711 0.170470
Si Si2 0.427165 0.518217 0.969854
Si Si3 0.980965 0.482897 0.640653
Si Si4 0.035212 0.888416 0.319321
Si Si5 0.890013 0.608539 0.333821
Si Si6 0.756810 0.733346 0.386936
Si Si7 0.574103 0.179599 0.476180
Si Si8 0.762957 0.327164 0.507979
O O1 0.759572 0.783663 0.395530
O O2 0.779724 0.809222 0.967858
O O3 0.893301 0.863165 0.216959
O O4 0.082348 0.791191 0.078263
O O5 0.497051 0.500854 0.685317
O O6 0.460398 0.568475 0.957488
O O7 0.204514 0.508947 0.052859
O O8 0.911140 0.497817 0.418971
O O9 0.943098 0.433499 0.680345
O O10 0.090952 0.850108 0.462240
O O11 0.230313 0.899641 0.098798
O O12 0.065711 0.634233 0.356336
O O13 0.799632 0.642105 0.204259
O O14 0.949623 0.714057 0.398783
O O15 0.739227 0.718803 0.127224
O O16 0.444046 0.172852 0.762699
#
# Coordination Sequence:
#
# PCOD9136931 Si02
#       8
#     4   4   4   4   4   4   4   4
#     4  12  25  45  71 100 143 191 244 298 374 433
#     4  10  25  46  71 106 152 189 248 311 374 452
#     4  10  24  43  69 105 142 193 242 305 377 451
#     4  11  25  44  71 106 141 190 242 303 369 444
#     4  10  23  44  69 101 142 180 244 297 366 439
#     4  11  25  46  64 102 140 184 242 296 365 433
#     4  10  24  44  69  99 137 188 234 302 354 438
#     4  10  21  46  66  97 143 179 232 308 353 440
#
# _framework density 24.515549
#
# number of rings (size 3 to 8) (size 9 to 14) (size 15 to 20)
#    0.000    1.500    3.750    0.750    8.750    5.000 
#    2.250    0.000    0.000    0.000    0.000    0.000 
#    0.000    0.000    0.000    0.000    0.000    0.000 
#
# Total GULP energy -89398.478530 kJ/mol
# GULP energy per Si atom -5587.404908 kJ/mol
# Density = 2.445975 g / cm^3
# Si number density = 24.515549 Si / 1000 Ang^3
#
#
#
# Elastic Constant Matrix: (Units=GPa)
#
#
# Indices 1 2 3 4 5 6 
#
# 1 80.4139 22.0307 25.3879 0.0000 1.6624 0.0000
# 2 22.0307 131.7657 32.2813 0.0000 10.5172 0.0000
# 3 25.3879 32.2813 90.8154 0.0000 6.7487 0.0000
# 4 0.0000 0.0000 0.0000 38.5950 0.0000 -9.4479
# 5 1.6624 10.5172 6.7487 0.0000 26.1424 0.0000
# 6 0.0000 0.0000 0.0000 -9.4479 0.0000 19.3883
#
#
#
# Elastic Compliance Matrix: (Units=1/GPa)
#
#
# Indices 1 2 3 4 5 6 
#
# 1 0.013916 -0.001546 -0.003386 0.000000 0.000611 0.000000
# 2 -0.001546 0.008666 -0.002444 0.000000 -0.002757 0.000000
# 3 -0.003386 -0.002444 0.012987 0.000000 -0.002154 0.000000
# 4 0.000000 0.000000 0.000000 0.029419 0.000000 0.014336
# 5 0.000611 -0.002757 -0.002154 0.000000 0.039879 0.000000
# 6 0.000000 0.000000 0.000000 0.014336 0.000000 0.058563
#
#
# Mechanical properties :
#
#
# Convention : Reuss Voigt Hill
#
# Bulk Modulus (GPa) = 48.03608 51.37720 49.70664
# Shear Modulus (GPa) = 27.00951 31.71149 29.36050
#
# Velocity S-wave (km/s) = 3.32283 3.60046 3.46443
# Velocity P-wave (km/s) = 5.86159 6.18764 6.02682
#
# Compressibility (1/GPa) = 0.02081768
#
# Stress axis : x y z
#
# Youngs Moduli (GPa) = 71.86191 115.38803 77.00250
#
# Poissons Ratio (x) = 0.17837 0.26074
# Poissons Ratio (y) = 0.11109 0.18816
# Poissons Ratio (z) = 0.24333 0.28195
#
# Static dielectric constant tensor:
#      x y z
#    x 1.988870 0.000000 0.034480 
#    y 0.000000 1.868030 0.000000 
#    z 0.034480 0.000000 2.053440 
# 
# From -- ./inp_files/1393.got.cif
#   From: 2010.05.17/outbox.cif.g08.bks.cpg/sg9_1_cif.got.tgz:1393.got - 2010.06.03 20:04:27.
