data_PCOD9136654
_publ_section_title
;
Structure prediction by ZEFSAII (Michael W. Deem and Ramdas Pophale) SiO2 
 PCOD9136654
Probable space group: C C
;
_chemical_formula_sum "Si O2"
_cell_formula_units_Z 28
_cell_length_a 13.648073
_cell_length_b 11.912717
_cell_length_c 9.624063
_cell_angle_alpha 90.000000
_cell_angle_beta 50.075112
_cell_angle_gamma 90.000000
_cell_volume 1199.973574
_symmetry_space_group_name_H-M "C C"
_symmetry_group_IT_number 9
_symmetry_cell_setting 'monoclinic'
loop_
_space_group_symop_operation_xyz
x,y,z
x,-y,1/2+z
1/2+x,1/2+y,z
1/2+x,1/2-y,1/2+z
loop_
_atom_site_type_symbol
_atom_site_label
_atom_site_fract_x
_atom_site_fract_y
_atom_site_fract_z
Si Si1 0.306690 0.813148 0.711100
Si Si2 0.003065 0.462468 0.374844
Si Si3 0.601829 0.488964 0.343899
Si Si4 0.866319 0.869750 0.948489
Si Si5 0.810921 0.328666 0.031012
Si Si6 0.140292 0.421865 0.969981
Si Si7 0.488664 0.708798 0.081964
O O1 0.435545 0.867237 0.528908
O O2 0.291168 0.701027 0.633764
O O3 0.199067 0.909234 0.786652
O O4 0.313216 0.789933 0.869186
O O5 0.907923 0.567912 0.463326
O O6 0.035627 0.446916 0.184452
O O7 0.126004 0.501272 0.349862
O O8 0.475289 0.547827 0.401755
O O9 0.676004 0.391464 0.188095
O O10 0.550184 0.414451 0.518159
O O11 0.931702 0.778997 0.786678
O O12 0.771560 0.931567 0.930004
O O13 0.875533 0.235669 0.074222
O O14 0.103893 0.296113 0.958013
#
# Coordination Sequence:
#
# PCOD9136654 Si02
#       7
#     4   4   4   4   4   4   4
#     4  11  23  44  72 102 139 186 239 295 353 425
#     4  10  21  42  70  99 135 184 235 291 354 421
#     4  11  26  46  72 106 145 189 241 299 357 426
#     4  12  26  43  69 103 143 188 233 294 360 425
#     4  10  23  44  73 101 139 186 240 293 358 423
#     4  11  23  43  69 101 139 184 236 291 359 430
#     4  11  24  46  71 104 140 187 240 293 363 426
#
# _framework density 23.333846000000001
#
# number of rings (size 3 to 8) (size 9 to 14) (size 15 to 20)
#    0.000    1.143    2.857    2.571    2.000    3.429 
#    0.000    0.000    0.000    0.000    0.000    0.000 
#    0.000    0.000    0.000    0.000    0.000    0.000 
#
# Total GULP energy -78175.811374 kJ/mol
# GULP energy per Si atom -5583.986527 kJ/mol
# Density = 2.328074 g / cm^3
# Si number density = 23.333846 Si / 1000 Ang^3
#
#
#
# Elastic Constant Matrix: (Units=GPa)
#
#
# Indices 1 2 3 4 5 6 
#
# 1 94.5391 35.3553 14.6806 0.0000 4.9593 0.0000
# 2 35.3553 78.2177 35.8730 0.0000 4.9112 0.0000
# 3 14.6806 35.8730 94.4807 0.0000 18.5174 0.0000
# 4 0.0000 0.0000 0.0000 32.4164 0.0000 2.5636
# 5 4.9593 4.9112 18.5174 0.0000 36.5213 0.0000
# 6 0.0000 0.0000 0.0000 2.5636 0.0000 30.5520
#
#
#
# Elastic Compliance Matrix: (Units=1/GPa)
#
#
# Indices 1 2 3 4 5 6 
#
# 1 0.012781 -0.005931 0.000500 0.000000 -0.001191 0.000000
# 2 -0.005931 0.018266 -0.006318 0.000000 0.001553 0.000000
# 3 0.000500 -0.006318 0.014159 0.000000 -0.006397 0.000000
# 4 0.000000 0.000000 0.000000 0.031055 0.000000 -0.002606
# 5 -0.001191 0.001553 -0.006397 0.000000 0.030578 0.000000
# 6 0.000000 0.000000 0.000000 -0.002606 0.000000 0.032950
#
#
# Mechanical properties :
#
#
# Convention : Reuss Voigt Hill
#
# Bulk Modulus (GPa) = 46.06920 48.78394 47.42657
# Shear Modulus (GPa) = 29.32150 31.98651 30.65401
#
# Velocity S-wave (km/s) = 3.54871 3.70648 3.62845
# Velocity P-wave (km/s) = 6.04794 6.26655 6.15821
#
# Compressibility (1/GPa) = 0.02170648
#
# Stress axis : x y z
#
# Youngs Moduli (GPa) = 78.24279 54.74647 70.62536
#
# Poissons Ratio (x) = 0.32472 -0.03529
# Poissons Ratio (y) = 0.46409 0.44621
# Poissons Ratio (z) = -0.03909 0.34589
#
# Static dielectric constant tensor:
#      x y z
#    x 1.873380 0.000000 -0.046370 
#    y 0.000000 1.896580 0.000000 
#    z -0.046370 0.000000 1.888320 
# 
# From -- ./inp_files/7642.got.cif
#   From: 2010.05.17/outbox.cif.g08.bks.cpg/sg9_4_cif.got.tgz:7642.got - 2010.06.03 20:04:27.
