data_PCOD9136328
_publ_section_title
;
Structure prediction by ZEFSAII (Michael W. Deem and Ramdas Pophale) SiO2 
 PCOD9136328
Probable space group: C C
;
_chemical_formula_sum "Si O2"
_cell_formula_units_Z 32
_cell_length_a 26.060930
_cell_length_b 7.563297
_cell_length_c 9.371713
_cell_angle_alpha 90.000000
_cell_angle_beta 128.733999
_cell_angle_gamma 90.000000
_cell_volume 1440.945777
_symmetry_space_group_name_H-M "C C"
_symmetry_group_IT_number 9
_symmetry_cell_setting 'monoclinic'
loop_
_space_group_symop_operation_xyz
x,y,z
x,-y,1/2+z
1/2+x,1/2+y,z
1/2+x,1/2-y,1/2+z
loop_
_atom_site_type_symbol
_atom_site_label
_atom_site_fract_x
_atom_site_fract_y
_atom_site_fract_z
Si Si1 0.647910 0.401460 0.097540
Si Si2 0.217069 0.582801 0.058502
Si Si3 0.498523 0.358878 0.820708
Si Si4 0.405693 0.177502 0.464412
Si Si5 0.477941 0.817883 0.572636
Si Si6 0.129844 0.233468 0.885414
Si Si7 0.798565 0.866873 0.427789
Si Si8 0.407863 0.639582 0.689395
O O1 0.694163 0.253968 0.107450
O O2 0.646333 0.367240 0.264976
O O3 0.574194 0.354335 0.916827
O O4 0.656389 0.602753 0.056311
O O5 0.270737 0.477164 0.245866
O O6 0.243367 0.651960 0.952213
O O7 0.162298 0.428500 0.941794
O O8 0.451465 0.333218 0.605268
O O9 0.476616 0.544902 0.850227
O O10 0.480839 0.215325 0.909401
O O11 0.338329 0.196623 0.437595
O O12 0.391372 0.209980 0.273873
O O13 0.453830 0.013281 0.563401
O O14 0.550832 0.764735 0.753792
O O15 0.421517 0.708962 0.555204
O O16 0.851993 0.993481 0.595739
#
# Coordination Sequence:
#
# PCOD9136328 Si02
#       8
#     4   4   4   4   4   4   4   4
#     4  11  25  44  73 103 143 192 237 301 361 429
#     4  12  25  51  71 101 146 194 248 297 361 432
#     4  10  21  40  66  99 135 174 223 287 359 422
#     4  11  23  40  67 100 133 184 225 293 355 419
#     4  11  23  42  67 106 136 171 237 295 363 429
#     4  11  26  46  73 113 142 192 245 300 366 441
#     4  11  25  47  69  96 139 192 240 294 354 429
#     4  11  22  42  68  96 136 179 225 285 361 425
#
# _framework density 22.207636000000001
#
# number of rings (size 3 to 8) (size 9 to 14) (size 15 to 20)
#    0.000    1.000    3.750    3.000    5.250    1.000 
#    4.500    0.000    0.000    0.000    0.000    0.000 
#    0.000    0.000    0.000    0.000    0.000    0.000 
#
# Total GULP energy -89291.483341 kJ/mol
# GULP energy per Si atom -5580.717709 kJ/mol
# Density = 2.215709 g / cm^3
# Si number density = 22.207636 Si / 1000 Ang^3
#
#
#
# Elastic Constant Matrix: (Units=GPa)
#
#
# Indices 1 2 3 4 5 6 
#
# 1 108.4238 32.1527 14.3929 0.0000 -21.0473 0.0000
# 2 32.1527 78.7497 2.5460 0.0000 -19.0098 0.0000
# 3 14.3929 2.5460 49.1007 0.0000 -6.0147 0.0000
# 4 0.0000 0.0000 0.0000 9.9757 0.0000 -8.7033
# 5 -21.0473 -19.0098 -6.0147 0.0000 20.3335 0.0000
# 6 0.0000 0.0000 0.0000 -8.7033 0.0000 35.0984
#
#
#
# Elastic Compliance Matrix: (Units=1/GPa)
#
#
# Indices 1 2 3 4 5 6 
#
# 1 0.012129 -0.002596 -0.002262 0.000000 0.009459 0.000000
# 2 -0.002596 0.017009 0.001554 0.000000 0.013675 0.000000
# 3 -0.002262 0.001554 0.021624 0.000000 0.005508 0.000000
# 4 0.000000 0.000000 0.000000 0.127918 0.000000 0.031720
# 5 0.009459 0.013675 0.005508 0.000000 0.073385 0.000000
# 6 0.000000 0.000000 0.000000 0.031720 0.000000 0.036357
#
#
# Mechanical properties :
#
#
# Convention : Reuss Voigt Hill
#
# Bulk Modulus (GPa) = 22.64793 37.16193 29.90493
# Shear Modulus (GPa) = 16.14221 25.56036 20.85129
#
# Velocity S-wave (km/s) = 2.69899 3.39628 3.06751
# Velocity P-wave (km/s) = 4.46465 5.67008 5.10308
#
# Compressibility (1/GPa) = 0.04415414
#
# Stress axis : x y z
#
# Youngs Moduli (GPa) = 82.44459 58.79240 46.24596
#
# Poissons Ratio (x) = 0.15261 0.10462
# Poissons Ratio (y) = 0.21400 -0.07187
# Poissons Ratio (z) = 0.18650 -0.09136
#
# Static dielectric constant tensor:
#      x y z
#    x 1.832080 0.000000 0.003690 
#    y 0.000000 1.908090 0.000000 
#    z 0.003690 0.000000 1.815190 
# 
# From -- ./inp_files/12070.got.cif
#   From: 2010.05.17/outbox.cif.g08.bks.cpg/sg9_7_cif.got.tgz:12070.got - 2010.06.03 20:04:27.
