data_PCOD9136799
_publ_section_title
;
Structure prediction by ZEFSAII (Michael W. Deem and Ramdas Pophale) SiO2 
 PCOD9136799
Probable space group: C C
;
_chemical_formula_sum "Si O2"
_cell_formula_units_Z 32
_cell_length_a 8.777426
_cell_length_b 10.069343
_cell_length_c 19.562258
_cell_angle_alpha 90.000000
_cell_angle_beta 47.828106
_cell_angle_gamma 90.000000
_cell_volume 1281.397994
_symmetry_space_group_name_H-M "C C"
_symmetry_group_IT_number 9
_symmetry_cell_setting 'monoclinic'
loop_
_space_group_symop_operation_xyz
x,y,z
x,-y,1/2+z
1/2+x,1/2+y,z
1/2+x,1/2-y,1/2+z
loop_
_atom_site_type_symbol
_atom_site_label
_atom_site_fract_x
_atom_site_fract_y
_atom_site_fract_z
Si Si1 0.995540 0.187586 0.263120
Si Si2 0.722504 0.243917 0.978542
Si Si3 0.216846 0.814334 0.837780
Si Si4 0.796834 0.136833 0.603095
Si Si5 0.787897 0.411376 0.384586
Si Si6 0.674734 0.843005 0.644477
Si Si7 0.089486 0.559467 0.387758
Si Si8 0.563718 0.815949 0.034891
O O1 0.866614 0.323778 0.297961
O O2 0.828855 0.076674 0.296383
O O3 0.059043 0.179442 0.323104
O O4 0.199014 0.225504 0.161823
O O5 0.692848 0.208375 0.907181
O O6 0.947003 0.311220 0.911656
O O7 0.537564 0.349542 0.045303
O O8 0.701689 0.157879 0.053458
O O9 0.445363 0.807436 0.737248
O O10 0.195150 0.956729 0.881179
O O11 0.713263 0.145532 0.551021
O O12 0.725556 0.993431 0.652671
O O13 0.646798 0.317349 0.472803
O O14 0.977636 0.452303 0.375449
O O15 0.834626 0.731790 0.624179
O O16 0.064706 0.568715 0.477328
#
# Coordination Sequence:
#
# PCOD9136799 Si02
#       8
#     4   4   4   4   4   4   4   4
#     4  11  23  40  65  98 130 170 220 272 324 397
#     4  10  22  42  69  96 131 176 222 274 328 392
#     4  11  22  42  69  94 132 174 219 272 331 388
#     4  12  24  41  67  97 137 174 218 275 332 392
#     4  10  21  44  65  90 127 173 214 268 335 385
#     4  11  23  44  66  97 133 176 220 272 338 389
#     4   9  21  41  64  93 124 167 223 263 328 391
#     4  10  24  40  65  95 130 168 220 270 324 396
#
# _framework density 24.972726999999999
#
# number of rings (size 3 to 8) (size 9 to 14) (size 15 to 20)
#    0.000    1.500    2.500    3.000    3.500    2.000 
#    0.000    8.750    0.000    0.000    0.000    0.000 
#    0.000    0.000    0.000    0.000    0.000    0.000 
#
# Total GULP energy -89331.127960 kJ/mol
# GULP energy per Si atom -5583.195498 kJ/mol
# Density = 2.491589 g / cm^3
# Si number density = 24.972727 Si / 1000 Ang^3
#
#
#
# Elastic Constant Matrix: (Units=GPa)
#
#
# Indices 1 2 3 4 5 6 
#
# 1 128.3260 24.6987 11.2466 0.0000 6.4327 0.0000
# 2 24.6987 62.1127 7.9945 0.0000 -2.4891 0.0000
# 3 11.2466 7.9945 67.7226 0.0000 -6.7643 0.0000
# 4 0.0000 0.0000 0.0000 21.1900 0.0000 5.7970
# 5 6.4327 -2.4891 -6.7643 0.0000 52.3456 0.0000
# 6 0.0000 0.0000 0.0000 5.7970 0.0000 32.5201
#
#
#
# Elastic Compliance Matrix: (Units=1/GPa)
#
#
# Indices 1 2 3 4 5 6 
#
# 1 0.008604 -0.003325 -0.001173 0.000000 -0.001367 0.000000
# 2 -0.003325 0.017648 -0.001425 0.000000 0.001064 0.000000
# 3 -0.001173 -0.001425 0.015335 0.000000 0.002058 0.000000
# 4 0.000000 0.000000 0.000000 0.049611 0.000000 -0.008844
# 5 -0.001367 0.001064 0.002058 0.000000 0.019588 0.000000
# 6 0.000000 0.000000 0.000000 -0.008844 0.000000 0.032327
#
#
# Mechanical properties :
#
#
# Convention : Reuss Voigt Hill
#
# Bulk Modulus (GPa) = 33.62372 38.44897 36.03634
# Shear Modulus (GPa) = 30.32651 35.49260 32.90955
#
# Velocity S-wave (km/s) = 3.48858 3.77404 3.63412
# Velocity P-wave (km/s) = 5.45164 5.86694 5.66310
#
# Compressibility (1/GPa) = 0.02974091
#
# Stress axis : x y z
#
# Youngs Moduli (GPa) = 116.22572 56.66363 65.21175
#
# Poissons Ratio (x) = 0.18841 0.07648
# Poissons Ratio (y) = 0.38646 0.09292
# Poissons Ratio (z) = 0.13632 0.08074
#
# Static dielectric constant tensor:
#      x y z
#    x 1.982470 0.000000 -0.006430 
#    y 0.000000 1.996070 0.000000 
#    z -0.006430 0.000000 2.053160 
# 
# From -- ./inp_files/22723.got.cif
#   From: 2010.05.17/outbox.cif.g08.bks.cpg/sg9_12_cif.got.tgz:22723.got - 2010.06.03 20:04:27.
