data_PCOD9136875
_publ_section_title
;
Structure prediction by ZEFSAII (Michael W. Deem and Ramdas Pophale) SiO2 
 PCOD9136875
Probable space group: C C
;
_chemical_formula_sum "Si O2"
_cell_formula_units_Z 28
_cell_length_a 5.671955
_cell_length_b 21.646095
_cell_length_c 10.623658
_cell_angle_alpha 90.000000
_cell_angle_beta 66.696920
_cell_angle_gamma 90.000000
_cell_volume 1197.926495
_symmetry_space_group_name_H-M "C C"
_symmetry_group_IT_number 9
_symmetry_cell_setting 'monoclinic'
loop_
_space_group_symop_operation_xyz
x,y,z
x,-y,1/2+z
1/2+x,1/2+y,z
1/2+x,1/2-y,1/2+z
loop_
_atom_site_type_symbol
_atom_site_label
_atom_site_fract_x
_atom_site_fract_y
_atom_site_fract_z
Si Si1 0.166180 0.718460 0.586340
Si Si2 0.352170 0.452965 0.544772
Si Si3 0.317990 0.620914 0.813887
Si Si4 0.292767 0.852032 0.486918
Si Si5 0.442433 0.873576 0.748398
Si Si6 0.557069 0.263494 0.245069
Si Si7 0.456110 0.403401 0.018463
O O1 0.230522 0.779212 0.490619
O O2 0.360205 0.729356 0.665994
O O3 0.258042 0.650957 0.520193
O O4 0.857685 0.722424 0.663642
O O5 0.287803 0.434698 0.415307
O O6 0.596915 0.408606 0.514331
O O7 0.369387 0.526019 0.539069
O O8 0.152672 0.427156 0.689907
O O9 0.429491 0.682428 0.856538
O O10 0.499656 0.607940 0.658418
O O11 0.025259 0.635814 0.841196
O O12 0.378619 0.859506 0.615375
O O13 0.535920 0.808228 0.785830
O O14 0.201315 0.895283 0.879184
#
# Coordination Sequence:
#
# PCOD9136875 Si02
#       7
#     4   4   4   4   4   4   4
#     4  10  22  45  71 110 143 190 246 309 367 442
#     4  11  25  45  72  98 150 201 237 309 383 455
#     4  10  25  44  69 103 139 189 243 306 372 441
#     4  10  22  46  73  98 143 191 242 296 379 438
#     4  10  23  47  68 107 142 191 248 303 372 447
#     4  10  21  44  75 106 144 186 250 308 373 437
#     4  11  26  45  70 110 145 192 256 309 372 456
#
# _framework density 23.373719999999999
#
# number of rings (size 3 to 8) (size 9 to 14) (size 15 to 20)
#    0.000    1.714    1.429    0.857    8.000    1.143 
#   12.857    0.000    0.000    0.000    0.000    0.000 
#    0.000    0.000    0.000    0.000    0.000    0.000 
#
# Total GULP energy -78063.677273 kJ/mol
# GULP energy per Si atom -5575.976948 kJ/mol
# Density = 2.332052 g / cm^3
# Si number density = 23.373720 Si / 1000 Ang^3
#
#
#
# Elastic Constant Matrix: (Units=GPa)
#
#
# Indices 1 2 3 4 5 6 
#
# 1 87.2814 48.7529 23.0757 0.0000 -25.0199 0.0000
# 2 48.7529 224.0978 31.9887 0.0000 -18.5670 0.0000
# 3 23.0757 31.9887 101.9757 0.0000 -26.8808 0.0000
# 4 0.0000 0.0000 0.0000 20.9646 0.0000 5.5965
# 5 -25.0199 -18.5670 -26.8808 0.0000 48.7086 0.0000
# 6 0.0000 0.0000 0.0000 5.5965 0.0000 21.5260
#
#
#
# Elastic Compliance Matrix: (Units=1/GPa)
#
#
# Indices 1 2 3 4 5 6 
#
# 1 0.014924 -0.002603 -0.000938 0.000000 0.006156 0.000000
# 2 -0.002603 0.005180 -0.001016 0.000000 0.000077 0.000000
# 3 -0.000938 -0.001016 0.011829 0.000000 0.005659 0.000000
# 4 0.000000 0.000000 0.000000 0.051257 0.000000 -0.013326
# 5 0.006156 0.000077 0.005659 0.000000 0.026845 0.000000
# 6 0.000000 0.000000 0.000000 -0.013326 0.000000 0.049920
#
#
# Mechanical properties :
#
#
# Convention : Reuss Voigt Hill
#
# Bulk Modulus (GPa) = 43.82118 68.99883 56.41000
# Shear Modulus (GPa) = 28.30083 38.87569 33.58826
#
# Velocity S-wave (km/s) = 3.48343 4.08269 3.79490
# Velocity P-wave (km/s) = 5.91335 7.19780 6.58696
#
# Compressibility (1/GPa) = 0.02282002
#
# Stress axis : x y z
#
# Youngs Moduli (GPa) = 67.00783 193.05281 84.53949
#
# Poissons Ratio (x) = 0.50247 0.07928
# Poissons Ratio (y) = 0.17440 0.08586
# Poissons Ratio (z) = 0.06284 0.19606
#
# Static dielectric constant tensor:
#      x y z
#    x 2.024530 0.000000 0.087240 
#    y 0.000000 1.916210 0.000000 
#    z 0.087240 0.000000 1.899890 
# 
# From -- ./inp_files/13282.got.cif
#   From: 2010.05.17/outbox.cif.g08.bks.cpg/sg9_7_cif.got.tgz:13282.got - 2010.06.03 20:04:27.
