data_PCOD9136662
_publ_section_title
;
Structure prediction by ZEFSAII (Michael W. Deem and Ramdas Pophale) SiO2 
 PCOD9136662
Probable space group: C C
;
_chemical_formula_sum "Si O2"
_cell_formula_units_Z 28
_cell_length_a 9.541855
_cell_length_b 28.798820
_cell_length_c 4.950632
_cell_angle_alpha 90.000000
_cell_angle_beta 59.315609
_cell_angle_gamma 90.000000
_cell_volume 1169.936315
_symmetry_space_group_name_H-M "C C"
_symmetry_group_IT_number 9
_symmetry_cell_setting 'monoclinic'
loop_
_space_group_symop_operation_xyz
x,y,z
x,-y,1/2+z
1/2+x,1/2+y,z
1/2+x,1/2-y,1/2+z
loop_
_atom_site_type_symbol
_atom_site_label
_atom_site_fract_x
_atom_site_fract_y
_atom_site_fract_z
Si Si1 0.032160 0.722751 0.845840
Si Si2 0.445300 0.089090 0.782021
Si Si3 0.535787 0.320213 0.052385
Si Si4 0.765838 0.967583 0.819964
Si Si5 0.374873 0.856100 0.855154
Si Si6 0.119703 0.968934 0.597291
Si Si7 0.351087 0.301764 0.746824
O O1 0.172141 0.697823 0.539913
O O2 0.912283 0.749203 0.754544
O O3 0.100458 0.767284 0.947106
O O4 0.950773 0.689009 0.140232
O O5 0.613469 0.064747 0.537697
O O6 0.418753 0.133991 0.619113
O O7 0.285035 0.058487 0.879557
O O8 0.439675 0.102379 0.101715
O O9 0.887528 0.183975 0.908158
O O10 0.680803 0.351728 0.010660
O O11 0.466008 0.332529 0.828787
O O12 0.944893 0.946114 0.699597
O O13 0.756469 0.987734 0.527997
O O14 0.120655 0.985547 0.905371
#
# Coordination Sequence:
#
# PCOD9136662 Si02
#       7
#     4   4   4   4   4   4   4
#     4  10  23  40  62  88 113 167 226 274 322 388
#     4  12  25  42  64 102 142 171 203 273 343 384
#     4  10  22  41  60  87 111 168 221 269 314 386
#     4  10  21  42  72 101 132 171 219 255 299 402
#     4  12  26  42  63  92 138 168 216 280 338 380
#     4  10  21  42  74 100 128 177 218 250 305 401
#     4  10  22  35  67  80 114 148 235 275 309 377
#
# _framework density 23.932925000000001
#
# number of rings (size 3 to 8) (size 9 to 14) (size 15 to 20)
#    0.857    0.571    1.429    3.429    6.000    0.000 
#    7.714    0.000    0.000    0.000    0.000    0.000 
#    0.000    0.000    0.000    0.000    0.000    0.000 
#
# Total GULP energy -78302.637310 kJ/mol
# GULP energy per Si atom -5593.045522 kJ/mol
# Density = 2.387845 g / cm^3
# Si number density = 23.932925 Si / 1000 Ang^3
#
#
#
# Elastic Constant Matrix: (Units=GPa)
#
#
# Indices 1 2 3 4 5 6 
#
# 1 79.9115 22.8055 16.5845 0.0000 -27.2450 0.0000
# 2 22.8055 36.5098 1.5195 0.0000 -11.1780 0.0000
# 3 16.5845 1.5195 107.5777 0.0000 -8.6293 0.0000
# 4 0.0000 0.0000 0.0000 17.1332 0.0000 8.3296
# 5 -27.2450 -11.1780 -8.6293 0.0000 43.2311 0.0000
# 6 0.0000 0.0000 0.0000 8.3296 0.0000 8.6853
#
#
#
# Elastic Compliance Matrix: (Units=1/GPa)
#
#
# Indices 1 2 3 4 5 6 
#
# 1 0.018482 -0.008707 -0.002005 0.000000 0.008996 0.000000
# 2 -0.008707 0.033851 0.001144 0.000000 0.003494 0.000000
# 3 -0.002005 0.001144 0.009666 0.000000 0.000962 0.000000
# 4 0.000000 0.000000 0.000000 0.109351 0.000000 -0.104872
# 5 0.008996 0.003494 0.000962 0.000000 0.029896 0.000000
# 6 0.000000 0.000000 0.000000 -0.104872 0.000000 0.215714
#
#
# Mechanical properties :
#
#
# Convention : Reuss Voigt Hill
#
# Bulk Modulus (GPa) = 23.32959 33.97978 28.65469
# Shear Modulus (GPa) = 11.10171 26.01591 18.55881
#
# Velocity S-wave (km/s) = 2.15610 3.30060 2.78771
# Velocity P-wave (km/s) = 3.99592 5.36228 4.72871
#
# Compressibility (1/GPa) = 0.04286402
#
# Stress axis : x y z
#
# Youngs Moduli (GPa) = 54.10741 29.54164 103.45930
#
# Poissons Ratio (x) = 0.25721 0.20739
# Poissons Ratio (y) = 0.47110 -0.11840
# Poissons Ratio (z) = 0.10846 -0.03381
#
# Static dielectric constant tensor:
#      x y z
#    x 1.909490 0.000000 -0.020320 
#    y 0.000000 1.945180 0.000000 
#    z -0.020320 0.000000 1.831870 
# 
# From -- ./inp_files/1348.got.cif
#   From: 2010.05.17/outbox.cif.g08.bks.cpg/sg9_1_cif.got.tgz:1348.got - 2010.06.03 20:04:27.
