data_PCOD9136011
_publ_section_title
;
Structure prediction by ZEFSAII (Michael W. Deem and Ramdas Pophale) SiO2 
 PCOD9136011
Probable space group: C C
;
_chemical_formula_sum "Si O2"
_cell_formula_units_Z 32
_cell_length_a 12.792372
_cell_length_b 21.932080
_cell_length_c 13.353822
_cell_angle_alpha 90.000000
_cell_angle_beta 157.838593
_cell_angle_gamma 90.000000
_cell_volume 1413.278682
_symmetry_space_group_name_H-M "C C"
_symmetry_group_IT_number 9
_symmetry_cell_setting 'monoclinic'
loop_
_space_group_symop_operation_xyz
x,y,z
x,-y,1/2+z
1/2+x,1/2+y,z
1/2+x,1/2-y,1/2+z
loop_
_atom_site_type_symbol
_atom_site_label
_atom_site_fract_x
_atom_site_fract_y
_atom_site_fract_z
Si Si1 0.918760 0.794551 0.250000
Si Si2 0.856892 0.619690 0.094253
Si Si3 0.338406 0.977482 0.112649
Si Si4 0.688050 0.502873 0.208187
Si Si5 0.658058 0.641630 0.129373
Si Si6 0.154884 0.787569 0.826777
Si Si7 0.683871 0.926744 0.723685
Si Si8 0.335065 0.596978 0.125647
O O1 0.895200 0.830597 0.335074
O O2 0.165526 0.744838 0.486325
O O3 0.063514 0.847110 0.310597
O O4 0.879266 0.547060 0.119680
O O5 0.879352 0.636132 0.233433
O O6 0.059883 0.628548 0.180443
O O7 0.076884 0.952209 0.822003
O O8 0.581744 0.927602 0.333564
O O9 0.247684 0.984360 0.146714
O O10 0.967380 0.482491 0.510900
O O11 0.622095 0.574517 0.142846
O O12 0.435510 0.457745 0.007486
O O13 0.717824 0.687768 0.271081
O O14 0.975232 0.839516 0.721763
O O15 0.445036 0.769529 0.133434
O O16 0.758445 0.904751 0.676490
#
# Coordination Sequence:
#
# PCOD9136011 Si02
#       8
#     4   4   4   4   4   4   4   4
#     4  10  22  39  58  83 120 158 199 240 289 354
#     4   9  22  39  63  90 125 155 204 247 312 356
#     4   9  19  38  59  93 118 161 192 254 301 369
#     4   9  20  36  58  92 125 157 194 239 314 363
#     4   9  22  41  61  92 119 165 198 254 297 363
#     4  12  26  43  64  89 122 167 211 250 295 359
#     4  10  21  38  61  92 125 154 195 255 303 373
#     4  10  22  40  64  85 126 155 207 247 309 347
#
# _framework density 22.642385999999998
#
# number of rings (size 3 to 8) (size 9 to 14) (size 15 to 20)
#    0.750    1.500    0.000    1.500    3.500    4.000 
#    0.000    1.250    0.000    0.000    0.000    0.000 
#    0.000    0.000    0.000    0.000    0.000    0.000 
#
# Total GULP energy -89135.134702 kJ/mol
# GULP energy per Si atom -5570.945919 kJ/mol
# Density = 2.259085 g / cm^3
# Si number density = 22.642386 Si / 1000 Ang^3
#
#
#
# Elastic Constant Matrix: (Units=GPa)
#
#
# Indices 1 2 3 4 5 6 
#
# 1 98.7334 41.0789 11.6333 -0.0106 5.4913 -0.0040
# 2 41.0789 80.6864 3.5214 -0.0111 7.3558 -0.0095
# 3 11.6333 3.5214 63.2515 -0.0257 5.2272 -0.0175
# 4 -0.0106 -0.0111 -0.0257 27.4455 -0.0135 10.8615
# 5 5.4913 7.3558 5.2272 -0.0135 18.4548 -0.0057
# 6 -0.0040 -0.0095 -0.0175 10.8615 -0.0057 31.8545
#
#
#
# Elastic Compliance Matrix: (Units=1/GPa)
#
#
# Indices 1 2 3 4 5 6 
#
# 1 0.013118 -0.006525 -0.001988 0.000001 -0.000740 -0.000002
# 2 -0.006525 0.016112 0.000689 0.000001 -0.004676 0.000003
# 3 -0.001988 0.000689 0.016497 0.000011 -0.004356 0.000004
# 4 0.000001 0.000001 0.000011 0.042120 0.000022 -0.014362
# 5 -0.000740 -0.004676 -0.004356 0.000022 0.057504 -0.000001
# 6 -0.000002 0.000003 0.000004 -0.014362 -0.000001 0.036290
#
#
# Mechanical properties :
#
#
# Convention : Reuss Voigt Hill
#
# Bulk Modulus (GPa) = 33.24455 39.45981 36.35218
# Shear Modulus (GPa) = 24.11803 27.98015 26.04909
#
# Velocity S-wave (km/s) = 3.26724 3.51913 3.39552
# Velocity P-wave (km/s) = 5.38028 5.82903 5.60914
#
# Compressibility (1/GPa) = 0.03008012
#
# Stress axis : x y z
#
# Youngs Moduli (GPa) = 76.22934 62.06704 60.61638
#
# Poissons Ratio (x) = 0.40496 0.12053
# Poissons Ratio (y) = 0.49736 -0.04179
# Poissons Ratio (z) = 0.15157 -0.04279
#
# Static dielectric constant tensor:
#      x y z
#    x 1.977600 0.000000 0.012840 
#    y 0.000000 1.827390 0.000000 
#    z 0.012840 0.000000 1.934010 
# 
# From -- ./inp_files/26137.got.cif
#   From: 2010.05.17/outbox.cif.g08.bks.cpg/sg9_14_cif.got.tgz:26137.got - 2010.06.03 20:04:27.
