data_PCOD9136058
_publ_section_title
;
Structure prediction by ZEFSAII (Michael W. Deem and Ramdas Pophale) SiO2 
 PCOD9136058
Probable space group: C C
;
_chemical_formula_sum "Si O2"
_cell_formula_units_Z 32
_cell_length_a 8.873977
_cell_length_b 19.504388
_cell_length_c 9.153902
_cell_angle_alpha 90.000000
_cell_angle_beta 121.025467
_cell_angle_gamma 90.000000
_cell_volume 1357.708178
_symmetry_space_group_name_H-M "C C"
_symmetry_group_IT_number 9
_symmetry_cell_setting 'monoclinic'
loop_
_space_group_symop_operation_xyz
x,y,z
x,-y,1/2+z
1/2+x,1/2+y,z
1/2+x,1/2-y,1/2+z
loop_
_atom_site_type_symbol
_atom_site_label
_atom_site_fract_x
_atom_site_fract_y
_atom_site_fract_z
Si Si1 0.810810 0.031899 0.316420
Si Si2 0.378122 0.156000 0.786249
Si Si3 0.624203 0.767372 0.632956
Si Si4 0.282571 0.904577 0.847510
Si Si5 0.415339 0.361577 0.641127
Si Si6 0.710800 0.473341 0.114308
Si Si7 0.220965 0.626447 0.760804
Si Si8 0.638646 0.848712 0.919093
O O1 0.850269 0.065904 0.177558
O O2 0.693937 0.085765 0.348767
O O3 0.999873 0.030856 0.492167
O O4 0.726476 0.957020 0.255051
O O5 0.193081 0.190609 0.644462
O O6 0.311828 0.078293 0.775517
O O7 0.541124 0.151526 0.752543
O O8 0.462814 0.199260 0.962486
O O9 0.797152 0.807144 0.663429
O O10 0.612026 0.786300 0.796650
O O11 0.459563 0.865617 0.910891
O O12 0.117942 0.854299 0.777578
O O13 0.251122 0.951545 0.690847
O O14 0.281645 0.951612 0.990894
O O15 0.374355 0.356603 0.451398
O O16 0.261872 0.657984 0.622359
#
# Coordination Sequence:
#
# PCOD9136058 Si02
#       8
#     4   4   4   4   4   4   4   4
#     4  10  21  38  66 102 147 176 223 273 350 410
#     4  11  25  47  73  96 133 191 235 280 352 405
#     4  10  26  47  71  94 135 185 243 287 334 408
#     4  11  23  41  67 102 143 173 226 278 356 410
#     4   9  21  41  67  96 139 184 220 277 338 412
#     4  11  24  40  70 102 142 183 220 283 346 423
#     4  11  20  41  67 103 132 181 223 284 345 409
#     4  11  24  39  65 101 139 173 230 286 341 399
#
# _framework density 23.569129
#
# number of rings (size 3 to 8) (size 9 to 14) (size 15 to 20)
#    0.000    1.500    2.500    1.500    8.750    1.000 
#    0.000    3.750    0.000    0.000    0.000    0.000 
#    0.000    0.000    0.000    0.000    0.000    0.000 
#
# Total GULP energy -89387.879535 kJ/mol
# GULP energy per Si atom -5586.742471 kJ/mol
# Density = 2.351548 g / cm^3
# Si number density = 23.569129 Si / 1000 Ang^3
#
#
#
# Elastic Constant Matrix: (Units=GPa)
#
#
# Indices 1 2 3 4 5 6 
#
# 1 71.6887 6.1656 30.7972 0.0000 1.0080 0.0000
# 2 6.1656 23.9431 5.2976 0.0000 -0.2316 0.0000
# 3 30.7972 5.2976 129.1629 0.0000 -10.4470 0.0000
# 4 0.0000 0.0000 0.0000 26.0011 0.0000 14.1409
# 5 1.0080 -0.2316 -10.4470 0.0000 22.5862 0.0000
# 6 0.0000 0.0000 0.0000 14.1409 0.0000 32.1848
#
#
#
# Elastic Compliance Matrix: (Units=1/GPa)
#
#
# Indices 1 2 3 4 5 6 
#
# 1 0.015928 -0.003270 -0.003869 0.000000 -0.002534 0.000000
# 2 -0.003270 0.042823 -0.000965 0.000000 0.000138 0.000000
# 3 -0.003869 -0.000965 0.009056 0.000000 0.004352 0.000000
# 4 0.000000 0.000000 0.000000 0.050536 0.000000 -0.022204
# 5 -0.002534 0.000138 0.004352 0.000000 0.046402 0.000000
# 6 0.000000 0.000000 0.000000 -0.022204 0.000000 0.040826
#
#
# Mechanical properties :
#
#
# Convention : Reuss Voigt Hill
#
# Bulk Modulus (GPa) = 19.38043 34.36838 26.87440
# Shear Modulus (GPa) = 20.92237 28.32337 24.62287
#
# Velocity S-wave (km/s) = 2.98267 3.47034 3.23570
# Velocity P-wave (km/s) = 4.48357 5.53816 5.03853
#
# Compressibility (1/GPa) = 0.05159845
#
# Stress axis : x y z
#
# Youngs Moduli (GPa) = 62.78243 23.35207 110.42215
#
# Poissons Ratio (x) = 0.07636 0.42718
# Poissons Ratio (y) = 0.20531 0.10661
# Poissons Ratio (z) = 0.24288 0.02255
#
# Static dielectric constant tensor:
#      x y z
#    x 1.864620 0.000000 0.025250 
#    y 0.000000 1.919820 0.000000 
#    z 0.025250 0.000000 1.967240 
# 
# From -- ./inp_files/6186.got.cif
#   From: 2010.05.17/outbox.cif.g08.bks.cpg/sg9_4_cif.got.tgz:6186.got - 2010.06.03 20:04:27.
