data_PCOD9136108
_publ_section_title
;
Structure prediction by ZEFSAII (Michael W. Deem and Ramdas Pophale) SiO2 
 PCOD9136108
Probable space group: C C
;
_chemical_formula_sum "Si O2"
_cell_formula_units_Z 28
_cell_length_a 5.260263
_cell_length_b 13.494230
_cell_length_c 18.160692
_cell_angle_alpha 90.000000
_cell_angle_beta 68.931737
_cell_angle_gamma 90.000000
_cell_volume 1202.931016
_symmetry_space_group_name_H-M "C C"
_symmetry_group_IT_number 9
_symmetry_cell_setting 'monoclinic'
loop_
_space_group_symop_operation_xyz
x,y,z
x,-y,1/2+z
1/2+x,1/2+y,z
1/2+x,1/2-y,1/2+z
loop_
_atom_site_type_symbol
_atom_site_label
_atom_site_fract_x
_atom_site_fract_y
_atom_site_fract_z
Si Si1 0.941440 0.168143 0.473440
Si Si2 0.400529 0.484569 0.572611
Si Si3 0.887367 0.741601 0.211872
Si Si4 0.475053 0.185734 0.848510
Si Si5 0.286101 0.983461 0.675059
Si Si6 0.341807 0.253076 0.548020
Si Si7 0.502686 0.624467 0.822186
O O1 0.639556 0.206287 0.528048
O O2 0.965120 0.055683 0.497206
O O3 0.960247 0.207113 0.387994
O O4 0.190374 0.222682 0.488979
O O5 0.100284 0.515580 0.633151
O O6 0.373341 0.370222 0.553871
O O7 0.623361 0.490548 0.614784
O O8 0.809483 0.630966 0.198700
O O9 0.113824 0.778696 0.131827
O O10 0.009754 0.767487 0.279716
O O11 0.608926 0.803197 0.253249
O O12 0.186842 0.135694 0.873161
O O13 0.683431 0.113607 0.868897
O O14 0.123089 0.044996 0.753470
#
# Coordination Sequence:
#
# PCOD9136108 Si02
#       7
#     4   4   4   4   4   4   4
#     4  12  24  45  62  93 133 176 201 271 316 378
#     4  11  24  40  64  99 123 160 220 256 320 382
#     4   9  23  39  65  93 122 160 213 265 309 367
#     4  10  24  41  62  89 133 166 214 246 327 381
#     4  11  22  38  67  96 121 156 211 272 311 365
#     4  11  24  40  71  92 126 169 216 263 321 370
#     4  10  21  39  61  92 122 165 201 263 306 383
#
# _framework density 23.276479999999999
#
# number of rings (size 3 to 8) (size 9 to 14) (size 15 to 20)
#    0.857    0.571    0.000    6.000    8.000    0.000 
#    5.143    0.000    0.000    0.000    0.000    0.000 
#    0.000    0.000    0.000    0.000    0.000    0.000 
#
# Total GULP energy -78118.967485 kJ/mol
# GULP energy per Si atom -5579.926249 kJ/mol
# Density = 2.322350 g / cm^3
# Si number density = 23.276480 Si / 1000 Ang^3
#
#
#
# Elastic Constant Matrix: (Units=GPa)
#
#
# Indices 1 2 3 4 5 6 
#
# 1 161.7311 31.4134 11.9608 0.0000 4.7225 0.0000
# 2 31.4134 95.4689 12.8462 0.0000 2.4845 0.0000
# 3 11.9608 12.8462 40.0653 0.0000 -11.8515 0.0000
# 4 0.0000 0.0000 0.0000 26.0049 0.0000 -4.6019
# 5 4.7225 2.4845 -11.8515 0.0000 30.0443 0.0000
# 6 0.0000 0.0000 0.0000 -4.6019 0.0000 21.4004
#
#
#
# Elastic Compliance Matrix: (Units=1/GPa)
#
#
# Indices 1 2 3 4 5 6 
#
# 1 0.006744 -0.001923 -0.001883 0.000000 -0.001644 0.000000
# 2 -0.001923 0.011676 -0.003811 0.000000 -0.002167 0.000000
# 3 -0.001883 -0.003811 0.030481 0.000000 0.012635 0.000000
# 4 0.000000 0.000000 0.000000 0.039975 0.000000 0.008596
# 5 -0.001644 -0.002167 0.012635 0.000000 0.038706 0.000000
# 6 0.000000 0.000000 0.000000 0.008596 0.000000 0.048577
#
#
# Mechanical properties :
#
#
# Convention : Reuss Voigt Hill
#
# Bulk Modulus (GPa) = 29.70189 45.52287 37.61238
# Shear Modulus (GPa) = 24.67744 31.55959 28.11851
#
# Velocity S-wave (km/s) = 3.25958 3.68619 3.47943
# Velocity P-wave (km/s) = 5.19179 6.14144 5.68647
#
# Compressibility (1/GPa) = 0.03366790
#
# Stress axis : x y z
#
# Youngs Moduli (GPa) = 148.28353 85.64234 32.80777
#
# Poissons Ratio (x) = 0.16468 0.06178
# Poissons Ratio (y) = 0.28513 0.12502
# Poissons Ratio (z) = 0.27921 0.32636
#
# Static dielectric constant tensor:
#      x y z
#    x 1.970440 0.000000 -0.013060 
#    y 0.000000 1.855020 0.000000 
#    z -0.013060 0.000000 1.901810 
# 
# From -- ./inp_files/28503.got.cif
#   From: 2010.05.17/outbox.cif.g08.bks.cpg/sg9_15_cif.got.tgz:28503.got - 2010.06.03 20:04:27.
