data_PCOD9136704
_publ_section_title
;
Structure prediction by ZEFSAII (Michael W. Deem and Ramdas Pophale) SiO2 
 PCOD9136704
Probable space group: C C
;
_chemical_formula_sum "Si O2"
_cell_formula_units_Z 32
_cell_length_a 23.364236
_cell_length_b 5.577895
_cell_length_c 9.853322
_cell_angle_alpha 90.000000
_cell_angle_beta 87.459009
_cell_angle_gamma 90.000000
_cell_volume 1282.854401
_symmetry_space_group_name_H-M "C C"
_symmetry_group_IT_number 9
_symmetry_cell_setting 'monoclinic'
loop_
_space_group_symop_operation_xyz
x,y,z
x,-y,1/2+z
1/2+x,1/2+y,z
1/2+x,1/2-y,1/2+z
loop_
_atom_site_type_symbol
_atom_site_label
_atom_site_fract_x
_atom_site_fract_y
_atom_site_fract_z
Si Si1 0.048160 0.727341 0.633070
Si Si2 0.789168 0.148451 0.727105
Si Si3 0.691960 0.681488 0.503204
Si Si4 0.260985 0.318678 0.951426
Si Si5 0.896889 0.244602 0.852275
Si Si6 0.662355 0.623394 0.229648
Si Si7 0.489703 0.091410 0.912912
Si Si8 0.440703 0.515467 0.592522
O O1 0.116019 0.756923 0.636196
O O2 0.029287 0.695408 0.791220
O O3 0.028695 0.535554 0.523002
O O4 0.008067 0.949157 0.594262
O O5 0.807125 0.161744 0.568206
O O6 0.832520 0.300950 0.815489
O O7 0.724928 0.254063 0.726682
O O8 0.785048 0.890347 0.801259
O O9 0.731239 0.441551 0.467024
O O10 0.645410 0.645636 0.388803
O O11 0.670478 0.636441 0.658898
O O12 0.721421 0.942209 0.486803
O O13 0.913648 0.038192 0.742645
O O14 0.947777 0.428794 0.825379
O O15 0.906415 0.175074 0.006465
O O16 0.444650 0.248263 0.002237
#
# Coordination Sequence:
#
# PCOD9136704 Si02
#       8
#     4   4   4   4   4   4   4   4
#     4  11  25  44  71 100 135 181 230 292 351 417
#     4  10  22  43  65 102 136 180 226 282 355 422
#     4  10  22  43  65  97 143 187 228 280 338 428
#     4  10  21  43  65  96 143 184 232 276 342 420
#     4  11  23  44  70  99 134 180 230 292 351 415
#     4  10  24  43  65 103 138 181 226 282 357 424
#     4  11  24  46  68 100 131 181 235 286 348 410
#     4  11  23  44  65  97 134 172 235 286 346 406
#
# _framework density 24.944372999999999
#
# number of rings (size 3 to 8) (size 9 to 14) (size 15 to 20)
#    0.000    1.500    2.500    1.500    1.750    4.000 
#   22.500    0.000    0.000    0.000    0.000    0.000 
#    0.000    0.000    0.000    0.000    0.000    0.000 
#
# Total GULP energy -89211.968596 kJ/mol
# GULP energy per Si atom -5575.748037 kJ/mol
# Density = 2.488760 g / cm^3
# Si number density = 24.944373 Si / 1000 Ang^3
#
#
#
# Elastic Constant Matrix: (Units=GPa)
#
#
# Indices 1 2 3 4 5 6 
#
# 1 112.4312 14.1492 27.0880 0.0000 38.9950 0.0000
# 2 14.1492 63.4539 18.5801 0.0000 8.7573 0.0000
# 3 27.0880 18.5801 133.7055 0.0000 27.5245 0.0000
# 4 0.0000 0.0000 0.0000 24.8642 0.0000 -0.5860
# 5 38.9950 8.7573 27.5245 0.0000 46.7055 0.0000
# 6 0.0000 0.0000 0.0000 -0.5860 0.0000 18.7213
#
#
#
# Elastic Compliance Matrix: (Units=1/GPa)
#
#
# Indices 1 2 3 4 5 6 
#
# 1 0.012649 -0.001336 -0.000290 0.000000 -0.010140 0.000000
# 2 -0.001336 0.016731 -0.001864 0.000000 -0.000923 0.000000
# 3 -0.000290 -0.001864 0.008735 0.000000 -0.004556 0.000000
# 4 0.000000 0.000000 0.000000 0.040248 0.000000 0.001260
# 5 -0.010140 -0.000923 -0.004556 0.000000 0.032735 0.000000
# 6 0.000000 0.000000 0.000000 0.001260 0.000000 0.053455
#
#
# Mechanical properties :
#
#
# Convention : Reuss Voigt Hill
#
# Bulk Modulus (GPa) = 32.11917 47.69170 39.90544
# Shear Modulus (GPa) = 27.48608 34.70976 31.09792
#
# Velocity S-wave (km/s) = 3.32308 3.73431 3.53468
# Velocity P-wave (km/s) = 5.25624 6.14444 5.71762
#
# Compressibility (1/GPa) = 0.03113405
#
# Stress axis : x y z
#
# Youngs Moduli (GPa) = 79.05739 59.77050 114.48450
#
# Poissons Ratio (x) = 0.07988 0.03315
# Poissons Ratio (y) = 0.10565 0.21343
# Poissons Ratio (z) = 0.02289 0.11143
#
# Static dielectric constant tensor:
#      x y z
#    x 2.057470 0.000000 -0.055120 
#    y 0.000000 2.016290 0.000000 
#    z -0.055120 0.000000 2.040380 
# 
# From -- ./inp_files/20680.got.cif
#   From: 2010.05.17/outbox.cif.g08.bks.cpg/sg9_11_cif.got.tgz:20680.got - 2010.06.03 20:04:27.
