data_PCOD9136010
_publ_section_title
;
Structure prediction by ZEFSAII (Michael W. Deem and Ramdas Pophale) SiO2 
 PCOD9136010
Probable space group: C C
;
_chemical_formula_sum "Si O2"
_cell_formula_units_Z 24
_cell_length_a 14.925535
_cell_length_b 14.352090
_cell_length_c 4.931895
_cell_angle_alpha 90.000000
_cell_angle_beta 111.318826
_cell_angle_gamma 90.000000
_cell_volume 984.181556
_symmetry_space_group_name_H-M "C C"
_symmetry_group_IT_number 9
_symmetry_cell_setting 'monoclinic'
loop_
_space_group_symop_operation_xyz
x,y,z
x,-y,1/2+z
1/2+x,1/2+y,z
1/2+x,1/2-y,1/2+z
loop_
_atom_site_type_symbol
_atom_site_label
_atom_site_fract_x
_atom_site_fract_y
_atom_site_fract_z
Si Si1 0.731880 0.067631 0.857050
Si Si2 0.028053 0.662259 0.665018
Si Si3 0.401871 0.686921 0.278537
Si Si4 0.012721 0.065894 0.804740
Si Si5 0.210360 0.054553 0.876714
Si Si6 0.408312 0.126849 0.007750
O O1 0.638328 0.132504 0.796754
O O2 0.730427 0.019588 0.562695
O O3 0.826921 0.127636 0.024542
O O4 0.986753 0.649945 0.319956
O O5 0.993658 0.765509 0.725688
O O6 0.968097 0.595217 0.808812
O O7 0.435874 0.631992 0.581569
O O8 0.353532 0.781051 0.335869
O O9 0.118244 0.111420 0.876431
O O10 0.005095 0.974883 0.596417
O O11 0.197607 0.038461 0.544641
O O12 0.320483 0.075984 0.050934
#
# Coordination Sequence:
#
# PCOD9136010 Si02
#       6
#     4   4   4   4   4   4
#     4  12  27  46  72 101 137 181 230 279 336 405
#     4  10  25  43  63  98 130 176 216 270 330 390
#     4  10  26  42  68  94 134 170 220 269 331 392
#     4  10  22  39  63  91 123 164 207 261 320 378
#     4  10  21  38  61  92 123 163 209 262 315 379
#     4  10  23  40  65  94 127 176 212 269 326 396
#
# _framework density 24.385742
#
# number of rings (size 3 to 8) (size 9 to 14) (size 15 to 20)
#    1.000    0.667    0.000    3.000    7.000    4.000 
#    3.000    0.000    0.000    0.000    0.000    0.000 
#    0.000    0.000    0.000    0.000    0.000    0.000 
#
# Total GULP energy -66962.370121 kJ/mol
# GULP energy per Si atom -5580.197510 kJ/mol
# Density = 2.433024 g / cm^3
# Si number density = 24.385742 Si / 1000 Ang^3
#
#
#
# Elastic Constant Matrix: (Units=GPa)
#
#
# Indices 1 2 3 4 5 6 
#
# 1 139.2124 35.7787 18.6921 0.0000 19.6545 0.0000
# 2 35.7787 43.6167 -3.5786 0.0000 4.8193 0.0000
# 3 18.6921 -3.5786 92.0139 0.0000 8.3313 0.0000
# 4 0.0000 0.0000 0.0000 16.1231 0.0000 5.0264
# 5 19.6545 4.8193 8.3313 0.0000 40.2948 0.0000
# 6 0.0000 0.0000 0.0000 5.0264 0.0000 34.6137
#
#
#
# Elastic Compliance Matrix: (Units=1/GPa)
#
#
# Indices 1 2 3 4 5 6 
#
# 1 0.010002 -0.007983 -0.002025 0.000000 -0.003505 0.000000
# 2 -0.007983 0.029732 0.002800 0.000000 -0.000241 0.000000
# 3 -0.002025 0.002800 0.011545 0.000000 -0.001734 0.000000
# 4 0.000000 0.000000 0.000000 0.064964 0.000000 -0.009434
# 5 -0.003505 -0.000241 -0.001734 0.000000 0.026914 0.000000
# 6 0.000000 0.000000 0.000000 -0.009434 0.000000 0.030260
#
#
# Mechanical properties :
#
#
# Convention : Reuss Voigt Hill
#
# Bulk Modulus (GPa) = 27.12795 41.84750 34.48772
# Shear Modulus (GPa) = 24.98485 33.13638 29.06062
#
# Velocity S-wave (km/s) = 3.20436 3.69025 3.45585
# Velocity P-wave (km/s) = 4.98390 5.94602 5.48609
#
# Compressibility (1/GPa) = 0.03686236
#
# Stress axis : x y z
#
# Youngs Moduli (GPa) = 99.98210 33.63373 86.61617
#
# Poissons Ratio (x) = 0.26851 0.17539
# Poissons Ratio (y) = 0.79819 -0.24252
# Poissons Ratio (z) = 0.20246 -0.09417
#
# Static dielectric constant tensor:
#      x y z
#    x 2.001370 0.000000 -0.039650 
#    y 0.000000 2.030580 0.000000 
#    z -0.039650 0.000000 1.887720 
# 
# From -- ./inp_files/2887.got.cif
#   From: 2010.05.17/outbox.cif.g08.bks.cpg/sg9_2_cif.got.tgz:2887.got - 2010.06.03 20:04:27.
