data_PCOD9136526
_publ_section_title
;
Structure prediction by ZEFSAII (Michael W. Deem and Ramdas Pophale) SiO2 
 PCOD9136526
Probable space group: C C
;
_chemical_formula_sum "Si O2"
_cell_formula_units_Z 24
_cell_length_a 7.070597
_cell_length_b 13.614743
_cell_length_c 13.320084
_cell_angle_alpha 90.000000
_cell_angle_beta 45.530395
_cell_angle_gamma 90.000000
_cell_volume 915.041589
_symmetry_space_group_name_H-M "C C"
_symmetry_group_IT_number 9
_symmetry_cell_setting 'monoclinic'
loop_
_space_group_symop_operation_xyz
x,y,z
x,-y,1/2+z
1/2+x,1/2+y,z
1/2+x,1/2-y,1/2+z
loop_
_atom_site_type_symbol
_atom_site_label
_atom_site_fract_x
_atom_site_fract_y
_atom_site_fract_z
Si Si1 0.573640 0.276274 0.425080
Si Si2 0.198055 0.230964 0.389254
Si Si3 0.868935 0.422134 0.069320
Si Si4 0.675231 0.276182 0.681047
Si Si5 0.300003 0.545427 0.834548
Si Si6 0.025122 0.053776 0.081155
O O1 0.445289 0.235559 0.371149
O O2 0.459000 0.190454 0.540491
O O3 0.617119 0.442962 0.233571
O O4 0.482912 0.382999 0.497483
O O5 0.241362 0.180261 0.266792
O O6 0.186205 0.346823 0.365047
O O7 0.922155 0.212003 0.549657
O O8 0.889210 0.273373 0.301337
O O9 0.736225 0.464362 0.013593
O O10 0.136207 0.484656 0.976560
O O11 0.632507 0.363145 0.618284
O O12 0.280520 0.490332 0.734121
#
# Coordination Sequence:
#
# PCOD9136526 Si02
#       6
#     4   4   4   4   4   4
#     4  12  25  47  79 107 155 217 257 332 413 475
#     4  12  27  44  77 114 153 201 273 322 407 488
#     4  10  21  41  71 103 151 196 257 319 391 478
#     4  12  24  45  73 110 156 197 260 338 381 492
#     4  10  21  43  66 102 151 192 252 328 373 486
#     4  10  24  46  72 106 158 197 263 325 395 477
#
# _framework density 26.228316
#
# number of rings (size 3 to 8) (size 9 to 14) (size 15 to 20)
#    1.000    0.000    5.000    1.000    4.667    0.000 
#    3.000    1.667   11.000    0.000    0.000    0.000 
#    0.000    0.000    0.000    0.000    0.000    0.000 
#
# Total GULP energy -66988.057610 kJ/mol
# GULP energy per Si atom -5582.338134 kJ/mol
# Density = 2.616862 g / cm^3
# Si number density = 26.228316 Si / 1000 Ang^3
#
#
#
# Elastic Constant Matrix: (Units=GPa)
#
#
# Indices 1 2 3 4 5 6 
#
# 1 97.2906 10.1476 51.5008 -0.0010 -3.7125 0.0014
# 2 10.1476 108.5440 20.5265 -0.0004 -15.8225 0.0007
# 3 51.5008 20.5265 150.6787 -0.0010 -34.2818 0.0011
# 4 -0.0010 -0.0004 -0.0010 36.0609 0.0007 9.3297
# 5 -3.7125 -15.8225 -34.2818 0.0007 53.8187 -0.0008
# 6 0.0014 0.0007 0.0011 9.3297 -0.0008 34.6505
#
#
#
# Elastic Compliance Matrix: (Units=1/GPa)
#
#
# Indices 1 2 3 4 5 6 
#
# 1 0.012813 -0.000631 -0.004835 0.000000 -0.002382 -0.000001
# 2 -0.000631 0.009736 -0.000549 0.000000 0.002469 0.000000
# 3 -0.004835 -0.000549 0.009650 0.000000 0.005652 0.000000
# 4 0.000000 0.000000 0.000000 0.029807 0.000000 -0.008026
# 5 -0.002382 0.002469 0.005652 0.000000 0.022743 0.000000
# 6 -0.000001 0.000000 0.000000 -0.008026 0.000000 0.031021
#
#
# Mechanical properties :
#
#
# Convention : Reuss Voigt Hill
#
# Bulk Modulus (GPa) = 49.58174 57.87369 53.72771
# Shear Modulus (GPa) = 37.16871 43.19524 40.18197
#
# Velocity S-wave (km/s) = 3.76855 4.06260 3.91833
# Velocity P-wave (km/s) = 6.15475 6.64225 6.40314
#
# Compressibility (1/GPa) = 0.02016872
#
# Stress axis : x y z
#
# Youngs Moduli (GPa) = 78.04599 102.71655 103.62693
#
# Poissons Ratio (x) = 0.06478 0.50107
# Poissons Ratio (y) = 0.04922 0.05689
# Poissons Ratio (z) = 0.37738 0.05639
#
# Static dielectric constant tensor:
#      x y z
#    x 2.103900 0.000000 0.081210 
#    y 0.000000 2.091710 0.000000 
#    z 0.081210 0.000000 2.156240 
# 
# From -- ./inp_files/22506.got.cif
#   From: 2010.05.17/outbox.cif.g08.bks.cpg/sg9_12_cif.got.tgz:22506.got - 2010.06.03 20:04:27.
