data_PCOD9136961
_publ_section_title
;
Structure prediction by ZEFSAII (Michael W. Deem and Ramdas Pophale) SiO2 
 PCOD9136961
Probable space group: C C
;
_chemical_formula_sum "Si O2"
_cell_formula_units_Z 32
_cell_length_a 16.881735
_cell_length_b 10.452998
_cell_length_c 13.436580
_cell_angle_alpha 90.000000
_cell_angle_beta 148.744096
_cell_angle_gamma 90.000000
_cell_volume 1230.263130
_symmetry_space_group_name_H-M "C C"
_symmetry_group_IT_number 9
_symmetry_cell_setting 'monoclinic'
loop_
_space_group_symop_operation_xyz
x,y,z
x,-y,1/2+z
1/2+x,1/2+y,z
1/2+x,1/2-y,1/2+z
loop_
_atom_site_type_symbol
_atom_site_label
_atom_site_fract_x
_atom_site_fract_y
_atom_site_fract_z
Si Si1 0.076000 0.181189 0.348920
Si Si2 0.413049 0.917153 0.260671
Si Si3 0.112986 0.357855 0.639521
Si Si4 0.698049 0.781715 0.115851
Si Si5 0.471192 0.819300 0.041821
Si Si6 0.921875 0.834326 0.008790
Si Si7 0.949123 0.081256 0.756124
Si Si8 0.944191 0.572896 0.123717
O O1 0.249303 0.139399 0.557635
O O2 0.031717 0.211150 0.185582
O O3 0.042211 0.318427 0.361575
O O4 0.977699 0.070273 0.296492
O O5 0.464405 0.919851 0.429276
O O6 0.432771 0.053335 0.228344
O O7 0.063063 0.209614 0.593800
O O8 0.109091 0.404684 0.750737
O O9 0.284223 0.382292 0.793274
O O10 0.606522 0.848970 0.108777
O O11 0.834035 0.719449 0.324375
O O12 0.791319 0.869162 0.136543
O O13 0.585407 0.673781 0.946082
O O14 0.406504 0.933940 0.040828
O O15 0.963937 0.910457 0.151608
O O16 0.864519 0.700274 0.999744
#
# Coordination Sequence:
#
# PCOD9136961 Si02
#       8
#     4   4   4   4   4   4   4   4
#     4  11  26  46  72 105 148 191 239 307 372 428
#     4  11  24  46  71 104 145 186 244 292 366 441
#     4  10  23  42  69 100 137 184 235 291 357 431
#     4  10  24  44  71 107 137 191 248 291 361 446
#     4  10  21  47  69 102 139 185 246 298 360 434
#     4  10  23  44  62 103 139 184 235 297 357 429
#     4  11  25  45  72 105 148 192 244 304 363 439
#     4   9  24  40  72  96 137 185 229 300 358 418
#
# _framework density 26.010694999999998
#
# number of rings (size 3 to 8) (size 9 to 14) (size 15 to 20)
#    0.750    1.000    0.000    3.000    5.250    4.000 
#    9.000    0.000    0.000    0.000    0.000    0.000 
#    0.000    0.000    0.000    0.000    0.000    0.000 
#
# Total GULP energy -89218.871689 kJ/mol
# GULP energy per Si atom -5576.179481 kJ/mol
# Density = 2.595149 g / cm^3
# Si number density = 26.010695 Si / 1000 Ang^3
#
#
#
# Elastic Constant Matrix: (Units=GPa)
#
#
# Indices 1 2 3 4 5 6 
#
# 1 84.4446 14.9406 24.5064 0.0000 -10.5097 0.0000
# 2 14.9406 86.5989 17.0206 0.0000 -11.1649 0.0000
# 3 24.5064 17.0206 124.4591 0.0000 -10.2563 0.0000
# 4 0.0000 0.0000 0.0000 25.8968 0.0000 -7.5559
# 5 -10.5097 -11.1649 -10.2563 0.0000 37.4909 0.0000
# 6 0.0000 0.0000 0.0000 -7.5559 0.0000 41.2802
#
#
#
# Elastic Compliance Matrix: (Units=1/GPa)
#
#
# Indices 1 2 3 4 5 6 
#
# 1 0.013057 -0.001491 -0.002150 0.000000 0.002628 0.000000
# 2 -0.001491 0.012415 -0.001160 0.000000 0.002962 0.000000
# 3 -0.002150 -0.001160 0.008736 0.000000 0.001441 0.000000
# 4 0.000000 0.000000 0.000000 0.040793 0.000000 0.007467
# 5 0.002628 0.002962 0.001441 0.000000 0.028686 0.000000
# 6 0.000000 0.000000 0.000000 0.007467 0.000000 0.025591
#
#
# Mechanical properties :
#
#
# Convention : Reuss Voigt Hill
#
# Bulk Modulus (GPa) = 40.64428 45.38199 43.01313
# Shear Modulus (GPa) = 33.99440 36.86925 35.43182
#
# Velocity S-wave (km/s) = 3.61908 3.76901 3.69481
# Velocity P-wave (km/s) = 5.75531 6.03539 5.89701
#
# Compressibility (1/GPa) = 0.02460371
#
# Stress axis : x y z
#
# Youngs Moduli (GPa) = 76.58687 80.55022 114.47351
#
# Poissons Ratio (x) = 0.12012 0.24617
# Poissons Ratio (y) = 0.11421 0.13280
# Poissons Ratio (z) = 0.16470 0.09345
#
# Static dielectric constant tensor:
#      x y z
#    x 2.128780 0.000000 -0.088570 
#    y 0.000000 2.142330 0.000000 
#    z -0.088570 0.000000 2.073300 
# 
# From -- ./inp_files/26846.got.cif
#   From: 2010.05.17/outbox.cif.g08.bks.cpg/sg9_14_cif.got.tgz:26846.got - 2010.06.03 20:04:27.
