data_PCOD9136788
_publ_section_title
;
Structure prediction by ZEFSAII (Michael W. Deem and Ramdas Pophale) SiO2 
 PCOD9136788
Probable space group: C C
;
_chemical_formula_sum "Si O2"
_cell_formula_units_Z 32
_cell_length_a 7.103458
_cell_length_b 15.897738
_cell_length_c 13.989172
_cell_angle_alpha 90.000000
_cell_angle_beta 100.944122
_cell_angle_gamma 90.000000
_cell_volume 1551.050199
_symmetry_space_group_name_H-M "C C"
_symmetry_group_IT_number 9
_symmetry_cell_setting 'monoclinic'
loop_
_space_group_symop_operation_xyz
x,y,z
x,-y,1/2+z
1/2+x,1/2+y,z
1/2+x,1/2-y,1/2+z
loop_
_atom_site_type_symbol
_atom_site_label
_atom_site_fract_x
_atom_site_fract_y
_atom_site_fract_z
Si Si1 0.074610 0.441476 0.798570
Si Si2 0.213555 0.276788 0.699108
Si Si3 0.420471 0.639459 0.728760
Si Si4 0.700870 0.118080 0.010327
Si Si5 0.467192 0.525750 0.907760
Si Si6 0.078437 0.456659 0.113370
Si Si7 0.613214 0.770479 0.334560
Si Si8 0.296345 0.105681 0.443677
O O1 0.121194 0.353085 0.751743
O O2 0.273222 0.475075 0.862470
O O3 0.016482 0.508921 0.711377
O O4 0.920122 0.426690 0.865352
O O5 0.230300 0.312937 0.594473
O O6 0.418551 0.254807 0.763854
O O7 0.073948 0.197226 0.691909
O O8 0.515444 0.579677 0.817993
O O9 0.288531 0.583454 0.646914
O O10 0.268896 0.696778 0.773246
O O11 0.597666 0.038562 0.048345
O O12 0.903319 0.087466 0.986417
O O13 0.585496 0.155846 0.909789
O O14 0.632679 0.462032 0.949739
O O15 0.936392 0.392055 0.048478
O O16 0.701124 0.692278 0.401249
#
# Coordination Sequence:
#
# PCOD9136788 Si02
#       8
#     4   4   4   4   4   4   4   4
#     4  10  21  44  63  96 137 166 222 277 329 398
#     4  11  23  43  69  94 135 179 214 280 340 390
#     4  10  24  44  64  93 133 173 222 272 332 401
#     4  10  24  45  62  98 137 170 227 278 322 405
#     4  10  22  43  66  94 131 174 221 275 328 397
#     4  10  24  43  67  97 133 174 225 280 325 405
#     4  11  25  43  66  99 135 173 220 275 339 402
#     4  12  23  41  71  99 129 181 215 277 343 392
#
# _framework density 20.631181000000002
#
# number of rings (size 3 to 8) (size 9 to 14) (size 15 to 20)
#    0.000    1.500    3.750    0.000    3.500    3.000 
#    0.000    0.000    0.000    0.000    0.000    0.000 
#    0.000    0.000    0.000    0.000    0.000    0.000 
#
# Total GULP energy -89481.398409 kJ/mol
# GULP energy per Si atom -5592.587401 kJ/mol
# Density = 2.058422 g / cm^3
# Si number density = 20.631181 Si / 1000 Ang^3
#
#
#
# Elastic Constant Matrix: (Units=GPa)
#
#
# Indices 1 2 3 4 5 6 
#
# 1 35.3013 10.3769 21.4376 0.0000 -3.4650 0.0000
# 2 10.3769 63.9634 6.9037 0.0000 1.3960 0.0000
# 3 21.4376 6.9037 70.0476 0.0000 0.6495 0.0000
# 4 0.0000 0.0000 0.0000 33.7230 0.0000 -6.0963
# 5 -3.4650 1.3960 0.6495 0.0000 22.6804 0.0000
# 6 0.0000 0.0000 0.0000 -6.0963 0.0000 40.0499
#
#
#
# Elastic Compliance Matrix: (Units=1/GPa)
#
#
# Indices 1 2 3 4 5 6 
#
# 1 0.037022 -0.004967 -0.010899 0.000000 0.006274 0.000000
# 2 -0.004967 0.016488 -0.000089 0.000000 -0.001771 0.000000
# 3 -0.010899 -0.000089 0.017640 0.000000 -0.002165 0.000000
# 4 0.000000 0.000000 0.000000 0.030492 0.000000 0.004641
# 5 0.006274 -0.001771 -0.002165 0.000000 0.045220 0.000000
# 6 0.000000 0.000000 0.000000 0.004641 0.000000 0.025675
#
#
# Mechanical properties :
#
#
# Convention : Reuss Voigt Hill
#
# Bulk Modulus (GPa) = 25.48307 27.41653 26.44980
# Shear Modulus (GPa) = 22.98557 27.99692 25.49125
#
# Velocity S-wave (km/s) = 3.34146 3.68777 3.51888
# Velocity P-wave (km/s) = 5.22166 5.60808 5.41832
#
# Compressibility (1/GPa) = 0.03924175
#
# Stress axis : x y z
#
# Youngs Moduli (GPa) = 27.01092 60.65049 56.68811
#
# Poissons Ratio (x) = 0.30124 0.61784
# Poissons Ratio (y) = 0.13416 0.00502
# Poissons Ratio (z) = 0.29439 0.00537
#
# Static dielectric constant tensor:
#      x y z
#    x 1.698550 0.000000 -0.019670 
#    y 0.000000 1.755910 0.000000 
#    z -0.019670 0.000000 1.727270 
# 
# From -- ./inp_files/21932.got.cif
#   From: 2010.05.17/outbox.cif.g08.bks.cpg/sg9_11_cif.got.tgz:21932.got - 2010.06.03 20:04:27.
