data_PCOD9136803
_publ_section_title
;
Structure prediction by ZEFSAII (Michael W. Deem and Ramdas Pophale) SiO2 
 PCOD9136803
Probable space group: C C
;
_chemical_formula_sum "Si O2"
_cell_formula_units_Z 32
_cell_length_a 7.573526
_cell_length_b 31.795958
_cell_length_c 5.095173
_cell_angle_alpha 90.000000
_cell_angle_beta 89.262410
_cell_angle_gamma 90.000000
_cell_volume 1226.854280
_symmetry_space_group_name_H-M "C C"
_symmetry_group_IT_number 9
_symmetry_cell_setting 'monoclinic'
loop_
_space_group_symop_operation_xyz
x,y,z
x,-y,1/2+z
1/2+x,1/2+y,z
1/2+x,1/2-y,1/2+z
loop_
_atom_site_type_symbol
_atom_site_label
_atom_site_fract_x
_atom_site_fract_y
_atom_site_fract_z
Si Si1 0.654150 0.025349 0.946820
Si Si2 0.690760 0.810407 0.430608
Si Si3 0.112266 0.102351 0.327168
Si Si4 0.421342 0.256216 0.031264
Si Si5 0.238172 0.608535 0.243917
Si Si6 0.727737 0.523649 0.984295
Si Si7 0.673313 0.691878 0.186482
Si Si8 0.913787 0.644730 0.555833
O O1 0.708209 0.009950 0.659010
O O2 0.723019 0.070046 0.043055
O O3 0.440780 0.026993 0.967508
O O4 0.588847 0.773904 0.589115
O O5 0.767184 0.847313 0.601285
O O6 0.833905 0.788141 0.240823
O O7 0.534512 0.835248 0.276921
O O8 0.158633 0.063453 0.144105
O O9 0.245945 0.113124 0.562907
O O10 0.909693 0.101131 0.418200
O O11 0.138508 0.143273 0.135398
O O12 0.503747 0.284364 0.800913
O O13 0.265658 0.222581 0.980816
O O14 0.054120 0.616186 0.393526
O O15 0.674125 0.485832 0.186422
O O16 0.824380 0.684447 0.408033
#
# Coordination Sequence:
#
# PCOD9136803 Si02
#       8
#     4   4   4   4   4   4   4   4
#     4  10  23  43  74 109 149 196 247 308 376 453
#     4  11  24  44  73 101 143 196 240 316 364 454
#     4  10  23  46  65 107 143 186 237 298 368 444
#     4  10  21  44  66 104 134 187 249 298 371 435
#     4  12  24  46  73 106 148 190 245 297 378 446
#     4  10  22  45  74 107 147 195 243 306 374 451
#     4   9  20  43  62  97 138 183 229 302 353 440
#     4  10  23  45  67 101 138 185 238 293 370 427
#
# _framework density 26.082971000000001
#
# number of rings (size 3 to 8) (size 9 to 14) (size 15 to 20)
#    0.750    1.000    2.500    0.750    1.750    3.000 
#   18.000    0.000    0.000    0.000    0.000    0.000 
#    0.000    0.000    0.000    0.000    0.000    0.000 
#
# Total GULP energy -89415.102685 kJ/mol
# GULP energy per Si atom -5588.443918 kJ/mol
# Density = 2.602361 g / cm^3
# Si number density = 26.082971 Si / 1000 Ang^3
#
#
#
# Elastic Constant Matrix: (Units=GPa)
#
#
# Indices 1 2 3 4 5 6 
#
# 1 131.4847 18.3144 38.2790 0.0000 -8.7220 0.0000
# 2 18.3144 115.9343 -3.3847 0.0000 -17.2635 0.0000
# 3 38.2790 -3.3847 53.3624 0.0000 -13.2786 0.0000
# 4 0.0000 0.0000 0.0000 28.0964 0.0000 1.1313
# 5 -8.7220 -17.2635 -13.2786 0.0000 33.2609 0.0000
# 6 0.0000 0.0000 0.0000 1.1313 0.0000 41.0157
#
#
#
# Elastic Compliance Matrix: (Units=1/GPa)
#
#
# Indices 1 2 3 4 5 6 
#
# 1 0.010030 -0.002032 -0.007696 0.000000 -0.001497 0.000000
# 2 -0.002032 0.009956 0.003600 0.000000 0.006072 0.000000
# 3 -0.007696 0.003600 0.027149 0.000000 0.010689 0.000000
# 4 0.000000 0.000000 0.000000 0.035631 0.000000 -0.000983
# 5 -0.001497 0.006072 0.010689 0.000000 0.037091 0.000000
# 6 0.000000 0.000000 0.000000 -0.000983 0.000000 0.024408
#
#
# Mechanical properties :
#
#
# Convention : Reuss Voigt Hill
#
# Bulk Modulus (GPa) = 28.67142 45.24430 36.95786
# Shear Modulus (GPa) = 29.73579 36.97944 33.35761
#
# Velocity S-wave (km/s) = 3.38012 3.76940 3.58006
# Velocity P-wave (km/s) = 5.12346 6.02731 5.59367
#
# Compressibility (1/GPa) = 0.03487794
#
# Stress axis : x y z
#
# Youngs Moduli (GPa) = 99.70320 100.44380 36.83411
#
# Poissons Ratio (x) = 0.20411 0.28348
# Poissons Ratio (y) = 0.20260 -0.13260
# Poissons Ratio (z) = 0.76734 -0.36160
#
# Static dielectric constant tensor:
#      x y z
#    x 2.053740 0.000000 0.011410 
#    y 0.000000 2.011060 0.000000 
#    z 0.011410 0.000000 2.046170 
# 
# From -- ./inp_files/1380.got.cif
#   From: 2010.05.17/outbox.cif.g08.bks.cpg/sg9_1_cif.got.tgz:1380.got - 2010.06.03 20:04:27.
