data_PCOD9136379
_publ_section_title
;
Structure prediction by ZEFSAII (Michael W. Deem and Ramdas Pophale) SiO2 
 PCOD9136379
Probable space group: C C
;
_chemical_formula_sum "Si O2"
_cell_formula_units_Z 28
_cell_length_a 10.216939
_cell_length_b 12.117760
_cell_length_c 13.175257
_cell_angle_alpha 90.000000
_cell_angle_beta 128.483906
_cell_angle_gamma 90.000000
_cell_volume 1276.860994
_symmetry_space_group_name_H-M "C C"
_symmetry_group_IT_number 9
_symmetry_cell_setting 'monoclinic'
loop_
_space_group_symop_operation_xyz
x,y,z
x,-y,1/2+z
1/2+x,1/2+y,z
1/2+x,1/2-y,1/2+z
loop_
_atom_site_type_symbol
_atom_site_label
_atom_site_fract_x
_atom_site_fract_y
_atom_site_fract_z
Si Si1 0.596050 0.893596 0.527260
Si Si2 0.795858 0.928600 0.241713
Si Si3 0.124617 0.059420 0.324713
Si Si4 0.541663 0.957134 0.275637
Si Si5 0.316889 0.217173 0.545840
Si Si6 0.642468 0.303851 0.625395
Si Si7 0.842751 0.389091 0.547394
O O1 0.533460 0.934158 0.389153
O O2 0.755606 0.817585 0.584280
O O3 0.464485 0.823723 0.530953
O O4 0.650565 0.002639 0.613660
O O5 0.732427 0.947563 0.326910
O O6 0.767919 0.798846 0.208076
O O7 0.962248 0.987608 0.279139
O O8 0.156387 0.165967 0.411975
O O9 0.140991 0.105038 0.216806
O O10 0.276070 0.982102 0.437201
O O11 0.421173 0.867596 0.164372
O O12 0.460506 0.069673 0.196680
O O13 0.454985 0.257227 0.533453
O O14 0.687764 0.343908 0.534972
#
# Coordination Sequence:
#
# PCOD9136379 Si02
#       7
#     4   4   4   4   4   4   4
#     4  11  21  43  62  95 133 176 224 287 333 406
#     4  10  23  41  68 101 129 181 236 268 352 406
#     4  11  23  43  69 100 134 184 230 279 345 415
#     4   9  21  42  64  89 134 178 214 292 331 402
#     4  10  21  40  70  93 134 180 231 270 355 401
#     4  11  23  44  67 100 141 182 220 291 340 407
#     4  10  24  41  62  98 133 173 235 273 344 407
#
# _framework density 21.928775999999999
#
# number of rings (size 3 to 8) (size 9 to 14) (size 15 to 20)
#    0.000    1.714    1.429    3.429    4.000    0.000 
#   10.286    0.000    0.000    0.000    0.000    0.000 
#    0.000    0.000    0.000    0.000    0.000    0.000 
#
# Total GULP energy -78009.303053 kJ/mol
# GULP energy per Si atom -5572.093075 kJ/mol
# Density = 2.187887 g / cm^3
# Si number density = 21.928776 Si / 1000 Ang^3
#
#
#
# Elastic Constant Matrix: (Units=GPa)
#
#
# Indices 1 2 3 4 5 6 
#
# 1 160.1593 45.7670 47.9865 0.0000 -24.5245 0.0000
# 2 45.7670 58.4522 12.7825 0.0000 -6.8410 0.0000
# 3 47.9865 12.7825 68.0296 0.0000 -10.3705 0.0000
# 4 0.0000 0.0000 0.0000 27.4724 0.0000 5.8437
# 5 -24.5245 -6.8410 -10.3705 0.0000 36.4928 0.0000
# 6 0.0000 0.0000 0.0000 5.8437 0.0000 39.2500
#
#
#
# Elastic Compliance Matrix: (Units=1/GPa)
#
#
# Indices 1 2 3 4 5 6 
#
# 1 0.010360 -0.006425 -0.005459 0.000000 0.004206 0.000000
# 2 -0.006425 0.022047 0.000378 0.000000 -0.000078 0.000000
# 3 -0.005459 0.000378 0.018743 0.000000 0.001728 0.000000
# 4 0.000000 0.000000 0.000000 0.037591 0.000000 -0.005597
# 5 0.004206 -0.000078 0.001728 0.000000 0.030706 0.000000
# 6 0.000000 0.000000 0.000000 -0.005597 0.000000 0.026311
#
#
# Mechanical properties :
#
#
# Convention : Reuss Voigt Hill
#
# Bulk Modulus (GPa) = 35.54095 55.52367 45.53231
# Shear Modulus (GPa) = 28.06651 32.65005 30.35828
#
# Velocity S-wave (km/s) = 3.58144 3.86283 3.72479
# Velocity P-wave (km/s) = 5.77451 6.72832 6.26958
#
# Compressibility (1/GPa) = 0.02813656
#
# Stress axis : x y z
#
# Youngs Moduli (GPa) = 96.52964 45.35737 53.35456
#
# Poissons Ratio (x) = 0.29143 0.29126
# Poissons Ratio (y) = 0.62023 -0.02016
# Poissons Ratio (z) = 0.52694 -0.01714
#
# Static dielectric constant tensor:
#      x y z
#    x 1.893190 0.000000 0.014400 
#    y 0.000000 1.869550 0.000000 
#    z 0.014400 0.000000 1.800710 
# 
# From -- ./inp_files/14396.got.cif
#   From: 2010.05.17/outbox.cif.g08.bks.cpg/sg9_8_cif.got.tgz:14396.got - 2010.06.03 20:04:27.
