data_PCOD9136568
_publ_section_title
;
Structure prediction by ZEFSAII (Michael W. Deem and Ramdas Pophale) SiO2 
 PCOD9136568
Probable space group: C C
;
_chemical_formula_sum "Si O2"
_cell_formula_units_Z 32
_cell_length_a 11.490853
_cell_length_b 9.058907
_cell_length_c 22.265526
_cell_angle_alpha 90.000000
_cell_angle_beta 38.025194
_cell_angle_gamma 90.000000
_cell_volume 1427.734073
_symmetry_space_group_name_H-M "C C"
_symmetry_group_IT_number 9
_symmetry_cell_setting 'monoclinic'
loop_
_space_group_symop_operation_xyz
x,y,z
x,-y,1/2+z
1/2+x,1/2+y,z
1/2+x,1/2-y,1/2+z
loop_
_atom_site_type_symbol
_atom_site_label
_atom_site_fract_x
_atom_site_fract_y
_atom_site_fract_z
Si Si1 0.656970 0.486371 0.193290
Si Si2 0.466525 0.017384 0.282468
Si Si3 0.222287 0.429841 0.354810
Si Si4 0.579939 0.484768 0.475387
Si Si5 0.264691 0.765925 0.320223
Si Si6 0.837672 0.801478 0.655509
Si Si7 0.290719 0.182015 0.239595
Si Si8 0.926306 0.719009 0.056339
O O1 0.449290 0.429580 0.265685
O O2 0.791257 0.344707 0.136646
O O3 0.661950 0.562440 0.257235
O O4 0.747487 0.613922 0.115209
O O5 0.663554 0.083417 0.221494
O O6 0.406353 0.096259 0.244268
O O7 0.290051 0.052442 0.398228
O O8 0.442561 0.840410 0.283727
O O9 0.186962 0.603995 0.365333
O O10 0.184163 0.318728 0.314492
O O11 0.108651 0.364562 0.456744
O O12 0.606047 0.382820 0.405928
O O13 0.517246 0.383636 0.555823
O O14 0.421647 0.765520 0.630763
O O15 0.433875 0.617471 0.526580
O O16 0.336342 0.754325 0.223684
#
# Coordination Sequence:
#
# PCOD9136568 Si02
#       8
#     4   4   4   4   4   4   4   4
#     4  10  23  39  69  97 130 177 231 269 349 411
#     4  10  22  43  64  96 138 172 232 278 336 413
#     4  12  21  44  68  95 140 176 218 297 339 404
#     4  10  22  43  65  97 135 176 226 286 338 418
#     4  10  24  39  66  97 136 170 233 277 340 417
#     4  12  21  44  71  92 139 186 216 290 348 399
#     4  10  21  42  64  95 134 171 227 281 330 415
#     4  10  22  40  65  95 136 174 227 282 342 415
#
# _framework density 22.413136000000002
#
# number of rings (size 3 to 8) (size 9 to 14) (size 15 to 20)
#    1.500    0.000    3.750    1.500    1.750    0.000 
#    6.750    1.250    2.750    0.000    0.000    0.000 
#    0.000    0.000    0.000    0.000    0.000    0.000 
#
# Total GULP energy -89135.607812 kJ/mol
# GULP energy per Si atom -5570.975488 kJ/mol
# Density = 2.236212 g / cm^3
# Si number density = 22.413136 Si / 1000 Ang^3
#
#
#
# Elastic Constant Matrix: (Units=GPa)
#
#
# Indices 1 2 3 4 5 6 
#
# 1 28.3196 12.6344 22.7915 0.0000 2.9121 0.0000
# 2 12.6344 127.4877 49.7123 0.0000 11.2838 0.0000
# 3 22.7915 49.7123 126.4253 0.0000 23.1353 0.0000
# 4 0.0000 0.0000 0.0000 46.5443 0.0000 -1.0222
# 5 2.9121 11.2838 23.1353 0.0000 19.6408 0.0000
# 6 0.0000 0.0000 0.0000 -1.0222 0.0000 29.3217
#
#
#
# Elastic Compliance Matrix: (Units=1/GPa)
#
#
# Indices 1 2 3 4 5 6 
#
# 1 0.041718 -0.001493 -0.007596 0.000000 0.003620 0.000000
# 2 -0.001493 0.009345 -0.003140 0.000000 -0.001448 0.000000
# 3 -0.007596 -0.003140 0.012720 0.000000 -0.012052 0.000000
# 4 0.000000 0.000000 0.000000 0.021501 0.000000 0.000750
# 5 0.003620 -0.001448 -0.012052 0.000000 0.065406 0.000000
# 6 0.000000 0.000000 0.000000 0.000750 0.000000 0.034131
#
#
# Mechanical properties :
#
#
# Convention : Reuss Voigt Hill
#
# Bulk Modulus (GPa) = 25.42984 50.27876 37.85430
# Shear Modulus (GPa) = 22.48328 32.24099 27.36214
#
# Velocity S-wave (km/s) = 3.17066 3.79685 3.49780
# Velocity P-wave (km/s) = 4.97742 6.45778 5.76531
#
# Compressibility (1/GPa) = 0.03932387
#
# Stress axis : x y z
#
# Youngs Moduli (GPa) = 23.97021 107.01456 78.61900
#
# Poissons Ratio (x) = 0.15974 0.59722
# Poissons Ratio (y) = 0.03578 0.24689
# Poissons Ratio (z) = 0.18209 0.33606
#
# Static dielectric constant tensor:
#      x y z
#    x 1.864130 0.000000 -0.018240 
#    y 0.000000 1.914750 0.000000 
#    z -0.018240 0.000000 1.833800 
# 
# From -- ./inp_files/36687.got.cif
#   From: 2010.05.17/outbox.cif.g08.bks.cpg/sg9_19_cif.got.tgz:36687.got - 2010.06.03 20:04:27.
