data_PCOD9136844
_publ_section_title
;
Structure prediction by ZEFSAII (Michael W. Deem and Ramdas Pophale) SiO2 
 PCOD9136844
Probable space group: C C
;
_chemical_formula_sum "Si O2"
_cell_formula_units_Z 28
_cell_length_a 10.402432
_cell_length_b 9.203550
_cell_length_c 23.356116
_cell_angle_alpha 90.000000
_cell_angle_beta 152.322925
_cell_angle_gamma 90.000000
_cell_volume 1038.640248
_symmetry_space_group_name_H-M "C C"
_symmetry_group_IT_number 9
_symmetry_cell_setting 'monoclinic'
loop_
_space_group_symop_operation_xyz
x,y,z
x,-y,1/2+z
1/2+x,1/2+y,z
1/2+x,1/2-y,1/2+z
loop_
_atom_site_type_symbol
_atom_site_label
_atom_site_fract_x
_atom_site_fract_y
_atom_site_fract_z
Si Si1 0.780740 0.550933 0.111030
Si Si2 0.008203 0.262498 0.225894
Si Si3 0.691546 0.725071 0.767716
Si Si4 0.645304 0.576185 0.434714
Si Si5 0.347819 0.781941 0.462679
Si Si6 0.430772 0.628206 0.079230
Si Si7 0.447691 0.077757 0.381281
O O1 0.020353 0.435414 0.224936
O O2 0.588261 0.553428 0.090062
O O3 0.884765 0.714261 0.141121
O O4 0.648946 0.487468 0.001513
O O5 0.089419 0.192934 0.196025
O O6 0.259586 0.171645 0.352479
O O7 0.679826 0.234464 0.105328
O O8 0.773604 0.741185 0.866828
O O9 0.777532 0.562219 0.785537
O O10 0.860309 0.850881 0.801253
O O11 0.757083 0.443565 0.443048
O O12 0.820113 0.722539 0.508740
O O13 0.147135 0.675627 0.419557
O O14 0.187381 0.523725 0.005422
#
# Coordination Sequence:
#
# PCOD9136844 Si02
#       7
#     4   4   4   4   4   4   4
#     4  11  22  44  71 101 137 188 233 284 349 415
#     4  11  23  43  71 104 137 188 232 280 355 413
#     4  11  24  46  68 103 142 180 235 286 349 413
#     4  10  24  43  67  99 138 182 227 286 348 415
#     4  12  23  46  71  96 146 180 227 294 343 406
#     4  10  21  44  69  96 144 179 229 294 339 404
#     4  11  23  42  67 101 136 181 231 280 343 412
#
# _framework density 26.958323
#
# number of rings (size 3 to 8) (size 9 to 14) (size 15 to 20)
#    0.000    1.143    5.714    1.714    2.000    3.429 
#    2.571    2.857    0.000    0.000    0.000    0.000 
#    0.000    0.000    0.000    0.000    0.000    0.000 
#
# Total GULP energy -78206.951116 kJ/mol
# GULP energy per Si atom -5586.210794 kJ/mol
# Density = 2.689696 g / cm^3
# Si number density = 26.958323 Si / 1000 Ang^3
#
#
#
# Elastic Constant Matrix: (Units=GPa)
#
#
# Indices 1 2 3 4 5 6 
#
# 1 116.7690 53.3191 45.2704 0.0003 16.1724 0.0000
# 2 53.3191 190.2059 54.9388 0.0012 33.1786 -0.0002
# 3 45.2704 54.9388 79.7980 0.0018 26.2951 -0.0005
# 4 0.0003 0.0012 0.0018 30.7160 -0.0002 15.1273
# 5 16.1724 33.1786 26.2951 -0.0002 48.9976 -0.0001
# 6 0.0000 -0.0002 -0.0005 15.1273 -0.0001 55.0105
#
#
#
# Elastic Compliance Matrix: (Units=1/GPa)
#
#
# Indices 1 2 3 4 5 6 
#
# 1 0.011384 -0.001682 -0.005391 0.000000 0.000274 0.000000
# 2 -0.001682 0.007063 -0.003056 0.000000 -0.002588 0.000000
# 3 -0.005391 -0.003056 0.019954 -0.000001 -0.006860 0.000001
# 4 0.000000 0.000000 -0.000001 0.037656 0.000001 -0.010355
# 5 0.000274 -0.002588 -0.006860 0.000001 0.025752 0.000000
# 6 0.000000 0.000000 0.000001 -0.010355 0.000000 0.021026
#
#
# Mechanical properties :
#
#
# Convention : Reuss Voigt Hill
#
# Bulk Modulus (GPa) = 55.11415 77.09217 66.10316
# Shear Modulus (GPa) = 33.52555 42.49447 38.01001
#
# Velocity S-wave (km/s) = 3.53031 3.97457 3.75901
# Velocity P-wave (km/s) = 6.09147 7.05137 6.58893
#
# Compressibility (1/GPa) = 0.01814416
#
# Stress axis : x y z
#
# Youngs Moduli (GPa) = 87.84380 141.58371 50.11481
#
# Poissons Ratio (x) = 0.23815 0.27015
# Poissons Ratio (y) = 0.14775 0.15314
# Poissons Ratio (z) = 0.47353 0.43265
#
# Static dielectric constant tensor:
#      x y z
#    x 2.140420 0.000000 0.074670 
#    y 0.000000 2.353640 0.000000 
#    z 0.074670 0.000000 2.679180 
# 
# From -- ./inp_files/37267.got.cif
#   From: 2010.05.17/outbox.cif.g08.bks.cpg/sg9_19_cif.got.tgz:37267.got - 2010.06.03 20:04:27.
