data_PCOD9136775
_publ_section_title
;
Structure prediction by ZEFSAII (Michael W. Deem and Ramdas Pophale) SiO2 
 PCOD9136775
Probable space group: C C
;
_chemical_formula_sum "Si O2"
_cell_formula_units_Z 28
_cell_length_a 7.496559
_cell_length_b 17.179487
_cell_length_c 9.644825
_cell_angle_alpha 90.000000
_cell_angle_beta 60.846739
_cell_angle_gamma 90.000000
_cell_volume 1084.775311
_symmetry_space_group_name_H-M "C C"
_symmetry_group_IT_number 9
_symmetry_cell_setting 'monoclinic'
loop_
_space_group_symop_operation_xyz
x,y,z
x,-y,1/2+z
1/2+x,1/2+y,z
1/2+x,1/2-y,1/2+z
loop_
_atom_site_type_symbol
_atom_site_label
_atom_site_fract_x
_atom_site_fract_y
_atom_site_fract_z
Si Si1 0.569550 0.427916 0.400530
Si Si2 0.295699 0.277465 0.562880
Si Si3 0.541328 0.277480 0.890161
Si Si4 0.267465 0.427933 0.052483
Si Si5 0.418536 0.136949 0.226506
Si Si6 0.366459 0.103983 0.547714
Si Si7 0.970565 0.603996 0.905299
O O1 0.451267 0.346231 0.470229
O O2 0.418501 0.499988 0.476524
O O3 0.838334 0.594449 0.393354
O O4 0.757074 0.430433 0.436810
O O5 0.379824 0.196041 0.583072
O O6 0.168471 0.249985 0.476559
O O7 0.107864 0.314347 0.719191
O O8 0.729219 0.314331 0.733847
O O9 0.457218 0.196055 0.869955
O O10 0.385766 0.346256 0.982743
O O11 0.159737 0.427677 0.244223
O O12 0.079938 0.430453 0.016208
O O13 0.498705 0.094459 0.059653
O O14 0.177277 0.072316 0.708789
#
# Coordination Sequence:
#
# PCOD9136775 Si02
#       7
#     4   4   4   4   4   4   4
#     4  11  25  45  71 107 151 197 243 307 378 437
#     4  10  21  43  74 110 145 191 243 297 362 448
#     4  10  21  43  74 110 145 191 243 297 362 448
#     4  11  25  45  71 107 151 197 243 307 378 437
#     4  10  22  40  72 112 140 182 244 304 356 430
#     4  10  22  45  73 104 144 193 249 302 363 447
#     4  10  22  45  73 104 144 193 249 302 363 447
#
# _framework density 25.811796999999999
#
# number of rings (size 3 to 8) (size 9 to 14) (size 15 to 20)
#    0.000    1.714    0.000    4.286    0.000    9.143 
#    0.000   20.000    0.000    0.000    0.000    0.000 
#    0.000    0.000    0.000    0.571    0.000    0.000 
#
# Total GULP energy -78396.591219 kJ/mol
# GULP energy per Si atom -5599.756516 kJ/mol
# Density = 2.575305 g / cm^3
# Si number density = 25.811797 Si / 1000 Ang^3
#
#
#
# Elastic Constant Matrix: (Units=GPa)
#
#
# Indices 1 2 3 4 5 6 
#
# 1 90.1807 74.5329 73.8729 0.0000 -18.4979 0.0000
# 2 74.5329 227.1478 82.7471 0.0000 -32.4697 0.0000
# 3 73.8729 82.7471 194.1333 0.0000 -6.3853 0.0000
# 4 0.0000 0.0000 0.0000 47.6972 0.0000 -23.0711
# 5 -18.4979 -32.4697 -6.3853 0.0000 60.3024 0.0000
# 6 0.0000 0.0000 0.0000 -23.0711 0.0000 39.3662
#
#
#
# Elastic Compliance Matrix: (Units=1/GPa)
#
#
# Indices 1 2 3 4 5 6 
#
# 1 0.019676 -0.003898 -0.005716 0.000000 0.003332 0.000000
# 2 -0.003898 0.006417 -0.001182 0.000000 0.002134 0.000000
# 3 -0.005716 -0.001182 0.007779 0.000000 -0.001566 0.000000
# 4 0.000000 0.000000 0.000000 0.029260 0.000000 0.017148
# 5 0.003332 0.002134 -0.001566 0.000000 0.018589 0.000000
# 6 0.000000 0.000000 0.000000 0.017148 0.000000 0.035453
#
#
# Mechanical properties :
#
#
# Convention : Reuss Voigt Hill
#
# Bulk Modulus (GPa) = 81.43254 108.19641 94.81447
# Shear Modulus (GPa) = 34.99971 48.16041 41.58006
#
# Velocity S-wave (km/s) = 3.68633 4.32421 4.01795
# Velocity P-wave (km/s) = 7.05236 8.18170 7.63793
#
# Compressibility (1/GPa) = 0.01228010
#
# Stress axis : x y z
#
# Youngs Moduli (GPa) = 50.82255 155.83740 128.55804
#
# Poissons Ratio (x) = 0.60739 0.73490
# Poissons Ratio (y) = 0.19809 0.15193
# Poissons Ratio (z) = 0.29053 0.18417
#
# Static dielectric constant tensor:
#      x y z
#    x 2.025220 0.000000 -0.012550 
#    y 0.000000 2.252240 0.000000 
#    z -0.012550 0.000000 2.083470 
# 
# From -- ./inp_files/23348.got.cif
#   From: 2010.05.17/outbox.cif.g08.bks.cpg/sg9_12_cif.got.tgz:23348.got - 2010.06.03 20:04:27.
