data_PCOD9136548
_publ_section_title
;
Structure prediction by ZEFSAII (Michael W. Deem and Ramdas Pophale) SiO2 
 PCOD9136548
Probable space group: C C
;
_chemical_formula_sum "Si O2"
_cell_formula_units_Z 32
_cell_length_a 8.725866
_cell_length_b 11.311268
_cell_length_c 16.887092
_cell_angle_alpha 90.000000
_cell_angle_beta 59.835682
_cell_angle_gamma 90.000000
_cell_volume 1441.065941
_symmetry_space_group_name_H-M "C C"
_symmetry_group_IT_number 9
_symmetry_cell_setting 'monoclinic'
loop_
_space_group_symop_operation_xyz
x,y,z
x,-y,1/2+z
1/2+x,1/2+y,z
1/2+x,1/2-y,1/2+z
loop_
_atom_site_type_symbol
_atom_site_label
_atom_site_fract_x
_atom_site_fract_y
_atom_site_fract_z
Si Si1 0.705850 0.769029 0.806230
Si Si2 0.250804 0.676197 0.558855
Si Si3 0.507732 0.752480 0.355610
Si Si4 0.357526 0.779011 0.102564
Si Si5 0.188199 0.512027 0.867012
Si Si6 0.691437 0.077687 0.051549
Si Si7 0.339924 0.809805 0.694333
Si Si8 0.542524 0.394692 0.238391
O O1 0.860960 0.737134 0.825930
O O2 0.791432 0.793370 0.697668
O O3 0.584045 0.657708 0.814900
O O4 0.609947 0.884468 0.865537
O O5 0.408502 0.710792 0.459597
O O6 0.264956 0.754775 0.632984
O O7 0.063232 0.695638 0.562725
O O8 0.266722 0.538083 0.575044
O O9 0.591422 0.881314 0.348149
O O10 0.666653 0.663291 0.290929
O O11 0.301482 0.696081 0.044184
O O12 0.232445 0.896881 0.144048
O O13 0.394140 0.506280 0.785131
O O14 0.187650 0.545048 0.959691
O O15 0.491330 0.097218 0.134563
O O16 0.443833 0.709140 0.715901
#
# Coordination Sequence:
#
# PCOD9136548 Si02
#       8
#     4   4   4   4   4   4   4   4
#     4  10  21  42  58  92 124 159 206 257 309 366
#     4  12  23  43  64  93 131 162 207 263 315 365
#     4  11  23  39  67  93 124 167 207 262 311 374
#     4   9  23  41  61  91 127 162 207 258 305 374
#     4  11  22  39  66  88 125 167 205 258 314 366
#     4  11  24  40  63  91 125 169 206 259 310 376
#     4  10  21  43  63  91 126 163 214 253 312 373
#     4   8  21  39  62  91 120 165 204 260 300 374
#
# _framework density 22.205786
#
# number of rings (size 3 to 8) (size 9 to 14) (size 15 to 20)
#    0.750    1.000    3.750    0.000    5.250    1.000 
#    0.000    3.750    0.000    0.000    0.000    0.000 
#    0.000    0.000    0.000    0.000    0.000    0.000 
#
# Total GULP energy -89267.184842 kJ/mol
# GULP energy per Si atom -5579.199053 kJ/mol
# Density = 2.215524 g / cm^3
# Si number density = 22.205786 Si / 1000 Ang^3
#
#
#
# Elastic Constant Matrix: (Units=GPa)
#
#
# Indices 1 2 3 4 5 6 
#
# 1 69.4914 25.0837 7.3994 0.0000 -18.0535 0.0000
# 2 25.0837 46.6611 1.9303 0.0000 -2.8958 0.0000
# 3 7.3994 1.9303 76.0109 0.0000 -10.3347 0.0000
# 4 0.0000 0.0000 0.0000 4.8218 0.0000 -1.5508
# 5 -18.0535 -2.8958 -10.3347 0.0000 37.8362 0.0000
# 6 0.0000 0.0000 0.0000 -1.5508 0.0000 36.9556
#
#
#
# Elastic Compliance Matrix: (Units=1/GPa)
#
#
# Indices 1 2 3 4 5 6 
#
# 1 0.020521 -0.010460 -0.000529 0.000000 0.008846 0.000000
# 2 -0.010460 0.026874 -0.000066 0.000000 -0.002952 0.000000
# 3 -0.000529 -0.000066 0.013682 0.000000 0.003480 0.000000
# 4 0.000000 0.000000 0.000000 0.210228 0.000000 0.008822
# 5 0.008846 -0.002952 0.003480 0.000000 0.031375 0.000000
# 6 0.000000 0.000000 0.000000 0.008822 0.000000 0.027430
#
#
# Mechanical properties :
#
#
# Convention : Reuss Voigt Hill
#
# Bulk Modulus (GPa) = 25.66314 28.99891 27.33103
# Shear Modulus (GPa) = 13.69081 26.43940 20.06510
#
# Velocity S-wave (km/s) = 2.48572 3.45433 3.00925
# Velocity P-wave (km/s) = 4.45202 5.38492 4.94054
#
# Compressibility (1/GPa) = 0.03896639
#
# Stress axis : x y z
#
# Youngs Moduli (GPa) = 48.73150 37.21093 73.08709
#
# Poissons Ratio (x) = 0.38924 0.03868
# Poissons Ratio (y) = 0.50975 0.00479
# Poissons Ratio (z) = 0.02579 0.00244
#
# Static dielectric constant tensor:
#      x y z
#    x 1.814770 0.000000 -0.021990 
#    y 0.000000 1.817520 0.000000 
#    z -0.021990 0.000000 1.844590 
# 
# From -- ./inp_files/29247.got.cif
#   From: 2010.05.17/outbox.cif.g08.bks.cpg/sg9_15_cif.got.tgz:29247.got - 2010.06.03 20:04:27.
