data_PCOD9136933
_publ_section_title
;
Structure prediction by ZEFSAII (Michael W. Deem and Ramdas Pophale) SiO2 
 PCOD9136933
Probable space group: C C
;
_chemical_formula_sum "Si O2"
_cell_formula_units_Z 28
_cell_length_a 10.526961
_cell_length_b 9.522973
_cell_length_c 13.397776
_cell_angle_alpha 90.000000
_cell_angle_beta 114.544244
_cell_angle_gamma 90.000000
_cell_volume 1221.738325
_symmetry_space_group_name_H-M "C C"
_symmetry_group_IT_number 9
_symmetry_cell_setting 'monoclinic'
loop_
_space_group_symop_operation_xyz
x,y,z
x,-y,1/2+z
1/2+x,1/2+y,z
1/2+x,1/2-y,1/2+z
loop_
_atom_site_type_symbol
_atom_site_label
_atom_site_fract_x
_atom_site_fract_y
_atom_site_fract_z
Si Si1 0.137420 0.217231 0.823690
Si Si2 0.424825 0.434559 0.111408
Si Si3 0.149765 0.553987 0.820441
Si Si4 0.867512 0.639279 0.014665
Si Si5 0.180628 0.618373 0.065267
Si Si6 0.441728 0.667903 0.948434
Si Si7 0.876256 0.367950 0.109521
O O1 0.047966 0.126860 0.717394
O O2 0.148967 0.384247 0.805848
O O3 0.286733 0.141269 0.884240
O O4 0.058670 0.199191 0.904905
O O5 0.304838 0.513777 0.134270
O O6 0.351335 0.297786 0.043524
O O7 0.467533 0.539570 0.035359
O O8 0.298753 0.625813 0.843723
O O9 0.015173 0.620943 0.722184
O O10 0.148435 0.588259 0.938311
O O11 0.813502 0.521501 0.071271
O O12 0.031022 0.607425 0.064236
O O13 0.252896 0.767892 0.106814
O O14 0.416928 0.799886 0.014734
#
# Coordination Sequence:
#
# PCOD9136933 Si02
#       7
#     4   4   4   4   4   4   4
#     4  12  24  42  78 102 140 194 231 286 362 416
#     4  10  24  46  68 103 141 182 232 291 351 405
#     4  10  21  46  67 103 140 184 235 286 352 413
#     4  12  24  42  70 102 138 179 238 285 346 419
#     4  10  25  46  64 101 149 173 233 301 329 422
#     4  10  25  46  69 104 147 176 234 302 337 423
#     4  10  23  42  70  99 135 186 231 285 353 406
#
# _framework density 22.918164000000001
#
# number of rings (size 3 to 8) (size 9 to 14) (size 15 to 20)
#    0.000    1.714    4.286    0.857    4.000    5.714 
#    0.000    0.000    0.000    0.000    0.000    0.000 
#    0.000    0.000    0.000    0.000    0.000    0.000 
#
# Total GULP energy -78203.913514 kJ/mol
# GULP energy per Si atom -5585.993822 kJ/mol
# Density = 2.286600 g / cm^3
# Si number density = 22.918164 Si / 1000 Ang^3
#
#
#
# Elastic Constant Matrix: (Units=GPa)
#
#
# Indices 1 2 3 4 5 6 
#
# 1 76.2631 31.5328 30.4451 0.0000 22.0537 0.0000
# 2 31.5328 93.7716 22.1458 0.0000 20.4096 0.0000
# 3 30.4451 22.1458 137.2843 0.0000 40.9938 0.0000
# 4 0.0000 0.0000 0.0000 44.2941 0.0000 13.1502
# 5 22.0537 20.4096 40.9938 0.0000 44.1398 0.0000
# 6 0.0000 0.0000 0.0000 13.1502 0.0000 22.6190
#
#
#
# Elastic Compliance Matrix: (Units=1/GPa)
#
#
# Indices 1 2 3 4 5 6 
#
# 1 0.016949 -0.004229 -0.001566 0.000000 -0.005059 0.000000
# 2 -0.004229 0.012927 0.000009 0.000000 -0.003873 0.000000
# 3 -0.001566 0.000009 0.010236 0.000000 -0.008728 0.000000
# 4 0.000000 0.000000 0.000000 0.027286 0.000000 -0.015864
# 5 -0.005059 -0.003873 -0.008728 0.000000 0.035080 0.000000
# 6 0.000000 0.000000 0.000000 -0.015864 0.000000 0.053433
#
#
# Mechanical properties :
#
#
# Convention : Reuss Voigt Hill
#
# Bulk Modulus (GPa) = 35.03760 52.84072 43.93916
# Shear Modulus (GPa) = 28.24911 37.09025 32.66968
#
# Velocity S-wave (km/s) = 3.51466 4.02727 3.77967
# Velocity P-wave (km/s) = 5.63842 6.68816 6.18560
#
# Compressibility (1/GPa) = 0.02854077
#
# Stress axis : x y z
#
# Youngs Moduli (GPa) = 59.00076 77.35751 97.69069
#
# Poissons Ratio (x) = 0.32711 0.15299
# Poissons Ratio (y) = 0.24949 -0.00087
# Poissons Ratio (z) = 0.09240 -0.00069
#
# Static dielectric constant tensor:
#      x y z
#    x 1.884100 0.000000 -0.021150 
#    y 0.000000 1.833560 0.000000 
#    z -0.021150 0.000000 1.906350 
# 
# From -- ./inp_files/20798.got.cif
#   From: 2010.05.17/outbox.cif.g08.bks.cpg/sg9_11_cif.got.tgz:20798.got - 2010.06.03 20:04:27.
