data_PCOD9136878
_publ_section_title
;
Structure prediction by ZEFSAII (Michael W. Deem and Ramdas Pophale) SiO2 
 PCOD9136878
Probable space group: C C
;
_chemical_formula_sum "Si O2"
_cell_formula_units_Z 28
_cell_length_a 11.798744
_cell_length_b 11.033625
_cell_length_c 11.650157
_cell_angle_alpha 90.000000
_cell_angle_beta 44.931837
_cell_angle_gamma 90.000000
_cell_volume 1071.157903
_symmetry_space_group_name_H-M "C C"
_symmetry_group_IT_number 9
_symmetry_cell_setting 'monoclinic'
loop_
_space_group_symop_operation_xyz
x,y,z
x,-y,1/2+z
1/2+x,1/2+y,z
1/2+x,1/2-y,1/2+z
loop_
_atom_site_type_symbol
_atom_site_label
_atom_site_fract_x
_atom_site_fract_y
_atom_site_fract_z
Si Si1 0.440440 0.659839 0.942310
Si Si2 0.333941 0.781849 0.806839
Si Si3 0.590357 0.514881 0.490708
Si Si4 0.795618 0.162586 0.614059
Si Si5 0.297775 0.170801 0.911304
Si Si6 0.673683 0.134926 0.327333
Si Si7 0.566176 0.999456 0.612578
O O1 0.372781 0.669936 0.863061
O O2 0.579520 0.563290 0.877035
O O3 0.513601 0.793056 0.908920
O O4 0.294964 0.638452 0.134359
O O5 0.213825 0.882704 0.942939
O O6 0.236466 0.742990 0.762915
O O7 0.496948 0.862285 0.670269
O O8 0.428682 0.587458 0.587190
O O9 0.630884 0.403831 0.547566
O O10 0.858447 0.266433 0.482331
O O11 0.690513 0.067845 0.612917
O O12 0.261288 0.282197 0.856711
O O13 0.412538 0.082074 0.758291
O O14 0.621490 0.020865 0.441491
#
# Coordination Sequence:
#
# PCOD9136878 Si02
#       7
#     4   4   4   4   4   4   4
#     4  11  25  46  75 110 152 199 254 314 378 459
#     4  11  27  47  73 108 154 194 250 319 383 447
#     4  10  25  47  67 107 145 196 248 308 383 442
#     4  11  24  44  72 110 144 190 255 307 373 459
#     4   9  20  45  70 100 147 187 240 311 375 436
#     4  10  21  44  78 107 147 197 258 307 376 454
#     4  10  22  45  73 108 143 199 247 310 384 443
#
# _framework density 26.139938000000001
#
# number of rings (size 3 to 8) (size 9 to 14) (size 15 to 20)
#    0.000    1.714    1.429    0.857    4.000    3.429 
#    7.714    0.000    0.000    0.000    0.000    0.000 
#    0.000    0.000    0.000    0.000    0.000    0.000 
#
# Total GULP energy -78005.599772 kJ/mol
# GULP energy per Si atom -5571.828555 kJ/mol
# Density = 2.608044 g / cm^3
# Si number density = 26.139938 Si / 1000 Ang^3
#
#
#
# Elastic Constant Matrix: (Units=GPa)
#
#
# Indices 1 2 3 4 5 6 
#
# 1 124.1075 18.7328 46.2070 0.0000 10.2356 0.0000
# 2 18.7328 85.8780 29.7948 0.0000 8.7032 0.0000
# 3 46.2070 29.7948 85.7052 0.0000 17.8317 0.0000
# 4 0.0000 0.0000 0.0000 26.1757 0.0000 -4.6599
# 5 10.2356 8.7032 17.8317 0.0000 47.7531 0.0000
# 6 0.0000 0.0000 0.0000 -4.6599 0.0000 43.9517
#
#
#
# Elastic Compliance Matrix: (Units=1/GPa)
#
#
# Indices 1 2 3 4 5 6 
#
# 1 0.010091 -0.000353 -0.005293 0.000000 -0.000122 0.000000
# 2 -0.000353 0.013279 -0.004270 0.000000 -0.000750 0.000000
# 3 -0.005293 -0.004270 0.016923 0.000000 -0.004406 0.000000
# 4 0.000000 0.000000 0.000000 0.038938 0.000000 0.004128
# 5 -0.000122 -0.000750 -0.004406 0.000000 0.022749 0.000000
# 6 0.000000 0.000000 0.000000 0.004128 0.000000 0.023190
#
#
# Mechanical properties :
#
#
# Convention : Reuss Voigt Hill
#
# Bulk Modulus (GPa) = 48.87071 53.90664 51.38868
# Shear Modulus (GPa) = 32.93333 36.97319 34.95326
#
# Velocity S-wave (km/s) = 3.55334 3.76498 3.66069
# Velocity P-wave (km/s) = 5.96417 6.29024 6.12938
#
# Compressibility (1/GPa) = 0.02046215
#
# Stress axis : x y z
#
# Youngs Moduli (GPa) = 99.09471 75.30767 59.09247
#
# Poissons Ratio (x) = 0.02655 0.31275
# Poissons Ratio (y) = 0.03494 0.25233
# Poissons Ratio (z) = 0.52447 0.32158
#
# Static dielectric constant tensor:
#      x y z
#    x 2.141720 0.000000 -0.036730 
#    y 0.000000 2.100110 0.000000 
#    z -0.036730 0.000000 2.142970 
# 
# From -- ./inp_files/16380.got.cif
#   From: 2010.05.17/outbox.cif.g08.bks.cpg/sg9_9_cif.got.tgz:16380.got - 2010.06.03 20:04:27.
