data_PCOD9136335
_publ_section_title
;
Structure prediction by ZEFSAII (Michael W. Deem and Ramdas Pophale) SiO2 
 PCOD9136335
Probable space group: C C
;
_chemical_formula_sum "Si O2"
_cell_formula_units_Z 32
_cell_length_a 15.923047
_cell_length_b 9.541848
_cell_length_c 27.602866
_cell_angle_alpha 90.000000
_cell_angle_beta 159.803105
_cell_angle_gamma 90.000000
_cell_volume 1447.915404
_symmetry_space_group_name_H-M "C C"
_symmetry_group_IT_number 9
_symmetry_cell_setting 'monoclinic'
loop_
_space_group_symop_operation_xyz
x,y,z
x,-y,1/2+z
1/2+x,1/2+y,z
1/2+x,1/2-y,1/2+z
loop_
_atom_site_type_symbol
_atom_site_label
_atom_site_fract_x
_atom_site_fract_y
_atom_site_fract_z
Si Si1 0.809640 0.148232 0.796290
Si Si2 0.800622 0.872736 0.757257
Si Si3 0.717986 0.688098 0.554496
Si Si4 0.068053 0.227297 0.843314
Si Si5 0.945207 0.173831 0.613732
Si Si6 0.757588 0.627595 0.097844
Si Si7 0.150115 0.109074 0.262493
Si Si8 0.972176 0.400770 0.491453
O O1 0.707403 0.303636 0.744516
O O2 0.965665 0.135040 0.831729
O O3 0.672830 0.001418 0.718392
O O4 0.971867 0.142664 0.932283
O O5 0.664003 0.732042 0.699815
O O6 0.715914 0.902384 0.656374
O O7 0.074613 0.850447 0.926440
O O8 0.796307 0.538636 0.618469
O O9 0.523802 0.777192 0.480854
O O10 0.958148 0.784036 0.682393
O O11 0.251281 0.143962 0.907426
O O12 0.855848 0.297452 0.698240
O O13 0.224286 0.341935 0.956854
O O14 0.879370 0.287946 0.619128
O O15 0.005222 0.030893 0.672024
O O16 0.384717 0.045142 0.418123
#
# Coordination Sequence:
#
# PCOD9136335 Si02
#       8
#     4   4   4   4   4   4   4   4
#     4  10  25  40  68  99 136 181 227 290 347 420
#     4  10  22  45  66  94 138 182 233 275 362 424
#     4  11  25  43  69  98 139 183 237 288 353 422
#     4  10  22  41  68  96 130 180 228 281 349 416
#     4  10  21  40  67  92 136 176 220 284 355 405
#     4  10  21  43  66  92 136 179 226 276 352 420
#     4  12  25  42  69 104 140 176 234 301 347 410
#     4  11  25  42  73  99 139 187 235 289 355 425
#
# _framework density 22.100738
#
# number of rings (size 3 to 8) (size 9 to 14) (size 15 to 20)
#    0.000    1.500    2.500    0.750    7.000    5.000 
#    2.250    0.000    0.000    0.000    0.000    0.000 
#    0.000    0.000    0.000    0.000    0.000    0.000 
#
# Total GULP energy -89146.029515 kJ/mol
# GULP energy per Si atom -5571.626845 kJ/mol
# Density = 2.205044 g / cm^3
# Si number density = 22.100738 Si / 1000 Ang^3
#
#
#
# Elastic Constant Matrix: (Units=GPa)
#
#
# Indices 1 2 3 4 5 6 
#
# 1 65.0568 23.9584 20.3822 0.0033 -6.0769 0.0012
# 2 23.9584 136.4512 21.1448 0.0063 -5.3779 0.0000
# 3 20.3822 21.1448 84.3514 0.0420 -36.1633 -0.0020
# 4 0.0033 0.0063 0.0420 39.8077 -0.0084 2.5031
# 5 -6.0769 -5.3779 -36.1633 -0.0084 39.2228 -0.0017
# 6 0.0012 0.0000 -0.0020 2.5031 -0.0017 12.9766
#
#
#
# Elastic Compliance Matrix: (Units=1/GPa)
#
#
# Indices 1 2 3 4 5 6 
#
# 1 0.017473 -0.002467 -0.004280 0.000003 -0.001577 -0.000003
# 2 -0.002467 0.008007 -0.001826 0.000001 -0.000968 0.000000
# 3 -0.004280 -0.001826 0.021424 -0.000019 0.018839 0.000010
# 4 0.000003 0.000001 -0.000019 0.025429 -0.000011 -0.004905
# 5 -0.001577 -0.000968 0.018839 -0.000011 0.042488 0.000011
# 6 -0.000003 0.000000 0.000010 -0.004905 0.000011 0.078008
#
#
# Mechanical properties :
#
#
# Convention : Reuss Voigt Hill
#
# Bulk Modulus (GPa) = 33.60417 46.31449 39.95933
# Shear Modulus (GPa) = 22.73826 33.09302 27.91564
#
# Velocity S-wave (km/s) = 3.21104 3.87379 3.55788
# Velocity P-wave (km/s) = 5.38384 6.40390 5.91589
#
# Compressibility (1/GPa) = 0.02975821
#
# Stress axis : x y z
#
# Youngs Moduli (GPa) = 57.23038 124.89730 46.67693
#
# Poissons Ratio (x) = 0.30811 0.19977
# Poissons Ratio (y) = 0.14118 0.08523
# Poissons Ratio (z) = 0.24494 0.22805
#
# Static dielectric constant tensor:
#      x y z
#    x 1.848150 0.000000 0.046470 
#    y 0.000000 1.839430 -0.000010 
#    z 0.046470 -0.000010 1.891800 
# 
# From -- ./inp_files/26727.got.cif
#   From: 2010.05.17/outbox.cif.g08.bks.cpg/sg9_14_cif.got.tgz:26727.got - 2010.06.03 20:04:27.
