data_PCOD9136332
_publ_section_title
;
Structure prediction by ZEFSAII (Michael W. Deem and Ramdas Pophale) SiO2 
 PCOD9136332
Probable space group: C C
;
_chemical_formula_sum "Si O2"
_cell_formula_units_Z 24
_cell_length_a 11.852262
_cell_length_b 8.871341
_cell_length_c 11.014528
_cell_angle_alpha 90.000000
_cell_angle_beta 114.432018
_cell_angle_gamma 90.000000
_cell_volume 1054.420353
_symmetry_space_group_name_H-M "C C"
_symmetry_group_IT_number 9
_symmetry_cell_setting 'monoclinic'
loop_
_space_group_symop_operation_xyz
x,y,z
x,-y,1/2+z
1/2+x,1/2+y,z
1/2+x,1/2-y,1/2+z
loop_
_atom_site_type_symbol
_atom_site_label
_atom_site_fract_x
_atom_site_fract_y
_atom_site_fract_z
Si Si1 0.262530 0.451170 0.905540
Si Si2 0.458536 0.215789 0.041911
Si Si3 0.211110 0.282348 0.527107
Si Si4 0.246026 0.034359 0.063296
Si Si5 0.274660 0.259776 0.295478
Si Si6 0.047101 0.785142 0.345129
O O1 0.241904 0.561713 0.781903
O O2 0.142193 0.354927 0.884587
O O3 0.373224 0.336447 0.935246
O O4 0.287496 0.567733 0.028055
O O5 0.578020 0.173368 0.018425
O O6 0.368619 0.079762 0.042007
O O7 0.502335 0.295955 0.186190
O O8 0.209981 0.210229 0.390863
O O9 0.255878 0.135227 0.619366
O O10 0.238773 0.156480 0.168371
O O11 0.123625 0.075299 0.931905
O O12 0.423978 0.254895 0.368055
#
# Coordination Sequence:
#
# PCOD9136332 Si02
#       6
#     4   4   4   4   4   4
#     4   9  22  42  62  92 123 169 208 254 314 371
#     4  10  22  41  64  93 124 164 210 259 311 373
#     4  10  23  39  65  92 122 168 213 252 314 371
#     4  10  22  42  63  91 129 163 208 265 308 373
#     4   9  22  42  61  92 127 163 211 253 314 365
#     4  10  21  40  67  90 127 165 204 263 317 365
#
# _framework density 22.761320999999999
#
# number of rings (size 3 to 8) (size 9 to 14) (size 15 to 20)
#    1.000    1.333    0.000    1.000    4.667    4.000 
#    3.000    6.667    0.000    0.000    0.000    0.000 
#    0.000    0.000    0.000    0.000    0.000    0.000 
#
# Total GULP energy -66879.167834 kJ/mol
# GULP energy per Si atom -5573.263986 kJ/mol
# Density = 2.270952 g / cm^3
# Si number density = 22.761321 Si / 1000 Ang^3
#
#
#
# Elastic Constant Matrix: (Units=GPa)
#
#
# Indices 1 2 3 4 5 6 
#
# 1 65.5698 -26.4722 19.5479 0.0000 -6.6085 0.0000
# 2 -26.4722 71.3528 -1.9624 0.0000 10.2221 0.0000
# 3 19.5479 -1.9624 30.5390 0.0000 1.7546 0.0000
# 4 0.0000 0.0000 0.0000 9.5989 0.0000 -4.1056
# 5 -6.6085 10.2221 1.7546 0.0000 25.2554 0.0000
# 6 0.0000 0.0000 0.0000 -4.1056 0.0000 23.3584
#
#
#
# Elastic Compliance Matrix: (Units=1/GPa)
#
#
# Indices 1 2 3 4 5 6 
#
# 1 0.023026 0.007577 -0.014480 0.000000 0.003965 0.000000
# 2 0.007577 0.017423 -0.003453 0.000000 -0.004829 0.000000
# 3 -0.014480 -0.003453 0.042097 0.000000 -0.005316 0.000000
# 4 0.000000 0.000000 0.000000 0.112647 0.000000 0.019800
# 5 0.003965 -0.004829 -0.005316 0.000000 0.042957 0.000000
# 6 0.000000 0.000000 0.000000 0.019800 0.000000 0.046291
#
#
# Mechanical properties :
#
#
# Convention : Reuss Voigt Hill
#
# Bulk Modulus (GPa) = 16.17233 16.63202 16.40217
# Shear Modulus (GPa) = 15.34852 23.39910 19.37381
#
# Velocity S-wave (km/s) = 2.59959 3.20975 2.92065
# Velocity P-wave (km/s) = 4.01636 4.58908 4.31224
#
# Compressibility (1/GPa) = 0.06183402
#
# Stress axis : x y z
#
# Youngs Moduli (GPa) = 43.42888 57.39632 23.75459
#
# Poissons Ratio (x) = -0.43487 0.34396
# Poissons Ratio (y) = -0.32904 0.08202
# Poissons Ratio (z) = 0.62885 0.19817
#
# Static dielectric constant tensor:
#      x y z
#    x 1.809510 0.000000 -0.045240 
#    y 0.000000 1.996230 0.000000 
#    z -0.045240 0.000000 1.942970 
# 
# From -- ./inp_files/23996.got.cif
#   From: 2010.05.17/outbox.cif.g08.bks.cpg/sg9_12_cif.got.tgz:23996.got - 2010.06.03 20:04:27.
