data_PCOD9136665
_publ_section_title
;
Structure prediction by ZEFSAII (Michael W. Deem and Ramdas Pophale) SiO2 
 PCOD9136665
Probable space group: C C
;
_chemical_formula_sum "Si O2"
_cell_formula_units_Z 32
_cell_length_a 9.862218
_cell_length_b 13.027126
_cell_length_c 11.270747
_cell_angle_alpha 90.000000
_cell_angle_beta 69.450183
_cell_angle_gamma 90.000000
_cell_volume 1355.882859
_symmetry_space_group_name_H-M "C C"
_symmetry_group_IT_number 9
_symmetry_cell_setting 'monoclinic'
loop_
_space_group_symop_operation_xyz
x,y,z
x,-y,1/2+z
1/2+x,1/2+y,z
1/2+x,1/2-y,1/2+z
loop_
_atom_site_type_symbol
_atom_site_label
_atom_site_fract_x
_atom_site_fract_y
_atom_site_fract_z
Si Si1 0.457830 0.205621 0.251880
Si Si2 0.474493 0.430957 0.162326
Si Si3 0.643726 0.882748 0.492384
Si Si4 0.176983 0.779566 0.382948
Si Si5 0.574636 0.103141 0.558416
Si Si6 0.438308 0.445524 0.440746
Si Si7 0.466201 0.128326 0.836113
Si Si8 0.807352 0.572079 0.482757
O O1 0.420744 0.315158 0.204644
O O2 0.526432 0.137102 0.128567
O O3 0.591830 0.225093 0.301652
O O4 0.334609 0.144770 0.360581
O O5 0.451781 0.484385 0.299219
O O6 0.410646 0.480781 0.061873
O O7 0.645631 0.426025 0.080777
O O8 0.807764 0.861699 0.479300
O O9 0.577916 0.828925 0.397901
O O10 0.647718 0.006024 0.471788
O O11 0.347382 0.795513 0.318998
O O12 0.153430 0.708304 0.504170
O O13 0.088188 0.885876 0.419840
O O14 0.560564 0.083822 0.701064
O O15 0.414327 0.110237 0.552823
O O16 0.370750 0.039382 0.927680
#
# Coordination Sequence:
#
# PCOD9136665 Si02
#       8
#     4   4   4   4   4   4   4   4
#     4  10  23  43  71 104 139 192 234 298 363 429
#     4  11  25  43  74 103 144 187 245 299 362 430
#     4  11  26  43  68 100 146 178 231 293 366 430
#     4  10  23  44  72  98 133 182 242 291 352 420
#     4  10  22  41  71  96 134 183 232 288 353 423
#     4  11  26  46  70 106 145 186 231 306 369 425
#     4  11  22  44  69 102 131 183 241 292 348 432
#     4  10  21  42  73 103 136 187 244 299 349 433
#
# _framework density 23.600859
#
# number of rings (size 3 to 8) (size 9 to 14) (size 15 to 20)
#    0.000    1.500    2.500    1.500    8.750    1.000 
#    4.500    0.000    0.000    0.000    0.000    0.000 
#    0.000    0.000    0.000    0.000    0.000    0.000 
#
# Total GULP energy -89385.763922 kJ/mol
# GULP energy per Si atom -5586.610245 kJ/mol
# Density = 2.354714 g / cm^3
# Si number density = 23.600859 Si / 1000 Ang^3
#
#
#
# Elastic Constant Matrix: (Units=GPa)
#
#
# Indices 1 2 3 4 5 6 
#
# 1 84.4428 16.7363 21.5459 0.0000 -4.2512 0.0000
# 2 16.7363 26.6482 28.6364 0.0000 7.9944 0.0000
# 3 21.5459 28.6364 136.4947 0.0000 9.0370 0.0000
# 4 0.0000 0.0000 0.0000 36.7903 0.0000 -2.1994
# 5 -4.2512 7.9944 9.0370 0.0000 32.8955 0.0000
# 6 0.0000 0.0000 0.0000 -2.1994 0.0000 19.4306
#
#
#
# Elastic Compliance Matrix: (Units=1/GPa)
#
#
# Indices 1 2 3 4 5 6 
#
# 1 0.014088 -0.009605 -0.000493 0.000000 0.004290 0.000000
# 2 -0.009605 0.057861 -0.009788 0.000000 -0.012614 0.000000
# 3 -0.000493 -0.009788 0.009477 0.000000 -0.000288 0.000000
# 4 0.000000 0.000000 0.000000 0.027366 0.000000 0.003098
# 5 0.004290 -0.012614 -0.000288 0.000000 0.034098 0.000000
# 6 0.000000 0.000000 0.000000 0.003098 0.000000 0.051816
#
#
# Mechanical properties :
#
#
# Convention : Reuss Voigt Hill
#
# Bulk Modulus (GPa) = 24.00760 42.38033 33.19396
# Shear Modulus (GPa) = 20.13192 29.86775 24.99984
#
# Velocity S-wave (km/s) = 2.92381 3.56130 3.25818
# Velocity P-wave (km/s) = 4.64679 5.90818 5.31504
#
# Compressibility (1/GPa) = 0.04165348
#
# Stress axis : x y z
#
# Youngs Moduli (GPa) = 70.98348 17.28289 105.52298
#
# Poissons Ratio (x) = 0.16601 0.05198
# Poissons Ratio (y) = 0.68183 1.03283
# Poissons Ratio (z) = 0.03497 0.16916
#
# Static dielectric constant tensor:
#      x y z
#    x 1.911350 0.000000 0.018930 
#    y 0.000000 1.941660 0.000000 
#    z 0.018930 0.000000 1.892360 
# 
# From -- ./inp_files/14718.got.cif
#   From: 2010.05.17/outbox.cif.g08.bks.cpg/sg9_8_cif.got.tgz:14718.got - 2010.06.03 20:04:27.
