data_PCOD9136673
_publ_section_title
;
Structure prediction by ZEFSAII (Michael W. Deem and Ramdas Pophale) SiO2 
 PCOD9136673
Probable space group: C C
;
_chemical_formula_sum "Si O2"
_cell_formula_units_Z 28
_cell_length_a 26.370685
_cell_length_b 6.795196
_cell_length_c 15.772498
_cell_angle_alpha 90.000000
_cell_angle_beta 158.879568
_cell_angle_gamma 90.000000
_cell_volume 1018.412397
_symmetry_space_group_name_H-M "C C"
_symmetry_group_IT_number 9
_symmetry_cell_setting 'monoclinic'
loop_
_space_group_symop_operation_xyz
x,y,z
x,-y,1/2+z
1/2+x,1/2+y,z
1/2+x,1/2-y,1/2+z
loop_
_atom_site_type_symbol
_atom_site_label
_atom_site_fract_x
_atom_site_fract_y
_atom_site_fract_z
Si Si1 0.569750 0.917051 0.668750
Si Si2 0.520456 0.443934 0.723331
Si Si3 0.416743 0.543452 0.384727
Si Si4 0.601328 0.112175 0.394463
Si Si5 0.305579 0.120444 0.990989
Si Si6 0.224438 0.286275 0.305109
Si Si7 0.633920 0.555250 0.570598
O O1 0.443020 0.773828 0.446269
O O2 0.545971 0.008793 0.723982
O O3 0.713802 0.781468 0.897251
O O4 0.600924 0.079217 0.647271
O O5 0.500092 0.431637 0.590619
O O6 0.580007 0.663782 0.829675
O O7 0.362207 0.415274 0.509488
O O8 0.606235 0.349223 0.936781
O O9 0.495228 0.531239 0.415375
O O10 0.259529 0.464766 0.147001
O O11 0.472174 0.103640 0.259226
O O12 0.259149 0.891932 0.924187
O O13 0.248853 0.168418 0.806572
O O14 0.193731 0.168519 0.169887
#
# Coordination Sequence:
#
# PCOD9136673 Si02
#       7
#     4   4   4   4   4   4   4
#     4  10  21  45  72 101 153 193 242 316 364 437
#     4  11  21  42  71 100 141 192 233 304 368 423
#     4  10  23  41  73 108 144 188 249 301 370 445
#     4  11  22  42  72 107 149 189 250 305 371 448
#     4   9  22  44  70 106 142 193 253 295 371 454
#     4  10  21  42  75  97 141 195 242 296 373 433
#     4   9  22  44  69  99 144 184 247 303 357 442
#
# _framework density 27.493772
#
# number of rings (size 3 to 8) (size 9 to 14) (size 15 to 20)
#    0.857    1.143    1.429    1.714    0.000    1.143 
#    5.143    4.286    3.143    0.000    0.000    0.000 
#    0.000    0.000    0.000    0.000    0.000    0.000 
#
# Total GULP energy -78047.499978 kJ/mol
# GULP energy per Si atom -5574.821427 kJ/mol
# Density = 2.743120 g / cm^3
# Si number density = 27.493772 Si / 1000 Ang^3
#
#
#
# Elastic Constant Matrix: (Units=GPa)
#
#
# Indices 1 2 3 4 5 6 
#
# 1 102.5437 36.9010 53.3425 0.0000 3.4184 0.0000
# 2 36.9010 87.5517 49.8271 0.0000 8.5776 0.0000
# 3 53.3425 49.8271 179.3065 0.0000 16.9252 0.0000
# 4 0.0000 0.0000 0.0000 37.8008 0.0000 7.8048
# 5 3.4184 8.5776 16.9252 0.0000 50.6416 0.0000
# 6 0.0000 0.0000 0.0000 7.8048 0.0000 39.7791
#
#
#
# Elastic Compliance Matrix: (Units=1/GPa)
#
#
# Indices 1 2 3 4 5 6 
#
# 1 0.012515 -0.003786 -0.002738 0.000000 0.000712 0.000000
# 2 -0.003786 0.014770 -0.002856 0.000000 -0.001292 0.000000
# 3 -0.002738 -0.002856 0.007354 0.000000 -0.001789 0.000000
# 4 0.000000 0.000000 0.000000 0.027571 0.000000 -0.005410
# 5 0.000712 -0.001292 -0.001789 0.000000 0.020515 0.000000
# 6 0.000000 0.000000 0.000000 -0.005410 0.000000 0.026200
#
#
# Mechanical properties :
#
#
# Convention : Reuss Voigt Hill
#
# Bulk Modulus (GPa) = 62.98001 72.17145 67.57573
# Shear Modulus (GPa) = 37.59986 40.93306 39.26646
#
# Velocity S-wave (km/s) = 3.70209 3.86270 3.78325
# Velocity P-wave (km/s) = 6.42111 6.79713 6.61180
#
# Compressibility (1/GPa) = 0.01587805
#
# Stress axis : x y z
#
# Youngs Moduli (GPa) = 79.90353 67.70689 135.97697
#
# Poissons Ratio (x) = 0.25635 0.37233
# Poissons Ratio (y) = 0.30253 0.38835
# Poissons Ratio (z) = 0.21879 0.19337
#
# Static dielectric constant tensor:
#      x y z
#    x 2.306030 0.000000 -0.096240 
#    y 0.000000 2.267470 0.000000 
#    z -0.096240 0.000000 2.143110 
# 
# From -- ./inp_files/31833.got.cif
#   From: 2010.05.17/outbox.cif.g08.bks.cpg/sg9_16_cif.got.tgz:31833.got - 2010.06.03 20:04:27.
