data_PCOD9136768
_publ_section_title
;
Structure prediction by ZEFSAII (Michael W. Deem and Ramdas Pophale) SiO2 
 PCOD9136768
Probable space group: C C
;
_chemical_formula_sum "Si O2"
_cell_formula_units_Z 28
_cell_length_a 23.036093
_cell_length_b 11.995663
_cell_length_c 9.111094
_cell_angle_alpha 90.000000
_cell_angle_beta 150.434683
_cell_angle_gamma 90.000000
_cell_volume 1242.270993
_symmetry_space_group_name_H-M "C C"
_symmetry_group_IT_number 9
_symmetry_cell_setting 'monoclinic'
loop_
_space_group_symop_operation_xyz
x,y,z
x,-y,1/2+z
1/2+x,1/2+y,z
1/2+x,1/2-y,1/2+z
loop_
_atom_site_type_symbol
_atom_site_label
_atom_site_fract_x
_atom_site_fract_y
_atom_site_fract_z
Si Si1 0.871760 0.719141 0.748160
Si Si2 0.618946 0.525750 0.356767
Si Si3 0.275195 0.024668 0.441252
Si Si4 0.467786 0.411581 0.774451
Si Si5 0.388342 0.789109 0.633191
Si Si6 0.644693 0.870356 0.291655
Si Si7 0.749991 0.935975 0.825150
O O1 0.885220 0.604605 0.686073
O O2 0.948885 0.800869 0.821128
O O3 0.743621 0.780406 0.460190
O O4 0.904924 0.717990 0.992696
O O5 0.729473 0.558436 0.502081
O O6 0.679132 0.443213 0.607641
O O7 0.546144 0.604928 0.302751
O O8 0.534506 0.483189 0.044980
O O9 0.305641 0.895631 0.490189
O O10 0.350921 0.481433 0.480330
O O11 0.322821 0.674586 0.538023
O O12 0.516208 0.819633 0.978797
O O13 0.666884 0.894468 0.511604
O O14 0.678871 0.985606 0.281895
#
# Coordination Sequence:
#
# PCOD9136768 Si02
#       7
#     4   4   4   4   4   4   4
#     4  10  23  43  66  99 140 178 244 292 345 442
#     4  10  22  40  68  95 132 183 233 285 351 422
#     4  11  23  43  60 103 142 175 238 286 355 441
#     4  10  21  43  72 100 132 187 238 294 360 416
#     4  11  24  43  68  97 148 189 219 302 364 423
#     4  10  24  44  73  98 136 188 232 297 362 418
#     4  10  23  46  67 104 138 178 246 290 349 444
#
# _framework density 22.539366000000001
#
# number of rings (size 3 to 8) (size 9 to 14) (size 15 to 20)
#    0.000    1.714    1.429    2.571    8.000    0.000 
#   12.857    0.000    0.000    0.000    0.000    0.000 
#    0.000    0.000    0.000    0.000    0.000    0.000 
#
# Total GULP energy -78034.847173 kJ/mol
# GULP energy per Si atom -5573.917655 kJ/mol
# Density = 2.248807 g / cm^3
# Si number density = 22.539366 Si / 1000 Ang^3
#
#
#
# Elastic Constant Matrix: (Units=GPa)
#
#
# Indices 1 2 3 4 5 6 
#
# 1 65.8276 22.0021 37.2521 0.0000 -12.1136 0.0000
# 2 22.0021 116.5656 30.3124 0.0000 -8.5309 0.0000
# 3 37.2521 30.3124 137.0096 0.0000 -6.6195 0.0000
# 4 0.0000 0.0000 0.0000 -177.5003 0.0000 -98.0984
# 5 -12.1136 -8.5309 -6.6195 0.0000 22.8185 0.0000
# 6 0.0000 0.0000 0.0000 -98.0984 0.0000 -24.3865
#
#
#
# Elastic Compliance Matrix: (Units=1/GPa)
#
#
# Indices 1 2 3 4 5 6 
#
# 1 0.020023 -0.001957 -0.004597 0.000000 0.008564 0.000000
# 2 -0.001957 0.009482 -0.001465 0.000000 0.002081 0.000000
# 3 -0.004597 -0.001465 0.008853 0.000000 -0.000420 0.000000
# 4 0.000000 0.000000 0.000000 0.004606 0.000000 -0.018528
# 5 0.008564 0.002081 -0.000420 0.000000 0.049027 0.000000
# 6 0.000000 0.000000 0.000000 -0.018528 0.000000 0.033524
#
#
# Mechanical properties :
#
#
# Convention : Reuss Voigt Hill
#
# Bulk Modulus (GPa) = 44.80680 55.39287 50.09983
# Shear Modulus (GPa) = 33.55883 -20.49124 6.53379
#
# Velocity S-wave (km/s) = 3.86281 -3.01845 1.70444
# Velocity P-wave (km/s) = 6.31012 3.53289 5.11365
#
# Compressibility (1/GPa) = 0.02231804
#
# Stress axis : x y z
#
# Youngs Moduli (GPa) = 49.94269 105.46815 112.96139
#
# Poissons Ratio (x) = 0.20641 0.51932
# Poissons Ratio (y) = 0.09774 0.16550
# Poissons Ratio (z) = 0.22960 0.15452
#
# Static dielectric constant tensor:
#      x y z
#    x 1.911150 0.000000 0.076820 
#    y 0.000000 4.298270 0.000000 
#    z 0.076820 0.000000 1.868640 
# 
# From -- ./inp_files/7004.got.cif
#   From: 2010.05.17/outbox.cif.g08.bks.cpg/sg9_4_cif.got.tgz:7004.got - 2010.06.03 20:04:27.
