data_PCOD9136394
_publ_section_title
;
Structure prediction by ZEFSAII (Michael W. Deem and Ramdas Pophale) SiO2 
 PCOD9136394
Probable space group: C C
;
_chemical_formula_sum "Si O2"
_cell_formula_units_Z 28
_cell_length_a 7.911383
_cell_length_b 15.621933
_cell_length_c 18.405511
_cell_angle_alpha 90.000000
_cell_angle_beta 33.080836
_cell_angle_gamma 90.000000
_cell_volume 1241.611954
_symmetry_space_group_name_H-M "C C"
_symmetry_group_IT_number 9
_symmetry_cell_setting 'monoclinic'
loop_
_space_group_symop_operation_xyz
x,y,z
x,-y,1/2+z
1/2+x,1/2+y,z
1/2+x,1/2-y,1/2+z
loop_
_atom_site_type_symbol
_atom_site_label
_atom_site_fract_x
_atom_site_fract_y
_atom_site_fract_z
Si Si1 0.395470 0.101785 0.965370
Si Si2 0.663769 0.880666 0.721749
Si Si3 0.733020 0.760588 0.571990
Si Si4 0.727634 0.144736 0.700786
Si Si5 0.477777 0.029326 0.675662
Si Si6 0.877421 0.591413 0.476895
Si Si7 0.807709 0.910609 0.441159
O O1 0.482704 0.133834 0.853657
O O2 0.599597 0.138648 0.956854
O O3 0.506260 0.002865 0.934687
O O4 0.028964 0.110305 0.107429
O O5 0.636900 0.795287 0.684249
O O6 0.462962 0.877201 0.865996
O O7 0.536736 0.958528 0.717735
O O8 0.419517 0.731961 0.642508
O O9 0.940756 0.674681 0.503054
O O10 0.887041 0.838309 0.472934
O O11 0.618081 0.116046 0.660781
O O12 0.009271 0.079738 0.617868
O O13 0.117499 0.049477 0.796168
O O14 0.629825 0.985988 0.550179
#
# Coordination Sequence:
#
# PCOD9136394 Si02
#       7
#     4   4   4   4   4   4   4
#     4  12  23  43  69 100 132 177 229 278 333 404
#     4  11  21  43  71  95 131 179 220 278 335 402
#     4   9  24  42  63  98 137 165 226 275 342 393
#     4  10  21  41  72  92 130 176 225 269 336 399
#     4  11  21  43  70  96 132 182 222 275 331 407
#     4  10  21  40  72  93 126 175 226 269 329 404
#     4  11  27  42  65 104 140 168 230 284 334 401
#
# _framework density 22.55133
#
# number of rings (size 3 to 8) (size 9 to 14) (size 15 to 20)
#    0.857    0.571    2.857    2.571    6.000    0.000 
#    5.143    0.000    0.000    0.000    0.000    0.000 
#    0.000    0.000    0.000    0.000    0.000    0.000 
#
# Total GULP energy -78024.664626 kJ/mol
# GULP energy per Si atom -5573.190330 kJ/mol
# Density = 2.250000 g / cm^3
# Si number density = 22.551330 Si / 1000 Ang^3
#
#
#
# Elastic Constant Matrix: (Units=GPa)
#
#
# Indices 1 2 3 4 5 6 
#
# 1 81.3895 12.6007 14.8437 0.0169 -11.3052 0.0058
# 2 12.6007 73.2503 13.8613 -0.0088 3.5947 -0.0030
# 3 14.8437 13.8613 50.5274 0.0570 -12.5173 -0.0597
# 4 0.0169 -0.0088 0.0570 25.0024 -0.0282 -2.4661
# 5 -11.3052 3.5947 -12.5173 -0.0282 34.4548 0.0044
# 6 0.0058 -0.0030 -0.0597 -2.4661 0.0044 30.2326
#
#
#
# Elastic Compliance Matrix: (Units=1/GPa)
#
#
# Indices 1 2 3 4 5 6 
#
# 1 0.013582 -0.002049 -0.002496 -0.000001 0.003764 -0.000008
# 2 -0.002049 0.015043 -0.004484 0.000012 -0.003871 -0.000005
# 3 -0.002496 -0.004484 0.023810 -0.000041 0.008299 0.000042
# 4 -0.000001 0.000012 -0.000041 0.040321 0.000016 0.003289
# 5 0.003764 -0.003871 0.008299 0.000016 0.033677 0.000012
# 6 -0.000008 -0.000005 0.000042 0.003289 0.000012 0.033345
#
#
# Mechanical properties :
#
#
# Convention : Reuss Voigt Hill
#
# Bulk Modulus (GPa) = 29.08777 31.97540 30.53159
# Shear Modulus (GPa) = 26.41397 28.86207 27.63802
#
# Velocity S-wave (km/s) = 3.42611 3.58136 3.50460
# Velocity P-wave (km/s) = 5.34579 5.59565 5.47215
#
# Compressibility (1/GPa) = 0.03437871
#
# Stress axis : x y z
#
# Youngs Moduli (GPa) = 73.62847 66.47758 41.99829
#
# Poissons Ratio (x) = 0.13620 0.10481
# Poissons Ratio (y) = 0.15085 0.18831
# Poissons Ratio (z) = 0.18375 0.29806
#
# Static dielectric constant tensor:
#      x y z
#    x 1.862490 -0.000020 -0.014450 
#    y -0.000020 1.898580 0.000000 
#    z -0.014450 0.000000 1.774690 
# 
# From -- ./inp_files/32832.got.cif
#   From: 2010.05.17/outbox.cif.g08.bks.cpg/sg9_17_cif.got.tgz:32832.got - 2010.06.03 20:04:27.
