data_PCOD9136792
_publ_section_title
;
Structure prediction by ZEFSAII (Michael W. Deem and Ramdas Pophale) SiO2 
 PCOD9136792
Probable space group: C C
;
_chemical_formula_sum "Si O2"
_cell_formula_units_Z 28
_cell_length_a 11.289690
_cell_length_b 9.309409
_cell_length_c 14.779939
_cell_angle_alpha 90.000000
_cell_angle_beta 59.706488
_cell_angle_gamma 90.000000
_cell_volume 1341.267216
_symmetry_space_group_name_H-M "C C"
_symmetry_group_IT_number 9
_symmetry_cell_setting 'monoclinic'
loop_
_space_group_symop_operation_xyz
x,y,z
x,-y,1/2+z
1/2+x,1/2+y,z
1/2+x,1/2-y,1/2+z
loop_
_atom_site_type_symbol
_atom_site_label
_atom_site_fract_x
_atom_site_fract_y
_atom_site_fract_z
Si Si1 0.263020 0.184661 0.490340
Si Si2 0.788961 0.024057 0.254643
Si Si3 0.963171 0.823907 0.843802
Si Si4 0.046509 0.612710 0.097890
Si Si5 0.994558 0.472053 0.415895
Si Si6 0.261425 0.179419 0.282324
Si Si7 0.821683 0.980354 0.536978
O O1 0.238949 0.144898 0.395892
O O2 0.343930 0.336571 0.469034
O O3 0.119718 0.233163 0.590651
O O4 0.362163 0.065393 0.490799
O O5 0.625969 0.060170 0.327855
O O6 0.788202 0.851064 0.266276
O O7 0.876434 0.107881 0.295929
O O8 0.846027 0.051137 0.132289
O O9 0.955620 0.652578 0.860331
O O10 0.125350 0.856759 0.778491
O O11 0.903210 0.892584 0.959472
O O12 0.897370 0.602947 0.195299
O O13 0.156836 0.497332 0.091123
O O14 0.043177 0.598446 0.991130
#
# Coordination Sequence:
#
# PCOD9136792 Si02
#       7
#     4   4   4   4   4   4   4
#     4  10  22  45  65  93 134 175 216 276 334 393
#     4  11  21  41  68  97 135 172 223 281 326 399
#     4  11  21  44  68  98 135 176 220 281 333 396
#     4  10  21  44  64  92 135 173 219 278 327 391
#     4  11  22  44  67 100 132 171 222 279 330 399
#     4  11  22  42  68  92 136 179 221 272 343 389
#     4  10  21  44  70  90 137 176 219 279 337 387
#
# _framework density 20.875779999999999
#
# number of rings (size 3 to 8) (size 9 to 14) (size 15 to 20)
#    0.857    0.571    5.714    1.714    0.000    1.143 
#   10.286    0.000    0.000    0.000    0.000    0.000 
#    0.000    0.000    0.000    0.000    0.000    0.000 
#
# Total GULP energy -78047.272301 kJ/mol
# GULP energy per Si atom -5574.805164 kJ/mol
# Density = 2.082827 g / cm^3
# Si number density = 20.875780 Si / 1000 Ang^3
#
#
#
# Elastic Constant Matrix: (Units=GPa)
#
#
# Indices 1 2 3 4 5 6 
#
# 1 124.2323 47.9745 41.8703 0.0000 -9.8845 0.0000
# 2 47.9745 36.3098 -0.0860 0.0000 -2.7913 0.0000
# 3 41.8703 -0.0860 71.8646 0.0000 0.0975 0.0000
# 4 0.0000 0.0000 0.0000 12.4124 0.0000 -3.9162
# 5 -9.8845 -2.7913 0.0975 0.0000 44.9137 0.0000
# 6 0.0000 0.0000 0.0000 -3.9162 0.0000 38.5374
#
#
#
# Elastic Compliance Matrix: (Units=1/GPa)
#
#
# Indices 1 2 3 4 5 6 
#
# 1 0.028213 -0.037013 -0.016487 0.000000 0.003945 0.000000
# 2 -0.037013 0.076230 0.021660 0.000000 -0.003455 0.000000
# 3 -0.016487 0.021660 0.023550 0.000000 -0.002333 0.000000
# 4 0.000000 0.000000 0.000000 0.083233 0.000000 0.008458
# 5 0.003945 -0.003455 -0.002333 0.000000 0.022923 0.000000
# 6 0.000000 0.000000 0.000000 0.008458 0.000000 0.026808
#
#
# Mechanical properties :
#
#
# Convention : Reuss Voigt Hill
#
# Bulk Modulus (GPa) = 15.54873 45.76935 30.65904
# Shear Modulus (GPa) = 14.44773 28.68256 21.56515
#
# Velocity S-wave (km/s) = 2.63360 3.71072 3.21755
# Velocity P-wave (km/s) = 4.08805 6.35071 5.34058
#
# Compressibility (1/GPa) = 0.06431392
#
# Stress axis : x y z
#
# Youngs Moduli (GPa) = 35.44448 13.11826 42.46254
#
# Poissons Ratio (x) = 0.48554 0.70010
# Poissons Ratio (y) = 1.31189 -0.91976
# Poissons Ratio (z) = 0.58439 -0.28415
#
# Static dielectric constant tensor:
#      x y z
#    x 1.790550 0.000000 -0.017640 
#    y 0.000000 1.755470 0.000000 
#    z -0.017640 0.000000 1.752350 
# 
# From -- ./inp_files/24032.got.cif
#   From: 2010.05.17/outbox.cif.g08.bks.cpg/sg9_13_cif.got.tgz:24032.got - 2010.06.03 20:04:27.
