data_PCOD9136243
_publ_section_title
;
Structure prediction by ZEFSAII (Michael W. Deem and Ramdas Pophale) SiO2 
 PCOD9136243
Probable space group: C C
;
_chemical_formula_sum "Si O2"
_cell_formula_units_Z 28
_cell_length_a 26.775195
_cell_length_b 5.415197
_cell_length_c 21.267530
_cell_angle_alpha 90.000000
_cell_angle_beta 20.955021
_cell_angle_gamma 90.000000
_cell_volume 1102.818162
_symmetry_space_group_name_H-M "C C"
_symmetry_group_IT_number 9
_symmetry_cell_setting 'monoclinic'
loop_
_space_group_symop_operation_xyz
x,y,z
x,-y,1/2+z
1/2+x,1/2+y,z
1/2+x,1/2-y,1/2+z
loop_
_atom_site_type_symbol
_atom_site_label
_atom_site_fract_x
_atom_site_fract_y
_atom_site_fract_z
Si Si1 0.464960 0.264189 0.596060
Si Si2 0.210410 0.579718 0.532636
Si Si3 0.409272 0.759621 0.619680
Si Si4 0.234041 0.232329 0.198826
Si Si5 0.653545 0.763037 0.750242
Si Si6 0.609782 0.421665 0.178728
Si Si7 0.024999 0.180815 0.157788
O O1 0.367889 0.501965 0.700281
O O2 0.557833 0.234300 0.424396
O O3 0.562657 0.329267 0.540388
O O4 0.388460 0.999304 0.687829
O O5 0.225819 0.294303 0.532491
O O6 0.358908 0.704748 0.347344
O O7 0.108405 0.599743 0.592777
O O8 0.137056 0.789295 0.662975
O O9 0.334944 0.775240 0.639946
O O10 0.575396 0.734417 0.411861
O O11 0.241697 0.484237 0.149375
O O12 0.250639 0.978659 0.141183
O O13 0.552730 0.705713 0.809366
O O14 0.546886 0.461745 0.183037
#
# Coordination Sequence:
#
# PCOD9136243 Si02
#       7
#     4   4   4   4   4   4   4
#     4  10  23  41  69 100 131 178 217 287 332 404
#     4  10  25  44  71  97 135 188 225 287 337 419
#     4  10  22  39  60  93 133 163 216 260 340 387
#     4  10  21  40  60  93 130 169 207 271 329 397
#     4  10  21  44  65 100 131 174 222 278 337 394
#     4  10  24  45  69  99 137 181 231 282 339 416
#     4  10  26  45  72  98 143 177 240 275 354 405
#
# _framework density 25.389496999999999
#
# number of rings (size 3 to 8) (size 9 to 14) (size 15 to 20)
#    0.857    1.143    0.000    1.714    4.000    4.571 
#   18.000    0.000    0.000    0.000    0.000    0.000 
#    0.000    0.000    0.000    0.000    0.000    0.000 
#
# Total GULP energy -77948.448057 kJ/mol
# GULP energy per Si atom -5567.746290 kJ/mol
# Density = 2.533171 g / cm^3
# Si number density = 25.389497 Si / 1000 Ang^3
#
#
#
# Elastic Constant Matrix: (Units=GPa)
#
#
# Indices 1 2 3 4 5 6 
#
# 1 180.8170 49.7152 6.0069 0.1121 -6.8970 0.0194
# 2 49.7152 218.1186 -2.6239 -0.1037 -1.0178 -0.0190
# 3 6.0069 -2.6239 32.2805 -0.0611 4.8555 0.0031
# 4 0.1121 -0.1037 -0.0611 8.5241 -0.0186 -9.2045
# 5 -6.8970 -1.0178 4.8555 -0.0186 38.2201 0.0000
# 6 0.0194 -0.0190 0.0031 -9.2045 0.0000 37.3696
#
#
#
# Elastic Compliance Matrix: (Units=1/GPa)
#
#
# Indices 1 2 3 4 5 6 
#
# 1 0.006004 -0.001380 -0.001414 -0.000146 0.001226 -0.000040
# 2 -0.001380 0.004907 0.000687 0.000117 -0.000206 0.000032
# 3 -0.001414 0.000687 0.031944 0.000334 -0.004295 0.000081
# 4 -0.000146 0.000117 0.000334 0.159832 0.000012 0.039368
# 5 0.001226 -0.000206 -0.004295 0.000012 0.026926 0.000003
# 6 -0.000040 0.000032 0.000081 0.039368 0.000003 0.036457
#
#
# Mechanical properties :
#
#
# Convention : Reuss Voigt Hill
#
# Bulk Modulus (GPa) = 25.87994 59.71251 42.79623
# Shear Modulus (GPa) = 17.65772 42.03060 29.84416
#
# Velocity S-wave (km/s) = 2.64004 4.07311 3.43221
# Velocity P-wave (km/s) = 4.41683 6.75944 5.70957
#
# Compressibility (1/GPa) = 0.03863997
#
# Stress axis : x y z
#
# Youngs Moduli (GPa) = 166.56506 203.81093 31.30474
#
# Poissons Ratio (x) = 0.28121 0.04427
# Poissons Ratio (y) = 0.22982 -0.02150
# Poissons Ratio (z) = 0.23553 -0.13996
#
# Static dielectric constant tensor:
#      x y z
#    x 2.077970 0.000210 0.063640 
#    y 0.000210 2.134920 0.000320 
#    z 0.063640 0.000320 1.983980 
# 
# From -- ./inp_files/20447.got.cif
#   From: 2010.05.17/outbox.cif.g08.bks.cpg/sg9_11_cif.got.tgz:20447.got - 2010.06.03 20:04:27.
