data_PCOD9136380
_publ_section_title
;
Structure prediction by ZEFSAII (Michael W. Deem and Ramdas Pophale) SiO2 
 PCOD9136380
Probable space group: C C
;
_chemical_formula_sum "Si O2"
_cell_formula_units_Z 28
_cell_length_a 12.924155
_cell_length_b 4.967133
_cell_length_c 18.403938
_cell_angle_alpha 90.000000
_cell_angle_beta 80.562868
_cell_angle_gamma 90.000000
_cell_volume 1165.469403
_symmetry_space_group_name_H-M "C C"
_symmetry_group_IT_number 9
_symmetry_cell_setting 'monoclinic'
loop_
_space_group_symop_operation_xyz
x,y,z
x,-y,1/2+z
1/2+x,1/2+y,z
1/2+x,1/2-y,1/2+z
loop_
_atom_site_type_symbol
_atom_site_label
_atom_site_fract_x
_atom_site_fract_y
_atom_site_fract_z
Si Si1 0.910860 0.073260 0.462910
Si Si2 0.939153 0.434815 0.056038
Si Si3 0.960614 0.131934 0.813601
Si Si4 0.160380 0.669339 0.057226
Si Si5 0.087675 0.633849 0.775200
Si Si6 0.732443 0.672362 0.131821
Si Si7 0.239401 0.351170 0.392018
O O1 0.924899 0.865954 0.528420
O O2 0.987330 0.933371 0.395056
O O3 0.804880 0.090528 0.425053
O O4 0.930436 0.371896 0.486533
O O5 0.846952 0.535415 0.119752
O O6 0.051057 0.514284 0.073095
O O7 0.841541 0.246743 0.833531
O O8 0.037698 0.343945 0.769059
O O9 0.991099 0.843225 0.777192
O O10 0.193094 0.769691 0.972501
O O11 0.235369 0.433559 0.079445
O O12 0.163456 0.933794 0.105353
O O13 0.179023 0.723632 0.710551
O O14 0.145018 0.616035 0.847230
#
# Coordination Sequence:
#
# PCOD9136380 Si02
#       7
#     4   4   4   4   4   4   4
#     4  10  21  40  70  94 131 154 219 275 311 359
#     4  12  22  44  66  98 129 166 214 276 309 380
#     4  10  23  41  62  97 132 162 215 264 309 387
#     4  12  25  42  74  92 126 173 218 259 334 364
#     4  12  26  42  67  93 137 172 209 257 334 370
#     4  12  25  45  62 100 131 171 212 266 310 400
#     4  10  24  42  71  98 124 170 215 271 315 380
#
# _framework density 24.024654000000002
#
# number of rings (size 3 to 8) (size 9 to 14) (size 15 to 20)
#    0.857    0.000    2.857    4.286    0.000    6.857 
#    0.000    0.000    0.000    0.000    0.000    0.000 
#    0.000    0.000    0.000    0.000    0.000    0.000 
#
# Total GULP energy -77975.224709 kJ/mol
# GULP energy per Si atom -5569.658908 kJ/mol
# Density = 2.396997 g / cm^3
# Si number density = 24.024654 Si / 1000 Ang^3
#
#
#
# Elastic Constant Matrix: (Units=GPa)
#
#
# Indices 1 2 3 4 5 6 
#
# 1 85.0161 5.9769 11.9018 0.0000 -8.6590 0.0000
# 2 5.9769 80.1442 7.6091 0.0000 13.8499 0.0000
# 3 11.9018 7.6091 61.5043 0.0000 -18.0063 0.0000
# 4 0.0000 0.0000 0.0000 22.6930 0.0000 -12.7481
# 5 -8.6590 13.8499 -18.0063 0.0000 34.6369 0.0000
# 6 0.0000 0.0000 0.0000 -12.7481 0.0000 22.9740
#
#
#
# Elastic Compliance Matrix: (Units=1/GPa)
#
#
# Indices 1 2 3 4 5 6 
#
# 1 0.012340 -0.001286 -0.001386 0.000000 0.002879 0.000000
# 2 -0.001286 0.014339 -0.003890 0.000000 -0.008077 0.000000
# 3 -0.001386 -0.003890 0.020479 0.000000 0.011855 0.000000
# 4 0.000000 0.000000 0.000000 0.064024 0.000000 0.035526
# 5 0.002879 -0.008077 0.011855 0.000000 0.038983 0.000000
# 6 0.000000 0.000000 0.000000 0.035526 0.000000 0.063241
#
#
# Mechanical properties :
#
#
# Convention : Reuss Voigt Hill
#
# Bulk Modulus (GPa) = 29.38229 30.84889 30.11559
# Shear Modulus (GPa) = 21.01954 29.47258 25.24606
#
# Velocity S-wave (km/s) = 2.96111 3.50632 3.24518
# Velocity P-wave (km/s) = 4.89362 5.40932 5.15792
#
# Compressibility (1/GPa) = 0.03403410
#
# Stress axis : x y z
#
# Youngs Moduli (GPa) = 81.03638 69.74217 48.82991
#
# Poissons Ratio (x) = 0.08970 0.06768
# Poissons Ratio (y) = 0.10423 0.18993
# Poissons Ratio (z) = 0.11232 0.27128
#
# Static dielectric constant tensor:
#      x y z
#    x 2.075030 0.000000 -0.081550 
#    y 0.000000 1.864900 0.000000 
#    z -0.081550 0.000000 2.011900 
# 
# From -- ./inp_files/30293.got.cif
#   From: 2010.05.17/outbox.cif.g08.bks.cpg/sg9_16_cif.got.tgz:30293.got - 2010.06.03 20:04:27.
