data_PCOD9136069
_publ_section_title
;
Structure prediction by ZEFSAII (Michael W. Deem and Ramdas Pophale) SiO2 
 PCOD9136069
Probable space group: C C
;
_chemical_formula_sum "Si O2"
_cell_formula_units_Z 32
_cell_length_a 11.783298
_cell_length_b 15.518509
_cell_length_c 9.333464
_cell_angle_alpha 90.000000
_cell_angle_beta 125.656350
_cell_angle_gamma 90.000000
_cell_volume 1386.749341
_symmetry_space_group_name_H-M "C C"
_symmetry_group_IT_number 9
_symmetry_cell_setting 'monoclinic'
loop_
_space_group_symop_operation_xyz
x,y,z
x,-y,1/2+z
1/2+x,1/2+y,z
1/2+x,1/2-y,1/2+z
loop_
_atom_site_type_symbol
_atom_site_label
_atom_site_fract_x
_atom_site_fract_y
_atom_site_fract_z
Si Si1 0.630620 0.296387 0.743990
Si Si2 0.236733 0.075290 0.887800
Si Si3 0.940306 0.749271 0.367691
Si Si4 0.198355 0.922634 0.049614
Si Si5 0.046841 0.535389 0.090368
Si Si6 0.631509 0.094294 0.449730
Si Si7 0.475518 0.182501 0.841859
Si Si8 0.850392 0.769084 0.000899
O O1 0.780186 0.268569 0.790601
O O2 0.520209 0.311651 0.535360
O O3 0.519133 0.158936 0.432237
O O4 0.638058 0.370368 0.869467
O O5 0.144641 0.079612 0.675217
O O6 0.281775 0.172664 0.961141
O O7 0.379427 0.021955 0.947639
O O8 0.190782 0.020916 0.990414
O O9 0.071267 0.714995 0.787027
O O10 0.954416 0.774992 0.211912
O O11 0.348355 0.873831 0.184215
O O12 0.067120 0.539659 0.273541
O O13 0.060793 0.627311 0.021327
O O14 0.155123 0.471340 0.095969
O O15 0.746991 0.153379 0.460160
O O16 0.414340 0.262544 0.889746
#
# Coordination Sequence:
#
# PCOD9136069 Si02
#       8
#     4   4   4   4   4   4   4   4
#     4  12  25  41  66 103 143 182 242 286 361 421
#     4  10  21  38  66  98 136 176 244 294 346 409
#     4  12  24  40  67 100 138 182 236 295 352 429
#     4  10  22  38  65  97 131 179 233 295 343 414
#     4  10  22  35  66  97 136 172 233 300 333 412
#     4  12  23  41  67 105 138 176 239 292 366 409
#     4  10  23  41  67 101 139 186 232 294 352 423
#     4  10  24  42  68 101 137 185 229 300 363 425
#
# _framework density 23.075545999999999
#
# number of rings (size 3 to 8) (size 9 to 14) (size 15 to 20)
#    0.000    1.500    5.000    2.250    7.000    0.000 
#    0.000    0.000    0.000   13.500    0.000    0.000 
#    0.000    0.000    0.000    0.000    0.000    0.000 
#
# Total GULP energy -89267.173962 kJ/mol
# GULP energy per Si atom -5579.198373 kJ/mol
# Density = 2.302302 g / cm^3
# Si number density = 23.075546 Si / 1000 Ang^3
#
#
#
# Elastic Constant Matrix: (Units=GPa)
#
#
# Indices 1 2 3 4 5 6 
#
# 1 71.7740 23.7356 6.2753 0.0000 -18.8879 0.0000
# 2 23.7356 44.8647 20.5458 0.0000 -10.3190 0.0000
# 3 6.2753 20.5458 139.7584 0.0000 -20.2689 0.0000
# 4 0.0000 0.0000 0.0000 36.0465 0.0000 -19.7523
# 5 -18.8879 -10.3190 -20.2689 0.0000 28.6388 0.0000
# 6 0.0000 0.0000 0.0000 -19.7523 0.0000 35.2775
#
#
#
# Elastic Compliance Matrix: (Units=1/GPa)
#
#
# Indices 1 2 3 4 5 6 
#
# 1 0.019588 -0.008712 0.002028 0.000000 0.011214 0.000000
# 2 -0.008712 0.029033 -0.003558 0.000000 0.002197 0.000000
# 3 0.002028 -0.003558 0.008464 0.000000 0.006045 0.000000
# 4 0.000000 0.000000 0.000000 0.040021 0.000000 0.022408
# 5 0.011214 0.002197 0.006045 0.000000 0.047384 0.000000
# 6 0.000000 0.000000 0.000000 0.022408 0.000000 0.040893
#
#
# Mechanical properties :
#
#
# Convention : Reuss Voigt Hill
#
# Bulk Modulus (GPa) = 27.32285 39.72337 33.52311
# Shear Modulus (GPa) = 22.92858 33.71524 28.32191
#
# Velocity S-wave (km/s) = 3.15561 3.82656 3.50717
# Velocity P-wave (km/s) = 5.01433 6.06426 5.56411
#
# Compressibility (1/GPa) = 0.03659940
#
# Stress axis : x y z
#
# Youngs Moduli (GPa) = 51.05289 34.44334 118.14689
#
# Poissons Ratio (x) = 0.30007 -0.23956
# Poissons Ratio (y) = 0.44477 0.42041
# Poissons Ratio (z) = -0.10352 0.12256
#
# Static dielectric constant tensor:
#      x y z
#    x 1.918360 0.000000 0.011920 
#    y 0.000000 1.926330 0.000000 
#    z 0.011920 0.000000 1.909040 
# 
# From -- ./inp_files/10866.got.cif
#   From: 2010.05.17/outbox.cif.g08.bks.cpg/sg9_6_cif.got.tgz:10866.got - 2010.06.03 20:04:27.
