data_PCOD9136114
_publ_section_title
;
Structure prediction by ZEFSAII (Michael W. Deem and Ramdas Pophale) SiO2 
 PCOD9136114
Probable space group: C C
;
_chemical_formula_sum "Si O2"
_cell_formula_units_Z 32
_cell_length_a 5.238339
_cell_length_b 22.250183
_cell_length_c 14.198344
_cell_angle_alpha 90.000000
_cell_angle_beta 124.798403
_cell_angle_gamma 90.000000
_cell_volume 1358.924641
_symmetry_space_group_name_H-M "C C"
_symmetry_group_IT_number 9
_symmetry_cell_setting 'monoclinic'
loop_
_space_group_symop_operation_xyz
x,y,z
x,-y,1/2+z
1/2+x,1/2+y,z
1/2+x,1/2-y,1/2+z
loop_
_atom_site_type_symbol
_atom_site_label
_atom_site_fract_x
_atom_site_fract_y
_atom_site_fract_z
Si Si1 0.009870 0.211424 0.987680
Si Si2 0.744270 0.121337 0.291705
Si Si3 0.823284 0.588107 0.051275
Si Si4 0.884610 0.351196 0.290519
Si Si5 0.958503 0.595671 0.428459
Si Si6 0.716403 0.759829 0.852680
Si Si7 0.640953 0.957958 0.439320
Si Si8 0.380002 0.189649 0.574431
O O1 0.006747 0.259192 0.901641
O O2 0.696297 0.174291 0.905515
O O3 0.254240 0.158632 0.024742
O O4 0.071706 0.249320 0.094742
O O5 0.489202 0.081335 0.186235
O O6 0.669743 0.118181 0.386855
O O7 0.694379 0.192142 0.264592
O O8 0.087811 0.102097 0.334703
O O9 0.497369 0.551586 0.979915
O O10 0.072825 0.573254 0.024563
O O11 0.908769 0.421940 0.318827
O O12 0.653956 0.307103 0.297727
O O13 0.865747 0.334634 0.177047
O O14 0.998043 0.634847 0.532396
O O15 0.049328 0.525815 0.444343
O O16 0.053189 0.781450 0.967226
#
# Coordination Sequence:
#
# PCOD9136114 Si02
#       8
#     4   4   4   4   4   4   4   4
#     4  10  21  39  61  96 135 170 218 280 342 412
#     4  11  24  42  71  98 133 179 227 278 352 411
#     4  11  24  42  71  98 133 179 227 278 352 411
#     4  10  23  39  64  96 134 178 226 277 349 411
#     4  11  24  46  67  97 137 179 235 290 329 404
#     4  10  21  39  61  96 135 170 218 280 342 412
#     4  11  24  46  67  97 137 179 235 290 329 404
#     4  10  23  39  64  96 134 178 226 277 349 411
#
# _framework density 23.548033
#
# number of rings (size 3 to 8) (size 9 to 14) (size 15 to 20)
#    0.000    1.500    2.500    1.500    3.500    1.000 
#    0.000    5.000    0.000    0.000    0.000    0.000 
#    0.000    0.000    0.000    0.000    0.000    0.000 
#
# Total GULP energy -89147.178495 kJ/mol
# GULP energy per Si atom -5571.698656 kJ/mol
# Density = 2.349444 g / cm^3
# Si number density = 23.548033 Si / 1000 Ang^3
#
#
#
# Elastic Constant Matrix: (Units=GPa)
#
#
# Indices 1 2 3 4 5 6 
#
# 1 75.0055 9.3820 10.1181 0.0000 -6.6398 0.0000
# 2 9.3820 102.3365 18.1754 0.0000 -4.2836 0.0000
# 3 10.1181 18.1754 57.0957 0.0000 -14.1539 0.0000
# 4 0.0000 0.0000 0.0000 9.1961 0.0000 -6.6296
# 5 -6.6398 -4.2836 -14.1539 0.0000 39.2580 0.0000
# 6 0.0000 0.0000 0.0000 -6.6296 0.0000 33.7506
#
#
#
# Elastic Compliance Matrix: (Units=1/GPa)
#
#
# Indices 1 2 3 4 5 6 
#
# 1 0.013824 -0.000886 -0.001770 0.000000 0.001603 0.000000
# 2 -0.000886 0.010414 -0.003200 0.000000 -0.000167 0.000000
# 3 -0.001770 -0.003200 0.020520 0.000000 0.006750 0.000000
# 4 0.000000 0.000000 0.000000 0.126682 0.000000 0.024884
# 5 0.001603 -0.000167 0.006750 0.000000 0.028159 0.000000
# 6 0.000000 0.000000 0.000000 0.024884 0.000000 0.034517
#
#
# Mechanical properties :
#
#
# Convention : Reuss Voigt Hill
#
# Bulk Modulus (GPa) = 30.26049 34.42097 32.34073
# Shear Modulus (GPa) = 19.46717 29.55841 24.51279
#
# Velocity S-wave (km/s) = 2.87836 3.54678 3.22991
# Velocity P-wave (km/s) = 4.89132 5.60553 5.26056
#
# Compressibility (1/GPa) = 0.03304639
#
# Stress axis : x y z
#
# Youngs Moduli (GPa) = 72.33850 96.02309 48.73312
#
# Poissons Ratio (x) = 0.08506 0.08628
# Poissons Ratio (y) = 0.06408 0.15593
# Poissons Ratio (z) = 0.12807 0.30724
#
# Static dielectric constant tensor:
#      x y z
#    x 1.980660 0.000000 0.058790 
#    y 0.000000 2.205400 0.000000 
#    z 0.058790 0.000000 1.933100 
# 
# From -- ./inp_files/22283.got.cif
#   From: 2010.05.17/outbox.cif.g08.bks.cpg/sg9_12_cif.got.tgz:22283.got - 2010.06.03 20:04:27.
