data_PCOD9136329
_publ_section_title
;
Structure prediction by ZEFSAII (Michael W. Deem and Ramdas Pophale) SiO2 
 PCOD9136329
Probable space group: C C
;
_chemical_formula_sum "Si O2"
_cell_formula_units_Z 20
_cell_length_a 8.079677
_cell_length_b 12.022576
_cell_length_c 7.486568
_cell_angle_alpha 90.000000
_cell_angle_beta 97.399933
_cell_angle_gamma 90.000000
_cell_volume 721.177310
_symmetry_space_group_name_H-M "C C"
_symmetry_group_IT_number 9
_symmetry_cell_setting 'monoclinic'
loop_
_space_group_symop_operation_xyz
x,y,z
x,-y,1/2+z
1/2+x,1/2+y,z
1/2+x,1/2-y,1/2+z
loop_
_atom_site_type_symbol
_atom_site_label
_atom_site_fract_x
_atom_site_fract_y
_atom_site_fract_z
Si Si1 0.941970 0.799574 0.047320
Si Si2 0.766048 0.572500 0.096653
Si Si3 0.425862 0.873349 0.954228
Si Si4 0.216326 0.648326 0.213844
Si Si5 0.411937 0.381230 0.432112
O O1 0.848934 0.679405 0.013933
O O2 0.879117 0.863484 0.217528
O O3 0.128965 0.763119 0.129232
O O4 0.884232 0.853762 0.855809
O O5 0.767933 0.611742 0.300506
O O6 0.884921 0.465464 0.093248
O O7 0.581464 0.554411 0.997664
O O8 0.580117 0.891613 0.839596
O O9 0.447519 0.745504 0.009054
O O10 0.259388 0.584646 0.037157
#
# Coordination Sequence:
#
# PCOD9136329 Si02
#       5
#     4   4   4   4   4
#     4  10  21  40  67 102 139 194 230 308 359 423
#     4  10  21  44  65 105 144 184 245 299 369 427
#     4  10  24  41  70 107 143 194 240 307 367 439
#     4  10  22  39  71 102 138 194 247 283 379 426
#     4  10  22  42  71 102 138 196 246 289 372 439
#
# _framework density 27.732430999999998
#
# number of rings (size 3 to 8) (size 9 to 14) (size 15 to 20)
#    0.000    2.400    4.000    0.000    8.400    0.000 
#    3.600    4.000    0.000    0.000    0.000    0.000 
#    0.000    0.000    0.000    0.000    0.000    0.000 
#
# Total GULP energy -55867.451213 kJ/mol
# GULP energy per Si atom -5586.745121 kJ/mol
# Density = 2.766931 g / cm^3
# Si number density = 27.732431 Si / 1000 Ang^3
#
#
#
# Elastic Constant Matrix: (Units=GPa)
#
#
# Indices 1 2 3 4 5 6 
#
# 1 143.2283 33.1013 53.5957 0.0000 -5.4493 0.0000
# 2 33.1013 84.5317 21.9862 0.0000 -5.0359 0.0000
# 3 53.5957 21.9862 148.6424 0.0000 17.9669 0.0000
# 4 0.0000 0.0000 0.0000 37.3729 0.0000 10.8678
# 5 -5.4493 -5.0359 17.9669 0.0000 46.0498 0.0000
# 6 0.0000 0.0000 0.0000 10.8678 0.0000 37.3008
#
#
#
# Elastic Compliance Matrix: (Units=1/GPa)
#
#
# Indices 1 2 3 4 5 6 
#
# 1 0.008772 -0.002533 -0.003023 0.000000 0.001940 0.000000
# 2 -0.002533 0.013242 -0.001243 0.000000 0.001633 0.000000
# 3 -0.003023 -0.001243 0.008460 0.000000 -0.003794 0.000000
# 4 0.000000 0.000000 0.000000 0.029234 0.000000 -0.008518
# 5 0.001940 0.001633 -0.003794 0.000000 0.023604 0.000000
# 6 0.000000 0.000000 0.000000 -0.008518 0.000000 0.029291
#
#
# Mechanical properties :
#
#
# Convention : Reuss Voigt Hill
#
# Bulk Modulus (GPa) = 59.25244 65.97431 62.61337
# Shear Modulus (GPa) = 37.92845 41.99266 39.96055
#
# Velocity S-wave (km/s) = 3.70220 3.89550 3.80008
# Velocity P-wave (km/s) = 6.29977 6.63886 6.47154
#
# Compressibility (1/GPa) = 0.01687694
#
# Stress axis : x y z
#
# Youngs Moduli (GPa) = 113.99536 75.51505 118.20394
#
# Poissons Ratio (x) = 0.19130 0.35731
# Poissons Ratio (y) = 0.28878 0.14690
# Poissons Ratio (z) = 0.34459 0.09384
#
# Static dielectric constant tensor:
#      x y z
#    x 2.232710 0.000000 -0.031850 
#    y 0.000000 2.242560 0.000000 
#    z -0.031850 0.000000 2.121220 
# 
# From -- ./inp_files/4682.got.cif
#   From: 2010.05.17/outbox.cif.g08.bks.cpg/sg9_3_cif.got.tgz:4682.got - 2010.06.03 20:04:27.
