data_PCOD9136977
_publ_section_title
;
Structure prediction by ZEFSAII (Michael W. Deem and Ramdas Pophale) SiO2 
 PCOD9136977
Probable space group: C C
;
_chemical_formula_sum "Si O2"
_cell_formula_units_Z 24
_cell_length_a 6.822889
_cell_length_b 9.100699
_cell_length_c 15.074384
_cell_angle_alpha 90.000000
_cell_angle_beta 84.519423
_cell_angle_gamma 90.000000
_cell_volume 931.735750
_symmetry_space_group_name_H-M "C C"
_symmetry_group_IT_number 9
_symmetry_cell_setting 'monoclinic'
loop_
_space_group_symop_operation_xyz
x,y,z
x,-y,1/2+z
1/2+x,1/2+y,z
1/2+x,1/2-y,1/2+z
loop_
_atom_site_type_symbol
_atom_site_label
_atom_site_fract_x
_atom_site_fract_y
_atom_site_fract_z
Si Si1 0.869400 0.453892 0.494120
Si Si2 0.398548 0.392466 0.513157
Si Si3 0.893322 0.835927 0.912829
Si Si4 0.372245 0.834845 0.153509
Si Si5 0.485480 0.184695 0.351365
Si Si6 0.176366 0.879854 0.743315
O O1 0.633950 0.424402 0.519349
O O2 0.957741 0.294717 0.473847
O O3 0.938149 0.555403 0.571376
O O4 0.925994 0.531176 0.399356
O O5 0.315555 0.545610 0.485196
O O6 0.300451 0.306309 0.598567
O O7 0.393344 0.298931 0.423478
O O8 0.717489 0.795634 0.852931
O O9 0.060810 0.894532 0.841313
O O10 0.549078 0.749369 0.198923
O O11 0.223581 0.952735 0.207440
O O12 0.389714 0.187127 0.259391
#
# Coordination Sequence:
#
# PCOD9136977 Si02
#       6
#     4   4   4   4   4   4
#     4  10  21  48  75 108 152 214 268 325 403 500
#     4  10  22  46  75 109 147 211 271 324 401 505
#     4  11  25  44  82 110 147 210 285 326 398 503
#     4  11  25  46  79 112 167 210 261 348 423 479
#     4  10  24  43  77 106 151 207 272 322 401 495
#     4  12  25  47  78 117 164 210 265 353 414 478
#
# _framework density 25.758374
#
# number of rings (size 3 to 8) (size 9 to 14) (size 15 to 20)
#    0.000    1.333    3.333    1.000    7.000    0.000 
#    0.000    8.333    0.000    0.000    0.000    0.000 
#    0.000    0.000    0.000    0.000    0.000    0.000 
#
# Total GULP energy -66910.363855 kJ/mol
# GULP energy per Si atom -5575.863655 kJ/mol
# Density = 2.569975 g / cm^3
# Si number density = 25.758374 Si / 1000 Ang^3
#
#
#
# Elastic Constant Matrix: (Units=GPa)
#
#
# Indices 1 2 3 4 5 6 
#
# 1 130.0738 36.7350 43.7124 0.0000 2.8036 0.0000
# 2 36.7350 162.7598 53.1005 0.0000 27.9720 0.0000
# 3 43.7124 53.1005 89.7500 0.0000 13.6574 0.0000
# 4 0.0000 0.0000 0.0000 31.3762 0.0000 -2.9485
# 5 2.8036 27.9720 13.6574 0.0000 35.4201 0.0000
# 6 0.0000 0.0000 0.0000 -2.9485 0.0000 33.0770
#
#
#
# Elastic Compliance Matrix: (Units=1/GPa)
#
#
# Indices 1 2 3 4 5 6 
#
# 1 0.009356 -0.001031 -0.004204 0.000000 0.001695 0.000000
# 2 -0.001031 0.008484 -0.003729 0.000000 -0.005180 0.000000
# 3 -0.004204 -0.003729 0.015826 0.000000 -0.002825 0.000000
# 4 0.000000 0.000000 0.000000 0.032141 0.000000 0.002865
# 5 0.001695 -0.005180 -0.002825 0.000000 0.033278 0.000000
# 6 0.000000 0.000000 0.000000 0.002865 0.000000 0.030488
#
#
# Mechanical properties :
#
#
# Convention : Reuss Voigt Hill
#
# Bulk Modulus (GPa) = 63.54794 72.18662 67.86728
# Shear Modulus (GPa) = 32.73411 36.57705 34.65558
#
# Velocity S-wave (km/s) = 3.56872 3.77239 3.67196
# Velocity P-wave (km/s) = 6.45797 6.86002 6.66203
#
# Compressibility (1/GPa) = 0.01573615
#
# Stress axis : x y z
#
# Youngs Moduli (GPa) = 106.88831 117.87504 63.18804
#
# Poissons Ratio (x) = 0.12155 0.26567
# Poissons Ratio (y) = 0.11022 0.23561
# Poissons Ratio (z) = 0.44940 0.43953
#
# Static dielectric constant tensor:
#      x y z
#    x 2.186560 0.000000 0.041840 
#    y 0.000000 2.100970 0.000000 
#    z 0.041840 0.000000 2.047990 
# 
# From -- ./inp_files/22359.got.cif
#   From: 2010.05.17/outbox.cif.g08.bks.cpg/sg9_12_cif.got.tgz:22359.got - 2010.06.03 20:04:27.
