data_PCOD9136237
_publ_section_title
;
Structure prediction by ZEFSAII (Michael W. Deem and Ramdas Pophale) SiO2 
 PCOD9136237
Probable space group: C C
;
_chemical_formula_sum "Si O2"
_cell_formula_units_Z 24
_cell_length_a 14.036970
_cell_length_b 11.880440
_cell_length_c 11.875124
_cell_angle_alpha 90.000000
_cell_angle_beta 30.765412
_cell_angle_gamma 90.000000
_cell_volume 1013.001920
_symmetry_space_group_name_H-M "C C"
_symmetry_group_IT_number 9
_symmetry_cell_setting 'monoclinic'
loop_
_space_group_symop_operation_xyz
x,y,z
x,-y,1/2+z
1/2+x,1/2+y,z
1/2+x,1/2-y,1/2+z
loop_
_atom_site_type_symbol
_atom_site_label
_atom_site_fract_x
_atom_site_fract_y
_atom_site_fract_z
Si Si1 0.070590 0.360326 0.953010
Si Si2 0.544393 0.317223 0.682312
Si Si3 0.762763 0.513544 0.375606
Si Si4 0.342837 0.559211 0.740063
Si Si5 0.563313 0.890102 0.716917
Si Si6 0.191482 0.373857 0.165369
O O1 0.252783 0.437011 0.795168
O O2 0.067451 0.317245 0.826856
O O3 0.052585 0.257662 0.060229
O O4 0.901180 0.447666 0.150511
O O5 0.700221 0.412048 0.521102
O O6 0.572989 0.233166 0.755541
O O7 0.352832 0.376299 0.907372
O O8 0.565264 0.553145 0.526784
O O9 0.881072 0.606676 0.322919
O O10 0.279463 0.631273 0.697757
O O11 0.240031 0.611234 0.953747
O O12 0.575406 0.014424 0.760222
#
# Coordination Sequence:
#
# PCOD9136237 Si02
#       6
#     4   4   4   4   4   4
#     4  10  22  36  60  93 127 154 203 263 303 360
#     4  12  19  38  62  96 118 156 207 261 304 352
#     4  11  21  36  64  94 117 159 214 248 306 365
#     4  10  22  39  61  91 126 166 200 252 313 370
#     4  10  21  40  60  91 124 162 203 255 304 373
#     4  11  21  37  63  93 126 159 207 259 304 370
#
# _framework density 23.691959000000001
#
# number of rings (size 3 to 8) (size 9 to 14) (size 15 to 20)
#    0.000    1.333    6.667    0.000    2.333    0.000 
#    3.000    0.000    3.667    0.000    0.000    0.000 
#    0.000    0.000    0.000    0.000    0.000    0.000 
#
# Total GULP energy -67021.451320 kJ/mol
# GULP energy per Si atom -5585.120943 kJ/mol
# Density = 2.363804 g / cm^3
# Si number density = 23.691959 Si / 1000 Ang^3
#
#
#
# Elastic Constant Matrix: (Units=GPa)
#
#
# Indices 1 2 3 4 5 6 
#
# 1 159.7857 14.8024 49.5222 -0.0001 0.4199 0.0000
# 2 14.8024 32.0909 5.5439 -0.0003 5.3361 0.0002
# 3 49.5222 5.5439 67.9734 -0.0001 -7.0607 0.0001
# 4 -0.0001 -0.0003 -0.0001 21.1350 0.0004 7.7316
# 5 0.4199 5.3361 -7.0607 0.0004 49.9204 -0.0002
# 6 0.0000 0.0002 0.0001 7.7316 -0.0002 -0.1958
#
#
#
# Elastic Compliance Matrix: (Units=1/GPa)
#
#
# Indices 1 2 3 4 5 6 
#
# 1 0.008349 -0.002725 -0.005924 0.000000 -0.000617 0.000000
# 2 -0.002725 0.033222 -0.001107 -0.000001 -0.003685 0.000004
# 3 -0.005924 -0.001107 0.019421 0.000000 0.002915 0.000000
# 4 0.000000 -0.000001 0.000000 0.003064 0.000001 0.120965
# 5 -0.000617 -0.003685 0.002915 0.000001 0.020843 -0.000003
# 6 0.000000 0.000004 0.000000 0.120965 -0.000003 -0.330668
#
#
# Mechanical properties :
#
#
# Convention : Reuss Voigt Hill
#
# Bulk Modulus (GPa) = 24.10845 44.39858 34.25352
# Shear Modulus (GPa) = -23.53708 26.83734 1.65013
#
# Velocity S-wave (km/s) = -3.15534 3.36930 0.83547
# Velocity P-wave (km/s) = 1.75415 5.82382 3.92682
#
# Compressibility (1/GPa) = 0.04147923
#
# Stress axis : x y z
#
# Youngs Moduli (GPa) = 119.78195 30.10024 51.49116
#
# Poissons Ratio (x) = 0.08202 0.30504
# Poissons Ratio (y) = 0.32639 0.05701
# Poissons Ratio (z) = 0.70961 0.03333
#
# Static dielectric constant tensor:
#      x y z
#    x 1.956320 0.000000 -0.015630 
#    y 0.000000 1.930220 0.000000 
#    z -0.015630 0.000000 1.937120 
# 
# From -- ./inp_files/18363.got.cif
#   From: 2010.05.17/outbox.cif.g08.bks.cpg/sg9_10_cif.got.tgz:18363.got - 2010.06.03 20:04:27.
