data_PCOD9136475
_publ_section_title
;
Structure prediction by ZEFSAII (Michael W. Deem and Ramdas Pophale) SiO2 
 PCOD9136475
Probable space group: C C
;
_chemical_formula_sum "Si O2"
_cell_formula_units_Z 28
_cell_length_a 6.135707
_cell_length_b 17.032199
_cell_length_c 11.279944
_cell_angle_alpha 90.000000
_cell_angle_beta 108.515281
_cell_angle_gamma 90.000000
_cell_volume 1117.789665
_symmetry_space_group_name_H-M "C C"
_symmetry_group_IT_number 9
_symmetry_cell_setting 'monoclinic'
loop_
_space_group_symop_operation_xyz
x,y,z
x,-y,1/2+z
1/2+x,1/2+y,z
1/2+x,1/2-y,1/2+z
loop_
_atom_site_type_symbol
_atom_site_label
_atom_site_fract_x
_atom_site_fract_y
_atom_site_fract_z
Si Si1 0.655900 0.201802 0.779820
Si Si2 0.093855 0.116164 0.888123
Si Si3 0.083204 0.133217 0.375972
Si Si4 0.401997 0.800461 0.616303
Si Si5 0.465635 0.019388 0.448322
Si Si6 0.672175 0.343725 0.140407
Si Si7 0.149857 0.457797 0.722336
O O1 0.572182 0.274782 0.845228
O O2 0.767357 0.248895 0.689036
O O3 0.445126 0.150988 0.695324
O O4 0.838275 0.145356 0.878024
O O5 0.082581 0.120366 0.745299
O O6 0.240778 0.037056 0.933162
O O7 0.251685 0.182746 0.974840
O O8 0.346224 0.104127 0.413192
O O9 0.036987 0.121157 0.507189
O O10 0.903729 0.080932 0.272228
O O11 0.623252 0.748978 0.626574
O O12 0.477303 0.884017 0.679089
O O13 0.588124 0.005630 0.341546
O O14 0.615592 0.005748 0.593252
#
# Coordination Sequence:
#
# PCOD9136475 Si02
#       7
#     4   4   4   4   4   4   4
#     4  11  22  41  70 105 138 187 247 312 372 440
#     4  10  24  42  65 101 143 185 242 301 373 446
#     4  12  25  43  74 103 144 195 252 307 378 452
#     4  10  21  41  66  98 141 183 240 307 368 441
#     4  11  26  47  71 105 151 199 247 308 383 454
#     4  11  23  39  68 103 138 185 243 309 373 439
#     4  11  25  47  72 103 151 196 251 306 369 458
#
# _framework density 25.049434999999999
#
# number of rings (size 3 to 8) (size 9 to 14) (size 15 to 20)
#    0.000    1.143    2.857    2.571    2.000    6.857 
#    0.000    0.000    0.000    0.000    0.000    0.000 
#    0.000    0.000    0.000    0.000    0.000    0.000 
#
# Total GULP energy -78168.366141 kJ/mol
# GULP energy per Si atom -5583.454724 kJ/mol
# Density = 2.499242 g / cm^3
# Si number density = 25.049435 Si / 1000 Ang^3
#
#
#
# Elastic Constant Matrix: (Units=GPa)
#
#
# Indices 1 2 3 4 5 6 
#
# 1 49.3504 19.5384 29.9314 0.0000 20.4188 0.0000
# 2 19.5384 74.4973 36.4246 0.0000 8.4273 0.0000
# 3 29.9314 36.4246 165.3398 0.0000 5.8527 0.0000
# 4 0.0000 0.0000 0.0000 33.6463 0.0000 9.0682
# 5 20.4188 8.4273 5.8527 0.0000 40.3446 0.0000
# 6 0.0000 0.0000 0.0000 9.0682 0.0000 36.9759
#
#
#
# Elastic Compliance Matrix: (Units=1/GPa)
#
#
# Indices 1 2 3 4 5 6 
#
# 1 0.030112 -0.004388 -0.003998 0.000000 -0.013743 0.000000
# 2 -0.004388 0.015976 -0.002700 0.000000 -0.000725 0.000000
# 3 -0.003998 -0.002700 0.007313 0.000000 0.001526 0.000000
# 4 0.000000 0.000000 0.000000 0.031825 0.000000 -0.007805
# 5 -0.013743 -0.000725 0.001526 0.000000 0.031672 0.000000
# 6 0.000000 0.000000 0.000000 -0.007805 0.000000 0.028959
#
#
# Mechanical properties :
#
#
# Convention : Reuss Voigt Hill
#
# Bulk Modulus (GPa) = 32.02117 51.21959 41.62038
# Shear Modulus (GPa) = 28.02125 35.74622 31.88374
#
# Velocity S-wave (km/s) = 3.34823 3.78170 3.57155
# Velocity P-wave (km/s) = 5.26863 6.28968 5.80166
#
# Compressibility (1/GPa) = 0.03122934
#
# Stress axis : x y z
#
# Youngs Moduli (GPa) = 33.20986 62.59380 136.75074
#
# Poissons Ratio (x) = 0.27466 0.54672
# Poissons Ratio (y) = 0.14572 0.36916
# Poissons Ratio (z) = 0.13277 0.16897
#
# Static dielectric constant tensor:
#      x y z
#    x 2.064620 0.000000 -0.049990 
#    y 0.000000 2.009930 0.000000 
#    z -0.049990 0.000000 1.964670 
# 
# From -- ./inp_files/13270.got.cif
#   From: 2010.05.17/outbox.cif.g08.bks.cpg/sg9_7_cif.got.tgz:13270.got - 2010.06.03 20:04:27.
