data_PCOD9136782
_publ_section_title
;
Structure prediction by ZEFSAII (Michael W. Deem and Ramdas Pophale) SiO2 
 PCOD9136782
Probable space group: C C
;
_chemical_formula_sum "Si O2"
_cell_formula_units_Z 32
_cell_length_a 7.188280
_cell_length_b 18.253780
_cell_length_c 15.378584
_cell_angle_alpha 90.000000
_cell_angle_beta 57.702310
_cell_angle_gamma 90.000000
_cell_volume 1705.675748
_symmetry_space_group_name_H-M "C C"
_symmetry_group_IT_number 9
_symmetry_cell_setting 'monoclinic'
loop_
_space_group_symop_operation_xyz
x,y,z
x,-y,1/2+z
1/2+x,1/2+y,z
1/2+x,1/2-y,1/2+z
loop_
_atom_site_type_symbol
_atom_site_label
_atom_site_fract_x
_atom_site_fract_y
_atom_site_fract_z
Si Si1 0.209740 0.676776 0.383430
Si Si2 0.756146 0.986449 0.616289
Si Si3 0.104813 0.922343 0.419085
Si Si4 0.812726 0.223270 0.997761
Si Si5 0.625075 0.906420 0.294143
Si Si6 0.770475 0.008485 0.415865
Si Si7 0.639031 0.252545 0.856497
Si Si8 0.577328 0.836861 0.723824
O O1 0.241863 0.591644 0.395692
O O2 0.404645 0.720552 0.381175
O O3 0.200962 0.685916 0.281391
O O4 0.974830 0.708545 0.471620
O O5 0.618971 0.922494 0.696883
O O6 0.003691 0.955707 0.534588
O O7 0.738200 0.056799 0.681835
O O8 0.672818 0.998122 0.537915
O O9 0.360950 0.908469 0.350930
O O10 0.969304 0.847076 0.438586
O O11 0.021524 0.981591 0.369337
O O12 0.679925 0.204354 0.116499
O O13 0.654269 0.236123 0.955448
O O14 0.697103 0.823296 0.293656
O O15 0.675936 0.955512 0.366158
O O16 0.824234 0.313802 0.794332
#
# Coordination Sequence:
#
# PCOD9136782 Si02
#       8
#     4   4   4   4   4   4   4   4
#     4  11  23  40  66  93 123 165 212 263 307 377
#     4   9  22  42  61  92 125 162 215 255 320 377
#     4   9  21  41  63  89 123 167 206 253 314 378
#     4  10  21  44  60  88 132 161 203 261 314 379
#     4  12  20  43  64  87 129 166 205 266 312 373
#     4  10  23  42  59  95 123 157 218 255 306 377
#     4  11  24  38  66  93 122 166 211 256 319 372
#     4  10  22  42  61  91 129 164 206 261 318 377
#
# _framework density 18.760891999999998
#
# number of rings (size 3 to 8) (size 9 to 14) (size 15 to 20)
#    0.750    1.000    3.750    0.000    1.750    3.000 
#    9.000    0.000    0.000    0.000    0.000    0.000 
#    0.000    0.000    0.000    0.000    0.000    0.000 
#
# Total GULP energy -89185.379317 kJ/mol
# GULP energy per Si atom -5574.086207 kJ/mol
# Density = 1.871819 g / cm^3
# Si number density = 18.760892 Si / 1000 Ang^3
#
#
#
# Elastic Constant Matrix: (Units=GPa)
#
#
# Indices 1 2 3 4 5 6 
#
# 1 85.9409 3.4308 15.3849 0.0000 18.1445 0.0000
# 2 3.4308 44.3512 -21.6710 0.0000 1.9051 0.0000
# 3 15.3849 -21.6710 37.3927 0.0000 14.2986 0.0000
# 4 0.0000 0.0000 0.0000 29.3888 0.0000 0.5109
# 5 18.1445 1.9051 14.2986 0.0000 19.1680 0.0000
# 6 0.0000 0.0000 0.0000 0.5109 0.0000 22.0372
#
#
#
# Elastic Compliance Matrix: (Units=1/GPa)
#
#
# Indices 1 2 3 4 5 6 
#
# 1 0.014661 -0.001953 -0.002703 0.000000 -0.011668 0.000000
# 2 -0.001953 0.041565 0.036048 0.000000 -0.029172 0.000000
# 3 -0.002703 0.036048 0.068749 0.000000 -0.052309 0.000000
# 4 0.000000 0.000000 0.000000 0.034040 0.000000 -0.000789
# 5 -0.011668 -0.029172 -0.052309 0.000000 0.105135 0.000000
# 6 0.000000 0.000000 0.000000 -0.000789 0.000000 0.045396
#
#
# Mechanical properties :
#
#
# Convention : Reuss Voigt Hill
#
# Bulk Modulus (GPa) = 5.32595 17.99716 11.66156
# Shear Modulus (GPa) = 16.16297 25.48814 20.82555
#
# Velocity S-wave (km/s) = 2.93836 3.68989 3.33536
# Velocity P-wave (km/s) = 3.78906 5.26948 4.58936
#
# Compressibility (1/GPa) = 0.18775985
#
# Stress axis : x y z
#
# Youngs Moduli (GPa) = 68.20741 24.05848 14.54567
#
# Poissons Ratio (x) = 0.04700 0.03931
# Poissons Ratio (y) = 0.13324 -0.52434
# Poissons Ratio (z) = 0.18433 -0.86726
#
# Static dielectric constant tensor:
#      x y z
#    x 1.641280 0.000000 0.007130 
#    y 0.000000 1.674190 0.000000 
#    z 0.007130 0.000000 1.638930 
# 
# From -- ./inp_files/21960.got.cif
#   From: 2010.05.17/outbox.cif.g08.bks.cpg/sg9_11_cif.got.tgz:21960.got - 2010.06.03 20:04:27.
