data_PCOD9136596
_publ_section_title
;
Structure prediction by ZEFSAII (Michael W. Deem and Ramdas Pophale) SiO2 
 PCOD9136596
Probable space group: C C
;
_chemical_formula_sum "Si O2"
_cell_formula_units_Z 28
_cell_length_a 9.480439
_cell_length_b 7.014201
_cell_length_c 25.684091
_cell_angle_alpha 90.000000
_cell_angle_beta 139.578561
_cell_angle_gamma 90.000000
_cell_volume 1107.432035
_symmetry_space_group_name_H-M "C C"
_symmetry_group_IT_number 9
_symmetry_cell_setting 'monoclinic'
loop_
_space_group_symop_operation_xyz
x,y,z
x,-y,1/2+z
1/2+x,1/2+y,z
1/2+x,1/2-y,1/2+z
loop_
_atom_site_type_symbol
_atom_site_label
_atom_site_fract_x
_atom_site_fract_y
_atom_site_fract_z
Si Si1 0.315730 0.767326 0.179940
Si Si2 0.686550 0.722412 0.917111
Si Si3 0.254020 0.361975 0.462640
Si Si4 0.992791 0.970507 0.153329
Si Si5 0.759550 0.665186 0.825695
Si Si6 0.545569 0.053065 0.566327
Si Si7 0.767116 0.218691 0.852647
O O1 0.445623 0.683598 0.164841
O O2 0.164931 0.575360 0.144104
O O3 0.518761 0.832956 0.271598
O O4 0.137869 0.931930 0.142693
O O5 0.678672 0.775072 0.853863
O O6 0.447606 0.646468 0.863365
O O7 0.728970 0.913889 0.961817
O O8 0.881999 0.583687 0.988139
O O9 0.397843 0.231776 0.540370
O O10 0.351232 0.334724 0.432774
O O11 0.010301 0.282317 0.389820
O O12 0.747491 0.890360 0.086007
O O13 0.121421 0.847962 0.234338
O O14 0.757728 0.446533 0.844506
#
# Coordination Sequence:
#
# PCOD9136596 Si02
#       7
#     4   4   4   4   4   4   4
#     4   9  20  40  71  99 139 195 236 305 379 449
#     4  11  25  39  69 107 130 186 240 299 364 454
#     4  11  23  40  69  99 134 182 231 295 361 442
#     4   9  20  39  71  98 139 196 238 301 379 446
#     4  10  21  42  66  98 133 179 243 282 358 445
#     4  10  24  40  69  99 147 180 231 314 378 439
#     4  10  21  42  69  94 138 180 237 290 361 431
#
# _framework density 25.283716999999999
#
# number of rings (size 3 to 8) (size 9 to 14) (size 15 to 20)
#    0.857    1.143    2.857    0.000    4.000    0.000 
#    0.000    2.857    0.000    0.000    0.000    0.000 
#    0.000    0.000    0.000    0.000    0.000    0.000 
#
# Total GULP energy -77970.348121 kJ/mol
# GULP energy per Si atom -5569.310580 kJ/mol
# Density = 2.522617 g / cm^3
# Si number density = 25.283717 Si / 1000 Ang^3
#
#
#
# Elastic Constant Matrix: (Units=GPa)
#
#
# Indices 1 2 3 4 5 6 
#
# 1 109.8993 13.6090 52.8555 0.0000 9.3058 0.0000
# 2 13.6090 108.8856 42.5812 0.0000 15.0102 0.0000
# 3 52.8555 42.5812 160.7504 0.0000 26.8325 0.0000
# 4 0.0000 0.0000 0.0000 38.9452 0.0000 -0.2217
# 5 9.3058 15.0102 26.8325 0.0000 47.3514 0.0000
# 6 0.0000 0.0000 0.0000 -0.2217 0.0000 19.4079
#
#
#
# Elastic Compliance Matrix: (Units=1/GPa)
#
#
# Indices 1 2 3 4 5 6 
#
# 1 0.010809 0.000054 -0.003546 0.000000 -0.000132 0.000000
# 2 0.000054 0.010401 -0.002453 0.000000 -0.001918 0.000000
# 3 -0.003546 -0.002453 0.008604 0.000000 -0.003401 0.000000
# 4 0.000000 0.000000 0.000000 0.025679 0.000000 0.000293
# 5 -0.000132 -0.001918 -0.003401 0.000000 0.023680 0.000000
# 6 0.000000 0.000000 0.000000 0.000293 0.000000 0.051529
#
#
# Mechanical properties :
#
#
# Convention : Reuss Voigt Hill
#
# Bulk Modulus (GPa) = 55.79056 66.40297 61.09676
# Shear Modulus (GPa) = 33.65488 39.17356 36.41422
#
# Velocity S-wave (km/s) = 3.65237 3.94046 3.79915
# Velocity P-wave (km/s) = 6.31665 6.85734 6.59254
#
# Compressibility (1/GPa) = 0.01792418
#
# Stress axis : x y z
#
# Youngs Moduli (GPa) = 92.51231 96.14713 116.21979
#
# Poissons Ratio (x) = -0.00520 0.41217
# Poissons Ratio (y) = -0.00500 0.28505
# Poissons Ratio (z) = 0.32809 0.23582
#
# Static dielectric constant tensor:
#      x y z
#    x 2.046320 0.000000 -0.055710 
#    y 0.000000 2.035460 0.000000 
#    z -0.055710 0.000000 2.015480 
# 
# From -- ./inp_files/32269.got.cif
#   From: 2010.05.17/outbox.cif.g08.bks.cpg/sg9_17_cif.got.tgz:32269.got - 2010.06.03 20:04:27.
