data_PCOD9136224
_publ_section_title
;
Structure prediction by ZEFSAII (Michael W. Deem and Ramdas Pophale) SiO2 
 PCOD9136224
Probable space group: C C
;
_chemical_formula_sum "Si O2"
_cell_formula_units_Z 32
_cell_length_a 5.240454
_cell_length_b 17.559295
_cell_length_c 17.315826
_cell_angle_alpha 90.000000
_cell_angle_beta 115.579249
_cell_angle_gamma 90.000000
_cell_volume 1437.210634
_symmetry_space_group_name_H-M "C C"
_symmetry_group_IT_number 9
_symmetry_cell_setting 'monoclinic'
loop_
_space_group_symop_operation_xyz
x,y,z
x,-y,1/2+z
1/2+x,1/2+y,z
1/2+x,1/2-y,1/2+z
loop_
_atom_site_type_symbol
_atom_site_label
_atom_site_fract_x
_atom_site_fract_y
_atom_site_fract_z
Si Si1 0.579740 0.120451 0.253560
Si Si2 0.367579 0.147636 0.976704
Si Si3 0.968124 0.646544 0.646161
Si Si4 0.198733 0.064315 0.335386
Si Si5 0.207277 0.472609 0.458334
Si Si6 0.292351 0.013992 0.092681
Si Si7 0.929907 0.759214 0.120458
Si Si8 0.905301 0.920466 0.319642
O O1 0.376688 0.116798 0.300826
O O2 0.455577 0.049560 0.186878
O O3 0.533349 0.193926 0.193656
O O4 0.910805 0.109829 0.317359
O O5 0.121101 0.141478 0.882121
O O6 0.641958 0.116238 0.968530
O O7 0.328832 0.078188 0.032407
O O8 0.384396 0.221498 0.030457
O O9 0.910522 0.569051 0.592761
O O10 0.678102 0.680215 0.641063
O O11 0.144537 0.705321 0.617464
O O12 0.162230 0.621383 0.742933
O O13 0.436540 0.028796 0.423840
O O14 0.070535 0.982699 0.288679
O O15 0.452815 0.495607 0.549383
O O16 0.302512 0.468907 0.381035
#
# Coordination Sequence:
#
# PCOD9136224 Si02
#       8
#     4   4   4   4   4   4   4   4
#     4  11  23  41  69  93 132 173 228 276 337 403
#     4   9  23  43  72  92 137 182 234 270 349 417
#     4  12  26  44  69 102 143 173 237 284 343 401
#     4  11  20  39  67 100 124 165 226 288 325 399
#     4  10  21  39  71 103 130 173 235 289 353 401
#     4  10  23  38  69 101 126 172 227 294 334 399
#     4  11  28  45  64 102 140 189 220 278 348 420
#     4  10  22  41  71 101 130 179 231 283 345 406
#
# _framework density 22.265350999999999
#
# number of rings (size 3 to 8) (size 9 to 14) (size 15 to 20)
#    0.000    1.500    2.500    0.750   15.750    0.000 
#    0.000    3.750    0.000    0.000    0.000    0.000 
#    0.000    0.000    0.000    0.000    0.000    0.000 
#
# Total GULP energy -89264.517701 kJ/mol
# GULP energy per Si atom -5579.032356 kJ/mol
# Density = 2.221467 g / cm^3
# Si number density = 22.265351 Si / 1000 Ang^3
#
#
#
# Elastic Constant Matrix: (Units=GPa)
#
#
# Indices 1 2 3 4 5 6 
#
# 1 91.5075 -1.3562 15.6232 0.0000 8.3044 0.0000
# 2 -1.3562 50.1904 1.9817 0.0000 3.8672 0.0000
# 3 15.6232 1.9817 54.6939 0.0000 18.9785 0.0000
# 4 0.0000 0.0000 0.0000 14.4765 0.0000 2.1889
# 5 8.3044 3.8672 18.9785 0.0000 31.3986 0.0000
# 6 0.0000 0.0000 0.0000 2.1889 0.0000 35.6187
#
#
#
# Elastic Compliance Matrix: (Units=1/GPa)
#
#
# Indices 1 2 3 4 5 6 
#
# 1 0.011547 0.000532 -0.002828 0.000000 -0.001410 0.000000
# 2 0.000532 0.020141 0.000035 0.000000 -0.002643 0.000000
# 3 -0.002828 0.000035 0.023830 0.000000 -0.013660 0.000000
# 4 0.000000 0.000000 0.000000 0.069725 0.000000 -0.004285
# 5 -0.001410 -0.002643 -0.013660 0.000000 0.040804 0.000000
# 6 0.000000 0.000000 0.000000 -0.004285 0.000000 0.028338
#
#
# Mechanical properties :
#
#
# Convention : Reuss Voigt Hill
#
# Bulk Modulus (GPa) = 19.60938 25.43213 22.52076
# Shear Modulus (GPa) = 23.15826 28.30830 25.73328
#
# Velocity S-wave (km/s) = 3.22856 3.56955 3.40333
# Velocity P-wave (km/s) = 4.76701 5.33254 5.05769
#
# Compressibility (1/GPa) = 0.05099600
#
# Stress axis : x y z
#
# Youngs Moduli (GPa) = 86.60413 49.65063 41.96353
#
# Poissons Ratio (x) = -0.02643 0.11869
# Poissons Ratio (y) = -0.04610 -0.00148
# Poissons Ratio (z) = 0.24495 -0.00175
#
# Static dielectric constant tensor:
#      x y z
#    x 1.945420 0.000000 -0.013760 
#    y 0.000000 1.816720 0.000000 
#    z -0.013760 0.000000 1.832700 
# 
# From -- ./inp_files/28821.got.cif
#   From: 2010.05.17/outbox.cif.g08.bks.cpg/sg9_15_cif.got.tgz:28821.got - 2010.06.03 20:04:27.
