data_PCOD9136311
_publ_section_title
;
Structure prediction by ZEFSAII (Michael W. Deem and Ramdas Pophale) SiO2 
 PCOD9136311
Probable space group: C C
;
_chemical_formula_sum "Si O2"
_cell_formula_units_Z 32
_cell_length_a 21.397683
_cell_length_b 6.930899
_cell_length_c 18.483672
_cell_angle_alpha 90.000000
_cell_angle_beta 29.920403
_cell_angle_gamma 90.000000
_cell_volume 1367.312838
_symmetry_space_group_name_H-M "C C"
_symmetry_group_IT_number 9
_symmetry_cell_setting 'monoclinic'
loop_
_space_group_symop_operation_xyz
x,y,z
x,-y,1/2+z
1/2+x,1/2+y,z
1/2+x,1/2-y,1/2+z
loop_
_atom_site_type_symbol
_atom_site_label
_atom_site_fract_x
_atom_site_fract_y
_atom_site_fract_z
Si Si1 0.411320 0.032200 0.065670
Si Si2 0.106879 0.411576 0.966921
Si Si3 0.498776 0.360222 0.680682
Si Si4 0.962241 0.762575 0.137294
Si Si5 0.896581 0.513132 0.340228
Si Si6 0.207389 0.751845 0.220873
Si Si7 0.111448 0.436363 0.238148
Si Si8 0.138393 0.998389 0.175474
O O1 0.302278 0.925639 0.135212
O O2 0.387909 0.219899 0.137695
O O3 0.468214 0.888777 0.069462
O O4 0.519778 0.070467 0.899452
O O5 0.190129 0.332694 0.818538
O O6 0.105589 0.281167 0.039345
O O7 0.095056 0.642467 0.993703
O O8 0.468459 0.514913 0.649644
O O9 0.395588 0.208552 0.811991
O O10 0.543743 0.488173 0.703288
O O11 0.904059 0.652067 0.263984
O O12 0.773021 0.563767 0.508782
O O13 0.023785 0.515429 0.261082
O O14 0.225449 0.571566 0.149112
O O15 0.099100 0.864677 0.282850
O O16 0.153000 0.220961 0.182278
#
# Coordination Sequence:
#
# PCOD9136311 Si02
#       8
#     4   4   4   4   4   4   4   4
#     4   9  20  41  61  90 129 160 208 265 309 383
#     4   8  21  36  61  90 126 159 213 260 314 382
#     4  10  21  40  66  88 126 172 208 268 330 365
#     4   9  20  40  61  89 123 166 203 271 312 379
#     4  10  21  42  59  92 131 161 219 267 306 391
#     4  11  21  40  64  94 126 176 206 262 330 380
#     4  10  22  43  60  92 133 164 214 272 313 385
#     4  11  24  38  66  95 124 172 217 261 328 391
#
# _framework density 23.403568
#
# number of rings (size 3 to 8) (size 9 to 14) (size 15 to 20)
#    0.750    1.500    1.250    0.750    3.500    1.000 
#   11.250    1.250    0.000    0.000    0.000    0.000 
#    0.000    0.000    0.000    0.000    0.000    0.000 
#
# Total GULP energy -89086.996528 kJ/mol
# GULP energy per Si atom -5567.937283 kJ/mol
# Density = 2.335030 g / cm^3
# Si number density = 23.403568 Si / 1000 Ang^3
#
#
#
# Elastic Constant Matrix: (Units=GPa)
#
#
# Indices 1 2 3 4 5 6 
#
# 1 63.1217 17.7415 9.6347 0.0007 18.1081 0.0000
# 2 17.7415 85.4602 8.4378 0.0012 12.0369 -0.0008
# 3 9.6347 8.4378 55.2986 0.0020 20.9608 -0.0010
# 4 0.0007 0.0012 0.0020 21.0657 0.0008 13.6570
# 5 18.1081 12.0369 20.9608 0.0008 27.5453 -0.0002
# 6 0.0000 -0.0008 -0.0010 13.6570 -0.0002 47.6490
#
#
#
# Elastic Compliance Matrix: (Units=1/GPa)
#
#
# Indices 1 2 3 4 5 6 
#
# 1 0.020163 -0.002452 0.002079 0.000000 -0.013766 0.000000
# 2 -0.002452 0.012769 -0.000024 -0.000001 -0.003949 0.000000
# 3 0.002079 -0.000024 0.025633 -0.000002 -0.020862 0.000001
# 4 0.000000 -0.000001 -0.000002 0.058304 0.000000 -0.016711
# 5 -0.013766 -0.003949 -0.020862 0.000000 0.062954 0.000000
# 6 0.000000 0.000000 0.000001 -0.016711 0.000000 0.025776
#
#
# Mechanical properties :
#
#
# Convention : Reuss Voigt Hill
#
# Bulk Modulus (GPa) = 17.30996 30.61206 23.96101
# Shear Modulus (GPa) = 22.15807 30.45642 26.30725
#
# Velocity S-wave (km/s) = 3.08032 3.61135 3.35635
# Velocity P-wave (km/s) = 4.47923 5.52246 5.02798
#
# Compressibility (1/GPa) = 0.05777022
#
# Stress axis : x y z
#
# Youngs Moduli (GPa) = 49.59484 78.31398 39.01275
#
# Poissons Ratio (x) = 0.19205 -0.08111
# Poissons Ratio (y) = 0.12162 0.00094
# Poissons Ratio (z) = -0.10311 0.00189
#
# Static dielectric constant tensor:
#      x y z
#    x 1.963700 0.000000 -0.015940 
#    y 0.000000 1.917100 0.000000 
#    z -0.015940 0.000000 1.892230 
# 
# From -- ./inp_files/34560.got.cif
#   From: 2010.05.17/outbox.cif.g08.bks.cpg/sg9_18_cif.got.tgz:34560.got - 2010.06.03 20:04:27.
