data_PCOD9136572
_publ_section_title
;
Structure prediction by ZEFSAII (Michael W. Deem and Ramdas Pophale) SiO2 
 PCOD9136572
Probable space group: C C
;
_chemical_formula_sum "Si O2"
_cell_formula_units_Z 28
_cell_length_a 10.379138
_cell_length_b 20.908142
_cell_length_c 5.016750
_cell_angle_alpha 90.000000
_cell_angle_beta 85.735618
_cell_angle_gamma 90.000000
_cell_volume 1085.663401
_symmetry_space_group_name_H-M "C C"
_symmetry_group_IT_number 9
_symmetry_cell_setting 'monoclinic'
loop_
_space_group_symop_operation_xyz
x,y,z
x,-y,1/2+z
1/2+x,1/2+y,z
1/2+x,1/2-y,1/2+z
loop_
_atom_site_type_symbol
_atom_site_label
_atom_site_fract_x
_atom_site_fract_y
_atom_site_fract_z
Si Si1 0.099880 0.455629 0.021670
Si Si2 0.825141 0.715903 0.691338
Si Si3 0.396332 0.455928 0.934967
Si Si4 0.446089 0.884217 0.476339
Si Si5 0.091152 0.144201 0.635121
Si Si6 0.566131 0.782112 0.782743
Si Si7 0.187019 0.044889 0.037155
O O1 0.080466 0.516593 0.227798
O O2 0.012855 0.404284 0.187923
O O3 0.248962 0.434933 0.008330
O O4 0.859469 0.679257 0.953281
O O5 0.740119 0.662329 0.537178
O O6 0.721608 0.770646 0.778422
O O7 0.963201 0.727030 0.536653
O O8 0.411318 0.484664 0.638158
O O9 0.493994 0.399496 0.987565
O O10 0.548662 0.852304 0.659764
O O11 0.338236 0.937360 0.540280
O O12 0.033804 0.215434 0.636179
O O13 0.114899 0.106426 0.914024
O O14 0.163745 0.989500 0.822126
#
# Coordination Sequence:
#
# PCOD9136572 Si02
#       7
#     4   4   4   4   4   4   4
#     4  10  23  41  68 103 141 189 240 300 371 443
#     4   9  24  45  65 101 135 189 246 294 366 436
#     4  10  21  42  65 101 140 185 242 300 368 440
#     4  11  24  41  69 100 140 188 241 303 367 441
#     4   9  22  43  66 101 136 190 241 303 363 439
#     4  10  24  46  67 100 145 184 247 298 367 453
#     4  11  24  42  72 102 139 185 239 310 370 430
#
# _framework density 25.790682
#
# number of rings (size 3 to 8) (size 9 to 14) (size 15 to 20)
#    0.857    1.143    0.000    1.714    8.000    1.143 
#    7.714    0.000    0.000    0.000    0.000    0.000 
#    0.000    0.000    0.000    0.000    0.000    0.000 
#
# Total GULP energy -78016.356598 kJ/mol
# GULP energy per Si atom -5572.596900 kJ/mol
# Density = 2.573198 g / cm^3
# Si number density = 25.790682 Si / 1000 Ang^3
#
#
#
# Elastic Constant Matrix: (Units=GPa)
#
#
# Indices 1 2 3 4 5 6 
#
# 1 92.6985 34.6033 19.4130 0.0000 -12.3059 0.0000
# 2 34.6033 109.5231 20.2466 0.0000 -10.8341 0.0000
# 3 19.4130 20.2466 103.0071 0.0000 -28.1377 0.0000
# 4 0.0000 0.0000 0.0000 25.0983 0.0000 8.4813
# 5 -12.3059 -10.8341 -28.1377 0.0000 32.9933 0.0000
# 6 0.0000 0.0000 0.0000 8.4813 0.0000 55.0618
#
#
#
# Elastic Compliance Matrix: (Units=1/GPa)
#
#
# Indices 1 2 3 4 5 6 
#
# 1 0.012679 -0.003560 -0.000935 0.000000 0.002763 0.000000
# 2 -0.003560 0.010575 -0.001071 0.000000 0.001231 0.000000
# 3 -0.000935 -0.001071 0.012911 0.000000 0.010311 0.000000
# 4 0.000000 0.000000 0.000000 0.042031 0.000000 -0.006474
# 5 0.002763 0.001231 0.010311 0.000000 0.040537 0.000000
# 6 0.000000 0.000000 0.000000 -0.006474 0.000000 0.019159
#
#
# Mechanical properties :
#
#
# Convention : Reuss Voigt Hill
#
# Bulk Modulus (GPa) = 39.94766 50.41715 45.18240
# Shear Modulus (GPa) = 31.77245 38.02842 34.90044
#
# Velocity S-wave (km/s) = 3.51370 3.84409 3.68260
# Velocity P-wave (km/s) = 5.65546 6.26847 5.96984
#
# Compressibility (1/GPa) = 0.02503276
#
# Stress axis : x y z
#
# Youngs Moduli (GPa) = 78.87027 94.56246 77.45104
#
# Poissons Ratio (x) = 0.33662 0.07243
# Poissons Ratio (y) = 0.28076 0.08298
# Poissons Ratio (z) = 0.07376 0.10131
#
# Static dielectric constant tensor:
#      x y z
#    x 2.205920 0.000000 0.062760 
#    y 0.000000 2.066610 0.000000 
#    z 0.062760 0.000000 2.082260 
# 
# From -- ./inp_files/1703.got.cif
#   From: 2010.05.17/outbox.cif.g08.bks.cpg/sg9_1_cif.got.tgz:1703.got - 2010.06.03 20:04:27.
