data_PCOD9136230
_publ_section_title
;
Structure prediction by ZEFSAII (Michael W. Deem and Ramdas Pophale) SiO2 
 PCOD9136230
Probable space group: C C
;
_chemical_formula_sum "Si O2"
_cell_formula_units_Z 32
_cell_length_a 12.462128
_cell_length_b 7.651138
_cell_length_c 16.408934
_cell_angle_alpha 90.000000
_cell_angle_beta 79.554422
_cell_angle_gamma 90.000000
_cell_volume 1538.654055
_symmetry_space_group_name_H-M "C C"
_symmetry_group_IT_number 9
_symmetry_cell_setting 'monoclinic'
loop_
_space_group_symop_operation_xyz
x,y,z
x,-y,1/2+z
1/2+x,1/2+y,z
1/2+x,1/2-y,1/2+z
loop_
_atom_site_type_symbol
_atom_site_label
_atom_site_fract_x
_atom_site_fract_y
_atom_site_fract_z
Si Si1 0.541290 0.704806 0.886020
Si Si2 0.508440 0.963271 0.657308
Si Si3 0.376586 0.243459 0.756511
Si Si4 0.400840 0.066271 0.504607
Si Si5 0.858786 0.951783 0.503287
Si Si6 0.259839 0.228377 0.946644
Si Si7 0.962474 0.925411 0.157080
Si Si8 0.659150 0.293409 0.195129
O O1 0.449380 0.561623 0.918564
O O2 0.638380 0.678930 0.937339
O O3 0.591279 0.704136 0.789918
O O4 0.480806 0.885772 0.918081
O O5 0.476378 0.031249 0.572495
O O6 0.441610 0.780070 0.677301
O O7 0.630734 0.892868 0.657029
O O8 0.474756 0.110945 0.725545
O O9 0.327266 0.233262 0.852712
O O10 0.409702 0.438493 0.726380
O O11 0.281672 0.182897 0.706252
O O12 0.833813 0.748090 0.523159
O O13 0.321293 0.908655 0.495637
O O14 0.765980 0.081338 0.486615
O O15 0.918666 0.026024 0.574609
O O16 0.094782 0.932732 0.148240
#
# Coordination Sequence:
#
# PCOD9136230 Si02
#       8
#     4   4   4   4   4   4   4   4
#     4   9  21  38  57  85 113 143 192 229 272 342
#     4  10  21  40  57  83 116 147 187 231 277 330
#     4  11  21  38  61  83 113 151 182 231 286 324
#     4  10  21  40  57  83 116 147 187 231 277 330
#     4  10  21  40  57  83 116 147 187 231 277 330
#     4  11  21  38  61  83 113 151 182 231 286 324
#     4  10  21  40  57  83 116 147 187 231 277 330
#     4   9  21  38  57  85 113 143 192 229 272 342
#
# _framework density 20.797398999999999
#
# number of rings (size 3 to 8) (size 9 to 14) (size 15 to 20)
#    1.500    0.500    2.500    1.500    0.000    2.000 
#    4.500    0.000    0.000    0.000    0.000    0.000 
#    0.000    0.000    0.000    0.000    0.000    0.000 
#
# Total GULP energy -89134.189940 kJ/mol
# GULP energy per Si atom -5570.886871 kJ/mol
# Density = 2.075006 g / cm^3
# Si number density = 20.797399 Si / 1000 Ang^3
#
#
#
# Elastic Constant Matrix: (Units=GPa)
#
#
# Indices 1 2 3 4 5 6 
#
# 1 44.6162 -12.9322 -6.7711 0.0000 15.3952 0.0000
# 2 -12.9322 58.8949 6.5791 0.0000 0.6404 0.0000
# 3 -6.7711 6.5791 56.5702 0.0000 7.7606 0.0000
# 4 0.0000 0.0000 0.0000 27.0588 0.0000 1.1128
# 5 15.3952 0.6404 7.7606 0.0000 32.3959 0.0000
# 6 0.0000 0.0000 0.0000 1.1128 0.0000 22.6936
#
#
#
# Elastic Compliance Matrix: (Units=1/GPa)
#
#
# Indices 1 2 3 4 5 6 
#
# 1 0.030469 0.006294 0.005086 0.000000 -0.015822 0.000000
# 2 0.006294 0.018504 -0.000970 0.000000 -0.003125 0.000000
# 3 0.005086 -0.000970 0.019364 0.000000 -0.007036 0.000000
# 4 0.000000 0.000000 0.000000 0.037031 0.000000 -0.001816
# 5 -0.015822 -0.003125 -0.007036 0.000000 0.040135 0.000000
# 6 0.000000 0.000000 0.000000 -0.001816 0.000000 0.044154
#
#
# Mechanical properties :
#
#
# Convention : Reuss Voigt Hill
#
# Bulk Modulus (GPa) = 11.21615 14.87031 13.04323
# Shear Modulus (GPa) = 25.18179 27.97669 26.57924
#
# Velocity S-wave (km/s) = 3.48345 3.67168 3.57880
# Velocity P-wave (km/s) = 4.64586 5.01404 4.83345
#
# Compressibility (1/GPa) = 0.08915714
#
# Stress axis : x y z
#
# Youngs Moduli (GPa) = 32.81998 54.04277 51.64235
#
# Poissons Ratio (x) = -0.34017 -0.26263
# Poissons Ratio (y) = -0.20658 0.05009
# Poissons Ratio (z) = -0.16691 0.05242
#
# Static dielectric constant tensor:
#      x y z
#    x 1.747650 0.000000 -0.015970 
#    y 0.000000 1.729080 0.000000 
#    z -0.015970 0.000000 1.762940 
# 
# From -- ./inp_files/29826.got.cif
#   From: 2010.05.17/outbox.cif.g08.bks.cpg/sg9_15_cif.got.tgz:29826.got - 2010.06.03 20:04:27.
