data_PCOD9136784
_publ_section_title
;
Structure prediction by ZEFSAII (Michael W. Deem and Ramdas Pophale) SiO2 
 PCOD9136784
Probable space group: C C
;
_chemical_formula_sum "Si O2"
_cell_formula_units_Z 32
_cell_length_a 13.151833
_cell_length_b 12.157372
_cell_length_c 18.440792
_cell_angle_alpha 90.000000
_cell_angle_beta 27.067147
_cell_angle_gamma 90.000000
_cell_volume 1341.682582
_symmetry_space_group_name_H-M "C C"
_symmetry_group_IT_number 9
_symmetry_cell_setting 'monoclinic'
loop_
_space_group_symop_operation_xyz
x,y,z
x,-y,1/2+z
1/2+x,1/2+y,z
1/2+x,1/2-y,1/2+z
loop_
_atom_site_type_symbol
_atom_site_label
_atom_site_fract_x
_atom_site_fract_y
_atom_site_fract_z
Si Si1 0.060130 0.852228 0.655020
Si Si2 0.422693 0.522465 0.863670
Si Si3 0.301613 0.170369 0.867871
Si Si4 0.099927 0.983707 0.897732
Si Si5 0.170679 0.808151 0.956707
Si Si6 0.494069 0.074748 0.052219
Si Si7 0.574835 0.149616 0.432719
Si Si8 0.633354 0.273196 0.148966
O O1 0.035041 0.929531 0.741003
O O2 0.267157 0.872531 0.470859
O O3 0.035593 0.728036 0.700546
O O4 0.836320 0.868731 0.746322
O O5 0.423394 0.517772 0.949721
O O6 0.171287 0.528137 0.996929
O O7 0.536122 0.635310 0.765451
O O8 0.128151 0.274577 0.969449
O O9 0.228004 0.085145 0.853298
O O10 0.038404 0.905045 0.002078
O O11 0.265659 0.914614 0.740340
O O12 0.092939 0.693136 0.969071
O O13 0.441875 0.820609 0.778486
O O14 0.116869 0.805156 0.075506
O O15 0.480745 0.972735 0.005208
O O16 0.397632 0.221403 0.499932
#
# Coordination Sequence:
#
# PCOD9136784 Si02
#       8
#     4   4   4   4   4   4   4   4
#     4   9  21  40  60  97 130 161 212 267 316 377
#     4  10  23  40  67  90 131 173 214 261 328 377
#     4  10  22  37  68  95 129 165 212 273 315 379
#     4  12  23  43  66  95 132 172 214 267 325 385
#     4  11  25  40  64  94 135 166 217 264 326 387
#     4  10  21  44  61  94 129 171 207 274 313 382
#     4   9  21  36  67  93 127 163 216 260 326 362
#     4  11  22  38  65  96 125 169 212 268 323 381
#
# _framework density 23.850649000000001
#
# number of rings (size 3 to 8) (size 9 to 14) (size 15 to 20)
#    0.750    1.000    2.500    1.500    5.250    0.000 
#    2.250    0.000    0.000    0.000    0.000    0.000 
#    0.000    0.000    0.000    0.000    0.000    0.000 
#
# Total GULP energy -89129.796015 kJ/mol
# GULP energy per Si atom -5570.612251 kJ/mol
# Density = 2.379636 g / cm^3
# Si number density = 23.850649 Si / 1000 Ang^3
#
#
#
# Elastic Constant Matrix: (Units=GPa)
#
#
# Indices 1 2 3 4 5 6 
#
# 1 67.9002 14.7972 14.6236 0.0017 12.2495 -0.0017
# 2 14.7972 78.0341 -17.0097 -0.0037 -2.2644 0.0025
# 3 14.6236 -17.0097 47.2018 -0.0115 6.8340 0.0061
# 4 0.0017 -0.0037 -0.0115 25.2234 0.0045 12.2061
# 5 12.2495 -2.2644 6.8340 0.0045 24.5124 -0.0013
# 6 -0.0017 0.0025 0.0061 12.2061 -0.0013 23.3021
#
#
#
# Elastic Compliance Matrix: (Units=1/GPa)
#
#
# Indices 1 2 3 4 5 6 
#
# 1 0.018708 -0.005199 -0.006509 -0.000007 -0.008015 0.000007
# 2 -0.005199 0.015352 0.006838 0.000010 0.002110 -0.000009
# 3 -0.006509 0.006838 0.026160 0.000024 -0.003409 -0.000021
# 4 -0.000007 0.000010 0.000024 0.053108 -0.000013 -0.027819
# 5 -0.008015 0.002110 -0.003409 -0.000013 0.045946 0.000010
# 6 0.000007 -0.000009 -0.000021 -0.027819 0.000010 0.057487
#
#
# Mechanical properties :
#
#
# Convention : Reuss Voigt Hill
#
# Bulk Modulus (GPa) = 19.81000 24.21759 22.01380
# Shear Modulus (GPa) = 20.54837 26.65592 23.60215
#
# Velocity S-wave (km/s) = 2.93839 3.34671 3.14917
# Velocity P-wave (km/s) = 4.45377 5.01097 4.74056
#
# Compressibility (1/GPa) = 0.05047955
#
# Stress axis : x y z
#
# Youngs Moduli (GPa) = 53.45251 65.13627 38.22664
#
# Poissons Ratio (x) = 0.33864 0.24882
# Poissons Ratio (y) = 0.27790 -0.26138
# Poissons Ratio (z) = 0.34793 -0.44538
#
# Static dielectric constant tensor:
#      x y z
#    x 1.953570 0.000000 -0.043710 
#    y 0.000000 1.992490 0.000000 
#    z -0.043710 0.000000 1.975390 
# 
# From -- ./inp_files/33762.got.cif
#   From: 2010.05.17/outbox.cif.g08.bks.cpg/sg9_17_cif.got.tgz:33762.got - 2010.06.03 20:04:27.
