data_PCOD9136190
_publ_section_title
;
Structure prediction by ZEFSAII (Michael W. Deem and Ramdas Pophale) SiO2 
 PCOD9136190
Probable space group: C C
;
_chemical_formula_sum "Si O2"
_cell_formula_units_Z 32
_cell_length_a 12.378989
_cell_length_b 17.214510
_cell_length_c 12.191419
_cell_angle_alpha 90.000000
_cell_angle_beta 154.838036
_cell_angle_gamma 90.000000
_cell_volume 1104.600972
_symmetry_space_group_name_H-M "C C"
_symmetry_group_IT_number 9
_symmetry_cell_setting 'monoclinic'
loop_
_space_group_symop_operation_xyz
x,y,z
x,-y,1/2+z
1/2+x,1/2+y,z
1/2+x,1/2-y,1/2+z
loop_
_atom_site_type_symbol
_atom_site_label
_atom_site_fract_x
_atom_site_fract_y
_atom_site_fract_z
Si Si1 0.452600 0.578858 0.828910
Si Si2 0.178350 0.711052 0.185581
Si Si3 0.092867 0.094135 0.504474
Si Si4 0.201486 0.226046 0.029282
Si Si5 0.733127 0.010850 0.440558
Si Si6 0.290718 0.337018 0.554164
Si Si7 0.593489 0.836457 0.140578
Si Si8 0.305069 0.003140 0.376515
O O1 0.685937 0.634412 0.024478
O O2 0.247774 0.578878 0.543875
O O3 0.329027 0.608820 0.825393
O O4 0.508111 0.490364 0.889290
O O5 0.873008 0.724923 0.918327
O O6 0.372172 0.636654 0.373769
O O7 0.173253 0.710176 0.046541
O O8 0.318406 0.060622 0.789419
O O9 0.070081 0.141026 0.366317
O O10 0.469811 0.254166 0.238728
O O11 0.105262 0.272532 0.052668
O O12 0.019124 0.005730 0.656628
O O13 0.675748 0.923834 0.432626
O O14 0.510726 0.025274 0.151770
O O15 0.188554 0.300710 0.344496
O O16 0.372928 0.903230 0.927108
#
# Coordination Sequence:
#
# PCOD9136190 Si02
#       8
#     4   4   4   4   4   4   4   4
#     4  10  21  42  66  98 139 184 229 283 344 417
#     4  10  23  39  60  89 127 169 219 273 340 404
#     4   9  20  40  65  94 127 178 229 282 336 400
#     4  10  22  37  60  94 137 176 218 269 340 417
#     4  10  23  40  64  98 132 180 230 282 333 407
#     4   8  20  39  59  95 131 173 212 267 342 410
#     4  10  21  39  67 104 143 181 228 278 357 427
#     4  11  22  40  67  96 132 177 235 284 336 398
#
# _framework density 28.969736999999999
#
# number of rings (size 3 to 8) (size 9 to 14) (size 15 to 20)
#    0.750    1.500    0.000    2.250    0.000   12.000 
#    0.000    0.000    0.000    9.000    0.000    0.000 
#    0.000    0.000    0.000    0.000    0.000    0.000 
#
# Total GULP energy -89090.280215 kJ/mol
# GULP energy per Si atom -5568.142513 kJ/mol
# Density = 2.890380 g / cm^3
# Si number density = 28.969737 Si / 1000 Ang^3
#
#
#
# Elastic Constant Matrix: (Units=GPa)
#
#
# Indices 1 2 3 4 5 6 
#
# 1 81.2111 -1.8271 67.3544 0.0000 -21.9572 0.0000
# 2 -1.8271 120.8607 35.2426 0.0000 -9.7914 0.0000
# 3 67.3544 35.2426 229.8932 0.0002 -17.3963 0.0001
# 4 0.0000 0.0000 0.0002 60.6919 0.0001 -12.0140
# 5 -21.9572 -9.7914 -17.3963 0.0001 68.1907 -0.0001
# 6 0.0000 0.0000 0.0001 -12.0140 -0.0001 21.1349
#
#
#
# Elastic Compliance Matrix: (Units=1/GPa)
#
#
# Indices 1 2 3 4 5 6 
#
# 1 0.018008 0.002190 -0.005251 0.000000 0.004774 0.000000
# 2 0.002190 0.008985 -0.001905 0.000000 0.001509 0.000000
# 3 -0.005251 -0.001905 0.006150 0.000000 -0.000395 0.000000
# 4 0.000000 0.000000 0.000000 0.018566 0.000000 0.010554
# 5 0.004774 0.001509 -0.000395 0.000000 0.016318 0.000000
# 6 0.000000 0.000000 0.000000 0.010554 0.000000 0.053314
#
#
# Mechanical properties :
#
#
# Convention : Reuss Voigt Hill
#
# Bulk Modulus (GPa) = 43.08015 70.38943 56.73479
# Shear Modulus (GPa) = 35.96885 52.08319 44.02602
#
# Velocity S-wave (km/s) = 3.52746 4.24470 3.90259
# Velocity P-wave (km/s) = 5.61192 6.95512 6.31931
#
# Compressibility (1/GPa) = 0.02321255
#
# Stress axis : x y z
#
# Youngs Moduli (GPa) = 55.53038 111.29906 162.59472
#
# Poissons Ratio (x) = -0.24375 0.85371
# Poissons Ratio (y) = -0.12161 0.30971
# Poissons Ratio (z) = 0.29157 0.21200
#
# Static dielectric constant tensor:
#      x y z
#    x 2.488620 0.000000 -0.161530 
#    y 0.000000 2.255120 0.000000 
#    z -0.161530 0.000000 2.460060 
# 
# From -- ./inp_files/26162.got.cif
#   From: 2010.05.17/outbox.cif.g08.bks.cpg/sg9_14_cif.got.tgz:26162.got - 2010.06.03 20:04:27.
