data_PCOD9136759
_publ_section_title
;
Structure prediction by ZEFSAII (Michael W. Deem and Ramdas Pophale) SiO2 
 PCOD9136759
Probable space group: C C
;
_chemical_formula_sum "Si O2"
_cell_formula_units_Z 32
_cell_length_a 6.395145
_cell_length_b 19.970295
_cell_length_c 11.112033
_cell_angle_alpha 90.000000
_cell_angle_beta 93.495388
_cell_angle_gamma 90.000000
_cell_volume 1416.510285
_symmetry_space_group_name_H-M "C C"
_symmetry_group_IT_number 9
_symmetry_cell_setting 'monoclinic'
loop_
_space_group_symop_operation_xyz
x,y,z
x,-y,1/2+z
1/2+x,1/2+y,z
1/2+x,1/2-y,1/2+z
loop_
_atom_site_type_symbol
_atom_site_label
_atom_site_fract_x
_atom_site_fract_y
_atom_site_fract_z
Si Si1 0.623660 0.845410 0.218790
Si Si2 0.193342 0.016601 0.420202
Si Si3 0.031033 0.838946 0.869193
Si Si4 0.957480 0.112831 0.932405
Si Si5 0.776630 0.282938 0.368434
Si Si6 0.944614 0.510637 0.675050
Si Si7 0.202422 0.619569 0.162321
Si Si8 0.882402 0.275734 0.711188
O O1 0.784822 0.862964 0.331172
O O2 0.414982 0.812168 0.264508
O O3 0.547294 0.915852 0.164300
O O4 0.750221 0.787063 0.153344
O O5 0.307588 0.999709 0.549990
O O6 0.120924 0.093825 0.431550
O O7 0.323707 0.001834 0.299714
O O8 0.002414 0.964666 0.407976
O O9 0.935201 0.772618 0.929468
O O10 0.834395 0.862198 0.783815
O O11 0.215123 0.813696 0.788508
O O12 0.174673 0.154195 0.933238
O O13 0.858513 0.124506 0.057577
O O14 0.567410 0.250826 0.304501
O O15 0.121243 0.454839 0.675106
O O16 0.007398 0.669836 0.137847
#
# Coordination Sequence:
#
# PCOD9136759 Si02
#       8
#     4   4   4   4   4   4   4   4
#     4  10  21  43  70  98 140 183 239 305 363 427
#     4  12  25  45  75 104 146 190 247 305 368 437
#     4  10  21  43  70  98 140 183 239 305 363 427
#     4  11  23  41  73 101 139 191 240 295 373 447
#     4   9  20  41  70  97 141 182 241 297 366 439
#     4  12  25  45  75 104 146 190 247 305 368 437
#     4  11  23  41  73 101 139 191 240 295 373 447
#     4   9  20  41  70  97 141 182 241 297 366 439
#
# _framework density 22.590729
#
# number of rings (size 3 to 8) (size 9 to 14) (size 15 to 20)
#    0.000    1.500    2.500    2.250    0.000    0.000 
#    0.000   13.750    5.500    0.000    0.000    0.000 
#    0.000    0.000    0.000    0.000    0.000    0.000 
#
# Total GULP energy -89298.336208 kJ/mol
# GULP energy per Si atom -5581.146013 kJ/mol
# Density = 2.253931 g / cm^3
# Si number density = 22.590729 Si / 1000 Ang^3
#
#
#
# Elastic Constant Matrix: (Units=GPa)
#
#
# Indices 1 2 3 4 5 6 
#
# 1 75.5908 34.4467 6.6661 0.0000 3.7546 0.0000
# 2 34.4467 139.4722 -2.1338 0.0000 -16.9877 0.0000
# 3 6.6661 -2.1338 59.8515 0.0000 -8.7158 0.0000
# 4 0.0000 0.0000 0.0000 4.1347 0.0000 13.1959
# 5 3.7546 -16.9877 -8.7158 0.0000 30.1077 0.0000
# 6 0.0000 0.0000 0.0000 13.1959 0.0000 95.1744
#
#
#
# Elastic Compliance Matrix: (Units=1/GPa)
#
#
# Indices 1 2 3 4 5 6 
#
# 1 0.015832 -0.004604 -0.002707 0.000000 -0.005356 0.000000
# 2 -0.004604 0.009090 0.001741 0.000000 0.006207 0.000000
# 3 -0.002707 0.001741 0.018024 0.000000 0.006537 0.000000
# 4 0.000000 0.000000 0.000000 0.433824 0.000000 -0.060150
# 5 -0.005356 0.006207 0.006537 0.000000 0.039277 0.000000
# 6 0.000000 0.000000 0.000000 -0.060150 0.000000 0.018847
#
#
# Mechanical properties :
#
#
# Convention : Reuss Voigt Hill
#
# Bulk Modulus (GPa) = 31.44273 39.20807 35.32540
# Shear Modulus (GPa) = 8.98255 41.61238 25.29746
#
# Velocity S-wave (km/s) = 1.99621 4.29652 3.35000
# Velocity P-wave (km/s) = 4.38882 6.48128 5.53483
#
# Compressibility (1/GPa) = 0.03180385
#
# Stress axis : x y z
#
# Youngs Moduli (GPa) = 63.16369 110.01646 55.48273
#
# Poissons Ratio (x) = 0.50650 0.15021
# Poissons Ratio (y) = 0.29080 -0.09658
# Poissons Ratio (z) = 0.17101 -0.19150
#
# Static dielectric constant tensor:
#      x y z
#    x 1.816370 0.000000 0.035120 
#    y 0.000000 1.895580 0.000000 
#    z 0.035120 0.000000 1.872840 
# 
# From -- ./inp_files/13355.got.cif
#   From: 2010.05.17/outbox.cif.g08.bks.cpg/sg9_7_cif.got.tgz:13355.got - 2010.06.03 20:04:27.
