data_PCOD9136009
_publ_section_title
;
Structure prediction by ZEFSAII (Michael W. Deem and Ramdas Pophale) SiO2 
 PCOD9136009
Probable space group: C C
;
_chemical_formula_sum "Si O2"
_cell_formula_units_Z 28
_cell_length_a 5.490988
_cell_length_b 30.372595
_cell_length_c 6.815795
_cell_angle_alpha 90.000000
_cell_angle_beta 100.913703
_cell_angle_gamma 90.000000
_cell_volume 1116.148877
_symmetry_space_group_name_H-M "C C"
_symmetry_group_IT_number 9
_symmetry_cell_setting 'monoclinic'
loop_
_space_group_symop_operation_xyz
x,y,z
x,-y,1/2+z
1/2+x,1/2+y,z
1/2+x,1/2-y,1/2+z
loop_
_atom_site_type_symbol
_atom_site_label
_atom_site_fract_x
_atom_site_fract_y
_atom_site_fract_z
Si Si1 0.529520 0.181753 0.304010
Si Si2 0.582315 0.902852 0.343265
Si Si3 0.686478 0.267876 0.478576
Si Si4 0.592172 0.438823 0.397725
Si Si5 0.504236 0.541264 0.431361
Si Si6 0.992724 0.421115 0.890081
Si Si7 0.662381 0.195165 0.896195
O O1 0.625773 0.215961 0.482033
O O2 0.278453 0.203993 0.179256
O O3 0.509990 0.130988 0.354211
O O4 0.700314 0.185748 0.136714
O O5 0.367517 0.918800 0.457158
O O6 0.562962 0.851115 0.302986
O O7 0.863942 0.911380 0.448919
O O8 0.538907 0.927549 0.131690
O O9 0.430950 0.289425 0.365412
O O10 0.922200 0.272830 0.367791
O O11 0.556930 0.489502 0.449484
O O12 0.545544 0.437981 0.153141
O O13 0.220731 0.551831 0.331710
O O14 0.714058 0.561373 0.321806
#
# Coordination Sequence:
#
# PCOD9136009 Si02
#       7
#     4   4   4   4   4   4   4
#     4  10  26  42  66  92 125 162 211 254 316 364
#     4  10  21  39  61  91 124 164 203 250 308 357
#     4  10  25  40  64  91 127 154 215 251 314 366
#     4  10  21  38  61  89 124 161 203 251 300 364
#     4  10  22  39  59  92 121 162 204 248 309 355
#     4  10  23  38  63  88 125 160 204 256 304 366
#     4  10  24  40  62  93 122 163 208 248 313 366
#
# _framework density 25.086258999999998
#
# number of rings (size 3 to 8) (size 9 to 14) (size 15 to 20)
#    0.857    1.143    0.000    1.714    6.000    2.286 
#    0.000    0.000    0.000    0.000    0.000    0.000 
#    0.000    0.000    0.000    0.000    0.000    0.000 
#
# Total GULP energy -78204.378666 kJ/mol
# GULP energy per Si atom -5586.027048 kJ/mol
# Density = 2.502916 g / cm^3
# Si number density = 25.086259 Si / 1000 Ang^3
#
#
#
# Elastic Constant Matrix: (Units=GPa)
#
#
# Indices 1 2 3 4 5 6 
#
# 1 222.0452 79.4272 23.6754 0.0000 13.2842 0.0000
# 2 79.4272 141.8398 -15.3634 0.0000 5.0175 0.0000
# 3 23.6754 -15.3634 48.3481 0.0000 5.7820 0.0000
# 4 0.0000 0.0000 0.0000 25.6855 0.0000 2.6071
# 5 13.2842 5.0175 5.7820 0.0000 35.8911 0.0000
# 6 0.0000 0.0000 0.0000 2.6071 0.0000 37.8861
#
#
#
# Elastic Compliance Matrix: (Units=1/GPa)
#
#
# Indices 1 2 3 4 5 6 
#
# 1 0.006486 -0.004061 -0.004331 0.000000 -0.001135 0.000000
# 2 -0.004061 0.009916 0.005226 0.000000 -0.000725 0.000000
# 3 -0.004331 0.005226 0.024839 0.000000 -0.003129 0.000000
# 4 0.000000 0.000000 0.000000 0.039206 0.000000 -0.002698
# 5 -0.001135 -0.000725 -0.003129 0.000000 0.028888 0.000000
# 6 0.000000 0.000000 0.000000 -0.002698 0.000000 0.026581
#
#
# Mechanical properties :
#
#
# Convention : Reuss Voigt Hill
#
# Bulk Modulus (GPa) = 28.64496 65.30128 46.97312
# Shear Modulus (GPa) = 32.49227 41.52546 37.00887
#
# Velocity S-wave (km/s) = 3.60282 4.07296 3.84508
# Velocity P-wave (km/s) = 5.36195 6.94305 6.20308
#
# Compressibility (1/GPa) = 0.03491016
#
# Stress axis : x y z
#
# Youngs Moduli (GPa) = 154.18150 100.84777 40.25927
#
# Poissons Ratio (x) = 0.40953 0.17435
# Poissons Ratio (y) = 0.62611 -0.21040
# Poissons Ratio (z) = 0.66771 -0.52705
#
# Static dielectric constant tensor:
#      x y z
#    x 1.959630 0.000000 -0.029760 
#    y 0.000000 1.911390 0.000000 
#    z -0.029760 0.000000 2.149530 
# 
# From -- ./inp_files/4091.got.cif
#   From: 2010.05.17/outbox.cif.g08.bks.cpg/sg9_3_cif.got.tgz:4091.got - 2010.06.03 20:04:27.
