data_PCOD9136692
_publ_section_title
;
Structure prediction by ZEFSAII (Michael W. Deem and Ramdas Pophale) SiO2 
 PCOD9136692
Probable space group: C C
;
_chemical_formula_sum "Si O2"
_cell_formula_units_Z 32
_cell_length_a 12.025052
_cell_length_b 7.489840
_cell_length_c 31.584706
_cell_angle_alpha 90.000000
_cell_angle_beta 151.616091
_cell_angle_gamma 90.000000
_cell_volume 1352.304969
_symmetry_space_group_name_H-M "C C"
_symmetry_group_IT_number 9
_symmetry_cell_setting 'monoclinic'
loop_
_space_group_symop_operation_xyz
x,y,z
x,-y,1/2+z
1/2+x,1/2+y,z
1/2+x,1/2-y,1/2+z
loop_
_atom_site_type_symbol
_atom_site_label
_atom_site_fract_x
_atom_site_fract_y
_atom_site_fract_z
Si Si1 0.935640 0.227322 0.040700
Si Si2 0.080697 0.982220 0.150406
Si Si3 0.483331 0.410484 0.929206
Si Si4 0.483661 0.735882 0.284317
Si Si5 0.160260 0.544081 0.240764
Si Si6 0.216660 0.565117 0.415140
Si Si7 0.705513 0.255156 0.552118
Si Si8 0.724220 0.346668 0.780791
O O1 0.048435 0.320907 0.037921
O O2 0.703425 0.315266 0.981300
O O3 0.102995 0.173565 0.135396
O O4 0.883008 0.031421 0.003918
O O5 0.262086 0.843493 0.190835
O O6 0.821224 0.903293 0.064670
O O7 0.142177 0.000778 0.221048
O O8 0.276158 0.417424 0.825329
O O9 0.367116 0.323083 0.932027
O O10 0.578603 0.600896 0.979241
O O11 0.363411 0.597010 0.275694
O O12 0.641755 0.643859 0.301581
O O13 0.613848 0.893568 0.354025
O O14 0.113924 0.335064 0.226697
O O15 0.923324 0.642222 0.147626
O O16 0.002414 0.660410 0.366246
#
# Coordination Sequence:
#
# PCOD9136692 Si02
#       8
#     4   4   4   4   4   4   4   4
#     4  11  23  42  65  92 134 172 214 269 333 385
#     4  10  24  41  65  94 128 172 214 273 328 388
#     4  11  23  43  67  96 132 173 222 267 330 389
#     4  10  21  43  64  93 132 168 217 270 325 386
#     4  11  22  42  71  95 130 177 216 271 329 390
#     4  10  23  40  61  95 130 168 212 274 318 387
#     4  10  25  44  64  97 137 169 217 279 326 388
#     4  11  23  39  67  96 127 171 220 261 333 389
#
# _framework density 23.663301000000001
#
# number of rings (size 3 to 8) (size 9 to 14) (size 15 to 20)
#    0.000    1.500    2.500    1.500    3.500    5.000 
#    2.250    0.000    0.000    0.000    0.000    0.000 
#    0.000    0.000    0.000    0.000    0.000    0.000 
#
# Total GULP energy -89331.986192 kJ/mol
# GULP energy per Si atom -5583.249137 kJ/mol
# Density = 2.360944 g / cm^3
# Si number density = 23.663301 Si / 1000 Ang^3
#
#
#
# Elastic Constant Matrix: (Units=GPa)
#
#
# Indices 1 2 3 4 5 6 
#
# 1 193.5012 16.3654 34.0702 0.0001 8.3604 -0.0002
# 2 16.3654 18.8769 -1.4068 0.0008 -0.9734 -0.0001
# 3 34.0702 -1.4068 57.4069 0.0007 -4.2436 -0.0002
# 4 0.0001 0.0008 0.0007 36.7897 -0.0004 0.1357
# 5 8.3604 -0.9734 -4.2436 -0.0004 35.7415 0.0001
# 6 -0.0002 -0.0001 -0.0002 0.1357 0.0001 33.1181
#
#
#
# Elastic Compliance Matrix: (Units=1/GPa)
#
#
# Indices 1 2 3 4 5 6 
#
# 1 0.006510 -0.006068 -0.004174 0.000000 -0.002184 0.000000
# 2 -0.006068 0.058820 0.005313 -0.000001 0.003652 0.000000
# 3 -0.004174 0.005313 0.020288 0.000000 0.003530 0.000000
# 4 0.000000 -0.000001 0.000000 0.027182 0.000000 -0.000111
# 5 -0.002184 0.003652 0.003530 0.000000 0.029008 0.000000
# 6 0.000000 0.000000 0.000000 -0.000111 0.000000 0.030195
#
#
# Mechanical properties :
#
#
# Convention : Reuss Voigt Hill
#
# Bulk Modulus (GPa) = 13.19970 40.87139 27.03555
# Shear Modulus (GPa) = 24.14123 35.84695 29.99409
#
# Velocity S-wave (km/s) = 3.19752 3.89636 3.56411
# Velocity P-wave (km/s) = 4.38434 6.12795 5.32795
#
# Compressibility (1/GPa) = 0.07575932
#
# Stress axis : x y z
#
# Youngs Moduli (GPa) = 153.60083 17.00116 49.29071
#
# Poissons Ratio (x) = 0.10316 0.20574
# Poissons Ratio (y) = 0.93203 -0.26186
# Poissons Ratio (z) = 0.64112 -0.09032
#
# Static dielectric constant tensor:
#      x y z
#    x 1.918780 0.000000 -0.014880 
#    y 0.000000 1.882610 0.000000 
#    z -0.014880 0.000000 1.981790 
# 
# From -- ./inp_files/29798.got.cif
#   From: 2010.05.17/outbox.cif.g08.bks.cpg/sg9_15_cif.got.tgz:29798.got - 2010.06.03 20:04:27.
