data_PCOD9136081
_publ_section_title
;
Structure prediction by ZEFSAII (Michael W. Deem and Ramdas Pophale) SiO2 
 PCOD9136081
Probable space group: C C
;
_chemical_formula_sum "Si O2"
_cell_formula_units_Z 32
_cell_length_a 12.583489
_cell_length_b 12.910699
_cell_length_c 11.000065
_cell_angle_alpha 90.000000
_cell_angle_beta 47.086727
_cell_angle_gamma 90.000000
_cell_volume 1308.837206
_symmetry_space_group_name_H-M "C C"
_symmetry_group_IT_number 9
_symmetry_cell_setting 'monoclinic'
loop_
_space_group_symop_operation_xyz
x,y,z
x,-y,1/2+z
1/2+x,1/2+y,z
1/2+x,1/2-y,1/2+z
loop_
_atom_site_type_symbol
_atom_site_label
_atom_site_fract_x
_atom_site_fract_y
_atom_site_fract_z
Si Si1 0.446170 0.910494 0.178840
Si Si2 0.013230 0.351681 0.632129
Si Si3 0.166691 0.010363 0.009581
Si Si4 0.982834 0.877421 0.846806
Si Si5 0.709623 0.292139 0.857458
Si Si6 0.485369 0.227621 0.426459
Si Si7 0.227759 0.333353 0.894494
Si Si8 0.385564 0.554765 0.070528
O O1 0.486042 0.029840 0.124735
O O2 0.310760 0.922195 0.374062
O O3 0.410978 0.852852 0.078874
O O4 0.601904 0.859852 0.089182
O O5 0.160936 0.310640 0.461933
O O6 0.874415 0.290430 0.685426
O O7 0.009215 0.324020 0.778061
O O8 0.089356 0.043382 0.193062
O O9 0.042648 0.036145 0.008513
O O10 0.200415 0.889310 0.959953
O O11 0.882053 0.809634 0.835030
O O12 0.091446 0.814934 0.846702
O O13 0.868505 0.953027 0.003490
O O14 0.640552 0.243552 0.373487
O O15 0.401395 0.336112 0.488115
O O16 0.270607 0.426593 0.768068
#
# Coordination Sequence:
#
# PCOD9136081 Si02
#       8
#     4   4   4   4   4   4   4   4
#     4   9  23  39  62  96 129 165 220 270 341 391
#     4  11  24  42  65  94 128 173 221 274 334 400
#     4   9  20  42  64  90 129 170 217 270 333 398
#     4  10  21  44  65  94 135 171 222 274 335 406
#     4  10  24  42  64  96 125 175 222 268 335 398
#     4  10  24  39  66  97 130 167 224 275 328 399
#     4   9  23  40  63  99 129 170 218 273 346 388
#     4  10  21  38  69  92 127 171 222 272 326 398
#
# _framework density 24.449183999999999
#
# number of rings (size 3 to 8) (size 9 to 14) (size 15 to 20)
#    0.750    1.500    0.000    0.750    5.250    9.000 
#    4.500    3.750    0.000    0.000    0.000    0.000 
#    0.000    0.000    0.000    0.000    0.000    0.000 
#
# Total GULP energy -89319.085124 kJ/mol
# GULP energy per Si atom -5582.442820 kJ/mol
# Density = 2.439354 g / cm^3
# Si number density = 24.449184 Si / 1000 Ang^3
#
#
#
# Elastic Constant Matrix: (Units=GPa)
#
#
# Indices 1 2 3 4 5 6 
#
# 1 106.5535 6.2661 19.1538 0.0000 -9.8792 0.0000
# 2 6.2661 55.1324 0.9758 0.0000 -1.8798 0.0000
# 3 19.1538 0.9758 66.3210 0.0000 -19.3957 0.0000
# 4 0.0000 0.0000 0.0000 24.7928 0.0000 -14.9171
# 5 -9.8792 -1.8798 -19.3957 0.0000 36.2141 0.0000
# 6 0.0000 0.0000 0.0000 -14.9171 0.0000 8.9260
#
#
#
# Elastic Compliance Matrix: (Units=1/GPa)
#
#
# Indices 1 2 3 4 5 6 
#
# 1 0.010018 -0.001049 -0.002483 0.000000 0.001348 0.000000
# 2 -0.001049 0.018280 0.000270 0.000000 0.000807 0.000000
# 3 -0.002483 0.000270 0.018494 0.000000 0.009242 0.000000
# 4 0.000000 0.000000 0.000000 -7.323651 0.000000-12.239226
# 5 0.001348 0.000807 0.009242 0.000000 0.032973 0.000000
# 6 0.000000 0.000000 0.000000-12.239226 0.000000-20.342065
#
#
# Mechanical properties :
#
#
# Convention : Reuss Voigt Hill
#
# Bulk Modulus (GPa) = 24.83352 31.19980 28.01666
# Shear Modulus (GPa) = -0.18138 27.42735 13.62298
#
# Velocity S-wave (km/s) = -0.27267 3.35298 2.36306
# Velocity P-wave (km/s) = 3.17492 5.27055 4.35080
#
# Compressibility (1/GPa) = 0.04026815
#
# Stress axis : x y z
#
# Youngs Moduli (GPa) = 99.81969 54.70433 54.07092
#
# Poissons Ratio (x) = 0.05737 0.13428
# Poissons Ratio (y) = 0.10468 -0.01460
# Poissons Ratio (z) = 0.24790 -0.01477
#
# Static dielectric constant tensor:
#      x y z
#    x 1.942590 0.000000 0.011840 
#    y 0.000000 1.964610 0.000000 
#    z 0.011840 0.000000 1.948930 
# 
# From -- ./inp_files/18387.got.cif
#   From: 2010.05.17/outbox.cif.g08.bks.cpg/sg9_10_cif.got.tgz:18387.got - 2010.06.03 20:04:27.
