data_PCOD9136826
_publ_section_title
;
Structure prediction by ZEFSAII (Michael W. Deem and Ramdas Pophale) SiO2 
 PCOD9136826
Probable space group: C C
;
_chemical_formula_sum "Si O2"
_cell_formula_units_Z 24
_cell_length_a 16.767961
_cell_length_b 6.812053
_cell_length_c 9.011896
_cell_angle_alpha 90.000000
_cell_angle_beta 117.640537
_cell_angle_gamma 90.000000
_cell_volume 911.899907
_symmetry_space_group_name_H-M "C C"
_symmetry_group_IT_number 9
_symmetry_cell_setting 'monoclinic'
loop_
_space_group_symop_operation_xyz
x,y,z
x,-y,1/2+z
1/2+x,1/2+y,z
1/2+x,1/2-y,1/2+z
loop_
_atom_site_type_symbol
_atom_site_label
_atom_site_fract_x
_atom_site_fract_y
_atom_site_fract_z
Si Si1 0.501750 0.348979 0.862780
Si Si2 0.263957 0.226767 0.469394
Si Si3 0.826690 0.417831 0.728006
Si Si4 0.615466 0.027097 0.396415
Si Si5 0.469620 0.710329 0.647595
Si Si6 0.138472 0.160998 0.116954
O O1 0.549399 0.159948 0.838145
O O2 0.460748 0.488815 0.702506
O O3 0.572527 0.494667 0.006321
O O4 0.443653 0.282386 0.953829
O O5 0.336625 0.168915 0.403663
O O6 0.214983 0.437263 0.448244
O O7 0.300747 0.138970 0.653678
O O8 0.179464 0.116924 0.313326
O O9 0.905308 0.338581 0.695026
O O10 0.730087 0.325095 0.600036
O O11 0.569474 0.197046 0.257306
O O12 0.603375 0.122077 0.551628
#
# Coordination Sequence:
#
# PCOD9136826 Si02
#       6
#     4   4   4   4   4   4
#     4  11  23  43  68  98 142 177 230 281 335 418
#     4  10  21  44  68  98 137 178 229 277 335 410
#     4  10  24  45  67 101 142 175 225 292 342 400
#     4  11  21  42  72 105 129 185 232 276 339 421
#     4  11  27  44  69 104 141 180 228 288 352 395
#     4   9  22  40  68 100 129 181 226 272 339 408
#
# _framework density 26.318677999999998
#
# number of rings (size 3 to 8) (size 9 to 14) (size 15 to 20)
#    1.000    0.667    1.667    2.000    4.667    2.667 
#    6.000    0.000    0.000    0.000    0.000    0.000 
#    0.000    0.000    0.000    0.000    0.000    0.000 
#
# Total GULP energy -66859.829255 kJ/mol
# GULP energy per Si atom -5571.652438 kJ/mol
# Density = 2.625878 g / cm^3
# Si number density = 26.318678 Si / 1000 Ang^3
#
#
#
# Elastic Constant Matrix: (Units=GPa)
#
#
# Indices 1 2 3 4 5 6 
#
# 1 97.8443 34.6198 37.5037 0.0000 -19.7549 0.0000
# 2 34.6198 120.2935 49.2706 0.0000 -4.0197 0.0000
# 3 37.5037 49.2706 118.7115 0.0000 -7.3606 0.0000
# 4 0.0000 0.0000 0.0000 45.8611 0.0000 -10.4216
# 5 -19.7549 -4.0197 -7.3606 0.0000 35.1312 0.0000
# 6 0.0000 0.0000 0.0000 -10.4216 0.0000 23.3002
#
#
#
# Elastic Compliance Matrix: (Units=1/GPa)
#
#
# Indices 1 2 3 4 5 6 
#
# 1 0.013554 -0.002521 -0.002817 0.000000 0.006743 0.000000
# 2 -0.002521 0.010487 -0.003617 0.000000 -0.000976 0.000000
# 3 -0.002817 -0.003617 0.010832 0.000000 0.000271 0.000000
# 4 0.000000 0.000000 0.000000 0.024272 0.000000 0.010856
# 5 0.006743 -0.000976 0.000271 0.000000 0.032201 0.000000
# 6 0.000000 0.000000 0.000000 0.010856 0.000000 0.047774
#
#
# Mechanical properties :
#
#
# Convention : Reuss Voigt Hill
#
# Bulk Modulus (GPa) = 58.95534 64.40416 61.67975
# Shear Modulus (GPa) = 30.73426 35.22219 32.97823
#
# Velocity S-wave (km/s) = 3.42098 3.66224 3.54366
# Velocity P-wave (km/s) = 6.16874 6.51204 6.34271
#
# Compressibility (1/GPa) = 0.01696199
#
# Stress axis : x y z
#
# Youngs Moduli (GPa) = 73.78057 95.35267 92.32122
#
# Poissons Ratio (x) = 0.24042 0.26010
# Poissons Ratio (y) = 0.18603 0.33389
# Poissons Ratio (z) = 0.20787 0.34486
#
# Static dielectric constant tensor:
#      x y z
#    x 2.224980 0.000000 -0.020350 
#    y 0.000000 2.075510 0.000000 
#    z -0.020350 0.000000 2.120350 
# 
# From -- ./inp_files/18761.got.cif
#   From: 2010.05.17/outbox.cif.g08.bks.cpg/sg9_10_cif.got.tgz:18761.got - 2010.06.03 20:04:27.
