data_PCOD9136426
_publ_section_title
;
Structure prediction by ZEFSAII (Michael W. Deem and Ramdas Pophale) SiO2 
 PCOD9136426
Probable space group: C C
;
_chemical_formula_sum "Si O2"
_cell_formula_units_Z 28
_cell_length_a 7.011993
_cell_length_b 23.305428
_cell_length_c 8.564104
_cell_angle_alpha 90.000000
_cell_angle_beta 104.766699
_cell_angle_gamma 90.000000
_cell_volume 1353.300526
_symmetry_space_group_name_H-M "C C"
_symmetry_group_IT_number 9
_symmetry_cell_setting 'monoclinic'
loop_
_space_group_symop_operation_xyz
x,y,z
x,-y,1/2+z
1/2+x,1/2+y,z
1/2+x,1/2-y,1/2+z
loop_
_atom_site_type_symbol
_atom_site_label
_atom_site_fract_x
_atom_site_fract_y
_atom_site_fract_z
Si Si1 0.955670 0.423777 0.621220
Si Si2 0.264977 0.987283 0.872096
Si Si3 0.268565 0.363117 0.872963
Si Si4 0.968512 0.734694 0.408698
Si Si5 0.022965 0.765469 0.766934
Si Si6 0.283065 0.827827 0.372455
Si Si7 0.587041 0.579007 0.626831
O O1 0.846843 0.448972 0.749763
O O2 0.934830 0.472602 0.484224
O O3 0.843304 0.368841 0.527045
O O4 0.169544 0.404340 0.724067
O O5 0.103784 0.030819 0.764743
O O6 0.177230 0.948897 0.990469
O O7 0.098226 0.321930 0.906203
O O8 0.428247 0.322165 0.821962
O O9 0.374512 0.397432 0.033730
O O10 0.931194 0.748578 0.581920
O O11 0.097791 0.786984 0.368616
O O12 0.755044 0.729375 0.288327
O O13 0.965186 0.713270 0.869076
O O14 0.220456 0.868697 0.216648
#
# Coordination Sequence:
#
# PCOD9136426 Si02
#       7
#     4   4   4   4   4   4   4
#     4  10  21  41  63  91 122 160 205 260 301 366
#     4   9  22  41  66  86 120 163 208 255 314 352
#     4  11  24  37  64  96 122 159 210 247 304 372
#     4  11  23  39  61  94 128 164 199 248 301 373
#     4  11  23  39  61  94 128 164 199 248 301 373
#     4  10  22  40  62  94 128 160 208 242 304 374
#     4  10  21  41  63  91 122 160 205 260 301 366
#
# _framework density 20.690156000000002
#
# number of rings (size 3 to 8) (size 9 to 14) (size 15 to 20)
#    0.000    1.714    0.000    3.429    6.000    5.714 
#    0.000    0.000    6.286    0.000    0.000    0.000 
#    0.000    0.000    0.000    0.000    0.000    0.000 
#
# Total GULP energy -78253.904461 kJ/mol
# GULP energy per Si atom -5589.564604 kJ/mol
# Density = 2.064306 g / cm^3
# Si number density = 20.690156 Si / 1000 Ang^3
#
#
#
# Elastic Constant Matrix: (Units=GPa)
#
#
# Indices 1 2 3 4 5 6 
#
# 1 71.2941 48.4565 19.0796 0.0000 16.8617 0.0000
# 2 48.4565 120.3046 54.9868 0.0000 8.0652 0.0000
# 3 19.0796 54.9868 109.2665 0.0000 14.4151 0.0000
# 4 0.0000 0.0000 0.0000 35.8824 0.0000 0.9824
# 5 16.8617 8.0652 14.4151 0.0000 39.5391 0.0000
# 6 0.0000 0.0000 0.0000 0.9824 0.0000 5.0671
#
#
#
# Elastic Compliance Matrix: (Units=1/GPa)
#
#
# Indices 1 2 3 4 5 6 
#
# 1 0.021527 -0.008959 0.001807 0.000000 -0.008012 0.000000
# 2 -0.008959 0.014526 -0.006155 0.000000 0.003102 0.000000
# 3 0.001807 -0.006155 0.012470 0.000000 -0.004061 0.000000
# 4 0.000000 0.000000 0.000000 0.028018 0.000000 -0.005432
# 5 -0.008012 0.003102 -0.004061 0.000000 0.029556 0.000000
# 6 0.000000 0.000000 0.000000 -0.005432 0.000000 0.198403
#
#
# Mechanical properties :
#
#
# Convention : Reuss Voigt Hill
#
# Bulk Modulus (GPa) = 45.64604 60.65677 53.15140
# Shear Modulus (GPa) = 14.77468 27.98720 21.38094
#
# Velocity S-wave (km/s) = 2.67515 3.68187 3.21812
# Velocity P-wave (km/s) = 5.62597 6.88878 6.28915
#
# Compressibility (1/GPa) = 0.02190771
#
# Stress axis : x y z
#
# Youngs Moduli (GPa) = 46.45297 68.84146 80.19529
#
# Poissons Ratio (x) = 0.61678 -0.14489
# Poissons Ratio (y) = 0.41619 0.49359
# Poissons Ratio (z) = -0.08392 0.42371
#
# Static dielectric constant tensor:
#      x y z
#    x 1.696870 0.000000 0.010800 
#    y 0.000000 1.743510 0.000000 
#    z 0.010800 0.000000 1.732140 
# 
# From -- ./inp_files/4178.got.cif
#   From: 2010.05.17/outbox.cif.g08.bks.cpg/sg9_3_cif.got.tgz:4178.got - 2010.06.03 20:04:27.
