data_PCOD9136595
_publ_section_title
;
Structure prediction by ZEFSAII (Michael W. Deem and Ramdas Pophale) SiO2 
 PCOD9136595
Probable space group: C C
;
_chemical_formula_sum "Si O2"
_cell_formula_units_Z 28
_cell_length_a 11.540445
_cell_length_b 15.723340
_cell_length_c 8.665085
_cell_angle_alpha 90.000000
_cell_angle_beta 48.269061
_cell_angle_gamma 90.000000
_cell_volume 1173.387146
_symmetry_space_group_name_H-M "C C"
_symmetry_group_IT_number 9
_symmetry_cell_setting 'monoclinic'
loop_
_space_group_symop_operation_xyz
x,y,z
x,-y,1/2+z
1/2+x,1/2+y,z
1/2+x,1/2-y,1/2+z
loop_
_atom_site_type_symbol
_atom_site_label
_atom_site_fract_x
_atom_site_fract_y
_atom_site_fract_z
Si Si1 0.750000 0.468915 0.472320
Si Si2 0.520762 0.222745 0.698069
Si Si3 0.310497 0.456794 0.157213
Si Si4 0.590924 0.044386 0.572945
Si Si5 0.071524 0.142670 0.597143
Si Si6 0.511364 0.370076 0.486035
Si Si7 0.273307 0.181828 0.152649
O O1 0.648429 0.552131 0.568380
O O2 0.674438 0.406910 0.409538
O O3 0.732871 0.415983 0.645698
O O4 0.929733 0.489962 0.285812
O O5 0.540723 0.140164 0.573033
O O6 0.451216 0.300724 0.662234
O O7 0.680986 0.258816 0.617520
O O8 0.442059 0.193919 0.930120
O O9 0.159842 0.477281 0.393617
O O10 0.236104 0.440404 0.058204
O O11 0.421360 0.382496 0.125358
O O12 0.403923 0.546241 0.068649
O O13 0.201618 0.193782 0.385111
O O14 0.025843 0.174678 0.806685
#
# Coordination Sequence:
#
# PCOD9136595 Si02
#       7
#     4   4   4   4   4   4   4
#     4   9  21  38  65  94 132 173 218 268 342 400
#     4  10  23  43  65  90 131 185 217 263 348 412
#     4  11  23  40  67 102 133 172 229 286 336 394
#     4  11  24  40  66  99 133 172 222 287 331 394
#     4  11  22  39  66  99 126 174 225 283 326 408
#     4  10  21  42  66  96 133 182 226 268 342 422
#     4  10  22  40  65  90 126 176 217 269 335 410
#
# _framework density 23.862542000000001
#
# number of rings (size 3 to 8) (size 9 to 14) (size 15 to 20)
#    0.000    1.714    1.429    2.571   12.000    0.000 
#    0.000    7.143    0.000    0.000    0.000    0.000 
#    0.000    0.000    0.000    0.000    0.000    0.000 
#
# Total GULP energy -78143.354976 kJ/mol
# GULP energy per Si atom -5581.668213 kJ/mol
# Density = 2.380823 g / cm^3
# Si number density = 23.862542 Si / 1000 Ang^3
#
#
#
# Elastic Constant Matrix: (Units=GPa)
#
#
# Indices 1 2 3 4 5 6 
#
# 1 69.3932 6.8687 17.7660 0.0000 -2.7296 0.0000
# 2 6.8687 58.6565 8.0399 0.0000 -3.4454 0.0000
# 3 17.7660 8.0399 116.2492 0.0000 7.7850 0.0000
# 4 0.0000 0.0000 0.0000 25.2129 0.0000 4.4126
# 5 -2.7296 -3.4454 7.7850 0.0000 35.5360 0.0000
# 6 0.0000 0.0000 0.0000 4.4126 0.0000 13.3550
#
#
#
# Elastic Compliance Matrix: (Units=1/GPa)
#
#
# Indices 1 2 3 4 5 6 
#
# 1 0.015204 -0.001370 -0.002332 0.000000 0.001546 0.000000
# 2 -0.001370 0.017470 -0.001122 0.000000 0.001834 0.000000
# 3 -0.002332 -0.001122 0.009190 0.000000 -0.002301 0.000000
# 4 0.000000 0.000000 0.000000 0.042097 0.000000 -0.013909
# 5 0.001546 0.001834 -0.002301 0.000000 0.028941 0.000000
# 6 0.000000 0.000000 0.000000 -0.013909 0.000000 0.079474
#
#
# Mechanical properties :
#
#
# Convention : Reuss Voigt Hill
#
# Bulk Modulus (GPa) = 31.03975 34.40534 32.72254
# Shear Modulus (GPa) = 23.50023 28.92906 26.21464
#
# Velocity S-wave (km/s) = 3.14158 3.48562 3.31806
# Velocity P-wave (km/s) = 5.11814 5.53614 5.33124
#
# Compressibility (1/GPa) = 0.03221676
#
# Stress axis : x y z
#
# Youngs Moduli (GPa) = 65.77138 57.23991 108.80975
#
# Poissons Ratio (x) = 0.07841 0.25379
# Poissons Ratio (y) = 0.09010 0.12206
# Poissons Ratio (z) = 0.15340 0.06421
#
# Static dielectric constant tensor:
#      x y z
#    x 1.931870 0.000000 0.026470 
#    y 0.000000 1.914080 0.000000 
#    z 0.026470 0.000000 1.957640 
# 
# From -- ./inp_files/7857.got.cif
#   From: 2010.05.17/outbox.cif.g08.bks.cpg/sg9_4_cif.got.tgz:7857.got - 2010.06.03 20:04:27.
