data_PCOD9136655
_publ_section_title
;
Structure prediction by ZEFSAII (Michael W. Deem and Ramdas Pophale) SiO2 
 PCOD9136655
Probable space group: C C
;
_chemical_formula_sum "Si O2"
_cell_formula_units_Z 28
_cell_length_a 14.175019
_cell_length_b 12.999196
_cell_length_c 8.925601
_cell_angle_alpha 90.000000
_cell_angle_beta 40.426150
_cell_angle_gamma 90.000000
_cell_volume 1066.512034
_symmetry_space_group_name_H-M "C C"
_symmetry_group_IT_number 9
_symmetry_cell_setting 'monoclinic'
loop_
_space_group_symop_operation_xyz
x,y,z
x,-y,1/2+z
1/2+x,1/2+y,z
1/2+x,1/2-y,1/2+z
loop_
_atom_site_type_symbol
_atom_site_label
_atom_site_fract_x
_atom_site_fract_y
_atom_site_fract_z
Si Si1 0.920150 0.697224 0.968090
Si Si2 0.634117 0.087572 0.284563
Si Si3 0.093091 0.096141 0.546357
Si Si4 0.085529 0.801641 0.492693
Si Si5 0.834837 0.552050 0.813140
Si Si6 0.433371 0.482247 0.502679
Si Si7 0.148651 0.681284 0.946945
O O1 0.859232 0.598307 0.949567
O O2 0.997141 0.761817 0.743030
O O3 0.042706 0.660992 0.935743
O O4 0.797730 0.768768 0.196817
O O5 0.649594 0.202842 0.330933
O O6 0.479874 0.056172 0.540056
O O7 0.759987 0.014253 0.200552
O O8 0.648975 0.102260 0.086513
O O9 0.077083 0.214398 0.601534
O O10 0.252134 0.056854 0.403031
O O11 0.035083 0.069762 0.451638
O O12 0.982370 0.027597 0.773601
O O13 0.220858 0.870745 0.375768
O O14 0.982110 0.875194 0.520128
#
# Coordination Sequence:
#
# PCOD9136655 Si02
#       7
#     4   4   4   4   4   4   4
#     4  11  23  41  68 107 133 186 240 305 334 433
#     4  11  23  43  72 108 137 189 242 304 334 436
#     4  11  25  47  69 104 145 193 223 294 368 444
#     4  10  21  42  70  99 135 194 235 283 355 443
#     4  10  23  45  72  99 144 194 236 281 382 429
#     4  11  24  44  73 100 147 185 240 283 377 428
#     4  12  25  42  74 109 139 175 256 300 346 403
#
# _framework density 26.253803999999999
#
# number of rings (size 3 to 8) (size 9 to 14) (size 15 to 20)
#    0.000    1.143    2.857    3.429    6.000    0.000 
#    0.000    8.571    0.000    0.000    0.000    0.000 
#    0.000    0.000    0.000    0.000    0.000    0.000 
#
# Total GULP energy -78447.324839 kJ/mol
# GULP energy per Si atom -5603.380346 kJ/mol
# Density = 2.619405 g / cm^3
# Si number density = 26.253804 Si / 1000 Ang^3
#
#
#
# Elastic Constant Matrix: (Units=GPa)
#
#
# Indices 1 2 3 4 5 6 
#
# 1 152.8735 26.0017 54.8008 0.0000 -22.5326 0.0000
# 2 26.0017 61.9240 -4.7375 0.0000 0.1200 0.0000
# 3 54.8008 -4.7375 145.2488 0.0000 -9.0112 0.0000
# 4 0.0000 0.0000 0.0000 40.2012 0.0000 -2.2891
# 5 -22.5326 0.1200 -9.0112 0.0000 50.4624 0.0000
# 6 0.0000 0.0000 0.0000 -2.2891 0.0000 45.0038
#
#
#
# Elastic Compliance Matrix: (Units=1/GPa)
#
#
# Indices 1 2 3 4 5 6 
#
# 1 0.008895 -0.003992 -0.003276 0.000000 0.003396 0.000000
# 2 -0.003992 0.017981 0.002002 0.000000 -0.001468 0.000000
# 3 -0.003276 0.002002 0.008186 0.000000 -0.000006 0.000000
# 4 0.000000 0.000000 0.000000 0.024947 0.000000 0.001269
# 5 0.003396 -0.001468 -0.000006 0.000000 0.021336 0.000000
# 6 0.000000 0.000000 0.000000 0.001269 0.000000 0.022285
#
#
# Mechanical properties :
#
#
# Convention : Reuss Voigt Hill
#
# Bulk Modulus (GPa) = 40.76721 56.90849 48.83785
# Shear Modulus (GPa) = 40.87021 46.06557 43.46789
#
# Velocity S-wave (km/s) = 3.94983 4.19337 4.07342
# Velocity P-wave (km/s) = 6.03020 6.72080 6.38484
#
# Compressibility (1/GPa) = 0.02452952
#
# Stress axis : x y z
#
# Youngs Moduli (GPa) = 112.42025 55.61380 122.16718
#
# Poissons Ratio (x) = 0.22202 0.40017
# Poissons Ratio (y) = 0.44881 -0.24453
# Poissons Ratio (z) = 0.36824 -0.11132
#
# Static dielectric constant tensor:
#      x y z
#    x 2.013990 0.000000 -0.002330 
#    y 0.000000 2.114180 0.000000 
#    z -0.002330 0.000000 2.081540 
# 
# From -- ./inp_files/9754.got.cif
#   From: 2010.05.17/outbox.cif.g08.bks.cpg/sg9_5_cif.got.tgz:9754.got - 2010.06.03 20:04:27.
