data_PCOD9136993
_publ_section_title
;
Structure prediction by ZEFSAII (Michael W. Deem and Ramdas Pophale) SiO2 
 PCOD9136993
Probable space group: C C
;
_chemical_formula_sum "Si O2"
_cell_formula_units_Z 28
_cell_length_a 10.212245
_cell_length_b 27.019726
_cell_length_c 4.976445
_cell_angle_alpha 90.000000
_cell_angle_beta 81.007790
_cell_angle_gamma 90.000000
_cell_volume 1356.284035
_symmetry_space_group_name_H-M "C C"
_symmetry_group_IT_number 9
_symmetry_cell_setting 'monoclinic'
loop_
_space_group_symop_operation_xyz
x,y,z
x,-y,1/2+z
1/2+x,1/2+y,z
1/2+x,1/2-y,1/2+z
loop_
_atom_site_type_symbol
_atom_site_label
_atom_site_fract_x
_atom_site_fract_y
_atom_site_fract_z
Si Si1 0.860150 0.155672 0.601380
Si Si2 0.873558 0.388007 0.041515
Si Si3 0.739244 0.118137 0.133446
Si Si4 0.149530 0.182742 0.711648
Si Si5 0.572649 0.968276 0.971627
Si Si6 0.763179 0.263061 0.666562
Si Si7 0.981741 0.664118 0.009544
O O1 0.849858 0.138236 0.299914
O O2 0.767843 0.204450 0.646600
O O3 0.003310 0.171761 0.658333
O O4 0.804596 0.113495 0.819914
O O5 0.732194 0.368852 0.190382
O O6 0.973942 0.359469 0.215971
O O7 0.925949 0.443765 0.014078
O O8 0.887544 0.368561 0.733881
O O9 0.668820 0.072494 0.305913
O O10 0.621355 0.157282 0.110266
O O11 0.225549 0.217806 0.473244
O O12 0.163645 0.210707 0.989832
O O13 0.590597 0.984453 0.272907
O O14 0.910421 0.283073 0.538324
#
# Coordination Sequence:
#
# PCOD9136993 Si02
#       7
#     4   4   4   4   4   4   4
#     4  12  24  36  58  82 123 169 198 236 288 354
#     4   9  18  36  60  83 114 145 186 240 306 340
#     4  11  23  39  56  90 119 157 189 251 305 351
#     4  10  22  41  54  84 118 163 201 243 281 342
#     4  11  21  38  66  93 113 141 194 255 311 365
#     4  10  22  35  57  80 114 160 213 248 266 328
#     4   9  18  35  55  80 113 153 193 241 291 326
#
# _framework density 20.644645000000001
#
# number of rings (size 3 to 8) (size 9 to 14) (size 15 to 20)
#    0.000    1.714    0.000    6.000    4.000    0.000 
#    0.000    0.000    0.000    5.143    0.000    0.000 
#    0.000    0.000    0.000    0.000    0.000    0.000 
#
# Total GULP energy -78097.863753 kJ/mol
# GULP energy per Si atom -5578.418839 kJ/mol
# Density = 2.059766 g / cm^3
# Si number density = 20.644645 Si / 1000 Ang^3
#
#
#
# Elastic Constant Matrix: (Units=GPa)
#
#
# Indices 1 2 3 4 5 6 
#
# 1 76.5016 15.5011 6.0591 0.0000 22.3241 0.0000
# 2 15.5011 52.9623 7.1620 0.0000 0.0962 0.0000
# 3 6.0591 7.1620 98.9129 0.0000 11.6891 0.0000
# 4 0.0000 0.0000 0.0000 29.7144 0.0000 -7.7841
# 5 22.3241 0.0962 11.6891 0.0000 29.5972 0.0000
# 6 0.0000 0.0000 0.0000 -7.7841 0.0000 21.3812
#
#
#
# Elastic Compliance Matrix: (Units=1/GPa)
#
#
# Indices 1 2 3 4 5 6 
#
# 1 0.018209 -0.005431 0.000943 0.000000 -0.014089 0.000000
# 2 -0.005431 0.020695 -0.001722 0.000000 0.004710 0.000000
# 3 0.000943 -0.001722 0.010763 0.000000 -0.004956 0.000000
# 4 0.000000 0.000000 0.000000 0.037202 0.000000 0.013544
# 5 -0.014089 0.004710 -0.004956 0.000000 0.046356 0.000000
# 6 0.000000 0.000000 0.000000 0.013544 0.000000 0.051701
#
#
# Mechanical properties :
#
#
# Convention : Reuss Voigt Hill
#
# Bulk Modulus (GPa) = 26.84919 31.75789 29.30354
# Shear Modulus (GPa) = 23.83658 29.44887 26.64272
#
# Velocity S-wave (km/s) = 3.40165 3.78095 3.59630
# Velocity P-wave (km/s) = 5.33497 5.87174 5.60978
#
# Compressibility (1/GPa) = 0.03724507
#
# Stress axis : x y z
#
# Youngs Moduli (GPa) = 54.91865 48.32008 92.91472
#
# Poissons Ratio (x) = 0.26244 -0.08760
# Poissons Ratio (y) = 0.29828 0.16003
# Poissons Ratio (z) = -0.05178 0.08322
#
# Static dielectric constant tensor:
#      x y z
#    x 1.783140 0.000000 -0.024600 
#    y 0.000000 1.756580 0.000000 
#    z -0.024600 0.000000 1.719980 
# 
# From -- ./inp_files/1057.got.cif
#   From: 2010.05.17/outbox.cif.g08.bks.cpg/sg9_1_cif.got.tgz:1057.got - 2010.06.03 20:04:27.
