data_PCOD9136132
_publ_section_title
;
Structure prediction by ZEFSAII (Michael W. Deem and Ramdas Pophale) SiO2 
 PCOD9136132
Probable space group: C C
;
_chemical_formula_sum "Si O2"
_cell_formula_units_Z 20
_cell_length_a 9.231189
_cell_length_b 10.299175
_cell_length_c 16.651483
_cell_angle_alpha 90.000000
_cell_angle_beta 29.619857
_cell_angle_gamma 90.000000
_cell_volume 782.444752
_symmetry_space_group_name_H-M "C C"
_symmetry_group_IT_number 9
_symmetry_cell_setting 'monoclinic'
loop_
_space_group_symop_operation_xyz
x,y,z
x,-y,1/2+z
1/2+x,1/2+y,z
1/2+x,1/2-y,1/2+z
loop_
_atom_site_type_symbol
_atom_site_label
_atom_site_fract_x
_atom_site_fract_y
_atom_site_fract_z
Si Si1 0.299840 0.565226 0.422870
Si Si2 0.480234 0.892406 0.441476
Si Si3 0.848754 0.822227 0.511068
Si Si4 0.896008 0.801892 0.669566
Si Si5 0.331415 0.264091 0.150707
O O1 0.380583 0.457156 0.449414
O O2 0.596460 0.645393 0.262741
O O3 0.141193 0.488623 0.425529
O O4 0.069050 0.667327 0.569533
O O5 0.480024 0.754999 0.492214
O O6 0.642520 0.881241 0.277643
O O7 0.139830 0.905122 0.580855
O O8 0.784398 0.838623 0.635407
O O9 0.581223 0.753013 0.595989
O O10 0.139734 0.737103 0.354024
#
# Coordination Sequence:
#
# PCOD9136132 Si02
#       5
#     4   4   4   4   4
#     4  10  22  42  63  86 123 169 203 247 307 366
#     4  10  21  41  63  87 123 162 204 252 303 365
#     4  11  21  38  63  91 123 158 202 256 307 361
#     4  11  23  40  62  91 124 159 205 255 305 364
#     4  10  21  39  63  89 121 162 204 250 306 364
#
# _framework density 25.560908000000001
#
# number of rings (size 3 to 8) (size 9 to 14) (size 15 to 20)
#    0.000    1.600    0.000    7.200    0.000    0.000 
#    0.000   24.000    0.000    0.000    0.000    0.000 
#    0.000    0.000    0.000    0.000    0.000    0.000 
#
# Total GULP energy -55924.707073 kJ/mol
# GULP energy per Si atom -5592.470707 kJ/mol
# Density = 2.550273 g / cm^3
# Si number density = 25.560908 Si / 1000 Ang^3
#
#
#
# Elastic Constant Matrix: (Units=GPa)
#
#
# Indices 1 2 3 4 5 6 
#
# 1 113.6910 32.3725 -3.0778 -0.0022 -1.0670 0.0009
# 2 32.3725 90.1043 30.1318 -0.0046 -0.2212 0.0013
# 3 -3.0778 30.1318 107.6964 -0.0269 -5.4376 0.0030
# 4 -0.0022 -0.0046 -0.0269 36.8919 0.0044 4.2354
# 5 -1.0670 -0.2212 -5.4376 0.0044 50.7108 -0.0013
# 6 0.0009 0.0013 0.0030 4.2354 -0.0013 28.4432
#
#
#
# Elastic Compliance Matrix: (Units=1/GPa)
#
#
# Indices 1 2 3 4 5 6 
#
# 1 0.009998 -0.004074 0.001443 0.000001 0.000347 0.000000
# 2 -0.004074 0.013909 -0.004031 -0.000001 -0.000457 0.000000
# 3 0.001443 -0.004031 0.010512 0.000007 0.001140 -0.000002
# 4 0.000001 -0.000001 0.000007 0.027578 -0.000002 -0.004106
# 5 0.000347 -0.000457 0.001140 -0.000002 0.019847 0.000001
# 6 0.000000 0.000000 -0.000002 -0.004106 0.000001 0.035769
#
#
# Mechanical properties :
#
#
# Convention : Reuss Voigt Hill
#
# Bulk Modulus (GPa) = 47.40380 47.81607 47.60994
# Shear Modulus (GPa) = 36.24025 40.01353 38.12689
#
# Velocity S-wave (km/s) = 3.76945 3.96083 3.86633
# Velocity P-wave (km/s) = 6.12623 6.29801 6.21271
#
# Compressibility (1/GPa) = 0.02109536
#
# Stress axis : x y z
#
# Youngs Moduli (GPa) = 100.01919 71.89720 95.12975
#
# Poissons Ratio (x) = 0.29290 -0.13728
# Poissons Ratio (y) = 0.40746 0.38346
# Poissons Ratio (z) = -0.14433 0.28981
#
# Static dielectric constant tensor:
#      x y z
#    x 2.033490 0.000000 0.047070 
#    y 0.000000 2.021610 0.000000 
#    z 0.047070 0.000000 2.049130 
# 
# From -- ./inp_files/4664.got.cif
#   From: 2010.05.17/outbox.cif.g08.bks.cpg/sg9_3_cif.got.tgz:4664.got - 2010.06.03 20:04:27.
