data_PCOD9136657
_publ_section_title
;
Structure prediction by ZEFSAII (Michael W. Deem and Ramdas Pophale) SiO2 
 PCOD9136657
Probable space group: C C
;
_chemical_formula_sum "Si O2"
_cell_formula_units_Z 20
_cell_length_a 7.776968
_cell_length_b 22.503905
_cell_length_c 6.807815
_cell_angle_alpha 90.000000
_cell_angle_beta 41.511307
_cell_angle_gamma 90.000000
_cell_volume 789.654961
_symmetry_space_group_name_H-M "C C"
_symmetry_group_IT_number 9
_symmetry_cell_setting 'monoclinic'
loop_
_space_group_symop_operation_xyz
x,y,z
x,-y,1/2+z
1/2+x,1/2+y,z
1/2+x,1/2-y,1/2+z
loop_
_atom_site_type_symbol
_atom_site_label
_atom_site_fract_x
_atom_site_fract_y
_atom_site_fract_z
Si Si1 0.996080 0.714359 0.625000
Si Si2 0.857151 0.720631 0.281506
Si Si3 0.183367 0.547747 0.975774
Si Si4 0.147115 0.097817 0.311913
Si Si5 0.232179 0.588880 0.376757
O O1 0.919706 0.716827 0.459511
O O2 0.247223 0.756377 0.440250
O O3 0.073661 0.645695 0.592116
O O4 0.711239 0.662280 0.338647
O O5 0.139492 0.728201 0.943356
O O6 0.914668 0.563535 0.102357
O O7 0.200859 0.581540 0.169818
O O8 0.176010 0.476848 0.006084
O O9 0.431665 0.567573 0.636798
O O10 0.024821 0.100338 0.200155
#
# Coordination Sequence:
#
# PCOD9136657 Si02
#       5
#     4   4   4   4   4
#     4  10  24  43  73 108 147 193 241 308 368 433
#     4  10  21  42  71 103 148 194 242 304 368 433
#     4  12  29  48  73 113 150 192 251 312 371 434
#     4  12  28  47  75 111 147 198 249 309 369 445
#     4  12  28  50  80 109 154 197 253 305 374 447
#
# _framework density 25.327518000000001
#
# number of rings (size 3 to 8) (size 9 to 14) (size 15 to 20)
#    0.000    0.800    4.000    1.200    8.400    6.400 
#    0.000    0.000    0.000    0.000    0.000    0.000 
#    0.000    0.000    0.000    0.000    0.000    0.000 
#
# Total GULP energy -56076.911463 kJ/mol
# GULP energy per Si atom -5607.691146 kJ/mol
# Density = 2.526987 g / cm^3
# Si number density = 25.327518 Si / 1000 Ang^3
#
#
#
# Elastic Constant Matrix: (Units=GPa)
#
#
# Indices 1 2 3 4 5 6 
#
# 1 134.2845 45.4504 61.8770 0.0000 -45.3031 0.0000
# 2 45.4504 181.8333 82.9032 0.0000 -23.2749 0.0000
# 3 61.8770 82.9032 158.8804 0.0000 -30.7076 0.0000
# 4 0.0000 0.0000 0.0000 39.0331 0.0000 -13.3628
# 5 -45.3031 -23.2749 -30.7076 0.0000 44.6846 0.0000
# 6 0.0000 0.0000 0.0000 -13.3628 0.0000 53.5758
#
#
#
# Elastic Compliance Matrix: (Units=1/GPa)
#
#
# Indices 1 2 3 4 5 6 
#
# 1 0.012324 -0.000622 -0.002448 0.000000 0.010488 0.000000
# 2 -0.000622 0.007319 -0.003416 0.000000 0.000835 0.000000
# 3 -0.002448 -0.003416 0.009463 0.000000 0.002242 0.000000
# 4 0.000000 0.000000 0.000000 0.028011 0.000000 0.006986
# 5 0.010488 0.000835 0.002242 0.000000 0.034988 0.000000
# 6 0.000000 0.000000 0.000000 0.006986 0.000000 0.020408
#
#
# Mechanical properties :
#
#
# Convention : Reuss Voigt Hill
#
# Bulk Modulus (GPa) = 61.97692 95.05104 78.51398
# Shear Modulus (GPa) = 38.20833 46.44320 42.32577
#
# Velocity S-wave (km/s) = 3.88824 4.28682 4.09239
# Velocity P-wave (km/s) = 6.68440 7.88116 7.30732
#
# Compressibility (1/GPa) = 0.01613504
#
# Stress axis : x y z
#
# Youngs Moduli (GPa) = 81.14452 136.62943 105.67461
#
# Poissons Ratio (x) = 0.08495 0.25869
# Poissons Ratio (y) = 0.05045 0.36094
# Poissons Ratio (z) = 0.19864 0.46667
#
# Static dielectric constant tensor:
#      x y z
#    x 2.077190 0.000000 -0.029360 
#    y 0.000000 2.035360 0.000000 
#    z -0.029360 0.000000 2.083610 
# 
# From -- ./inp_files/643.got.cif
#   From: 2010.05.17/outbox.cif.g08.bks.cpg/sg9_1_cif.got.tgz:643.got - 2010.06.03 20:04:27.
