data_PCOD9136650
_publ_section_title
;
Structure prediction by ZEFSAII (Michael W. Deem and Ramdas Pophale) SiO2 
 PCOD9136650
Probable space group: C C
;
_chemical_formula_sum "Si O2"
_cell_formula_units_Z 28
_cell_length_a 24.902740
_cell_length_b 7.152278
_cell_length_c 11.585550
_cell_angle_alpha 90.000000
_cell_angle_beta 30.644587
_cell_angle_gamma 90.000000
_cell_volume 1051.797788
_symmetry_space_group_name_H-M "C C"
_symmetry_group_IT_number 9
_symmetry_cell_setting 'monoclinic'
loop_
_space_group_symop_operation_xyz
x,y,z
x,-y,1/2+z
1/2+x,1/2+y,z
1/2+x,1/2-y,1/2+z
loop_
_atom_site_type_symbol
_atom_site_label
_atom_site_fract_x
_atom_site_fract_y
_atom_site_fract_z
Si Si1 0.048920 0.636656 0.925510
Si Si2 0.661793 0.304816 0.374873
Si Si3 0.199150 0.328838 0.566938
Si Si4 0.875797 0.661279 0.082131
Si Si5 0.561715 0.647230 0.635658
Si Si6 0.924499 0.293093 0.245593
Si Si7 0.353415 0.292609 0.635559
O O1 0.155723 0.520687 0.704468
O O2 0.065813 0.780025 0.997411
O O3 0.994647 0.706220 0.908314
O O4 0.955370 0.501727 0.147336
O O5 0.710236 0.310165 0.156793
O O6 0.648236 0.485841 0.478643
O O7 0.540579 0.269760 0.568757
O O8 0.735764 0.164734 0.309742
O O9 0.300373 0.284100 0.302820
O O10 0.101114 0.284957 0.663130
O O11 0.865662 0.433914 0.098047
O O12 0.855997 0.712859 0.986061
O O13 0.441218 0.610846 0.893900
O O14 0.878790 0.179356 0.222895
#
# Coordination Sequence:
#
# PCOD9136650 Si02
#       7
#     4   4   4   4   4   4   4
#     4  10  21  42  70  98 146 186 234 302 359 431
#     4  11  25  43  76 104 146 190 244 305 371 427
#     4  11  23  43  70 110 141 187 251 290 363 448
#     4  11  21  41  74  98 137 191 238 295 367 428
#     4  12  22  42  76 110 144 188 243 309 360 431
#     4  10  22  45  69 103 145 190 244 299 364 441
#     4  11  22  42  77 103 139 194 246 298 362 442
#
# _framework density 26.621088
#
# number of rings (size 3 to 8) (size 9 to 14) (size 15 to 20)
#    0.000    1.143    7.143    0.857    2.000    1.143 
#    2.571    5.714    9.429    0.000    0.000    0.000 
#    0.000    0.000    0.000    0.000    0.000    0.000 
#
# Total GULP energy -78299.069361 kJ/mol
# GULP energy per Si atom -5592.790669 kJ/mol
# Density = 2.656050 g / cm^3
# Si number density = 26.621088 Si / 1000 Ang^3
#
#
#
# Elastic Constant Matrix: (Units=GPa)
#
#
# Indices 1 2 3 4 5 6 
#
# 1 145.5875 16.4543 52.0158 -0.0001 10.1079 0.0000
# 2 16.4543 62.3385 42.0831 -0.0001 6.8575 0.0000
# 3 52.0158 42.0831 174.8223 -0.0002 22.3211 0.0000
# 4 -0.0001 -0.0001 -0.0002 36.1672 0.0000 -4.6375
# 5 10.1079 6.8575 22.3211 0.0000 60.4027 0.0000
# 6 0.0000 0.0000 0.0000 -4.6375 0.0000 34.8735
#
#
#
# Elastic Compliance Matrix: (Units=1/GPa)
#
#
# Indices 1 2 3 4 5 6 
#
# 1 0.007715 -0.000568 -0.002101 0.000000 -0.000450 0.000000
# 2 -0.000568 0.019210 -0.004396 0.000000 -0.000461 0.000000
# 3 -0.002101 -0.004396 0.007656 0.000000 -0.001979 0.000000
# 4 0.000000 0.000000 0.000000 0.028129 0.000000 0.003741
# 5 -0.000450 -0.000461 -0.001979 0.000000 0.017414 0.000000
# 6 0.000000 0.000000 0.000000 0.003741 0.000000 0.029172
#
#
# Mechanical properties :
#
#
# Convention : Reuss Voigt Hill
#
# Bulk Modulus (GPa) = 48.90103 67.09495 57.99799
# Shear Modulus (GPa) = 38.38922 44.43504 41.41213
#
# Velocity S-wave (km/s) = 3.80157 4.08998 3.94841
# Velocity P-wave (km/s) = 6.13827 6.89654 6.52842
#
# Compressibility (1/GPa) = 0.02044947
#
# Stress axis : x y z
#
# Youngs Moduli (GPa) = 129.61900 52.05625 130.61421
#
# Poissons Ratio (x) = 0.02959 0.27444
# Poissons Ratio (y) = 0.07368 0.57421
# Poissons Ratio (z) = 0.27235 0.22885
#
# Static dielectric constant tensor:
#      x y z
#    x 2.116350 0.000000 -0.016530 
#    y 0.000000 2.275810 0.000000 
#    z -0.016530 0.000000 2.058490 
# 
# From -- ./inp_files/20790.got.cif
#   From: 2010.05.17/outbox.cif.g08.bks.cpg/sg9_11_cif.got.tgz:20790.got - 2010.06.03 20:04:27.
