data_PCOD9136167
_publ_section_title
;
Structure prediction by ZEFSAII (Michael W. Deem and Ramdas Pophale) SiO2 
 PCOD9136167
Probable space group: C C
;
_chemical_formula_sum "Si O2"
_cell_formula_units_Z 32
_cell_length_a 26.032900
_cell_length_b 10.080049
_cell_length_c 12.918855
_cell_angle_alpha 90.000000
_cell_angle_beta 154.417793
_cell_angle_gamma 90.000000
_cell_volume 1463.853296
_symmetry_space_group_name_H-M "C C"
_symmetry_group_IT_number 9
_symmetry_cell_setting 'monoclinic'
loop_
_space_group_symop_operation_xyz
x,y,z
x,-y,1/2+z
1/2+x,1/2+y,z
1/2+x,1/2-y,1/2+z
loop_
_atom_site_type_symbol
_atom_site_label
_atom_site_fract_x
_atom_site_fract_y
_atom_site_fract_z
Si Si1 0.942930 0.263668 0.063420
Si Si2 0.569817 0.953229 0.796885
Si Si3 0.502999 0.493472 0.577912
Si Si4 0.214806 0.325043 0.876714
Si Si5 0.267609 0.574031 0.271712
Si Si6 0.845772 0.320423 0.306035
Si Si7 0.744874 0.389272 0.584532
Si Si8 0.482131 0.687465 0.368693
O O1 0.949347 0.202501 0.189967
O O2 0.008571 0.404144 0.173663
O O3 0.010146 0.162927 0.108281
O O4 0.806548 0.299348 0.784442
O O5 0.659806 0.913312 0.868320
O O6 0.461754 0.848291 0.590032
O O7 0.655056 0.978365 0.049672
O O8 0.378832 0.522362 0.408912
O O9 0.503226 0.544215 0.460252
O O10 0.604518 0.580676 0.819670
O O11 0.291785 0.407304 0.936408
O O12 0.102163 0.271116 0.607270
O O13 0.275311 0.196271 0.037422
O O14 0.255868 0.722481 0.201119
O O15 0.796452 0.464107 0.188426
O O16 0.887344 0.253592 0.274696
#
# Coordination Sequence:
#
# PCOD9136167 Si02
#       8
#     4   4   4   4   4   4   4   4
#     4  11  21  40  68  90 125 172 207 263 329 374
#     4  10  21  39  65  92 122 164 217 261 306 391
#     4  10  23  39  61  93 133 159 214 270 310 384
#     4  10  21  40  63  91 125 167 204 262 322 372
#     4  11  21  39  68  85 125 177 206 253 329 381
#     4   9  21  39  62  95 125 160 215 263 311 379
#     4  10  22  39  61  93 133 158 210 274 308 379
#     4   9  20  41  64  89 122 167 209 258 319 380
#
# _framework density 21.860112999999998
#
# number of rings (size 3 to 8) (size 9 to 14) (size 15 to 20)
#    0.000    2.000    1.250    2.250    0.000    5.000 
#    4.500    0.000   16.500    0.000    0.000    0.000 
#    0.000    0.000    0.000    0.000    0.000    0.000 
#
# Total GULP energy -89213.107122 kJ/mol
# GULP energy per Si atom -5575.819195 kJ/mol
# Density = 2.181036 g / cm^3
# Si number density = 21.860113 Si / 1000 Ang^3
#
#
#
# Elastic Constant Matrix: (Units=GPa)
#
#
# Indices 1 2 3 4 5 6 
#
# 1 44.3456 9.4295 4.4023 0.0000 -9.9315 0.0000
# 2 9.4295 65.2618 19.0908 0.0000 -8.3751 0.0000
# 3 4.4023 19.0908 104.8395 0.0000 -15.9099 0.0000
# 4 0.0000 0.0000 0.0000 32.4816 0.0000 -5.5259
# 5 -9.9315 -8.3751 -15.9099 0.0000 24.4972 0.0000
# 6 0.0000 0.0000 0.0000 -5.5259 0.0000 11.4463
#
#
#
# Elastic Compliance Matrix: (Units=1/GPa)
#
#
# Indices 1 2 3 4 5 6 
#
# 1 0.025245 -0.002644 0.000929 0.000000 0.009934 0.000000
# 2 -0.002644 0.016826 -0.002488 0.000000 0.003065 0.000000
# 3 0.000929 -0.002488 0.010961 0.000000 0.006645 0.000000
# 4 0.000000 0.000000 0.000000 0.033541 0.000000 0.016192
# 5 0.009934 0.003065 0.006645 0.000000 0.050212 0.000000
# 6 0.000000 0.000000 0.000000 0.016192 0.000000 0.095181
#
#
# Mechanical properties :
#
#
# Convention : Reuss Voigt Hill
#
# Bulk Modulus (GPa) = 22.40883 31.14357 26.77620
# Shear Modulus (GPa) = 19.58880 25.78664 22.68772
#
# Velocity S-wave (km/s) = 2.99674 3.43829 3.22508
# Velocity P-wave (km/s) = 4.71669 5.48089 5.11309
#
# Compressibility (1/GPa) = 0.04462527
#
# Stress axis : x y z
#
# Youngs Moduli (GPa) = 39.61172 59.43169 91.23449
#
# Poissons Ratio (x) = 0.15717 -0.08476
# Poissons Ratio (y) = 0.10475 0.22698
# Poissons Ratio (z) = -0.03680 0.14786
#
# Static dielectric constant tensor:
#      x y z
#    x 1.756720 0.000000 -0.007600 
#    y 0.000000 1.874950 0.000000 
#    z -0.007600 0.000000 1.889290 
# 
# From -- ./inp_files/16231.got.cif
#   From: 2010.05.17/outbox.cif.g08.bks.cpg/sg9_9_cif.got.tgz:16231.got - 2010.06.03 20:04:27.
