data_PCOD9136082
_publ_section_title
;
Structure prediction by ZEFSAII (Michael W. Deem and Ramdas Pophale) SiO2 
 PCOD9136082
Probable space group: C C
;
_chemical_formula_sum "Si O2"
_cell_formula_units_Z 28
_cell_length_a 20.222576
_cell_length_b 11.783169
_cell_length_c 10.248078
_cell_angle_alpha 90.000000
_cell_angle_beta 29.407770
_cell_angle_gamma 90.000000
_cell_volume 1199.062620
_symmetry_space_group_name_H-M "C C"
_symmetry_group_IT_number 9
_symmetry_cell_setting 'monoclinic'
loop_
_space_group_symop_operation_xyz
x,y,z
x,-y,1/2+z
1/2+x,1/2+y,z
1/2+x,1/2-y,1/2+z
loop_
_atom_site_type_symbol
_atom_site_label
_atom_site_fract_x
_atom_site_fract_y
_atom_site_fract_z
Si Si1 0.998280 0.131399 0.492860
Si Si2 0.292077 0.169185 0.878470
Si Si3 0.330807 0.764683 0.575536
Si Si4 0.646472 0.956809 0.340676
Si Si5 0.850554 0.082321 0.169682
Si Si6 0.513013 0.927914 0.829769
Si Si7 0.586001 0.686984 0.622402
O O1 0.938085 0.212013 0.485731
O O2 0.152044 0.118642 0.174394
O O3 0.008354 0.189324 0.616862
O O4 0.892924 0.025684 0.686268
O O5 0.382320 0.180925 0.854662
O O6 0.292351 0.299538 0.824855
O O7 0.366825 0.096389 0.640297
O O8 0.228440 0.662349 0.707528
O O9 0.236235 0.845540 0.824336
O O10 0.752498 0.042921 0.223239
O O11 0.591839 0.988757 0.292402
O O12 0.526916 0.957666 0.653866
O O13 0.998590 0.104912 0.858357
O O14 0.586877 0.804941 0.699663
#
# Coordination Sequence:
#
# PCOD9136082 Si02
#       7
#     4   4   4   4   4   4   4
#     4  10  22  40  65  95 133 172 226 283 330 419
#     4  10  22  42  59  98 131 174 227 270 352 397
#     4   9  20  39  65  93 127 172 220 277 340 399
#     4  10  21  38  69  92 128 170 225 272 333 406
#     4  10  22  37  66  92 128 174 223 272 339 407
#     4  10  22  42  61  97 129 171 222 281 333 409
#     4   9  21  40  61  95 130 169 223 275 341 401
#
# _framework density 23.351576000000001
#
# number of rings (size 3 to 8) (size 9 to 14) (size 15 to 20)
#    0.000    2.286    0.000    0.857   12.000    0.000 
#    5.143    0.000    0.000    0.000    0.000    0.000 
#    0.000    0.000    0.000    0.000    0.000    0.000 
#
# Total GULP energy -78050.045855 kJ/mol
# GULP energy per Si atom -5575.003275 kJ/mol
# Density = 2.329843 g / cm^3
# Si number density = 23.351576 Si / 1000 Ang^3
#
#
#
# Elastic Constant Matrix: (Units=GPa)
#
#
# Indices 1 2 3 4 5 6 
#
# 1 51.6063 18.5989 0.4205 0.0000 8.8326 0.0000
# 2 18.5989 75.8431 20.5652 0.0000 -7.7209 0.0000
# 3 0.4205 20.5652 96.7583 0.0000 20.5688 0.0000
# 4 0.0000 0.0000 0.0000 30.4397 0.0000 1.6954
# 5 8.8326 -7.7209 20.5688 0.0000 26.8079 0.0000
# 6 0.0000 0.0000 0.0000 1.6954 0.0000 20.1481
#
#
#
# Elastic Compliance Matrix: (Units=1/GPa)
#
#
# Indices 1 2 3 4 5 6 
#
# 1 0.025066 -0.008961 0.004899 0.000000 -0.014598 0.000000
# 2 -0.008961 0.018599 -0.006788 0.000000 0.013517 0.000000
# 3 0.004899 -0.006788 0.014954 0.000000 -0.015043 0.000000
# 4 0.000000 0.000000 0.000000 0.033006 0.000000 -0.002777
# 5 -0.014598 0.013517 -0.015043 0.000000 0.057547 0.000000
# 6 0.000000 0.000000 0.000000 -0.002777 0.000000 0.049866
#
#
# Mechanical properties :
#
#
# Convention : Reuss Voigt Hill
#
# Bulk Modulus (GPa) = 27.08615 33.70856 30.39736
# Shear Modulus (GPa) = 21.45502 27.78735 24.62118
#
# Velocity S-wave (km/s) = 3.03443 3.45332 3.25063
# Velocity P-wave (km/s) = 4.88892 5.51064 5.20906
#
# Compressibility (1/GPa) = 0.03691924
#
# Stress axis : x y z
#
# Youngs Moduli (GPa) = 39.89501 53.76543 66.87080
#
# Poissons Ratio (x) = 0.48181 -0.32760
# Poissons Ratio (y) = 0.35752 0.45390
# Poissons Ratio (z) = -0.19545 0.36494
#
# Static dielectric constant tensor:
#      x y z
#    x 1.828760 0.000000 0.009670 
#    y 0.000000 1.952240 0.000000 
#    z 0.009670 0.000000 1.952840 
# 
# From -- ./inp_files/10886.got.cif
#   From: 2010.05.17/outbox.cif.g08.bks.cpg/sg9_6_cif.got.tgz:10886.got - 2010.06.03 20:04:27.
