data_PCOD9136636
_publ_section_title
;
Structure prediction by ZEFSAII (Michael W. Deem and Ramdas Pophale) SiO2 
 PCOD9136636
Probable space group: C C
;
_chemical_formula_sum "Si O2"
_cell_formula_units_Z 32
_cell_length_a 9.717697
_cell_length_b 15.768704
_cell_length_c 10.887921
_cell_angle_alpha 90.000000
_cell_angle_beta 56.675545
_cell_angle_gamma 90.000000
_cell_volume 1394.083183
_symmetry_space_group_name_H-M "C C"
_symmetry_group_IT_number 9
_symmetry_cell_setting 'monoclinic'
loop_
_space_group_symop_operation_xyz
x,y,z
x,-y,1/2+z
1/2+x,1/2+y,z
1/2+x,1/2-y,1/2+z
loop_
_atom_site_type_symbol
_atom_site_label
_atom_site_fract_x
_atom_site_fract_y
_atom_site_fract_z
Si Si1 0.187940 0.090245 0.420050
Si Si2 0.188011 0.649216 0.748798
Si Si3 0.711116 0.991721 0.035033
Si Si4 0.047323 0.347541 0.691612
Si Si5 0.520465 0.656926 0.720213
Si Si6 0.316656 0.367286 0.771726
Si Si7 0.046846 0.920957 0.455927
Si Si8 0.424080 0.725869 0.446081
O O1 0.361036 0.136139 0.323205
O O2 0.130396 0.092135 0.589805
O O3 0.049431 0.147398 0.417422
O O4 0.188924 0.991441 0.382933
O O5 0.155504 0.570596 0.673648
O O6 0.332258 0.634647 0.777913
O O7 0.275138 0.718557 0.615394
O O8 0.028297 0.688963 0.888376
O O9 0.888286 0.024905 0.991040
O O10 0.743641 0.940788 0.894824
O O11 0.594092 0.072903 0.083820
O O12 0.179605 0.351951 0.736490
O O13 0.058009 0.249850 0.646559
O O14 0.557974 0.650361 0.845645
O O15 0.487554 0.388183 0.617297
O O16 0.350657 0.291013 0.847755
#
# Coordination Sequence:
#
# PCOD9136636 Si02
#       8
#     4   4   4   4   4   4   4   4
#     4  11  23  43  65 104 129 178 233 279 345 410
#     4  10  21  43  71 100 132 188 229 283 345 420
#     4  10  22  43  66  97 136 181 226 278 348 418
#     4  11  26  42  67 107 133 181 228 295 349 396
#     4  11  24  43  71  99 141 174 235 286 343 421
#     4  10  23  44  66  97 136 183 223 276 356 414
#     4  11  22  40  71  92 129 190 220 278 346 412
#     4  10  21  42  69  94 140 177 234 277 344 421
#
# _framework density 22.954153000000002
#
# number of rings (size 3 to 8) (size 9 to 14) (size 15 to 20)
#    0.000    1.500    5.000    0.750    5.250    3.000 
#    4.500    0.000    0.000    0.000    0.000    0.000 
#    0.000    0.000    0.000    0.000    0.000    0.000 
#
# Total GULP energy -89401.019229 kJ/mol
# GULP energy per Si atom -5587.563702 kJ/mol
# Density = 2.290191 g / cm^3
# Si number density = 22.954153 Si / 1000 Ang^3
#
#
#
# Elastic Constant Matrix: (Units=GPa)
#
#
# Indices 1 2 3 4 5 6 
#
# 1 45.5175 9.1280 10.0728 0.0000 4.2718 0.0000
# 2 9.1280 98.1664 32.3972 0.0000 7.0628 0.0000
# 3 10.0728 32.3972 65.9994 0.0000 13.3406 0.0000
# 4 0.0000 0.0000 0.0000 39.2996 0.0000 -3.4976
# 5 4.2718 7.0628 13.3406 0.0000 35.1875 0.0000
# 6 0.0000 0.0000 0.0000 -3.4976 0.0000 31.7126
#
#
#
# Elastic Compliance Matrix: (Units=1/GPa)
#
#
# Indices 1 2 3 4 5 6 
#
# 1 0.022927 -0.001156 -0.002616 0.000000 -0.001559 0.000000
# 2 -0.001156 0.012216 -0.005797 0.000000 -0.000114 0.000000
# 3 -0.002616 -0.005797 0.019599 0.000000 -0.005949 0.000000
# 4 0.000000 0.000000 0.000000 0.025698 0.000000 0.002834
# 5 -0.001559 -0.000114 -0.005949 0.000000 0.030887 0.000000
# 6 0.000000 0.000000 0.000000 0.002834 0.000000 0.031846
#
#
# Mechanical properties :
#
#
# Convention : Reuss Voigt Hill
#
# Bulk Modulus (GPa) = 28.08782 34.76438 31.42610
# Shear Modulus (GPa) = 28.70625 31.77895 30.24260
#
# Velocity S-wave (km/s) = 3.54021 3.72486 3.63371
# Velocity P-wave (km/s) = 5.38273 5.80323 5.59693
#
# Compressibility (1/GPa) = 0.03560262
#
# Stress axis : x y z
#
# Youngs Moduli (GPa) = 43.61717 81.86279 51.02299
#
# Poissons Ratio (x) = 0.09465 0.13349
# Poissons Ratio (y) = 0.05043 0.29577
# Poissons Ratio (z) = 0.11412 0.47454
#
# Static dielectric constant tensor:
#      x y z
#    x 1.846620 0.000000 0.043470 
#    y 0.000000 1.902250 0.000000 
#    z 0.043470 0.000000 1.904960 
# 
# From -- ./inp_files/14726.got.cif
#   From: 2010.05.17/outbox.cif.g08.bks.cpg/sg9_8_cif.got.tgz:14726.got - 2010.06.03 20:04:27.
