data_PCOD9136891
_publ_section_title
;
Structure prediction by ZEFSAII (Michael W. Deem and Ramdas Pophale) SiO2 
 PCOD9136891
Probable space group: C C
;
_chemical_formula_sum "Si O2"
_cell_formula_units_Z 32
_cell_length_a 20.812135
_cell_length_b 5.112732
_cell_length_c 13.091218
_cell_angle_alpha 90.000000
_cell_angle_beta 97.756678
_cell_angle_gamma 90.000000
_cell_volume 1380.249846
_symmetry_space_group_name_H-M "C C"
_symmetry_group_IT_number 9
_symmetry_cell_setting 'monoclinic'
loop_
_space_group_symop_operation_xyz
x,y,z
x,-y,1/2+z
1/2+x,1/2+y,z
1/2+x,1/2-y,1/2+z
loop_
_atom_site_type_symbol
_atom_site_label
_atom_site_fract_x
_atom_site_fract_y
_atom_site_fract_z
Si Si1 0.007370 0.286093 0.335280
Si Si2 0.620386 0.131341 0.292343
Si Si3 0.712696 0.779256 0.387737
Si Si4 0.178915 0.022330 0.163636
Si Si5 0.849320 0.138594 0.007459
Si Si6 0.100416 0.999674 0.972068
Si Si7 0.325933 0.881167 0.629875
Si Si8 0.422478 0.303808 0.321202
O O1 0.069198 0.391469 0.282275
O O2 0.039113 0.191389 0.450134
O O3 0.961925 0.535455 0.337198
O O4 0.964859 0.043199 0.284984
O O5 0.641867 0.255602 0.190233
O O6 0.589680 0.325392 0.369318
O O7 0.689407 0.072672 0.362290
O O8 0.693329 0.653392 0.275900
O O9 0.785496 0.755164 0.435812
O O10 0.664350 0.671450 0.462530
O O11 0.251479 0.032246 0.132947
O O12 0.124863 0.149255 0.077311
O O13 0.902149 0.112075 0.930687
O O14 0.862727 0.362973 0.094165
O O15 0.831293 0.860563 0.052594
O O16 0.360522 0.766930 0.738203
#
# Coordination Sequence:
#
# PCOD9136891 Si02
#       8
#     4   4   4   4   4   4   4   4
#     4  11  24  49  74  97 147 199 242 307 360 440
#     4  10  23  43  71 105 143 191 239 300 374 430
#     4  10  22  38  70 103 145 181 231 302 374 437
#     4  11  23  41  73 113 143 185 238 311 389 435
#     4  12  26  47  71 111 147 190 251 299 371 450
#     4  10  21  45  68 104 141 186 236 304 367 442
#     4  12  27  46  76 109 146 197 246 311 375 453
#     4  12  26  51  73 102 152 201 251 304 368 433
#
# _framework density 23.184206
#
# number of rings (size 3 to 8) (size 9 to 14) (size 15 to 20)
#    0.000    1.000    3.750    2.250    3.500    3.000 
#    6.750    1.250    0.000    0.000    0.000    0.000 
#    0.000    0.000    0.000    0.000    0.000    0.000 
#
# Total GULP energy -89216.080369 kJ/mol
# GULP energy per Si atom -5576.005023 kJ/mol
# Density = 2.313144 g / cm^3
# Si number density = 23.184206 Si / 1000 Ang^3
#
#
#
# Elastic Constant Matrix: (Units=GPa)
#
#
# Indices 1 2 3 4 5 6 
#
# 1 99.8953 41.4164 46.6558 0.0000 13.7231 0.0000
# 2 41.4164 109.9396 37.1746 0.0000 -2.6666 0.0000
# 3 46.6558 37.1746 93.8167 0.0000 -2.2296 0.0000
# 4 0.0000 0.0000 0.0000 29.5797 0.0000 5.3021
# 5 13.7231 -2.6666 -2.2296 0.0000 27.7755 0.0000
# 6 0.0000 0.0000 0.0000 5.3021 0.0000 37.8476
#
#
#
# Elastic Compliance Matrix: (Units=1/GPa)
#
#
# Indices 1 2 3 4 5 6 
#
# 1 0.015934 -0.004002 -0.006547 0.000000 -0.008782 0.000000
# 2 -0.004002 0.011521 -0.002507 0.000000 0.002882 0.000000
# 3 -0.006547 -0.002507 0.015008 0.000000 0.004199 0.000000
# 4 0.000000 0.000000 0.000000 0.034678 0.000000 -0.004858
# 5 -0.008782 0.002882 0.004199 0.000000 0.040956 0.000000
# 6 0.000000 0.000000 0.000000 -0.004858 0.000000 0.027102
#
#
# Mechanical properties :
#
#
# Convention : Reuss Voigt Hill
#
# Bulk Modulus (GPa) = 61.15454 61.57168 61.36311
# Shear Modulus (GPa) = 28.28698 30.93422 29.61060
#
# Velocity S-wave (km/s) = 3.49678 3.65674 3.57765
# Velocity P-wave (km/s) = 6.53745 6.66665 6.60237
#
# Compressibility (1/GPa) = 0.01635201
#
# Stress axis : x y z
#
# Youngs Moduli (GPa) = 62.75951 86.79865 66.63131
#
# Poissons Ratio (x) = 0.34735 0.43624
# Poissons Ratio (y) = 0.25115 0.16701
# Poissons Ratio (z) = 0.41089 0.21756
#
# Static dielectric constant tensor:
#      x y z
#    x 1.866250 0.000000 0.006560 
#    y 0.000000 2.012670 0.000000 
#    z 0.006560 0.000000 1.964440 
# 
# From -- ./inp_files/19825.got.cif
#   From: 2010.05.17/outbox.cif.g08.bks.cpg/sg9_10_cif.got.tgz:19825.got - 2010.06.03 20:04:27.
