data_PCOD9136798
_publ_section_title
;
Structure prediction by ZEFSAII (Michael W. Deem and Ramdas Pophale) SiO2 
 PCOD9136798
Probable space group: C C
;
_chemical_formula_sum "Si O2"
_cell_formula_units_Z 32
_cell_length_a 9.647233
_cell_length_b 11.099651
_cell_length_c 13.326977
_cell_angle_alpha 90.000000
_cell_angle_beta 106.709604
_cell_angle_gamma 90.000000
_cell_volume 1366.806153
_symmetry_space_group_name_H-M "C C"
_symmetry_group_IT_number 9
_symmetry_cell_setting 'monoclinic'
loop_
_space_group_symop_operation_xyz
x,y,z
x,-y,1/2+z
1/2+x,1/2+y,z
1/2+x,1/2-y,1/2+z
loop_
_atom_site_type_symbol
_atom_site_label
_atom_site_fract_x
_atom_site_fract_y
_atom_site_fract_z
Si Si1 0.817980 0.769227 0.780890
Si Si2 0.698954 0.442073 0.367295
Si Si3 0.049473 0.134938 0.210978
Si Si4 0.760659 0.890781 0.949076
Si Si5 0.311537 0.355286 0.503908
Si Si6 0.089009 0.409474 0.616664
Si Si7 0.276946 0.189218 0.090271
Si Si8 0.463460 0.112612 0.461133
O O1 0.719622 0.654102 0.781903
O O2 0.861057 0.810751 0.899989
O O3 0.959246 0.755565 0.742783
O O4 0.716621 0.877965 0.720372
O O5 0.581509 0.537846 0.304238
O O6 0.694792 0.379438 0.477684
O O7 0.847186 0.517099 0.400718
O O8 0.189426 0.168378 0.174528
O O9 0.878489 0.266656 0.974549
O O10 0.932850 0.092560 0.105051
O O11 0.788846 0.829466 0.062970
O O12 0.588054 0.865720 0.905450
O O13 0.784578 0.029594 0.930035
O O14 0.161222 0.342377 0.534090
O O15 0.046284 0.542811 0.569271
O O16 0.938594 0.359591 0.625751
#
# Coordination Sequence:
#
# PCOD9136798 Si02
#       8
#     4   4   4   4   4   4   4   4
#     4  10  24  44  65 103 143 177 245 290 350 424
#     4  10  25  43  69 104 138 184 238 296 356 422
#     4  11  24  42  69 108 132 190 240 293 345 432
#     4  10  22  40  66  96 142 181 227 297 352 414
#     4  10  22  43  67  99 136 186 233 282 361 421
#     4   9  22  42  67  97 134 183 225 296 345 413
#     4  10  22  44  68  97 143 179 238 294 360 418
#     4  10  21  44  65 100 138 182 232 286 363 418
#
# _framework density 23.412244000000001
#
# number of rings (size 3 to 8) (size 9 to 14) (size 15 to 20)
#    0.000    2.000    1.250    0.000    5.250    8.000 
#    2.250    0.000    0.000    0.000    0.000    0.000 
#    0.000    0.000    0.000    0.000    0.000    0.000 
#
# Total GULP energy -89084.118493 kJ/mol
# GULP energy per Si atom -5567.757406 kJ/mol
# Density = 2.335896 g / cm^3
# Si number density = 23.412244 Si / 1000 Ang^3
#
#
#
# Elastic Constant Matrix: (Units=GPa)
#
#
# Indices 1 2 3 4 5 6 
#
# 1 113.2726 23.5352 10.5911 0.0000 -14.9265 0.0000
# 2 23.5352 79.5093 8.1165 0.0000 -7.9240 0.0000
# 3 10.5911 8.1165 40.0780 0.0000 -4.6073 0.0000
# 4 0.0000 0.0000 0.0000 18.2381 0.0000 8.1281
# 5 -14.9265 -7.9240 -4.6073 0.0000 26.0957 0.0000
# 6 0.0000 0.0000 0.0000 8.1281 0.0000 39.9621
#
#
#
# Elastic Compliance Matrix: (Units=1/GPa)
#
#
# Indices 1 2 3 4 5 6 
#
# 1 0.010098 -0.002346 -0.001645 0.000000 0.004774 0.000000
# 2 -0.002346 0.013711 -0.001870 0.000000 0.002491 0.000000
# 3 -0.001645 -0.001870 0.026122 0.000000 0.003103 0.000000
# 4 0.000000 0.000000 0.000000 0.060296 0.000000 -0.012264
# 5 0.004774 0.002491 0.003103 0.000000 0.042355 0.000000
# 6 0.000000 0.000000 0.000000 -0.012264 0.000000 0.027518
#
#
# Mechanical properties :
#
#
# Convention : Reuss Voigt Hill
#
# Bulk Modulus (GPa) = 26.17182 35.26061 30.71622
# Shear Modulus (GPa) = 24.44296 29.56698 27.00497
#
# Velocity S-wave (km/s) = 3.23464 3.55757 3.39994
# Velocity P-wave (km/s) = 5.01533 5.65407 5.34425
#
# Compressibility (1/GPa) = 0.03820903
#
# Stress axis : x y z
#
# Youngs Moduli (GPa) = 99.02515 72.93587 38.28260
#
# Poissons Ratio (x) = 0.17107 0.06297
# Poissons Ratio (y) = 0.23227 0.07160
# Poissons Ratio (z) = 0.16288 0.13642
#
# Static dielectric constant tensor:
#      x y z
#    x 1.920790 0.000000 -0.022230 
#    y 0.000000 1.928860 0.000000 
#    z -0.022230 0.000000 1.990530 
# 
# From -- ./inp_files/24657.got.cif
#   From: 2010.05.17/outbox.cif.g08.bks.cpg/sg9_13_cif.got.tgz:24657.got - 2010.06.03 20:04:27.
