data_PCOD9136042
_publ_section_title
;
Structure prediction by ZEFSAII (Michael W. Deem and Ramdas Pophale) SiO2 
 PCOD9136042
Probable space group: C C
;
_chemical_formula_sum "Si O2"
_cell_formula_units_Z 32
_cell_length_a 10.717634
_cell_length_b 25.852500
_cell_length_c 5.444064
_cell_angle_alpha 90.000000
_cell_angle_beta 100.786490
_cell_angle_gamma 90.000000
_cell_volume 1481.776560
_symmetry_space_group_name_H-M "C C"
_symmetry_group_IT_number 9
_symmetry_cell_setting 'monoclinic'
loop_
_space_group_symop_operation_xyz
x,y,z
x,-y,1/2+z
1/2+x,1/2+y,z
1/2+x,1/2-y,1/2+z
loop_
_atom_site_type_symbol
_atom_site_label
_atom_site_fract_x
_atom_site_fract_y
_atom_site_fract_z
Si Si1 0.051270 0.352583 0.775540
Si Si2 0.794316 0.811058 0.627103
Si Si3 0.629957 0.228387 0.680828
Si Si4 0.065456 0.160031 0.047222
Si Si5 0.202188 0.013487 0.640024
Si Si6 0.196842 0.131206 0.607484
Si Si7 0.381012 0.784268 0.400257
Si Si8 0.482319 0.972037 0.756794
O O1 0.171450 0.345885 0.635806
O O2 0.930435 0.317500 0.649480
O O3 0.014676 0.411857 0.783253
O O4 0.103260 0.325255 0.037090
O O5 0.756398 0.773917 0.387186
O O6 0.813356 0.771935 0.865344
O O7 0.920443 0.839903 0.586997
O O8 0.612220 0.280771 0.522463
O O9 0.513830 0.232548 0.828714
O O10 0.143410 0.139739 0.313429
O O11 0.094034 0.134691 0.793793
O O12 0.246175 0.072774 0.645278
O O13 0.130555 0.998935 0.364894
O O14 0.329226 0.978750 0.692605
O O15 0.301669 0.174169 0.712541
O O16 0.527519 0.997976 0.518228
#
# Coordination Sequence:
#
# PCOD9136042 Si02
#       8
#     4   4   4   4   4   4   4   4
#     4  11  24  39  73  94 138 180 224 280 349 392
#     4  10  23  43  60  95 139 181 228 267 317 414
#     4  10  23  38  64  96 136 184 221 275 327 403
#     4  11  26  41  63  97 138 184 225 263 321 416
#     4  10  21  38  64  93 129 157 210 279 337 391
#     4  12  24  41  66  97 134 178 217 272 345 393
#     4  10  22  37  61  99 138 173 220 271 331 407
#     4  10  23  41  65  99 132 161 217 285 345 394
#
# _framework density 21.595699
#
# number of rings (size 3 to 8) (size 9 to 14) (size 15 to 20)
#    0.000    1.500    1.250    3.000   14.000    1.000 
#    0.000    0.000    0.000    4.500    0.000    0.000 
#    0.000    0.000    0.000    0.000    0.000    0.000 
#
# Total GULP energy -89305.328406 kJ/mol
# GULP energy per Si atom -5581.583025 kJ/mol
# Density = 2.154655 g / cm^3
# Si number density = 21.595699 Si / 1000 Ang^3
#
#
#
# Elastic Constant Matrix: (Units=GPa)
#
#
# Indices 1 2 3 4 5 6 
#
# 1 50.7737 28.7267 23.3399 0.0000 5.4159 0.0000
# 2 28.7267 123.5618 33.6536 0.0000 -5.7436 0.0000
# 3 23.3399 33.6536 111.8566 0.0000 -18.3869 0.0000
# 4 0.0000 0.0000 0.0000 33.7913 0.0000 -0.4347
# 5 5.4159 -5.7436 -18.3869 0.0000 24.4210 0.0000
# 6 0.0000 0.0000 0.0000 -0.4347 0.0000 25.8734
#
#
#
# Elastic Compliance Matrix: (Units=1/GPa)
#
#
# Indices 1 2 3 4 5 6 
#
# 1 0.026515 -0.005095 -0.005893 0.000000 -0.011515 0.000000
# 2 -0.005095 0.009795 -0.001506 0.000000 0.002300 0.000000
# 3 -0.005893 -0.001506 0.012302 0.000000 0.010215 0.000000
# 4 0.000000 0.000000 0.000000 0.029600 0.000000 0.000497
# 5 -0.011515 0.002300 0.010215 0.000000 0.051734 0.000000
# 6 0.000000 0.000000 0.000000 0.000497 0.000000 0.038658
#
#
# Mechanical properties :
#
#
# Convention : Reuss Voigt Hill
#
# Bulk Modulus (GPa) = 42.32816 50.84806 46.58811
# Shear Modulus (GPa) = 24.81838 30.18194 27.50016
#
# Velocity S-wave (km/s) = 3.39370 3.74249 3.57236
# Velocity P-wave (km/s) = 5.91601 6.50166 6.21573
#
# Compressibility (1/GPa) = 0.02362493
#
# Stress axis : x y z
#
# Youngs Moduli (GPa) = 37.71494 102.09724 81.28979
#
# Poissons Ratio (x) = 0.52016 0.47901
# Poissons Ratio (y) = 0.19215 0.12240
# Poissons Ratio (z) = 0.22224 0.15373
#
# Static dielectric constant tensor:
#      x y z
#    x 1.833710 0.000000 -0.057100 
#    y 0.000000 1.775520 0.000000 
#    z -0.057100 0.000000 1.874740 
# 
# From -- ./inp_files/1872.got.cif
#   From: 2010.05.17/outbox.cif.g08.bks.cpg/sg9_1_cif.got.tgz:1872.got - 2010.06.03 20:04:27.
