data_PCOD9136482
_publ_section_title
;
Structure prediction by ZEFSAII (Michael W. Deem and Ramdas Pophale) SiO2 
 PCOD9136482
Probable space group: C C
;
_chemical_formula_sum "Si O2"
_cell_formula_units_Z 32
_cell_length_a 16.696357
_cell_length_b 6.280563
_cell_length_c 26.204147
_cell_angle_alpha 90.000000
_cell_angle_beta 148.820775
_cell_angle_gamma 90.000000
_cell_volume 1422.599351
_symmetry_space_group_name_H-M "C C"
_symmetry_group_IT_number 9
_symmetry_cell_setting 'monoclinic'
loop_
_space_group_symop_operation_xyz
x,y,z
x,-y,1/2+z
1/2+x,1/2+y,z
1/2+x,1/2-y,1/2+z
loop_
_atom_site_type_symbol
_atom_site_label
_atom_site_fract_x
_atom_site_fract_y
_atom_site_fract_z
Si Si1 0.708050 0.389208 0.361450
Si Si2 0.215055 0.839328 0.201319
Si Si3 0.661289 0.856648 0.468177
Si Si4 0.373708 0.719411 0.543281
Si Si5 0.257360 0.510777 0.314691
Si Si6 0.394120 0.895794 0.871060
Si Si7 0.435980 0.062286 0.656409
Si Si8 0.457324 0.305187 0.765117
O O1 0.800829 0.390379 0.465016
O O2 0.796918 0.523311 0.366774
O O3 0.539687 0.495580 0.281155
O O4 0.728441 0.149529 0.349912
O O5 0.258270 0.682418 0.271057
O O6 0.280617 0.714744 0.188108
O O7 0.031894 0.864937 0.104623
O O8 0.304458 0.052843 0.268485
O O9 0.791057 0.707472 0.563162
O O10 0.555083 0.732827 0.369782
O O11 0.751650 0.036182 0.486020
O O12 0.553333 0.977346 0.450400
O O13 0.408485 0.831530 0.616622
O O14 0.402030 0.355898 0.386464
O O15 0.100731 0.372780 0.221497
O O16 0.464743 0.103440 0.731404
#
# Coordination Sequence:
#
# PCOD9136482 Si02
#       8
#     4   4   4   4   4   4   4   4
#     4  11  23  40  68  96 134 172 227 276 347 406
#     4   9  23  42  64  93 132 173 224 276 336 407
#     4  11  25  43  68  98 137 174 231 282 338 408
#     4  11  24  41  65  99 129 177 222 281 338 407
#     4  10  21  41  67  91 132 176 217 277 346 408
#     4  10  22  42  64  94 130 179 216 277 340 405
#     4  11  23  42  67  94 133 172 227 276 337 409
#     4  11  23  45  67  97 137 179 222 289 340 406
#
# _framework density 22.494036000000001
#
# number of rings (size 3 to 8) (size 9 to 14) (size 15 to 20)
#    0.000    1.500    2.500    1.500    7.000    1.000 
#    0.000    0.000    0.000    0.000    0.000    0.000 
#    0.000    0.000    0.000    0.000    0.000    0.000 
#
# Total GULP energy -89176.321856 kJ/mol
# GULP energy per Si atom -5573.520116 kJ/mol
# Density = 2.244284 g / cm^3
# Si number density = 22.494036 Si / 1000 Ang^3
#
#
#
# Elastic Constant Matrix: (Units=GPa)
#
#
# Indices 1 2 3 4 5 6 
#
# 1 111.5290 24.6252 16.7487 0.0000 18.4602 -0.0002
# 2 24.6252 52.2099 8.8091 0.0001 11.3596 -0.0008
# 3 16.7487 8.8091 47.4092 0.0000 9.1384 -0.0001
# 4 0.0000 0.0001 0.0000 23.7043 0.0000 3.7471
# 5 18.4602 11.3596 9.1384 0.0000 33.0746 0.0000
# 6 -0.0002 -0.0008 -0.0001 3.7471 0.0000 30.0873
#
#
#
# Elastic Compliance Matrix: (Units=1/GPa)
#
#
# Indices 1 2 3 4 5 6 
#
# 1 0.010839 -0.003829 -0.002329 0.000000 -0.004091 0.000000
# 2 -0.003829 0.022365 -0.001832 0.000000 -0.005038 0.000001
# 3 -0.002329 -0.001832 0.023115 0.000000 -0.004458 0.000000
# 4 0.000000 0.000000 0.000000 0.043034 0.000000 -0.005359
# 5 -0.004091 -0.005038 -0.004458 0.000000 0.035480 0.000000
# 6 0.000000 0.000001 0.000000 -0.005359 0.000000 0.033904
#
#
# Mechanical properties :
#
#
# Convention : Reuss Voigt Hill
#
# Bulk Modulus (GPa) = 24.78997 34.61265 29.70131
# Shear Modulus (GPa) = 25.23186 28.10425 26.66805
#
# Velocity S-wave (km/s) = 3.35283 3.53853 3.44693
# Velocity P-wave (km/s) = 5.10228 5.66708 5.39208
#
# Compressibility (1/GPa) = 0.04033889
#
# Stress axis : x y z
#
# Youngs Moduli (GPa) = 92.26291 44.71345 43.26130
#
# Poissons Ratio (x) = 0.17121 0.10076
# Poissons Ratio (y) = 0.35328 0.07924
# Poissons Ratio (z) = 0.21488 0.08190
#
# Static dielectric constant tensor:
#      x y z
#    x 1.861930 0.000000 0.033780 
#    y 0.000000 1.908530 0.000000 
#    z 0.033780 0.000000 1.870300 
# 
# From -- ./inp_files/31756.got.cif
#   From: 2010.05.17/outbox.cif.g08.bks.cpg/sg9_16_cif.got.tgz:31756.got - 2010.06.03 20:04:27.
