data_PCOD9136409
_publ_section_title
;
Structure prediction by ZEFSAII (Michael W. Deem and Ramdas Pophale) SiO2 
 PCOD9136409
Probable space group: C C
;
_chemical_formula_sum "Si O2"
_cell_formula_units_Z 32
_cell_length_a 13.074638
_cell_length_b 6.575508
_cell_length_c 15.122747
_cell_angle_alpha 90.000000
_cell_angle_beta 91.618456
_cell_angle_gamma 90.000000
_cell_volume 1299.619989
_symmetry_space_group_name_H-M "C C"
_symmetry_group_IT_number 9
_symmetry_cell_setting 'monoclinic'
loop_
_space_group_symop_operation_xyz
x,y,z
x,-y,1/2+z
1/2+x,1/2+y,z
1/2+x,1/2-y,1/2+z
loop_
_atom_site_type_symbol
_atom_site_label
_atom_site_fract_x
_atom_site_fract_y
_atom_site_fract_z
Si Si1 0.435100 0.640342 0.891870
Si Si2 0.160972 0.714984 0.424530
Si Si3 0.591559 0.396129 0.138600
Si Si4 0.835437 0.544028 0.850681
Si Si5 0.437267 0.716643 0.510218
Si Si6 0.651184 0.994442 0.752691
Si Si7 0.964218 0.192390 0.242706
Si Si8 0.252994 0.240319 0.115681
O O1 0.541102 0.747146 0.920698
O O2 0.400890 0.504402 0.974129
O O3 0.462120 0.475410 0.818887
O O4 0.360298 0.808110 0.850076
O O5 0.223348 0.906447 0.384785
O O6 0.187075 0.544361 0.353092
O O7 0.199563 0.681697 0.523990
O O8 0.610806 0.216567 0.208946
O O9 0.499107 0.554070 0.160689
O O10 0.692069 0.534469 0.135767
O O11 0.553661 0.299668 0.045226
O O12 0.910391 0.634696 0.929037
O O13 0.864646 0.668555 0.762386
O O14 0.369919 0.790947 0.591416
O O15 0.556520 0.148378 0.753248
O O16 0.734987 0.095790 0.691441
#
# Coordination Sequence:
#
# PCOD9136409 Si02
#       8
#     4   4   4   4   4   4   4   4
#     4  11  21  45  68  95 138 182 232 292 353 422
#     4  11  22  45  66  99 143 181 235 300 350 424
#     4  11  22  40  62  93 137 177 226 295 351 421
#     4  10  23  40  66  98 129 182 242 282 359 430
#     4  10  24  42  66  96 134 180 233 295 352 426
#     4  11  24  43  70 102 138 187 235 296 356 428
#     4  10  21  41  60  95 134 172 231 280 352 422
#     4  10  25  44  64 102 135 179 240 284 361 425
#
# _framework density 24.622581
#
# number of rings (size 3 to 8) (size 9 to 14) (size 15 to 20)
#    0.000    1.500    3.750    0.000    3.500    2.000 
#   11.250    0.000    0.000    0.000    0.000    0.000 
#    0.000    0.000    0.000    0.000    0.000    0.000 
#
# Total GULP energy -89497.923844 kJ/mol
# GULP energy per Si atom -5593.620240 kJ/mol
# Density = 2.456654 g / cm^3
# Si number density = 24.622581 Si / 1000 Ang^3
#
#
#
# Elastic Constant Matrix: (Units=GPa)
#
#
# Indices 1 2 3 4 5 6 
#
# 1 62.8809 36.8111 14.5057 0.0000 -8.3241 0.0000
# 2 36.8111 129.3055 42.4138 0.0000 -0.9743 0.0000
# 3 14.5057 42.4138 85.7983 0.0000 1.2470 0.0000
# 4 0.0000 0.0000 0.0000 29.2772 0.0000 -4.2641
# 5 -8.3241 -0.9743 1.2470 0.0000 41.0118 0.0000
# 6 0.0000 0.0000 0.0000 -4.2641 0.0000 31.0566
#
#
#
# Elastic Compliance Matrix: (Units=1/GPa)
#
#
# Indices 1 2 3 4 5 6 
#
# 1 0.019717 -0.005337 -0.000752 0.000000 0.003898 0.000000
# 2 -0.005337 0.010680 -0.004367 0.000000 -0.000697 0.000000
# 3 -0.000752 -0.004367 0.013951 0.000000 -0.000681 0.000000
# 4 0.000000 0.000000 0.000000 0.034853 0.000000 0.004785
# 5 0.003898 -0.000697 -0.000681 0.000000 0.025179 0.000000
# 6 0.000000 0.000000 0.000000 0.004785 0.000000 0.032856
#
#
# Mechanical properties :
#
#
# Convention : Reuss Voigt Hill
#
# Bulk Modulus (GPa) = 42.66932 51.71622 47.19277
# Shear Modulus (GPa) = 30.12761 32.55273 31.34017
#
# Velocity S-wave (km/s) = 3.50176 3.63997 3.57153
# Velocity P-wave (km/s) = 5.80661 6.22214 6.01796
#
# Compressibility (1/GPa) = 0.02343604
#
# Stress axis : x y z
#
# Youngs Moduli (GPa) = 50.71784 93.63051 71.67862
#
# Poissons Ratio (x) = 0.49972 0.05389
# Poissons Ratio (y) = 0.27069 0.31304
# Poissons Ratio (z) = 0.03813 0.40891
#
# Static dielectric constant tensor:
#      x y z
#    x 1.951900 0.000000 -0.020650 
#    y 0.000000 1.946940 0.000000 
#    z -0.020650 0.000000 1.992840 
# 
# From -- ./inp_files/30391.got.cif
#   From: 2010.05.17/outbox.cif.g08.bks.cpg/sg9_16_cif.got.tgz:30391.got - 2010.06.03 20:04:27.
