data_PCOD9136353
_publ_section_title
;
Structure prediction by ZEFSAII (Michael W. Deem and Ramdas Pophale) SiO2 
 PCOD9136353
Probable space group: C C
;
_chemical_formula_sum "Si O2"
_cell_formula_units_Z 32
_cell_length_a 7.555186
_cell_length_b 17.741904
_cell_length_c 9.536576
_cell_angle_alpha 90.000000
_cell_angle_beta 114.175035
_cell_angle_gamma 90.000000
_cell_volume 1166.204970
_symmetry_space_group_name_H-M "C C"
_symmetry_group_IT_number 9
_symmetry_cell_setting 'monoclinic'
loop_
_space_group_symop_operation_xyz
x,y,z
x,-y,1/2+z
1/2+x,1/2+y,z
1/2+x,1/2-y,1/2+z
loop_
_atom_site_type_symbol
_atom_site_label
_atom_site_fract_x
_atom_site_fract_y
_atom_site_fract_z
Si Si1 0.987790 0.215204 0.730070
Si Si2 0.610221 0.410175 0.791738
Si Si3 0.236160 0.478354 0.770268
Si Si4 0.681199 0.156915 0.438171
Si Si5 0.343223 0.136691 0.808028
Si Si6 0.279364 0.356418 0.405713
Si Si7 0.343903 0.210726 0.517713
Si Si8 0.296992 0.007528 0.106535
O O1 0.881068 0.195146 0.551938
O O2 0.814733 0.199553 0.783764
O O3 0.077956 0.297071 0.779843
O O4 0.159963 0.159282 0.841424
O O5 0.387357 0.437679 0.716729
O O6 0.665489 0.329284 0.875526
O O7 0.700833 0.425590 0.666798
O O8 0.691509 0.468628 0.940648
O O9 0.225806 0.426885 0.905925
O O10 0.297687 0.561477 0.842537
O O11 0.019607 0.477481 0.637819
O O12 0.520566 0.162978 0.507424
O O13 0.568396 0.145829 0.910341
O O14 0.307269 0.191286 0.665427
O O15 0.311448 0.055445 0.732162
O O16 0.400165 0.299311 0.541526
#
# Coordination Sequence:
#
# PCOD9136353 Si02
#       8
#     4   4   4   4   4   4   4   4
#     4  11  24  43  72  99 142 181 240 285 367 419
#     4  11  23  44  72 102 142 188 239 299 363 429
#     4  11  24  44  73 101 143 189 238 296 372 424
#     4  11  23  46  71 105 139 189 232 304 353 438
#     4  10  21  40  68  93 133 184 223 294 345 426
#     4  10  23  43  65 102 134 185 230 293 348 434
#     4  10  21  43  69  92 137 179 234 288 356 423
#     4  10  23  43  66 104 140 185 238 297 354 433
#
# _framework density 27.439432
#
# number of rings (size 3 to 8) (size 9 to 14) (size 15 to 20)
#    0.000    1.500    2.500    2.250    3.500    1.000 
#    9.000    1.250    0.000    0.000    0.000    0.000 
#    0.000    0.000    0.000    0.000    0.000    0.000 
#
# Total GULP energy -89380.278769 kJ/mol
# GULP energy per Si atom -5586.267423 kJ/mol
# Density = 2.737698 g / cm^3
# Si number density = 27.439432 Si / 1000 Ang^3
#
#
#
# Elastic Constant Matrix: (Units=GPa)
#
#
# Indices 1 2 3 4 5 6 
#
# 1 122.7293 45.4287 24.4191 0.0000 6.7736 0.0000
# 2 45.4287 153.8253 6.3750 0.0000 -1.2961 0.0000
# 3 24.4191 6.3750 55.1620 0.0000 12.1563 0.0000
# 4 0.0000 0.0000 0.0000 27.0255 0.0000 -2.0480
# 5 6.7736 -1.2961 12.1563 0.0000 32.6534 0.0000
# 6 0.0000 0.0000 0.0000 -2.0480 0.0000 47.0491
#
#
#
# Elastic Compliance Matrix: (Units=1/GPa)
#
#
# Indices 1 2 3 4 5 6 
#
# 1 0.010009 -0.002798 -0.003949 0.000000 -0.000717 0.000000
# 2 -0.002798 0.007325 0.000218 0.000000 0.000790 0.000000
# 3 -0.003949 0.000218 0.021427 0.000000 -0.007149 0.000000
# 4 0.000000 0.000000 0.000000 0.037125 0.000000 0.001616
# 5 -0.000717 0.000790 -0.007149 0.000000 0.033466 0.000000
# 6 0.000000 0.000000 0.000000 0.001616 0.000000 0.021325
#
#
# Mechanical properties :
#
#
# Convention : Reuss Voigt Hill
#
# Bulk Modulus (GPa) = 38.90776 53.79578 46.35177
# Shear Modulus (GPa) = 32.82925 38.37852 35.60388
#
# Velocity S-wave (km/s) = 3.46269 3.74393 3.60605
# Velocity P-wave (km/s) = 5.49520 6.19170 5.85382
#
# Compressibility (1/GPa) = 0.02570182
#
# Stress axis : x y z
#
# Youngs Moduli (GPa) = 99.90790 136.52014 46.67014
#
# Poissons Ratio (x) = 0.38203 0.18432
# Poissons Ratio (y) = 0.27958 -0.01018
# Poissons Ratio (z) = 0.39458 -0.02978
#
# Static dielectric constant tensor:
#      x y z
#    x 2.218230 0.000000 0.024640 
#    y 0.000000 2.151330 0.000000 
#    z 0.024640 0.000000 2.389230 
# 
# From -- ./inp_files/15196.got.cif
#   From: 2010.05.17/outbox.cif.g08.bks.cpg/sg9_8_cif.got.tgz:15196.got - 2010.06.03 20:04:27.
