data_PCOD9136801
_publ_section_title
;
Structure prediction by ZEFSAII (Michael W. Deem and Ramdas Pophale) SiO2 
 PCOD9136801
Probable space group: C C
;
_chemical_formula_sum "Si O2"
_cell_formula_units_Z 32
_cell_length_a 11.038085
_cell_length_b 9.482790
_cell_length_c 15.653209
_cell_angle_alpha 90.000000
_cell_angle_beta 119.214877
_cell_angle_gamma 90.000000
_cell_volume 1430.031772
_symmetry_space_group_name_H-M "C C"
_symmetry_group_IT_number 9
_symmetry_cell_setting 'monoclinic'
loop_
_space_group_symop_operation_xyz
x,y,z
x,-y,1/2+z
1/2+x,1/2+y,z
1/2+x,1/2-y,1/2+z
loop_
_atom_site_type_symbol
_atom_site_label
_atom_site_fract_x
_atom_site_fract_y
_atom_site_fract_z
Si Si1 0.174010 0.245726 0.908170
Si Si2 0.418677 0.362888 0.908217
Si Si3 0.393105 0.691651 0.721921
Si Si4 0.097175 0.367487 0.204511
Si Si5 0.690260 0.740401 0.564136
Si Si6 0.225751 0.451927 0.425081
Si Si7 0.845390 0.544067 0.084762
Si Si8 0.931171 0.110543 0.217723
O O1 0.272625 0.278949 0.860233
O O2 0.184454 0.400164 0.957103
O O3 0.017009 0.217231 0.830935
O O4 0.250112 0.118225 0.981149
O O5 0.375487 0.510931 0.936088
O O6 0.473396 0.382146 0.831800
O O7 0.526030 0.280071 0.004834
O O8 0.246435 0.655503 0.714550
O O9 0.376744 0.830210 0.660583
O O10 0.437724 0.549173 0.688108
O O11 0.123767 0.428220 0.309419
O O12 0.992959 0.468798 0.116660
O O13 0.021318 0.217984 0.193513
O O14 0.725042 0.820327 0.487012
O O15 0.755645 0.585125 0.591052
O O16 0.772268 0.835179 0.659442
#
# Coordination Sequence:
#
# PCOD9136801 Si02
#       8
#     4   4   4   4   4   4   4   4
#     4  10  24  43  70 103 139 186 235 290 348 424
#     4  10  22  42  71  95 141 178 229 290 342 423
#     4  12  24  47  69 103 142 187 230 299 350 414
#     4  11  24  46  71  97 147 184 232 296 349 418
#     4  11  24  42  70  96 138 184 232 285 349 422
#     4  10  21  44  65  96 136 182 226 282 348 406
#     4  11  25  46  65 110 141 181 248 286 350 426
#     4  11  24  44  69 104 134 186 228 286 358 411
#
# _framework density 22.377123999999998
#
# number of rings (size 3 to 8) (size 9 to 14) (size 15 to 20)
#    0.750    0.500    3.750    1.500    1.750    2.000 
#    6.750    0.000    0.000    0.000    0.000    0.000 
#    0.000    0.000    0.000    0.000    0.000    0.000 
#
# Total GULP energy -89295.163139 kJ/mol
# GULP energy per Si atom -5580.947696 kJ/mol
# Density = 2.232619 g / cm^3
# Si number density = 22.377124 Si / 1000 Ang^3
#
#
#
# Elastic Constant Matrix: (Units=GPa)
#
#
# Indices 1 2 3 4 5 6 
#
# 1 86.2499 34.6722 25.2524 0.0000 30.7973 0.0000
# 2 34.6722 160.3111 35.5219 0.0000 9.0483 0.0000
# 3 25.2524 35.5219 79.2167 0.0000 24.5239 0.0000
# 4 0.0000 0.0000 0.0000 43.7147 0.0000 6.9002
# 5 30.7973 9.0483 24.5239 0.0000 30.1936 0.0000
# 6 0.0000 0.0000 0.0000 6.9002 0.0000 31.0384
#
#
#
# Elastic Compliance Matrix: (Units=1/GPa)
#
#
# Indices 1 2 3 4 5 6 
#
# 1 0.019846 -0.003486 0.001576 0.000000 -0.020479 0.000000
# 2 -0.003486 0.007546 -0.003571 0.000000 0.004195 0.000000
# 3 0.001576 -0.003571 0.018554 0.000000 -0.015608 0.000000
# 4 0.000000 0.000000 0.000000 0.023708 0.000000 -0.005270
# 5 -0.020479 0.004195 -0.015608 0.000000 0.065428 0.000000
# 6 0.000000 0.000000 0.000000 -0.005270 0.000000 0.033390
#
#
# Mechanical properties :
#
#
# Convention : Reuss Voigt Hill
#
# Bulk Modulus (GPa) = 28.58304 57.40785 42.99545
# Shear Modulus (GPa) = 26.16483 36.34475 31.25479
#
# Velocity S-wave (km/s) = 3.42316 4.03450 3.74134
# Velocity P-wave (km/s) = 5.33152 6.88573 6.15786
#
# Compressibility (1/GPa) = 0.03498579
#
# Stress axis : x y z
#
# Youngs Moduli (GPa) = 50.38691 132.51415 53.89544
#
# Poissons Ratio (x) = 0.46192 -0.08496
# Poissons Ratio (y) = 0.17564 0.19248
# Poissons Ratio (z) = -0.07943 0.47325
#
# Static dielectric constant tensor:
#      x y z
#    x 1.826150 0.000000 0.014910 
#    y 0.000000 1.840020 0.000000 
#    z 0.014910 0.000000 1.863320 
# 
# From -- ./inp_files/29913.got.cif
#   From: 2010.05.17/outbox.cif.g08.bks.cpg/sg9_15_cif.got.tgz:29913.got - 2010.06.03 20:04:27.
