data_PCOD9136712
_publ_section_title
;
Structure prediction by ZEFSAII (Michael W. Deem and Ramdas Pophale) SiO2 
 PCOD9136712
Probable space group: C C
;
_chemical_formula_sum "Si O2"
_cell_formula_units_Z 32
_cell_length_a 11.922588
_cell_length_b 9.718838
_cell_length_c 12.319167
_cell_angle_alpha 90.000000
_cell_angle_beta 76.425078
_cell_angle_gamma 90.000000
_cell_volume 1387.589500
_symmetry_space_group_name_H-M "C C"
_symmetry_group_IT_number 9
_symmetry_cell_setting 'monoclinic'
loop_
_space_group_symop_operation_xyz
x,y,z
x,-y,1/2+z
1/2+x,1/2+y,z
1/2+x,1/2-y,1/2+z
loop_
_atom_site_type_symbol
_atom_site_label
_atom_site_fract_x
_atom_site_fract_y
_atom_site_fract_z
Si Si1 0.617230 0.143825 0.827210
Si Si2 0.808300 0.977835 0.163670
Si Si3 0.588879 0.662282 0.952197
Si Si4 0.463164 0.006011 0.700166
Si Si5 0.998944 0.193611 0.728710
Si Si6 0.847787 0.264691 0.099572
Si Si7 0.687472 0.060944 0.496284
Si Si8 0.663639 0.359416 0.990162
O O1 0.710613 0.137138 0.710590
O O2 0.501020 0.086302 0.800916
O O3 0.615343 0.281282 0.895846
O O4 0.672667 0.031912 0.894625
O O5 0.912394 0.927102 0.212433
O O6 0.784053 0.141094 0.179215
O O7 0.806430 0.966694 0.032843
O O8 0.551978 0.669991 0.834799
O O9 0.675287 0.783708 0.963067
O O10 0.644956 0.518925 0.973021
O O11 0.473303 0.698719 0.047180
O O12 0.364886 0.095789 0.664363
O O13 0.575282 0.013919 0.594132
O O14 0.442841 0.846275 0.731314
O O15 0.289739 0.193037 0.498375
O O16 0.093550 0.185506 0.612642
#
# Coordination Sequence:
#
# PCOD9136712 Si02
#       8
#     4   4   4   4   4   4   4   4
#     4  11  21  44  67  93 127 183 223 272 352 402
#     4  11  24  40  69  97 134 178 227 283 344 416
#     4  11  26  44  68 100 139 179 228 289 344 410
#     4  10  23  42  67  95 134 174 225 283 341 411
#     4  12  24  43  66 102 134 177 227 283 345 412
#     4  11  24  47  66 102 140 176 231 286 343 415
#     4  10  21  43  66  91 132 175 222 280 338 409
#     4  12  25  45  69  98 140 178 227 288 341 415
#
# _framework density 23.061574
#
# number of rings (size 3 to 8) (size 9 to 14) (size 15 to 20)
#    0.000    1.000    5.000    1.500    3.500    1.000 
#    2.250    0.000    0.000    0.000    0.000    0.000 
#    0.000    0.000    0.000    0.000    0.000    0.000 
#
# Total GULP energy -89347.078216 kJ/mol
# GULP energy per Si atom -5584.192388 kJ/mol
# Density = 2.300909 g / cm^3
# Si number density = 23.061574 Si / 1000 Ang^3
#
#
#
# Elastic Constant Matrix: (Units=GPa)
#
#
# Indices 1 2 3 4 5 6 
#
# 1 28.6446 21.1825 4.7300 0.0000 18.4881 0.0000
# 2 21.1825 176.5861 24.3632 0.0000 31.1557 0.0000
# 3 4.7300 24.3632 65.8657 0.0000 28.0616 0.0000
# 4 0.0000 0.0000 0.0000 40.4112 0.0000 13.6478
# 5 18.4881 31.1557 28.0616 0.0000 37.7363 0.0000
# 6 0.0000 0.0000 0.0000 13.6478 0.0000 37.2118
#
#
#
# Elastic Compliance Matrix: (Units=1/GPa)
#
#
# Indices 1 2 3 4 5 6 
#
# 1 0.057052 -0.002329 0.011496 0.000000 -0.034577 0.000000
# 2 -0.002329 0.006725 -0.000645 0.000000 -0.003931 0.000000
# 3 0.011496 -0.000645 0.024544 0.000000 -0.023351 0.000000
# 4 0.000000 0.000000 0.000000 0.028244 0.000000 -0.010359
# 5 -0.034577 -0.003931 -0.023351 0.000000 0.064050 0.000000
# 6 0.000000 0.000000 0.000000 -0.010359 0.000000 0.030672
#
#
# Mechanical properties :
#
#
# Convention : Reuss Voigt Hill
#
# Bulk Modulus (GPa) = 9.49103 41.29422 25.39263
# Shear Modulus (GPa) = 21.79927 37.79323 29.79625
#
# Velocity S-wave (km/s) = 3.07785 4.05260 3.59838
# Velocity P-wave (km/s) = 4.09333 6.31213 5.31970
#
# Compressibility (1/GPa) = 0.10536260
#
# Stress axis : x y z
#
# Youngs Moduli (GPa) = 17.52799 148.69884 40.74313
#
# Poissons Ratio (x) = 0.34635 -0.46837
# Poissons Ratio (y) = 0.04083 0.02630
# Poissons Ratio (z) = -0.20150 0.09597
#
# Static dielectric constant tensor:
#      x y z
#    x 1.982590 0.000000 -0.051140 
#    y 0.000000 1.854910 0.000000 
#    z -0.051140 0.000000 1.902680 
# 
# From -- ./inp_files/17799.got.cif
#   From: 2010.05.17/outbox.cif.g08.bks.cpg/sg9_9_cif.got.tgz:17799.got - 2010.06.03 20:04:27.
