data_PCOD9136097
_publ_section_title
;
Structure prediction by ZEFSAII (Michael W. Deem and Ramdas Pophale) SiO2 
 PCOD9136097
Probable space group: C C
;
_chemical_formula_sum "Si O2"
_cell_formula_units_Z 32
_cell_length_a 16.146277
_cell_length_b 14.004897
_cell_length_c 21.922131
_cell_angle_alpha 90.000000
_cell_angle_beta 159.634929
_cell_angle_gamma 90.000000
_cell_volume 1725.103150
_symmetry_space_group_name_H-M "C C"
_symmetry_group_IT_number 9
_symmetry_cell_setting 'monoclinic'
loop_
_space_group_symop_operation_xyz
x,y,z
x,-y,1/2+z
1/2+x,1/2+y,z
1/2+x,1/2-y,1/2+z
loop_
_atom_site_type_symbol
_atom_site_label
_atom_site_fract_x
_atom_site_fract_y
_atom_site_fract_z
Si Si1 0.290190 0.464885 0.398130
Si Si2 0.073317 0.039486 0.814770
Si Si3 0.499601 0.354121 0.846878
Si Si4 0.651554 0.028951 0.427364
Si Si5 0.863893 0.851357 0.276830
Si Si6 0.694072 0.349117 0.624431
Si Si7 0.953432 0.341562 0.241854
Si Si8 0.102751 0.536693 0.139768
O O1 0.272969 0.531824 0.444833
O O2 0.549069 0.422466 0.566112
O O3 0.196867 0.518406 0.273804
O O4 0.124094 0.373689 0.302913
O O5 0.017771 0.125181 0.823131
O O6 0.321492 0.050690 0.950959
O O7 0.079729 0.943726 0.860509
O O8 0.850707 0.031393 0.615953
O O9 0.498976 0.259316 0.805209
O O10 0.247942 0.381500 0.704261
O O11 0.690050 0.345012 0.032768
O O12 0.510976 0.927409 0.328704
O O13 0.457849 0.111027 0.298316
O O14 0.717171 0.755039 0.168571
O O15 0.043718 0.846934 0.458027
O O16 0.682320 0.939024 0.161161
#
# Coordination Sequence:
#
# PCOD9136097 Si02
#       8
#     4   4   4   4   4   4   4   4
#     4   9  21  37  62  88 117 162 201 247 302 359
#     4  11  21  40  60  88 124 158 204 248 311 363
#     4  11  22  39  64  89 127 156 204 260 304 368
#     4  10  22  38  62  88 122 158 201 259 298 362
#     4  10  23  37  62  91 118 161 201 258 298 362
#     4  11  21  40  61  89 123 155 207 250 305 361
#     4  10  21  39  59  93 118 158 202 255 308 355
#     4  10  21  40  62  86 123 168 200 247 312 368
#
# _framework density 18.549616
#
# number of rings (size 3 to 8) (size 9 to 14) (size 15 to 20)
#    0.750    1.000    1.250    4.500    1.750    3.000 
#    0.000    6.250    0.000    0.000    0.000    0.000 
#    0.000    0.000    0.000    0.000    0.000    0.000 
#
# Total GULP energy -89218.914130 kJ/mol
# GULP energy per Si atom -5576.182133 kJ/mol
# Density = 1.850740 g / cm^3
# Si number density = 18.549616 Si / 1000 Ang^3
#
#
#
# Elastic Constant Matrix: (Units=GPa)
#
#
# Indices 1 2 3 4 5 6 
#
# 1 67.3727 -2.0076 21.1066 0.0022 12.7371 -0.0052
# 2 -2.0076 -13.7949 -26.3623 -0.0401 -13.2226 -0.0060
# 3 21.1066 -26.3623 77.8607 -0.0643 3.3457 -0.0151
# 4 0.0022 -0.0401 -0.0643 23.5528 -0.0048 -4.2916
# 5 12.7371 -13.2226 3.3457 -0.0048 13.9012 -0.0065
# 6 -0.0052 -0.0060 -0.0151 -4.2916 -0.0065 25.7494
#
#
#
# Elastic Compliance Matrix: (Units=1/GPa)
#
#
# Indices 1 2 3 4 5 6 
#
# 1 0.017031 0.007935 -0.001601 0.000007 -0.007673 0.000003
# 2 0.007935 -0.026293 -0.009767 -0.000084 -0.029929 -0.000032
# 3 -0.001601 -0.009767 0.010414 0.000010 -0.010330 0.000003
# 4 0.000007 -0.000084 0.000010 0.043787 -0.000070 0.007298
# 5 -0.007673 -0.029929 -0.010330 -0.000070 0.052985 -0.000013
# 6 0.000003 -0.000032 0.000003 0.007298 -0.000013 0.040052
#
#
# Mechanical properties :
#
#
# Convention : Reuss Voigt Hill
#
# Bulk Modulus (GPa) = -175.00893 12.99023 -81.00935
# Shear Modulus (GPa) = 34.97987 21.88745 28.43366
#
# Velocity S-wave (km/s) = 4.34723 3.43875 3.91940
# Velocity P-wave (km/s) = 8.32787 4.77335 4.82537
#
# Compressibility (1/GPa) = -0.00571399
#
# Stress axis : x y z
#
# Youngs Moduli (GPa) = 58.71572 -38.03330 96.02221
#
# Poissons Ratio (x) = 0.30178 0.15370
# Poissons Ratio (y) = -0.46588 0.93787
# Poissons Ratio (z) = 0.09398 -0.37148
#
# Static dielectric constant tensor:
#      x y z
#    x 1.652720 -0.000010 0.009460 
#    y -0.000010 1.637660 -0.000020 
#    z 0.009460 -0.000020 1.619590 
# 
# From -- ./inp_files/33819.got.cif
#   From: 2010.05.17/outbox.cif.g08.bks.cpg/sg9_17_cif.got.tgz:33819.got - 2010.06.03 20:04:27.
