data_PCOD9136559
_publ_section_title
;
Structure prediction by ZEFSAII (Michael W. Deem and Ramdas Pophale) SiO2 
 PCOD9136559
Probable space group: C C
;
_chemical_formula_sum "Si O2"
_cell_formula_units_Z 32
_cell_length_a 26.952214
_cell_length_b 4.914052
_cell_length_c 20.540833
_cell_angle_alpha 90.000000
_cell_angle_beta 149.059317
_cell_angle_gamma 90.000000
_cell_volume 1398.757468
_symmetry_space_group_name_H-M "C C"
_symmetry_group_IT_number 9
_symmetry_cell_setting 'monoclinic'
loop_
_space_group_symop_operation_xyz
x,y,z
x,-y,1/2+z
1/2+x,1/2+y,z
1/2+x,1/2-y,1/2+z
loop_
_atom_site_type_symbol
_atom_site_label
_atom_site_fract_x
_atom_site_fract_y
_atom_site_fract_z
Si Si1 0.930640 0.868946 0.038510
Si Si2 0.736620 0.351118 0.894405
Si Si3 0.043274 0.360211 0.118928
Si Si4 0.068051 0.983895 0.019892
Si Si5 0.841090 0.836536 0.066059
Si Si6 0.753698 0.409444 0.653334
Si Si7 0.361507 0.594527 0.226797
Si Si8 0.253504 0.179202 0.781894
O O1 0.996223 0.656693 0.071962
O O2 0.919174 0.754887 0.098982
O O3 0.827502 0.904265 0.886788
O O4 0.976141 0.160445 0.085056
O O5 0.641443 0.175834 0.770402
O O6 0.755098 0.611489 0.963480
O O7 0.753812 0.488790 0.844521
O O8 0.807053 0.124259 0.999554
O O9 0.052250 0.216959 0.057414
O O10 0.965552 0.881291 0.878606
O O11 0.138545 0.078810 0.039161
O O12 0.142874 0.767158 0.137652
O O13 0.876193 0.924149 0.176587
O O14 0.789295 0.105526 0.683961
O O15 0.796291 0.522516 0.768834
O O16 0.802701 0.620492 0.657454
#
# Coordination Sequence:
#
# PCOD9136559 Si02
#       8
#     4   4   4   4   4   4   4   4
#     4  11  21  38  64  99 133 172 218 271 343 399
#     4  10  21  42  63  92 131 169 217 280 339 383
#     4  11  22  39  68 101 130 166 222 281 348 397
#     4   9  23  44  67 104 133 168 223 286 329 409
#     4  11  24  42  64  90 136 183 223 272 318 411
#     4  10  24  41  69 100 128 177 222 279 339 388
#     4  12  24  46  66  95 136 187 223 266 334 402
#     4   8  19  40  63  99 125 164 208 287 334 383
#
# _framework density 22.877447
#
# number of rings (size 3 to 8) (size 9 to 14) (size 15 to 20)
#    0.750    1.000    0.000    4.500    0.000    4.000 
#    6.750    0.000    0.000    0.000    0.000    0.000 
#    0.000    0.000    0.000    0.000    0.000    0.000 
#
# Total GULP energy -89133.604559 kJ/mol
# GULP energy per Si atom -5570.850285 kJ/mol
# Density = 2.282538 g / cm^3
# Si number density = 22.877447 Si / 1000 Ang^3
#
#
#
# Elastic Constant Matrix: (Units=GPa)
#
#
# Indices 1 2 3 4 5 6 
#
# 1 83.8762 6.8683 50.6662 0.0001 6.2104 0.0001
# 2 6.8683 80.9867 15.2166 0.0006 6.5098 0.0006
# 3 50.6662 15.2166 73.2557 0.0001 -2.2886 0.0003
# 4 0.0001 0.0006 0.0001 12.0600 -0.0002 2.3633
# 5 6.2104 6.5098 -2.2886 -0.0002 39.4852 0.0001
# 6 0.0001 0.0006 0.0003 2.3633 0.0001 25.9419
#
#
#
# Elastic Compliance Matrix: (Units=1/GPa)
#
#
# Indices 1 2 3 4 5 6 
#
# 1 0.021294 0.001401 -0.015158 0.000000 -0.004459 0.000000
# 2 0.001401 0.013149 -0.003781 -0.000001 -0.002607 0.000000
# 3 -0.015158 -0.003781 0.025059 0.000000 0.004460 0.000000
# 4 0.000000 -0.000001 0.000000 0.084426 0.000001 -0.007691
# 5 -0.004459 -0.002607 0.004460 0.000001 0.026716 0.000000
# 6 0.000000 0.000000 0.000000 -0.007691 0.000000 0.039248
#
#
# Mechanical properties :
#
#
# Convention : Reuss Voigt Hill
#
# Bulk Modulus (GPa) = 40.94195 42.62452 41.78323
# Shear Modulus (GPa) = 19.75411 26.52190 23.13801
#
# Velocity S-wave (km/s) = 2.94168 3.40855 3.18368
# Velocity P-wave (km/s) = 5.42891 5.84492 5.64075
#
# Compressibility (1/GPa) = 0.02442483
#
# Stress axis : x y z
#
# Youngs Moduli (GPa) = 46.96144 76.05141 39.90524
#
# Poissons Ratio (x) = -0.10651 0.60488
# Poissons Ratio (y) = -0.06577 0.15090
# Poissons Ratio (z) = 0.71184 0.28758
#
# Static dielectric constant tensor:
#      x y z
#    x 2.006600 0.000000 0.026450 
#    y 0.000000 1.868080 0.000000 
#    z 0.026450 0.000000 1.879570 
# 
# From -- ./inp_files/34641.got.cif
#   From: 2010.05.17/outbox.cif.g08.bks.cpg/sg9_18_cif.got.tgz:34641.got - 2010.06.03 20:04:27.
