data_PCOD9136642
_publ_section_title
;
Structure prediction by ZEFSAII (Michael W. Deem and Ramdas Pophale) SiO2 
 PCOD9136642
Probable space group: C C
;
_chemical_formula_sum "Si O2"
_cell_formula_units_Z 32
_cell_length_a 13.758507
_cell_length_b 4.886007
_cell_length_c 21.299134
_cell_angle_alpha 90.000000
_cell_angle_beta 75.360182
_cell_angle_gamma 90.000000
_cell_volume 1385.330728
_symmetry_space_group_name_H-M "C C"
_symmetry_group_IT_number 9
_symmetry_cell_setting 'monoclinic'
loop_
_space_group_symop_operation_xyz
x,y,z
x,-y,1/2+z
1/2+x,1/2+y,z
1/2+x,1/2-y,1/2+z
loop_
_atom_site_type_symbol
_atom_site_label
_atom_site_fract_x
_atom_site_fract_y
_atom_site_fract_z
Si Si1 0.584180 0.319295 0.363670
Si Si2 0.215123 0.359003 0.351496
Si Si3 0.316586 0.087788 0.619991
Si Si4 0.917203 0.654430 0.474669
Si Si5 0.189294 0.606230 0.608369
Si Si6 0.790471 0.166052 0.463172
Si Si7 0.937651 0.263158 0.777577
Si Si8 0.474643 0.259899 0.695460
O O1 0.642481 0.596866 0.370356
O O2 0.530012 0.172665 0.431731
O O3 0.493970 0.353143 0.329344
O O4 0.659324 0.096537 0.321758
O O5 0.243962 0.521616 0.410474
O O6 0.319053 0.267638 0.304317
O O7 0.394921 0.061578 0.549047
O O8 0.230304 0.301244 0.612767
O O9 0.378779 0.191302 0.668620
O O10 0.261595 0.800820 0.637854
O O11 0.847401 0.453326 0.443758
O O12 0.874764 0.959864 0.475547
O O13 0.210864 0.690693 0.532588
O O14 0.075864 0.665223 0.645066
O O15 0.964054 0.576256 0.759685
O O16 0.974848 0.076548 0.713889
#
# Coordination Sequence:
#
# PCOD9136642 Si02
#       8
#     4   4   4   4   4   4   4   4
#     4  12  26  43  69 101 131 182 224 275 339 400
#     4  12  26  43  69 101 131 182 224 275 339 400
#     4  10  23  43  67 100 132 170 218 276 333 393
#     4  10  21  42  69  98 140 170 213 285 340 398
#     4  10  23  43  67 100 132 170 218 276 333 393
#     4  10  21  42  69  98 140 170 213 285 340 398
#     4  12  28  46  64  96 140 172 229 280 325 398
#     4  12  26  44  70  94 130 184 221 272 331 408
#
# _framework density 23.099176
#
# number of rings (size 3 to 8) (size 9 to 14) (size 15 to 20)
#    0.000    1.000    1.250    4.500    3.500    6.000 
#    2.250    0.000    0.000    0.000    0.000    0.000 
#    0.000    0.000    0.000    0.000    0.000    0.000 
#
# Total GULP energy -89547.111295 kJ/mol
# GULP energy per Si atom -5596.694456 kJ/mol
# Density = 2.304660 g / cm^3
# Si number density = 23.099176 Si / 1000 Ang^3
#
#
#
# Elastic Constant Matrix: (Units=GPa)
#
#
# Indices 1 2 3 4 5 6 
#
# 1 71.0118 17.3137 26.1707 0.0004 -17.9269 -0.0002
# 2 17.3137 113.1850 8.2817 0.0020 -12.8851 -0.0004
# 3 26.1707 8.2817 44.3211 0.0002 -18.1935 0.0001
# 4 0.0004 0.0020 0.0002 26.7642 0.0005 -0.5789
# 5 -17.9269 -12.8851 -18.1935 0.0005 38.0380 0.0001
# 6 -0.0002 -0.0004 0.0001 -0.5789 0.0001 33.0383
#
#
#
# Elastic Compliance Matrix: (Units=1/GPa)
#
#
# Indices 1 2 3 4 5 6 
#
# 1 0.018899 -0.001772 -0.009231 0.000000 0.003891 0.000000
# 2 -0.001772 0.009366 0.000318 -0.000001 0.002490 0.000000
# 3 -0.009231 0.000318 0.032616 0.000000 0.011358 0.000000
# 4 0.000000 -0.000001 0.000000 0.037377 -0.000001 0.000655
# 5 0.003891 0.002490 0.011358 -0.000001 0.034399 0.000000
# 6 0.000000 0.000000 0.000000 0.000655 0.000000 0.030279
#
#
# Mechanical properties :
#
#
# Convention : Reuss Voigt Hill
#
# Bulk Modulus (GPa) = 25.30916 36.89447 31.10181
# Shear Modulus (GPa) = 25.31946 31.35156 28.33551
#
# Velocity S-wave (km/s) = 3.31436 3.68810 3.50621
# Velocity P-wave (km/s) = 5.06233 5.84320 5.46672
#
# Compressibility (1/GPa) = 0.03951139
#
# Stress axis : x y z
#
# Youngs Moduli (GPa) = 52.91412 106.76507 30.65993
#
# Poissons Ratio (x) = 0.18924 0.28301
# Poissons Ratio (y) = 0.09379 -0.00976
# Poissons Ratio (z) = 0.48843 -0.03400
#
# Static dielectric constant tensor:
#      x y z
#    x 1.874300 0.000000 0.030170 
#    y 0.000000 1.826830 0.000000 
#    z 0.030170 0.000000 1.898940 
# 
# From -- ./inp_files/35199.got.cif
#   From: 2010.05.17/outbox.cif.g08.bks.cpg/sg9_18_cif.got.tgz:35199.got - 2010.06.03 20:04:27.
