data_PCOD9136417
_publ_section_title
;
Structure prediction by ZEFSAII (Michael W. Deem and Ramdas Pophale) SiO2 
 PCOD9136417
Probable space group: C C
;
_chemical_formula_sum "Si O2"
_cell_formula_units_Z 32
_cell_length_a 29.492411
_cell_length_b 8.043510
_cell_length_c 14.590211
_cell_angle_alpha 90.000000
_cell_angle_beta 24.164418
_cell_angle_gamma 90.000000
_cell_volume 1416.834602
_symmetry_space_group_name_H-M "C C"
_symmetry_group_IT_number 9
_symmetry_cell_setting 'monoclinic'
loop_
_space_group_symop_operation_xyz
x,y,z
x,-y,1/2+z
1/2+x,1/2+y,z
1/2+x,1/2-y,1/2+z
loop_
_atom_site_type_symbol
_atom_site_label
_atom_site_fract_x
_atom_site_fract_y
_atom_site_fract_z
Si Si1 0.967550 0.075480 0.070100
Si Si2 0.800831 0.573313 0.119822
Si Si3 0.953264 0.144515 0.304015
Si Si4 0.851007 0.382265 0.203885
Si Si5 0.708322 0.422034 0.113149
Si Si6 0.721092 0.966892 0.556731
Si Si7 0.223244 0.584417 0.757299
Si Si8 0.137506 0.333675 0.053655
O O1 0.944701 0.258520 0.069282
O O2 0.988522 0.079033 0.141194
O O3 0.847725 0.985516 0.284598
O O4 0.085214 0.007666 0.817810
O O5 0.863766 0.495777 0.090146
O O6 0.743005 0.452686 0.154835
O O7 0.716136 0.723681 0.303573
O O8 0.890253 0.681801 0.899521
O O9 0.853723 0.038407 0.532192
O O10 0.047542 0.194143 0.199624
O O11 0.799326 0.493515 0.380318
O O12 0.752106 0.262008 0.354091
O O13 0.703259 0.225982 0.106512
O O14 0.711596 0.067016 0.669704
O O15 0.633629 0.049107 0.649295
O O16 0.145780 0.458392 0.952553
#
# Coordination Sequence:
#
# PCOD9136417 Si02
#       8
#     4   4   4   4   4   4   4   4
#     4  10  22  43  63  90 128 169 207 260 316 367
#     4  10  21  41  62  90 133 159 207 273 298 371
#     4   9  20  39  63  88 124 161 208 254 309 365
#     4  11  23  40  59  96 127 159 217 261 305 380
#     4  12  23  43  65  92 129 166 208 261 315 365
#     4  10  22  39  62  93 122 163 212 252 305 383
#     4   9  20  40  59  86 127 156 203 258 302 369
#     4  11  21  39  63  89 124 165 206 253 316 368
#
# _framework density 22.585557999999999
#
# number of rings (size 3 to 8) (size 9 to 14) (size 15 to 20)
#    0.750    1.000    1.250    3.750    1.750    2.000 
#    2.250    0.000    0.000    0.000    0.000    0.000 
#    0.000    0.000    0.000    0.000    0.000    0.000 
#
# Total GULP energy -89225.445661 kJ/mol
# GULP energy per Si atom -5576.590354 kJ/mol
# Density = 2.253415 g / cm^3
# Si number density = 22.585558 Si / 1000 Ang^3
#
#
#
# Elastic Constant Matrix: (Units=GPa)
#
#
# Indices 1 2 3 4 5 6 
#
# 1 81.9641 -1.0325 30.1859 0.0000 -0.8364 0.0000
# 2 -1.0325 35.0946 -7.3414 0.0000 6.6314 0.0000
# 3 30.1859 -7.3414 34.0933 0.0000 -10.2882 0.0000
# 4 0.0000 0.0000 0.0000 15.6589 0.0000 3.5972
# 5 -0.8364 6.6314 -10.2882 0.0000 28.1854 0.0000
# 6 0.0000 0.0000 0.0000 3.5972 0.0000 39.1868
#
#
#
# Elastic Compliance Matrix: (Units=1/GPa)
#
#
# Indices 1 2 3 4 5 6 
#
# 1 0.019224 -0.002355 -0.019316 0.000000 -0.005926 0.000000
# 2 -0.002355 0.030836 0.007321 0.000000 -0.004652 0.000000
# 3 -0.019316 0.007321 0.053175 0.000000 0.017114 0.000000
# 4 0.000000 0.000000 0.000000 0.065237 0.000000 -0.005989
# 5 -0.005926 -0.004652 0.017114 0.000000 0.042645 0.000000
# 6 0.000000 0.000000 0.000000 -0.005989 0.000000 0.026069
#
#
# Mechanical properties :
#
#
# Convention : Reuss Voigt Hill
#
# Bulk Modulus (GPa) = 13.41671 21.64179 17.52925
# Shear Modulus (GPa) = 17.19805 25.22890 21.21347
#
# Velocity S-wave (km/s) = 2.76245 3.34584 3.06804
# Velocity P-wave (km/s) = 4.01599 4.95269 4.50873
#
# Compressibility (1/GPa) = 0.07453391
#
# Stress axis : x y z
#
# Youngs Moduli (GPa) = 52.01778 32.42989 18.80594
#
# Poissons Ratio (x) = 0.07639 0.36326
# Poissons Ratio (y) = 0.12252 -0.13769
# Poissons Ratio (z) = 1.00480 -0.23743
#
# Static dielectric constant tensor:
#      x y z
#    x 1.860440 0.000000 -0.005880 
#    y 0.000000 1.856900 0.000000 
#    z -0.005880 0.000000 1.894880 
# 
# From -- ./inp_files/28263.got.cif
#   From: 2010.05.17/outbox.cif.g08.bks.cpg/sg9_15_cif.got.tgz:28263.got - 2010.06.03 20:04:27.
