data_PCOD9136800
_publ_section_title
;
Structure prediction by ZEFSAII (Michael W. Deem and Ramdas Pophale) SiO2 
 PCOD9136800
Probable space group: C C
;
_chemical_formula_sum "Si O2"
_cell_formula_units_Z 32
_cell_length_a 11.510504
_cell_length_b 14.402751
_cell_length_c 13.572910
_cell_angle_alpha 90.000000
_cell_angle_beta 142.775379
_cell_angle_gamma 90.000000
_cell_volume 1361.212810
_symmetry_space_group_name_H-M "C C"
_symmetry_group_IT_number 9
_symmetry_cell_setting 'monoclinic'
loop_
_space_group_symop_operation_xyz
x,y,z
x,-y,1/2+z
1/2+x,1/2+y,z
1/2+x,1/2-y,1/2+z
loop_
_atom_site_type_symbol
_atom_site_label
_atom_site_fract_x
_atom_site_fract_y
_atom_site_fract_z
Si Si1 0.579640 0.358620 0.747320
Si Si2 0.086402 0.765146 0.204043
Si Si3 0.544569 0.581548 0.533841
Si Si4 0.194261 0.470654 0.252507
Si Si5 0.755615 0.513267 0.003334
Si Si6 0.279739 0.364315 0.695773
Si Si7 0.893624 0.213466 0.931531
Si Si8 0.193152 0.233825 0.974427
O O1 0.644435 0.455685 0.841924
O O2 0.371518 0.337025 0.655463
O O3 0.756211 0.289259 0.888875
O O4 0.536166 0.339900 0.603172
O O5 0.128116 0.862887 0.181384
O O6 0.108344 0.691889 0.130166
O O7 0.221394 0.728414 0.382201
O O8 0.900463 0.769146 0.149874
O O9 0.355944 0.520298 0.430561
O O10 0.691725 0.522510 0.568256
O O11 0.459451 0.650199 0.392044
O O12 0.229715 0.526818 0.174401
O O13 0.251968 0.364022 0.289684
O O14 0.980430 0.492285 0.141704
O O15 0.706990 0.622209 0.971181
O O16 0.027100 0.258179 0.937627
#
# Coordination Sequence:
#
# PCOD9136800 Si02
#       8
#     4   4   4   4   4   4   4   4
#     4  11  26  42  68  99 135 176 230 269 345 401
#     4  12  23  40  72  99 126 178 227 273 339 395
#     4   9  21  42  64  97 136 164 222 272 332 393
#     4  10  21  44  65  94 140 173 215 277 335 392
#     4  11  23  44  69  98 140 177 214 284 336 405
#     4   9  21  42  64 100 130 168 217 283 324 400
#     4  12  25  44  67  97 138 180 223 284 335 398
#     4  12  24  44  69  94 139 174 226 280 332 402
#
# _framework density 23.508448000000001
#
# number of rings (size 3 to 8) (size 9 to 14) (size 15 to 20)
#    0.750    0.500    3.750    1.500    7.000    0.000 
#    0.000    1.250    0.000    0.000    0.000    0.000 
#    0.000    0.000    0.000    0.000    0.000    0.000 
#
# Total GULP energy -89100.932329 kJ/mol
# GULP energy per Si atom -5568.808271 kJ/mol
# Density = 2.345494 g / cm^3
# Si number density = 23.508448 Si / 1000 Ang^3
#
#
#
# Elastic Constant Matrix: (Units=GPa)
#
#
# Indices 1 2 3 4 5 6 
#
# 1 125.2757 20.1078 14.8682 0.0000 20.5118 0.0000
# 2 20.1078 69.2185 -6.9836 -0.0001 2.9675 0.0000
# 3 14.8682 -6.9836 24.9227 -0.0002 2.0577 0.0000
# 4 0.0000 -0.0001 -0.0002 25.6993 -0.0001 3.7453
# 5 20.5118 2.9675 2.0577 -0.0001 42.9090 0.0000
# 6 0.0000 0.0000 0.0000 3.7453 0.0000 36.1071
#
#
#
# Elastic Compliance Matrix: (Units=1/GPa)
#
#
# Indices 1 2 3 4 5 6 
#
# 1 0.009997 -0.003385 -0.006563 0.000000 -0.004230 0.000000
# 2 -0.003385 0.016079 0.006509 0.000000 0.000194 0.000000
# 3 -0.006563 0.006509 0.045823 0.000000 0.000490 0.000000
# 4 0.000000 0.000000 0.000000 0.039509 0.000000 -0.004098
# 5 -0.004230 0.000194 0.000490 0.000000 0.025290 0.000000
# 6 0.000000 0.000000 0.000000 -0.004098 0.000000 0.028120
#
#
# Mechanical properties :
#
#
# Convention : Reuss Voigt Hill
#
# Bulk Modulus (GPa) = 15.37993 30.60019 22.99006
# Shear Modulus (GPa) = 25.85703 33.70472 29.78088
#
# Velocity S-wave (km/s) = 3.32008 3.79057 3.56310
# Velocity P-wave (km/s) = 4.61018 5.67475 5.16994
#
# Compressibility (1/GPa) = 0.06501978
#
# Stress axis : x y z
#
# Youngs Moduli (GPa) = 100.02705 62.19406 21.82312
#
# Poissons Ratio (x) = 0.21053 0.14323
# Poissons Ratio (y) = 0.33859 -0.14204
# Poissons Ratio (z) = 0.65651 -0.40481
#
# Static dielectric constant tensor:
#      x y z
#    x 1.832290 0.000000 -0.021980 
#    y 0.000000 1.905170 0.000000 
#    z -0.021980 0.000000 1.982870 
# 
# From -- ./inp_files/24834.got.cif
#   From: 2010.05.17/outbox.cif.g08.bks.cpg/sg9_13_cif.got.tgz:24834.got - 2010.06.03 20:04:27.
