data_PCOD9136451
_publ_section_title
;
Structure prediction by ZEFSAII (Michael W. Deem and Ramdas Pophale) SiO2 
 PCOD9136451
Probable space group: C C
;
_chemical_formula_sum "Si O2"
_cell_formula_units_Z 32
_cell_length_a 11.777893
_cell_length_b 7.504778
_cell_length_c 21.303192
_cell_angle_alpha 90.000000
_cell_angle_beta 45.512144
_cell_angle_gamma 90.000000
_cell_volume 1343.329734
_symmetry_space_group_name_H-M "C C"
_symmetry_group_IT_number 9
_symmetry_cell_setting 'monoclinic'
loop_
_space_group_symop_operation_xyz
x,y,z
x,-y,1/2+z
1/2+x,1/2+y,z
1/2+x,1/2-y,1/2+z
loop_
_atom_site_type_symbol
_atom_site_label
_atom_site_fract_x
_atom_site_fract_y
_atom_site_fract_z
Si Si1 0.708420 0.619603 0.164560
Si Si2 0.460878 0.785947 0.662125
Si Si3 0.272481 0.246077 0.807873
Si Si4 0.325810 0.178537 0.928758
Si Si5 0.443564 0.556888 0.919568
Si Si6 0.878284 0.907612 0.311523
Si Si7 0.053993 0.686520 0.610774
Si Si8 0.294068 0.868194 0.032698
O O1 0.804506 0.721154 0.180349
O O2 0.545081 0.521313 0.247519
O O3 0.668005 0.751849 0.123710
O O4 0.815133 0.465976 0.090946
O O5 0.406005 0.755865 0.754869
O O6 0.602572 0.645549 0.596414
O O7 0.537590 0.975702 0.617989
O O8 0.344413 0.170581 0.846221
O O9 0.249031 0.454005 0.834621
O O10 0.384388 0.250804 0.703173
O O11 0.123154 0.125499 0.849283
O O12 0.422730 0.345289 0.921534
O O13 0.142163 0.234826 0.016016
O O14 0.360043 0.997601 0.952838
O O15 0.349593 0.631441 0.894704
O O16 0.366332 0.671620 0.005018
#
# Coordination Sequence:
#
# PCOD9136451 Si02
#       8
#     4   4   4   4   4   4   4   4
#     4   9  21  40  63  92 129 168 224 277 328 396
#     4  11  21  40  70  95 128 180 221 275 343 395
#     4  10  23  42  67  96 134 179 222 280 341 395
#     4  10  23  44  65  94 142 167 227 285 322 409
#     4  11  22  42  63  95 131 177 214 277 345 390
#     4   9  22  41  57  96 133 161 231 281 316 413
#     4  10  21  41  65  96 133 174 222 278 329 400
#     4  10  23  40  62  96 130 168 225 275 326 408
#
# _framework density 23.821404999999999
#
# number of rings (size 3 to 8) (size 9 to 14) (size 15 to 20)
#    0.000    2.000    1.250    1.500    3.500    3.000 
#    6.750    2.500    0.000    0.000    0.000    0.000 
#    0.000    0.000    0.000    0.000    0.000    0.000 
#
# Total GULP energy -89314.751655 kJ/mol
# GULP energy per Si atom -5582.171978 kJ/mol
# Density = 2.376719 g / cm^3
# Si number density = 23.821405 Si / 1000 Ang^3
#
#
#
# Elastic Constant Matrix: (Units=GPa)
#
#
# Indices 1 2 3 4 5 6 
#
# 1 70.3686 21.3106 4.6834 0.0000 -6.9030 0.0000
# 2 21.3106 86.0087 1.4510 0.0000 1.0615 0.0000
# 3 4.6834 1.4510 52.9401 0.0000 2.4777 0.0000
# 4 0.0000 0.0000 0.0000 38.5854 0.0000 -1.0462
# 5 -6.9030 1.0615 2.4777 0.0000 27.9984 0.0000
# 6 0.0000 0.0000 0.0000 -1.0462 0.0000 29.9083
#
#
#
# Elastic Compliance Matrix: (Units=1/GPa)
#
#
# Indices 1 2 3 4 5 6 
#
# 1 0.015927 -0.003973 -0.001497 0.000000 0.004210 0.000000
# 2 -0.003973 0.012628 0.000074 0.000000 -0.001465 0.000000
# 3 -0.001497 0.000074 0.019116 0.000000 -0.002064 0.000000
# 4 0.000000 0.000000 0.000000 0.025941 0.000000 0.000907
# 5 0.004210 -0.001465 -0.002064 0.000000 0.036992 0.000000
# 6 0.000000 0.000000 0.000000 0.000907 0.000000 0.033467
#
#
# Mechanical properties :
#
#
# Convention : Reuss Voigt Hill
#
# Bulk Modulus (GPa) = 27.11594 29.35638 28.23616
# Shear Modulus (GPa) = 29.91204 31.42324 30.66764
#
# Velocity S-wave (km/s) = 3.54740 3.63591 3.59193
# Velocity P-wave (km/s) = 5.30909 5.47510 5.39273
#
# Compressibility (1/GPa) = 0.03687868
#
# Stress axis : x y z
#
# Youngs Moduli (GPa) = 62.78788 79.18955 52.31151
#
# Poissons Ratio (x) = 0.31461 0.07832
# Poissons Ratio (y) = 0.24945 -0.00387
# Poissons Ratio (z) = 0.09400 -0.00585
#
# Static dielectric constant tensor:
#      x y z
#    x 1.905020 0.000000 -0.042820 
#    y 0.000000 1.929040 0.000000 
#    z -0.042820 0.000000 1.993770 
# 
# From -- ./inp_files/29817.got.cif
#   From: 2010.05.17/outbox.cif.g08.bks.cpg/sg9_15_cif.got.tgz:29817.got - 2010.06.03 20:04:27.
