data_PCOD9136275
_publ_section_title
;
Structure prediction by ZEFSAII (Michael W. Deem and Ramdas Pophale) SiO2 
 PCOD9136275
Probable space group: C C
;
_chemical_formula_sum "Si O2"
_cell_formula_units_Z 24
_cell_length_a 4.868249
_cell_length_b 14.820817
_cell_length_c 12.739705
_cell_angle_alpha 90.000000
_cell_angle_beta 95.717158
_cell_angle_gamma 90.000000
_cell_volume 914.615662
_symmetry_space_group_name_H-M "C C"
_symmetry_group_IT_number 9
_symmetry_cell_setting 'monoclinic'
loop_
_space_group_symop_operation_xyz
x,y,z
x,-y,1/2+z
1/2+x,1/2+y,z
1/2+x,1/2-y,1/2+z
loop_
_atom_site_type_symbol
_atom_site_label
_atom_site_fract_x
_atom_site_fract_y
_atom_site_fract_z
Si Si1 0.407920 0.197123 0.215700
Si Si2 0.860301 0.166522 0.091545
Si Si3 0.154821 0.229341 0.417879
Si Si4 0.987476 0.972192 0.189004
Si Si5 0.994100 0.589870 0.567393
Si Si6 0.226595 0.433464 0.862212
O O1 0.696468 0.222378 0.175600
O O2 0.285956 0.247939 0.310238
O O3 0.480906 0.100740 0.275946
O O4 0.182406 0.189735 0.116069
O O5 0.872785 0.063604 0.130903
O O6 0.671635 0.177915 0.981992
O O7 0.359629 0.175189 0.504211
O O8 0.902762 0.159051 0.394045
O O9 0.928286 0.997073 0.309012
O O10 0.773069 0.895540 0.143289
O O11 0.272058 0.949267 0.140981
O O12 0.089481 0.536210 0.465536
#
# Coordination Sequence:
#
# PCOD9136275 Si02
#       6
#     4   4   4   4   4   4
#     4  10  21  40  63  96 125 177 214 268 324 405
#     4  11  24  39  70  96 131 172 228 267 333 393
#     4  11  23  44  69  95 132 179 223 269 332 404
#     4  11  22  42  66  94 130 175 217 277 325 400
#     4  11  24  40  66  98 129 176 222 267 335 395
#     4  10  22  43  70  95 135 185 222 264 349 405
#
# _framework density 26.240532000000002
#
# number of rings (size 3 to 8) (size 9 to 14) (size 15 to 20)
#    0.000    1.333    5.000    2.000    7.000    0.000 
#    0.000    5.000    0.000    0.000    0.000    0.000 
#    0.000    0.000    0.000    0.000    0.000    0.000 
#
# Total GULP energy -66897.334931 kJ/mol
# GULP energy per Si atom -5574.777911 kJ/mol
# Density = 2.618081 g / cm^3
# Si number density = 26.240532 Si / 1000 Ang^3
#
#
#
# Elastic Constant Matrix: (Units=GPa)
#
#
# Indices 1 2 3 4 5 6 
#
# 1 151.8065 10.9378 56.2778 0.0000 -20.0783 0.0000
# 2 10.9378 61.9414 19.0761 0.0000 3.5065 0.0000
# 3 56.2778 19.0761 99.6063 0.0000 -27.4414 0.0000
# 4 0.0000 0.0000 0.0000 59.4071 0.0000 17.0199
# 5 -20.0783 3.5065 -27.4414 0.0000 59.5005 0.0000
# 6 0.0000 0.0000 0.0000 17.0199 0.0000 26.3056
#
#
#
# Elastic Compliance Matrix: (Units=1/GPa)
#
#
# Indices 1 2 3 4 5 6 
#
# 1 0.008362 -0.000137 -0.004489 0.000000 0.000759 0.000000
# 2 -0.000137 0.017605 -0.004116 0.000000 -0.002982 0.000000
# 3 -0.004489 -0.004116 0.014908 0.000000 0.005603 0.000000
# 4 0.000000 0.000000 0.000000 0.020663 0.000000 -0.013369
# 5 0.000759 -0.002982 0.005603 0.000000 0.019823 0.000000
# 6 0.000000 0.000000 0.000000 -0.013369 0.000000 0.046665
#
#
# Mechanical properties :
#
#
# Convention : Reuss Voigt Hill
#
# Bulk Modulus (GPa) = 42.75161 53.99305 48.37233
# Shear Modulus (GPa) = 32.61467 44.18014 38.39740
#
# Velocity S-wave (km/s) = 3.52932 4.10769 3.82944
# Velocity P-wave (km/s) = 5.73896 6.56646 6.16661
#
# Compressibility (1/GPa) = 0.02339093
#
# Stress axis : x y z
#
# Youngs Moduli (GPa) = 119.59140 56.80270 67.07961
#
# Poissons Ratio (x) = 0.00779 0.30112
# Poissons Ratio (y) = 0.01639 0.27607
# Poissons Ratio (z) = 0.53684 0.23378
#
# Static dielectric constant tensor:
#      x y z
#    x 2.054620 0.000000 -0.013320 
#    y 0.000000 2.346770 0.000000 
#    z -0.013320 0.000000 2.139910 
# 
# From -- ./inp_files/13193.got.cif
#   From: 2010.05.17/outbox.cif.g08.bks.cpg/sg9_7_cif.got.tgz:13193.got - 2010.06.03 20:04:27.
