data_PCOD9136577
_publ_section_title
;
Structure prediction by ZEFSAII (Michael W. Deem and Ramdas Pophale) SiO2 
 PCOD9136577
Probable space group: C C
;
_chemical_formula_sum "Si O2"
_cell_formula_units_Z 32
_cell_length_a 16.218663
_cell_length_b 7.867908
_cell_length_c 11.839139
_cell_angle_alpha 90.000000
_cell_angle_beta 123.400394
_cell_angle_gamma 90.000000
_cell_volume 1261.246033
_symmetry_space_group_name_H-M "C C"
_symmetry_group_IT_number 9
_symmetry_cell_setting 'monoclinic'
loop_
_space_group_symop_operation_xyz
x,y,z
x,-y,1/2+z
1/2+x,1/2+y,z
1/2+x,1/2-y,1/2+z
loop_
_atom_site_type_symbol
_atom_site_label
_atom_site_fract_x
_atom_site_fract_y
_atom_site_fract_z
Si Si1 0.131870 0.672103 0.968820
Si Si2 0.549949 0.045889 0.615917
Si Si3 0.822319 0.014334 0.013161
Si Si4 0.760499 0.616249 0.704384
Si Si5 0.867978 0.319652 0.884518
Si Si6 0.053059 0.157987 0.964464
Si Si7 0.174366 0.279658 0.846831
Si Si8 0.952188 0.153240 0.297488
O O1 0.041610 0.728583 0.822521
O O2 0.076823 0.576133 0.029273
O O3 0.222293 0.550677 0.007503
O O4 0.196426 0.840366 0.046471
O O5 0.430624 0.069942 0.524556
O O6 0.585118 0.236424 0.601399
O O7 0.606820 0.941059 0.755631
O O8 0.913050 0.040114 0.164382
O O9 0.828130 0.153824 0.918321
O O10 0.790377 0.831961 0.946102
O O11 0.793014 0.428453 0.757103
O O12 0.683814 0.660934 0.745715
O O13 0.859109 0.734325 0.767826
O O14 0.953420 0.264650 0.862967
O O15 0.128405 0.191196 0.920645
O O16 0.004800 0.969090 0.929850
#
# Coordination Sequence:
#
# PCOD9136577 Si02
#       8
#     4   4   4   4   4   4   4   4
#     4  10  21  42  65  92 132 173 217 283 335 394
#     4   9  21  42  68  89 127 179 221 270 339 398
#     4  11  24  39  67  99 134 176 222 281 330 404
#     4  10  23  42  68  95 131 172 224 287 331 406
#     4  10  22  42  63  98 124 180 222 270 344 393
#     4  10  23  43  67  95 134 186 214 279 341 401
#     4  11  23  42  66 100 133 175 226 279 340 398
#     4  11  23  44  66  98 139 173 228 277 348 400
#
# _framework density 25.371732999999999
#
# number of rings (size 3 to 8) (size 9 to 14) (size 15 to 20)
#    0.750    1.000    2.500    0.750    3.500    3.000 
#    6.750    0.000    0.000    0.000    0.000    0.000 
#    0.000    0.000    0.000    0.000    0.000    0.000 
#
# Total GULP energy -89153.905875 kJ/mol
# GULP energy per Si atom -5572.119117 kJ/mol
# Density = 2.531399 g / cm^3
# Si number density = 25.371733 Si / 1000 Ang^3
#
#
#
# Elastic Constant Matrix: (Units=GPa)
#
#
# Indices 1 2 3 4 5 6 
#
# 1 72.8932 22.7638 -2.3031 0.0000 16.9889 0.0000
# 2 22.7638 76.6677 12.0158 0.0000 13.8614 0.0000
# 3 -2.3031 12.0158 54.3728 0.0000 20.5669 0.0000
# 4 0.0000 0.0000 0.0000 34.4072 0.0000 8.3701
# 5 16.9889 13.8614 20.5669 0.0000 31.9425 0.0000
# 6 0.0000 0.0000 0.0000 8.3701 0.0000 45.4758
#
#
#
# Elastic Compliance Matrix: (Units=1/GPa)
#
#
# Indices 1 2 3 4 5 6 
#
# 1 0.017927 -0.004172 0.006085 0.000000 -0.011643 0.000000
# 2 -0.004172 0.015171 -0.002483 0.000000 -0.002766 0.000000
# 3 0.006085 -0.002483 0.026459 0.000000 -0.019195 0.000000
# 4 0.000000 0.000000 0.000000 0.030426 0.000000 -0.005600
# 5 -0.011643 -0.002766 -0.019195 0.000000 0.051058 0.000000
# 6 0.000000 0.000000 0.000000 -0.005600 0.000000 0.023020
#
#
# Mechanical properties :
#
#
# Convention : Reuss Voigt Hill
#
# Bulk Modulus (GPa) = 17.11806 29.87630 23.49718
# Shear Modulus (GPa) = 27.07488 33.79559 30.43523
#
# Velocity S-wave (km/s) = 3.27024 3.65364 3.46724
# Velocity P-wave (km/s) = 4.58484 5.44057 5.03093
#
# Compressibility (1/GPa) = 0.05841785
#
# Stress axis : x y z
#
# Youngs Moduli (GPa) = 55.78122 65.91454 37.79477
#
# Poissons Ratio (x) = 0.27497 -0.22999
# Poissons Ratio (y) = 0.23270 0.09385
# Poissons Ratio (z) = -0.33944 0.16367
#
# Static dielectric constant tensor:
#      x y z
#    x 1.973430 0.000000 -0.048760 
#    y 0.000000 2.228570 0.000000 
#    z -0.048760 0.000000 2.081840 
# 
# From -- ./inp_files/26688.got.cif
#   From: 2010.05.17/outbox.cif.g08.bks.cpg/sg9_14_cif.got.tgz:26688.got - 2010.06.03 20:04:27.
