data_PCOD9136965
_publ_section_title
;
Structure prediction by ZEFSAII (Michael W. Deem and Ramdas Pophale) SiO2 
 PCOD9136965
Probable space group: C C
;
_chemical_formula_sum "Si O2"
_cell_formula_units_Z 24
_cell_length_a 12.032934
_cell_length_b 7.390343
_cell_length_c 10.108981
_cell_angle_alpha 90.000000
_cell_angle_beta 102.261580
_cell_angle_gamma 90.000000
_cell_volume 878.459463
_symmetry_space_group_name_H-M "C C"
_symmetry_group_IT_number 9
_symmetry_cell_setting 'monoclinic'
loop_
_space_group_symop_operation_xyz
x,y,z
x,-y,1/2+z
1/2+x,1/2+y,z
1/2+x,1/2-y,1/2+z
loop_
_atom_site_type_symbol
_atom_site_label
_atom_site_fract_x
_atom_site_fract_y
_atom_site_fract_z
Si Si1 0.807580 0.210648 0.761770
Si Si2 0.089173 0.238203 0.611045
Si Si3 0.866476 0.961409 0.995596
Si Si4 0.185085 0.179103 0.903285
Si Si5 0.826170 0.576678 0.603925
Si Si6 0.069482 0.335652 0.131003
O O1 0.834304 0.076773 0.642682
O O2 0.838175 0.407118 0.709197
O O3 0.671902 0.205340 0.756194
O O4 0.866176 0.144744 0.909933
O O5 0.096605 0.160782 0.762741
O O6 0.067836 0.450855 0.598514
O O7 0.988285 0.135548 0.512037
O O8 0.216587 0.197744 0.600443
O O9 0.764520 0.852437 0.897261
O O10 0.280334 0.028459 0.961029
O O11 0.113246 0.222775 0.016459
O O12 0.941663 0.690080 0.646289
#
# Coordination Sequence:
#
# PCOD9136965 Si02
#       6
#     4   4   4   4   4   4
#     4  10  22  48  71 105 150 195 242 309 379 428
#     4  12  23  45  74 108 142 194 249 309 361 453
#     4  10  22  44  75 102 151 193 243 311 370 437
#     4  10  24  47  65 103 151 185 248 304 375 436
#     4  10  24  45  71 109 138 192 245 306 367 443
#     4  10  21  47  72  95 144 193 237 309 360 443
#
# _framework density 27.320554999999999
#
# number of rings (size 3 to 8) (size 9 to 14) (size 15 to 20)
#    0.000    2.000    5.000    0.000    2.333    1.333 
#   18.000    0.000    0.000    0.000    0.000    0.000 
#    0.000    0.000    0.000    0.000    0.000    0.000 
#
# Total GULP energy -67157.344336 kJ/mol
# GULP energy per Si atom -5596.445361 kJ/mol
# Density = 2.725837 g / cm^3
# Si number density = 27.320555 Si / 1000 Ang^3
#
#
#
# Elastic Constant Matrix: (Units=GPa)
#
#
# Indices 1 2 3 4 5 6 
#
# 1 196.1690 19.2817 29.7076 0.0000 32.7714 0.0000
# 2 19.2817 40.3905 14.6284 0.0000 6.4452 0.0000
# 3 29.7076 14.6284 118.6282 0.0000 10.6026 0.0000
# 4 0.0000 0.0000 0.0000 44.7698 0.0000 7.8118
# 5 32.7714 6.4452 10.6026 0.0000 40.1915 0.0000
# 6 0.0000 0.0000 0.0000 7.8118 0.0000 49.2457
#
#
#
# Elastic Compliance Matrix: (Units=1/GPa)
#
#
# Indices 1 2 3 4 5 6 
#
# 1 0.006172 -0.001901 -0.000910 0.000000 -0.004488 0.000000
# 2 -0.001901 0.026961 -0.002664 0.000000 -0.002071 0.000000
# 3 -0.000910 -0.002664 0.009096 0.000000 -0.001230 0.000000
# 4 0.000000 0.000000 0.000000 0.022972 0.000000 -0.003644
# 5 -0.004488 -0.002071 -0.001230 0.000000 0.029197 0.000000
# 6 0.000000 0.000000 0.000000 -0.003644 0.000000 0.020884
#
#
# Mechanical properties :
#
#
# Convention : Reuss Voigt Hill
#
# Bulk Modulus (GPa) = 31.96921 53.60257 42.78589
# Shear Modulus (GPa) = 36.58778 46.27940 41.43359
#
# Velocity S-wave (km/s) = 3.66348 4.12022 3.89854
# Velocity P-wave (km/s) = 5.44259 6.50364 5.99663
#
# Compressibility (1/GPa) = 0.03128010
#
# Stress axis : x y z
#
# Youngs Moduli (GPa) = 162.02238 37.09089 109.93803
#
# Poissons Ratio (x) = 0.07050 0.10006
# Poissons Ratio (y) = 0.30795 0.29282
# Poissons Ratio (z) = 0.14747 0.09879
#
# Static dielectric constant tensor:
#      x y z
#    x 2.149010 0.000000 -0.091750 
#    y 0.000000 2.178000 0.000000 
#    z -0.091750 0.000000 2.133830 
# 
# From -- ./inp_files/15872.got.cif
#   From: 2010.05.17/outbox.cif.g08.bks.cpg/sg9_8_cif.got.tgz:15872.got - 2010.06.03 20:04:27.
