data_PCOD9136825
_publ_section_title
;
Structure prediction by ZEFSAII (Michael W. Deem and Ramdas Pophale) SiO2 
 PCOD9136825
Probable space group: C C
;
_chemical_formula_sum "Si O2"
_cell_formula_units_Z 32
_cell_length_a 20.820210
_cell_length_b 5.746599
_cell_length_c 11.900505
_cell_angle_alpha 90.000000
_cell_angle_beta 69.134385
_cell_angle_gamma 90.000000
_cell_volume 1330.462902
_symmetry_space_group_name_H-M "C C"
_symmetry_group_IT_number 9
_symmetry_cell_setting 'monoclinic'
loop_
_space_group_symop_operation_xyz
x,y,z
x,-y,1/2+z
1/2+x,1/2+y,z
1/2+x,1/2-y,1/2+z
loop_
_atom_site_type_symbol
_atom_site_label
_atom_site_fract_x
_atom_site_fract_y
_atom_site_fract_z
Si Si1 0.178070 0.267239 0.893840
Si Si2 0.822283 0.555261 0.822249
Si Si3 0.114884 0.138021 0.580641
Si Si4 0.554742 0.959057 0.425796
Si Si5 0.505792 0.423903 0.781493
Si Si6 0.252507 0.342597 0.493777
Si Si7 0.440905 0.737695 0.101912
Si Si8 0.874886 0.909201 0.984124
O O1 0.249233 0.143152 0.816294
O O2 0.125203 0.408536 0.849104
O O3 0.210567 0.456994 0.957700
O O4 0.130240 0.081129 0.988696
O O5 0.801229 0.298983 0.877192
O O6 0.879070 0.605907 0.691690
O O7 0.849645 0.687877 0.921549
O O8 0.077361 0.330005 0.527043
O O9 0.191931 0.184145 0.576417
O O10 0.065426 0.098546 0.715429
O O11 0.531935 0.761258 0.354463
O O12 0.488156 0.121941 0.484846
O O13 0.491453 0.300432 0.673360
O O14 0.431869 0.517401 0.864818
O O15 0.304232 0.456247 0.547474
O O16 0.414868 0.482789 0.074530
#
# Coordination Sequence:
#
# PCOD9136825 Si02
#       8
#     4   4   4   4   4   4   4   4
#     4   9  19  45  67  95 137 163 227 279 329 405
#     4   9  21  43  69  95 132 175 223 274 339 397
#     4  10  21  44  68  97 132 172 222 278 338 396
#     4  11  24  41  68  98 137 173 226 280 329 410
#     4  11  24  42  68  97 130 182 216 277 340 395
#     4   9  20  42  70  95 130 177 216 282 324 408
#     4  11  24  43  65  99 134 181 224 277 339 398
#     4  10  23  42  63  96 136 169 226 277 322 407
#
# _framework density 24.051780000000001
#
# number of rings (size 3 to 8) (size 9 to 14) (size 15 to 20)
#    0.000    2.000    1.250    0.750    5.250    0.000 
#   15.750    0.000    0.000    0.000    0.000    0.000 
#    0.000    0.000    0.000    0.000    0.000    0.000 
#
# Total GULP energy -89122.304491 kJ/mol
# GULP energy per Si atom -5570.144031 kJ/mol
# Density = 2.399704 g / cm^3
# Si number density = 24.051780 Si / 1000 Ang^3
#
#
#
# Elastic Constant Matrix: (Units=GPa)
#
#
# Indices 1 2 3 4 5 6 
#
# 1 147.7999 33.2767 27.4856 0.0000 -11.7833 0.0000
# 2 33.2767 49.8926 -1.1117 0.0000 8.4089 0.0000
# 3 27.4856 -1.1117 32.2835 0.0000 2.0983 0.0000
# 4 0.0000 0.0000 0.0000 23.5045 0.0000 -2.0315
# 5 -11.7833 8.4089 2.0983 0.0000 37.9375 0.0000
# 6 0.0000 0.0000 0.0000 -2.0315 0.0000 33.2111
#
#
#
# Elastic Compliance Matrix: (Units=1/GPa)
#
#
# Indices 1 2 3 4 5 6 
#
# 1 0.011042 -0.008582 -0.010079 0.000000 0.005889 0.000000
# 2 -0.008582 0.027524 0.008856 0.000000 -0.009256 0.000000
# 3 -0.010079 0.008856 0.040338 0.000000 -0.007325 0.000000
# 4 0.000000 0.000000 0.000000 0.042771 0.000000 0.002616
# 5 0.005889 -0.009256 -0.007325 0.000000 0.030645 0.000000
# 6 0.000000 0.000000 0.000000 0.002616 0.000000 0.030270
#
#
# Mechanical properties :
#
#
# Convention : Reuss Voigt Hill
#
# Bulk Modulus (GPa) = 16.86522 38.80858 27.83690
# Shear Modulus (GPa) = 22.52600 30.28564 26.40582
#
# Velocity S-wave (km/s) = 3.06365 3.55235 3.31701
# Velocity P-wave (km/s) = 4.42062 5.74422 5.12533
#
# Compressibility (1/GPa) = 0.05929364
#
# Stress axis : x y z
#
# Youngs Moduli (GPa) = 90.56349 36.33169 24.79058
#
# Poissons Ratio (x) = 0.31179 0.24987
# Poissons Ratio (y) = 0.77720 -0.21954
# Poissons Ratio (z) = 0.91281 -0.32175
#
# Static dielectric constant tensor:
#      x y z
#    x 1.938590 0.000000 0.005230 
#    y 0.000000 2.060870 0.000000 
#    z 0.005230 0.000000 1.945090 
# 
# From -- ./inp_files/19808.got.cif
#   From: 2010.05.17/outbox.cif.g08.bks.cpg/sg9_10_cif.got.tgz:19808.got - 2010.06.03 20:04:27.
