data_PCOD9136290
_publ_section_title
;
Structure prediction by ZEFSAII (Michael W. Deem and Ramdas Pophale) SiO2 
 PCOD9136290
Probable space group: C C
;
_chemical_formula_sum "Si O2"
_cell_formula_units_Z 32
_cell_length_a 16.058667
_cell_length_b 9.239871
_cell_length_c 26.193996
_cell_angle_alpha 90.000000
_cell_angle_beta 24.040882
_cell_angle_gamma 90.000000
_cell_volume 1583.382322
_symmetry_space_group_name_H-M "C C"
_symmetry_group_IT_number 9
_symmetry_cell_setting 'monoclinic'
loop_
_space_group_symop_operation_xyz
x,y,z
x,-y,1/2+z
1/2+x,1/2+y,z
1/2+x,1/2-y,1/2+z
loop_
_atom_site_type_symbol
_atom_site_label
_atom_site_fract_x
_atom_site_fract_y
_atom_site_fract_z
Si Si1 0.426540 0.300235 0.245170
Si Si2 0.190668 0.343111 0.780197
Si Si3 0.342683 0.655611 0.575591
Si Si4 0.245914 0.806436 0.146308
Si Si5 0.404046 0.006966 0.812327
Si Si6 0.089230 0.103644 0.911221
Si Si7 0.494994 0.046256 0.973163
Si Si8 0.032874 0.920578 0.078634
O O1 0.577996 0.368968 0.201916
O O2 0.425334 0.133662 0.263891
O O3 0.505396 0.321745 0.143575
O O4 0.208766 0.379556 0.369099
O O5 0.149511 0.284081 0.746432
O O6 0.401487 0.432994 0.660566
O O7 0.197349 0.192032 0.806580
O O8 0.041303 0.450708 0.896143
O O9 0.502016 0.557884 0.453459
O O10 0.345816 0.816825 0.551813
O O11 0.435151 0.647801 0.581561
O O12 0.118013 0.585091 0.702104
O O13 0.402333 0.938405 0.067584
O O14 0.385027 0.690505 0.039216
O O15 0.244641 0.107818 0.871281
O O16 0.268753 0.956709 0.936156
#
# Coordination Sequence:
#
# PCOD9136290 Si02
#       8
#     4   4   4   4   4   4   4   4
#     4  11  22  40  67 101 128 186 220 279 343 402
#     4  10  21  43  68  92 137 183 212 285 343 397
#     4  11  21  44  65 102 135 176 220 290 334 395
#     4  11  22  43  66  97 134 180 223 275 344 409
#     4  11  21  41  72  93 140 176 225 274 348 405
#     4  10  21  40  64  95 131 173 230 277 329 407
#     4  10  24  41  67 101 142 163 235 289 326 408
#     4  10  22  40  67  97 131 177 225 275 339 399
#
# _framework density 20.209902
#
# number of rings (size 3 to 8) (size 9 to 14) (size 15 to 20)
#    0.000    1.500    6.250    0.000    0.000    9.000 
#    0.000    0.000    0.000    0.000    0.000    0.000 
#    0.000    0.000    0.000    0.000    0.000    0.000 
#
# Total GULP energy -89157.362519 kJ/mol
# GULP energy per Si atom -5572.335157 kJ/mol
# Density = 2.016390 g / cm^3
# Si number density = 20.209902 Si / 1000 Ang^3
#
#
#
# Elastic Constant Matrix: (Units=GPa)
#
#
# Indices 1 2 3 4 5 6 
#
# 1 79.6478 31.5418 52.6896 -0.0004 6.0049 0.0002
# 2 31.5418 112.2466 51.7053 -0.0010 13.1921 0.0000
# 3 52.6896 51.7053 124.1575 -0.0127 -0.7655 0.0003
# 4 -0.0004 -0.0010 -0.0127 27.4548 -0.0020 2.4958
# 5 6.0049 13.1921 -0.7655 -0.0020 31.8355 -0.0010
# 6 0.0002 0.0000 0.0003 2.4958 -0.0010 27.8579
#
#
#
# Elastic Compliance Matrix: (Units=1/GPa)
#
#
# Indices 1 2 3 4 5 6 
#
# 1 0.018029 -0.001467 -0.007059 -0.000003 -0.002963 0.000000
# 2 -0.001467 0.011887 -0.004357 -0.000002 -0.004754 0.000000
# 3 -0.007059 -0.004357 0.012886 0.000006 0.003447 -0.000001
# 4 -0.000003 -0.000002 0.000006 0.036723 0.000004 -0.003290
# 5 -0.002963 -0.004754 0.003447 0.000004 0.034023 0.000001
# 6 0.000000 0.000000 -0.000001 -0.003290 0.000001 0.036191
#
#
# Mechanical properties :
#
#
# Convention : Reuss Voigt Hill
#
# Bulk Modulus (GPa) = 58.69686 65.32505 62.01095
# Shear Modulus (GPa) = 27.59658 29.43732 28.51695
#
# Velocity S-wave (km/s) = 3.69927 3.82066 3.76045
# Velocity P-wave (km/s) = 6.88134 7.20116 7.04306
#
# Compressibility (1/GPa) = 0.01703669
#
# Stress axis : x y z
#
# Youngs Moduli (GPa) = 55.46654 84.12632 77.60605
#
# Poissons Ratio (x) = 0.12337 0.54779
# Poissons Ratio (y) = 0.08134 0.33815
# Poissons Ratio (z) = 0.39151 0.36656
#
# Static dielectric constant tensor:
#      x y z
#    x 1.757620 0.000000 -0.003690 
#    y 0.000000 1.765120 0.000000 
#    z -0.003690 0.000000 1.773200 
# 
# From -- ./inp_files/26667.got.cif
#   From: 2010.05.17/outbox.cif.g08.bks.cpg/sg9_14_cif.got.tgz:26667.got - 2010.06.03 20:04:27.
