data_PCOD9136872
_publ_section_title
;
Structure prediction by ZEFSAII (Michael W. Deem and Ramdas Pophale) SiO2 
 PCOD9136872
Probable space group: C C
;
_chemical_formula_sum "Si O2"
_cell_formula_units_Z 28
_cell_length_a 18.637918
_cell_length_b 5.010063
_cell_length_c 15.892373
_cell_angle_alpha 90.000000
_cell_angle_beta 136.126768
_cell_angle_gamma 90.000000
_cell_volume 1028.497819
_symmetry_space_group_name_H-M "C C"
_symmetry_group_IT_number 9
_symmetry_cell_setting 'monoclinic'
loop_
_space_group_symop_operation_xyz
x,y,z
x,-y,1/2+z
1/2+x,1/2+y,z
1/2+x,1/2-y,1/2+z
loop_
_atom_site_type_symbol
_atom_site_label
_atom_site_fract_x
_atom_site_fract_y
_atom_site_fract_z
Si Si1 0.000000 0.942742 0.199290
Si Si2 0.306580 0.400080 0.926113
Si Si3 0.008094 0.310167 0.941461
Si Si4 0.197515 0.897252 0.767408
Si Si5 0.653553 0.770409 0.582360
Si Si6 0.623018 0.034640 0.394068
Si Si7 0.896734 0.828647 0.781203
O O1 0.104895 0.090204 0.257802
O O2 0.037573 0.641870 0.255236
O O3 0.940385 0.078396 0.227193
O O4 0.921217 0.942448 0.055377
O O5 0.284091 0.111704 0.869208
O O6 0.233067 0.426555 0.945937
O O7 0.255087 0.619340 0.822429
O O8 0.947305 0.032415 0.892425
O O9 0.097534 0.259653 0.947536
O O10 0.927390 0.524089 0.830588
O O11 0.073519 0.511314 0.056875
O O12 0.153191 0.013831 0.642797
O O13 0.621649 0.781259 0.455975
O O14 0.773529 0.851099 0.677639
#
# Coordination Sequence:
#
# PCOD9136872 Si02
#       7
#     4   4   4   4   4   4   4
#     4  10  21  44  75 104 144 194 251 311 370 452
#     4  11  23  45  69 105 144 198 241 300 374 462
#     4   9  22  37  64  98 137 178 243 294 366 424
#     4  11  27  43  69 106 151 188 242 303 389 439
#     4  10  23  46  67 108 151 187 241 318 367 444
#     4   8  19  43  69 106 139 189 256 306 362 441
#     4  11  21  40  69 103 134 188 242 302 366 438
#
# _framework density 27.224173
#
# number of rings (size 3 to 8) (size 9 to 14) (size 15 to 20)
#    0.857    1.143    1.429    0.857    0.000    9.143 
#    0.000    0.000    0.000    0.000    0.000    0.000 
#    0.000    0.000    0.000    0.000    0.000    0.000 
#
# Total GULP energy -78167.448179 kJ/mol
# GULP energy per Si atom -5583.389156 kJ/mol
# Density = 2.716221 g / cm^3
# Si number density = 27.224173 Si / 1000 Ang^3
#
#
#
# Elastic Constant Matrix: (Units=GPa)
#
#
# Indices 1 2 3 4 5 6 
#
# 1 140.2427 20.3246 32.1254 0.0002 -10.7323 0.0001
# 2 20.3246 136.9646 26.5235 0.0003 1.6661 0.0011
# 3 32.1254 26.5235 140.7935 0.0001 -5.0441 0.0003
# 4 0.0002 0.0003 0.0001 30.9072 0.0000 -9.4909
# 5 -10.7323 1.6661 -5.0441 0.0000 47.4743 0.0002
# 6 0.0001 0.0011 0.0003 -9.4909 0.0002 24.6000
#
#
#
# Elastic Compliance Matrix: (Units=1/GPa)
#
#
# Indices 1 2 3 4 5 6 
#
# 1 0.007733 -0.000868 -0.001543 0.000000 0.001615 0.000000
# 2 -0.000868 0.007683 -0.001271 0.000000 -0.000601 0.000000
# 3 -0.001543 -0.001271 0.007713 0.000000 0.000515 0.000000
# 4 0.000000 0.000000 0.000000 0.036703 0.000000 0.014160
# 5 0.001615 -0.000601 0.000515 0.000000 0.021505 0.000000
# 6 0.000000 0.000000 0.000000 0.014160 0.000000 0.046114
#
#
# Mechanical properties :
#
#
# Convention : Reuss Voigt Hill
#
# Bulk Modulus (GPa) = 63.43286 63.99421 63.71354
# Shear Modulus (GPa) = 35.69623 43.19811 39.44717
#
# Velocity S-wave (km/s) = 3.62497 3.98773 3.81067
# Velocity P-wave (km/s) = 6.39307 6.69030 6.54337
#
# Compressibility (1/GPa) = 0.01576470
#
# Stress axis : x y z
#
# Youngs Moduli (GPa) = 129.30918 130.15017 129.65854
#
# Poissons Ratio (x) = 0.11302 0.20008
# Poissons Ratio (y) = 0.11229 0.16477
# Poissons Ratio (z) = 0.19954 0.16540
#
# Static dielectric constant tensor:
#      x y z
#    x 2.150380 0.000000 -0.042780 
#    y 0.000000 2.188810 0.000000 
#    z -0.042780 0.000000 2.163110 
# 
# From -- ./inp_files/31156.got.cif
#   From: 2010.05.17/outbox.cif.g08.bks.cpg/sg9_16_cif.got.tgz:31156.got - 2010.06.03 20:04:27.
