data_PCOD9136614
_publ_section_title
;
Structure prediction by ZEFSAII (Michael W. Deem and Ramdas Pophale) SiO2 
 PCOD9136614
Probable space group: C C
;
_chemical_formula_sum "Si O2"
_cell_formula_units_Z 32
_cell_length_a 24.238270
_cell_length_b 11.302760
_cell_length_c 13.126762
_cell_angle_alpha 90.000000
_cell_angle_beta 158.935383
_cell_angle_gamma 90.000000
_cell_volume 1292.548041
_symmetry_space_group_name_H-M "C C"
_symmetry_group_IT_number 9
_symmetry_cell_setting 'monoclinic'
loop_
_space_group_symop_operation_xyz
x,y,z
x,-y,1/2+z
1/2+x,1/2+y,z
1/2+x,1/2-y,1/2+z
loop_
_atom_site_type_symbol
_atom_site_label
_atom_site_fract_x
_atom_site_fract_y
_atom_site_fract_z
Si Si1 0.215150 0.356488 0.894080
Si Si2 0.461859 0.068558 0.805979
Si Si3 0.659290 0.866993 0.083741
Si Si4 0.480865 0.355927 0.186151
Si Si5 0.280402 0.882839 0.621781
Si Si6 0.272385 0.278343 0.481519
Si Si7 0.884058 0.968900 0.809795
Si Si8 0.490181 0.309218 0.578000
O O1 0.062220 0.375460 0.568817
O O2 0.357209 0.376550 0.061133
O O3 0.221681 0.224712 0.948809
O O4 0.234701 0.451767 0.018842
O O5 0.368171 0.173891 0.594798
O O6 0.347210 0.979484 0.663187
O O7 0.577158 0.992914 0.936780
O O8 0.655382 0.828323 0.195951
O O9 0.845604 0.866189 0.391007
O O10 0.557413 0.772600 0.844987
O O11 0.640242 0.429398 0.449731
O O12 0.400711 0.388559 0.940017
O O13 0.406785 0.813685 0.904857
O O14 0.386742 0.376443 0.722041
O O15 0.166672 0.229155 0.392758
O O16 0.003502 0.079017 0.021629
#
# Coordination Sequence:
#
# PCOD9136614 Si02
#       8
#     4   4   4   4   4   4   4   4
#     4  11  22  43  73 101 151 193 235 311 363 427
#     4  12  23  42  71  99 144 186 237 302 359 426
#     4  11  23  46  69 104 145 190 242 300 371 430
#     4  11  23  42  74 104 143 199 242 296 378 439
#     4  10  21  42  68 100 139 186 244 295 356 435
#     4  12  25  45  71 105 144 193 239 303 365 430
#     4  11  23  42  70 108 145 184 251 292 364 444
#     4  10  22  42  72  97 143 189 230 299 362 427
#
# _framework density 24.757299
#
# number of rings (size 3 to 8) (size 9 to 14) (size 15 to 20)
#    0.000    1.000    3.750    3.000    0.000    2.000 
#    0.000    7.500    2.750    0.000    0.000    0.000 
#    0.000    0.000    0.000    0.000    0.000    0.000 
#
# Total GULP energy -89171.064051 kJ/mol
# GULP energy per Si atom -5573.191503 kJ/mol
# Density = 2.470095 g / cm^3
# Si number density = 24.757299 Si / 1000 Ang^3
#
#
#
# Elastic Constant Matrix: (Units=GPa)
#
#
# Indices 1 2 3 4 5 6 
#
# 1 71.0265 16.6486 38.5685 0.0000 20.9922 0.0000
# 2 16.6486 106.6148 33.7369 0.0000 -0.4001 0.0000
# 3 38.5685 33.7369 81.6429 0.0000 6.4609 0.0000
# 4 0.0000 0.0000 0.0000 27.8472 0.0000 2.2260
# 5 20.9922 -0.4001 6.4609 0.0000 43.7413 0.0000
# 6 0.0000 0.0000 0.0000 2.2260 0.0000 15.0456
#
#
#
# Elastic Compliance Matrix: (Units=1/GPa)
#
#
# Indices 1 2 3 4 5 6 
#
# 1 0.022066 -0.000474 -0.009501 0.000000 -0.009191 0.000000
# 2 -0.000474 0.010826 -0.004326 0.000000 0.000965 0.000000
# 3 -0.009501 -0.004326 0.018382 0.000000 0.001805 0.000000
# 4 0.000000 0.000000 0.000000 0.036340 0.000000 -0.005376
# 5 -0.009191 0.000965 0.001805 0.000000 0.027015 0.000000
# 6 0.000000 0.000000 0.000000 -0.005376 0.000000 0.067260
#
#
# Mechanical properties :
#
#
# Convention : Reuss Voigt Hill
#
# Bulk Modulus (GPa) = 44.10771 48.57687 46.34229
# Shear Modulus (GPa) = 22.93079 28.68216 25.80647
#
# Velocity S-wave (km/s) = 3.04669 3.40742 3.23209
# Velocity P-wave (km/s) = 5.49829 5.92828 5.71733
#
# Compressibility (1/GPa) = 0.02267177
#
# Stress axis : x y z
#
# Youngs Moduli (GPa) = 45.31900 92.36901 54.40223
#
# Poissons Ratio (x) = 0.04376 0.51687
# Poissons Ratio (y) = 0.02147 0.23536
# Poissons Ratio (z) = 0.43057 0.39961
#
# Static dielectric constant tensor:
#      x y z
#    x 2.118680 0.000000 0.010680 
#    y 0.000000 1.997410 0.000000 
#    z 0.010680 0.000000 1.947820 
# 
# From -- ./inp_files/28113.got.cif
#   From: 2010.05.17/outbox.cif.g08.bks.cpg/sg9_15_cif.got.tgz:28113.got - 2010.06.03 20:04:27.
