data_PCOD9136244
_publ_section_title
;
Structure prediction by ZEFSAII (Michael W. Deem and Ramdas Pophale) SiO2 
 PCOD9136244
Probable space group: C C
;
_chemical_formula_sum "Si O2"
_cell_formula_units_Z 28
_cell_length_a 20.097401
_cell_length_b 5.506354
_cell_length_c 20.849190
_cell_angle_alpha 90.000000
_cell_angle_beta 29.153397
_cell_angle_gamma 90.000000
_cell_volume 1123.971918
_symmetry_space_group_name_H-M "C C"
_symmetry_group_IT_number 9
_symmetry_cell_setting 'monoclinic'
loop_
_space_group_symop_operation_xyz
x,y,z
x,-y,1/2+z
1/2+x,1/2+y,z
1/2+x,1/2-y,1/2+z
loop_
_atom_site_type_symbol
_atom_site_label
_atom_site_fract_x
_atom_site_fract_y
_atom_site_fract_z
Si Si1 0.811630 0.802049 0.176520
Si Si2 0.242034 0.198399 0.728273
Si Si3 0.790437 0.853727 0.965866
Si Si4 0.612272 0.209834 0.964597
Si Si5 0.742030 0.711866 0.877061
Si Si6 0.485568 0.350442 0.376464
Si Si7 0.209392 0.854540 0.078555
O O1 0.796932 0.549857 0.152545
O O2 0.686325 0.800103 0.332492
O O3 0.793128 0.051743 0.154446
O O4 0.955763 0.786213 0.090398
O O5 0.289481 0.210480 0.762805
O O6 0.078189 0.173721 0.861453
O O7 0.841836 0.790618 0.850663
O O8 0.696652 0.625194 0.062285
O O9 0.909073 0.902955 0.918432
O O10 0.710654 0.112006 0.033400
O O11 0.687461 0.439357 0.934147
O O12 0.632324 0.933771 0.971684
O O13 0.365677 0.158292 0.471295
O O14 0.597672 0.309745 0.226600
#
# Coordination Sequence:
#
# PCOD9136244 Si02
#       7
#     4   4   4   4   4   4   4
#     4  10  22  39  60  93 133 164 216 263 346 389
#     4  10  23  41  69 100 132 178 220 290 338 409
#     4  10  24  45  69 100 138 183 234 286 344 421
#     4  10  21  40  60  93 130 169 210 273 332 403
#     4  10  21  44  65 100 131 176 225 281 343 402
#     4  10  26  45  72 100 143 179 241 281 355 411
#     4  10  25  44  71  98 137 189 228 290 340 425
#
# _framework density 24.911655
#
# number of rings (size 3 to 8) (size 9 to 14) (size 15 to 20)
#    0.857    1.143    0.000    1.714    4.000    4.571 
#   18.000    0.000    0.000    0.000    0.000    0.000 
#    0.000    0.000    0.000    0.000    0.000    0.000 
#
# Total GULP energy -78056.007514 kJ/mol
# GULP energy per Si atom -5575.429108 kJ/mol
# Density = 2.485495 g / cm^3
# Si number density = 24.911655 Si / 1000 Ang^3
#
#
#
# Elastic Constant Matrix: (Units=GPa)
#
#
# Indices 1 2 3 4 5 6 
#
# 1 67.9300 31.4547 22.3437 -0.0135 15.2218 0.0035
# 2 31.4547 234.6762 21.8469 -0.0224 1.1321 0.0033
# 3 22.3437 21.8469 76.7279 0.0079 5.7040 0.0000
# 4 -0.0135 -0.0224 0.0079 21.1820 0.0076 -3.5243
# 5 15.2218 1.1321 5.7040 0.0076 21.4106 -0.0049
# 6 0.0035 0.0033 0.0000 -3.5243 -0.0049 37.3744
#
#
#
# Elastic Compliance Matrix: (Units=1/GPa)
#
#
# Indices 1 2 3 4 5 6 
#
# 1 0.020066 -0.002232 -0.004240 0.000016 -0.013019 -0.000002
# 2 -0.002232 0.004626 -0.000782 0.000003 0.001551 0.000000
# 3 -0.004240 -0.000782 0.014552 -0.000009 -0.000821 0.000000
# 4 0.000016 0.000003 -0.000009 0.047962 -0.000025 0.004523
# 5 -0.013019 0.001551 -0.000821 -0.000025 0.056098 0.000006
# 6 -0.000002 0.000000 0.000000 0.004523 0.000006 0.027183
#
#
# Mechanical properties :
#
#
# Convention : Reuss Voigt Hill
#
# Bulk Modulus (GPa) = 40.42920 58.95830 49.69375
# Shear Modulus (GPa) = 25.87443 36.23933 31.05688
#
# Velocity S-wave (km/s) = 3.22630 3.81821 3.53467
# Velocity P-wave (km/s) = 5.49026 6.56937 6.05391
#
# Compressibility (1/GPa) = 0.02473460
#
# Stress axis : x y z
#
# Youngs Moduli (GPa) = 49.83438 216.18269 68.72090
#
# Poissons Ratio (x) = 0.48253 0.29139
# Poissons Ratio (y) = 0.11123 0.05377
# Poissons Ratio (z) = 0.21131 0.16914
#
# Static dielectric constant tensor:
#      x y z
#    x 2.060960 -0.000010 0.026260 
#    y -0.000010 2.019630 0.000010 
#    z 0.026260 0.000010 1.919000 
# 
# From -- ./inp_files/19578.got.cif
#   From: 2010.05.17/outbox.cif.g08.bks.cpg/sg9_10_cif.got.tgz:19578.got - 2010.06.03 20:04:27.
