data_PCOD9136610
_publ_section_title
;
Structure prediction by ZEFSAII (Michael W. Deem and Ramdas Pophale) SiO2 
 PCOD9136610
Probable space group: C C
;
_chemical_formula_sum "Si O2"
_cell_formula_units_Z 32
_cell_length_a 12.467123
_cell_length_b 7.660130
_cell_length_c 13.485557
_cell_angle_alpha 90.000000
_cell_angle_beta 96.175532
_cell_angle_gamma 90.000000
_cell_volume 1280.394262
_symmetry_space_group_name_H-M "C C"
_symmetry_group_IT_number 9
_symmetry_cell_setting 'monoclinic'
loop_
_space_group_symop_operation_xyz
x,y,z
x,-y,1/2+z
1/2+x,1/2+y,z
1/2+x,1/2-y,1/2+z
loop_
_atom_site_type_symbol
_atom_site_label
_atom_site_fract_x
_atom_site_fract_y
_atom_site_fract_z
Si Si1 0.517350 0.047552 0.488110
Si Si2 0.270827 0.869104 0.119221
Si Si3 0.978621 0.495454 0.718064
Si Si4 0.817058 0.342544 0.456784
Si Si5 0.258058 0.486226 0.049685
Si Si6 0.149296 0.036470 0.783924
Si Si7 0.940222 0.840338 0.347132
Si Si8 0.709875 0.135527 0.768998
O O1 0.503220 0.001405 0.602549
O O2 0.643033 0.025268 0.483597
O O3 0.481645 0.240619 0.449680
O O4 0.429250 0.921891 0.428934
O O5 0.370650 0.887971 0.205421
O O6 0.284121 0.688263 0.064113
O O7 0.163829 0.878828 0.176365
O O8 0.276485 0.026712 0.041018
O O9 0.946311 0.311739 0.763068
O O10 0.092319 0.553414 0.776042
O O11 0.834884 0.153494 0.505495
O O12 0.723293 0.352888 0.366301
O O13 0.239861 0.415316 0.159553
O O14 0.029821 0.027147 0.816657
O O15 0.194969 0.842338 0.779542
O O16 0.818379 0.908250 0.340492
#
# Coordination Sequence:
#
# PCOD9136610 Si02
#       8
#     4   4   4   4   4   4   4   4
#     4  10  21  42  67  96 143 188 230 298 355 414
#     4  11  24  46  71 108 144 192 245 294 369 429
#     4  10  23  44  68  98 143 183 236 297 345 434
#     4  11  22  45  69  98 146 191 240 298 361 422
#     4  11  23  44  69 101 143 186 242 296 359 434
#     4  12  23  42  75 102 142 196 232 300 367 425
#     4  12  23  44  72 102 143 187 234 296 363 419
#     4  11  23  43  69  99 140 183 233 295 353 425
#
# _framework density 24.992304000000001
#
# number of rings (size 3 to 8) (size 9 to 14) (size 15 to 20)
#    0.000    1.000    5.000    2.250    1.750    1.000 
#    2.250    0.000    5.500    0.000    0.000    0.000 
#    0.000    0.000    0.000    0.000    0.000    0.000 
#
# Total GULP energy -89540.611535 kJ/mol
# GULP energy per Si atom -5596.288221 kJ/mol
# Density = 2.493542 g / cm^3
# Si number density = 24.992304 Si / 1000 Ang^3
#
#
#
# Elastic Constant Matrix: (Units=GPa)
#
#
# Indices 1 2 3 4 5 6 
#
# 1 124.0743 12.4415 6.4548 0.0000 1.9532 0.0000
# 2 12.4415 89.0428 26.1892 0.0000 -11.3459 0.0000
# 3 6.4548 26.1892 109.5497 0.0000 -1.2613 0.0000
# 4 0.0000 0.0000 0.0000 44.1031 0.0000 -3.9112
# 5 1.9532 -11.3459 -1.2613 0.0000 36.7627 0.0000
# 6 0.0000 0.0000 0.0000 -3.9112 0.0000 32.0966
#
#
#
# Elastic Compliance Matrix: (Units=1/GPa)
#
#
# Indices 1 2 3 4 5 6 
#
# 1 0.008202 -0.001188 -0.000209 0.000000 -0.000810 0.000000
# 2 -0.001188 0.012757 -0.002935 0.000000 0.003899 0.000000
# 3 -0.000209 -0.002935 0.009836 0.000000 -0.000557 0.000000
# 4 0.000000 0.000000 0.000000 0.022922 0.000000 0.002793
# 5 -0.000810 0.003899 -0.000557 0.000000 0.028429 0.000000
# 6 0.000000 0.000000 0.000000 0.002793 0.000000 0.031496
#
#
# Mechanical properties :
#
#
# Convention : Reuss Voigt Hill
#
# Bulk Modulus (GPa) = 45.18299 45.87086 45.52693
# Shear Modulus (GPa) = 38.55598 41.09791 39.82694
#
# Velocity S-wave (km/s) = 3.93200 4.05955 3.99628
# Velocity P-wave (km/s) = 6.22352 6.35351 6.28885
#
# Compressibility (1/GPa) = 0.02213222
#
# Stress axis : x y z
#
# Youngs Moduli (GPa) = 121.91558 78.39101 101.67008
#
# Poissons Ratio (x) = 0.09312 0.02121
# Poissons Ratio (y) = 0.14482 0.29837
# Poissons Ratio (z) = 0.02544 0.23006
#
# Static dielectric constant tensor:
#      x y z
#    x 2.012860 0.000000 -0.026520 
#    y 0.000000 1.928910 0.000000 
#    z -0.026520 0.000000 2.025200 
# 
# From -- ./inp_files/24289.got.cif
#   From: 2010.05.17/outbox.cif.g08.bks.cpg/sg9_13_cif.got.tgz:24289.got - 2010.06.03 20:04:27.
