data_PCOD9136019
_publ_section_title
;
Structure prediction by ZEFSAII (Michael W. Deem and Ramdas Pophale) SiO2 
 PCOD9136019
Probable space group: C C
;
_chemical_formula_sum "Si O2"
_cell_formula_units_Z 32
_cell_length_a 22.676199
_cell_length_b 6.832389
_cell_length_c 15.944499
_cell_angle_alpha 90.000000
_cell_angle_beta 147.059049
_cell_angle_gamma 90.000000
_cell_volume 1343.298376
_symmetry_space_group_name_H-M "C C"
_symmetry_group_IT_number 9
_symmetry_cell_setting 'monoclinic'
loop_
_space_group_symop_operation_xyz
x,y,z
x,-y,1/2+z
1/2+x,1/2+y,z
1/2+x,1/2-y,1/2+z
loop_
_atom_site_type_symbol
_atom_site_label
_atom_site_fract_x
_atom_site_fract_y
_atom_site_fract_z
Si Si1 0.726480 0.627423 0.168690
Si Si2 0.939536 0.805937 0.233961
Si Si3 0.878523 0.263028 0.977912
Si Si4 0.637023 0.554655 0.403154
Si Si5 0.182600 0.534182 0.714135
Si Si6 0.509793 0.335665 0.495755
Si Si7 0.059347 0.529033 0.800172
Si Si8 0.210562 0.242149 0.871738
O O1 0.718831 0.543341 0.067783
O O2 0.715668 0.866665 0.164776
O O3 0.830113 0.588867 0.349546
O O4 0.616969 0.561199 0.086850
O O5 0.018195 0.968964 0.286201
O O6 0.928722 0.841628 0.320198
O O7 0.010680 0.607508 0.313864
O O8 0.830155 0.779611 0.051517
O O9 0.063016 0.377033 0.082274
O O10 0.953557 0.374831 0.130873
O O11 0.770181 0.151422 0.877613
O O12 0.950360 0.108156 0.010042
O O13 0.633040 0.785572 0.409149
O O14 0.674003 0.473787 0.356860
O O15 0.198860 0.314201 0.762071
O O16 0.126279 0.384566 0.819922
#
# Coordination Sequence:
#
# PCOD9136019 Si02
#       8
#     4   4   4   4   4   4   4   4
#     4   7  17  32  56  86 118 167 204 250 315 372
#     4  10  22  37  61  89 126 164 210 267 315 377
#     4   9  16  33  61  82 121 163 202 251 322 364
#     4  10  21  38  62  91 127 167 217 259 320 377
#     4   8  18  32  60  86 119 166 206 250 315 373
#     4   8  15  34  56  81 118 167 199 246 318 367
#     4  11  22  38  63  91 123 167 215 267 315 385
#     4  11  21  38  61  94 122 163 213 266 318 373
#
# _framework density 23.821961000000002
#
# number of rings (size 3 to 8) (size 9 to 14) (size 15 to 20)
#    1.500    1.000    1.250    1.500    0.000    2.000 
#    0.000    1.250    2.750    1.500    0.000    0.000 
#    0.000    0.000    0.000    0.000    0.000    0.000 
#
# Total GULP energy -89089.097483 kJ/mol
# GULP energy per Si atom -5568.068593 kJ/mol
# Density = 2.376774 g / cm^3
# Si number density = 23.821961 Si / 1000 Ang^3
#
#
#
# Elastic Constant Matrix: (Units=GPa)
#
#
# Indices 1 2 3 4 5 6 
#
# 1 52.7044 25.5146 3.2338 0.0000 -1.6400 0.0000
# 2 25.5146 96.1351 5.1746 0.0000 -10.7965 0.0000
# 3 3.2338 5.1746 102.9743 0.0000 1.9856 0.0000
# 4 0.0000 0.0000 0.0000 24.6056 0.0000 2.2687
# 5 -1.6400 -10.7965 1.9856 0.0000 30.6452 0.0000
# 6 0.0000 0.0000 0.0000 2.2687 0.0000 13.8078
#
#
#
# Elastic Compliance Matrix: (Units=1/GPa)
#
#
# Indices 1 2 3 4 5 6 
#
# 1 0.021809 -0.005867 -0.000373 0.000000 -0.000875 0.000000
# 2 -0.005867 0.012448 -0.000520 0.000000 0.004105 0.000000
# 3 -0.000373 -0.000520 0.009765 0.000000 -0.000836 0.000000
# 4 0.000000 0.000000 0.000000 0.041266 0.000000 -0.006780
# 5 -0.000875 0.004105 -0.000836 0.000000 0.034085 0.000000
# 6 0.000000 0.000000 0.000000 -0.006780 0.000000 0.073537
#
#
# Mechanical properties :
#
#
# Convention : Reuss Voigt Hill
#
# Bulk Modulus (GPa) = 32.78445 35.51775 34.15110
# Shear Modulus (GPa) = 23.08415 28.33776 25.71096
#
# Velocity S-wave (km/s) = 3.11630 3.45275 3.28883
# Velocity P-wave (km/s) = 5.17113 5.55314 5.36553
#
# Compressibility (1/GPa) = 0.03050226
#
# Stress axis : x y z
#
# Youngs Moduli (GPa) = 45.85166 80.33358 102.40487
#
# Poissons Ratio (x) = 0.47128 0.03822
# Poissons Ratio (y) = 0.26899 0.05330
# Poissons Ratio (z) = 0.01711 0.04181
#
# Static dielectric constant tensor:
#      x y z
#    x 1.968230 0.000000 -0.012830 
#    y 0.000000 1.954520 0.000000 
#    z -0.012830 0.000000 1.959950 
# 
# From -- ./inp_files/34573.got.cif
#   From: 2010.05.17/outbox.cif.g08.bks.cpg/sg9_18_cif.got.tgz:34573.got - 2010.06.03 20:04:27.
