data_PCOD9136251
_publ_section_title
;
Structure prediction by ZEFSAII (Michael W. Deem and Ramdas Pophale) SiO2 
 PCOD9136251
Probable space group: C C
;
_chemical_formula_sum "Si O2"
_cell_formula_units_Z 32
_cell_length_a 27.296136
_cell_length_b 7.884443
_cell_length_c 15.607340
_cell_angle_alpha 90.000000
_cell_angle_beta 152.600590
_cell_angle_gamma 90.000000
_cell_volume 1545.748615
_symmetry_space_group_name_H-M "C C"
_symmetry_group_IT_number 9
_symmetry_cell_setting 'monoclinic'
loop_
_space_group_symop_operation_xyz
x,y,z
x,-y,1/2+z
1/2+x,1/2+y,z
1/2+x,1/2-y,1/2+z
loop_
_atom_site_type_symbol
_atom_site_label
_atom_site_fract_x
_atom_site_fract_y
_atom_site_fract_z
Si Si1 0.133820 0.932537 0.717570
Si Si2 0.872366 0.486558 0.810292
Si Si3 0.032297 0.746774 0.137486
Si Si4 0.351496 0.842987 0.965220
Si Si5 0.980262 0.245085 0.847820
Si Si6 0.573407 0.023025 0.357795
Si Si7 0.154928 0.177749 0.439171
Si Si8 0.440434 0.482365 0.132332
O O1 0.246336 0.913252 0.846175
O O2 0.042214 0.870305 0.511661
O O3 0.131891 0.818874 0.801240
O O4 0.108292 0.123810 0.706619
O O5 0.853291 0.379172 0.866911
O O6 0.766809 0.590442 0.626623
O O7 0.902690 0.366893 0.779207
O O8 0.968810 0.616437 0.979602
O O9 0.091953 0.641325 0.304110
O O10 0.948663 0.863782 0.061279
O O11 0.455410 0.940844 0.162651
O O12 0.365112 0.643390 0.004300
O O13 0.066194 0.360148 0.929780
O O14 0.920917 0.133437 0.684278
O O15 0.650080 0.862412 0.473857
O O16 0.059295 0.062305 0.327530
#
# Coordination Sequence:
#
# PCOD9136251 Si02
#       8
#     4   4   4   4   4   4   4   4
#     4  11  22  38  60  90 123 160 200 245 299 357
#     4  11  22  38  61  91 124 161 200 245 297 358
#     4   9  20  39  60  83 122 161 198 246 300 355
#     4  10  21  40  62  87 121 160 203 250 298 353
#     4  11  22  37  60  89 123 160 199 244 300 360
#     4   9  20  41  62  86 119 156 200 252 302 355
#     4  10  21  40  63  87 119 159 201 250 302 354
#     4   9  20  41  62  85 119 159 201 252 302 352
#
# _framework density 20.701944000000001
#
# number of rings (size 3 to 8) (size 9 to 14) (size 15 to 20)
#    0.000    2.000    0.000    4.500    0.000    5.000 
#    0.000   18.750    0.000    0.000    0.000    0.000 
#    0.000    0.000    0.000    0.000    0.000    0.000 
#
# Total GULP energy -89464.875749 kJ/mol
# GULP energy per Si atom -5591.554734 kJ/mol
# Density = 2.065483 g / cm^3
# Si number density = 20.701944 Si / 1000 Ang^3
#
#
#
# Elastic Constant Matrix: (Units=GPa)
#
#
# Indices 1 2 3 4 5 6 
#
# 1 104.7950 72.8628 31.8829 0.0000 0.5060 0.0000
# 2 72.8628 138.8434 22.5839 0.0000 2.1955 0.0000
# 3 31.8829 22.5839 35.0582 0.0000 4.7700 0.0000
# 4 0.0000 0.0000 0.0000 10.1284 0.0000 -3.0430
# 5 0.5060 2.1955 4.7700 0.0000 26.1949 0.0000
# 6 0.0000 0.0000 0.0000 -3.0430 0.0000 37.4116
#
#
#
# Elastic Compliance Matrix: (Units=1/GPa)
#
#
# Indices 1 2 3 4 5 6 
#
# 1 0.018761 -0.007880 -0.012331 0.000000 0.002544 0.000000
# 2 -0.007880 0.011357 -0.000042 0.000000 -0.000792 0.000000
# 3 -0.012331 -0.000042 0.040742 0.000000 -0.007177 0.000000
# 4 0.000000 0.000000 0.000000 0.101206 0.000000 0.008232
# 5 0.002544 -0.000792 -0.007177 0.000000 0.039500 0.000000
# 6 0.000000 0.000000 0.000000 0.008232 0.000000 0.027399
#
#
# Mechanical properties :
#
#
# Convention : Reuss Voigt Hill
#
# Bulk Modulus (GPa) = 32.94562 59.26176 46.10369
# Shear Modulus (GPa) = 17.26587 24.83811 21.05199
#
# Velocity S-wave (km/s) = 2.89108 3.46757 3.19236
# Velocity P-wave (km/s) = 5.20512 6.68733 5.99223
#
# Compressibility (1/GPa) = 0.03035305
#
# Stress axis : x y z
#
# Youngs Moduli (GPa) = 53.30338 88.05259 24.54453
#
# Poissons Ratio (x) = 0.69382 0.30267
# Poissons Ratio (y) = 0.42001 0.00104
# Poissons Ratio (z) = 0.65731 0.00371
#
# Static dielectric constant tensor:
#      x y z
#    x 1.730630 0.000000 -0.007670 
#    y 0.000000 1.743000 0.000000 
#    z -0.007670 0.000000 1.716970 
# 
# From -- ./inp_files/28028.got.cif
#   From: 2010.05.17/outbox.cif.g08.bks.cpg/sg9_15_cif.got.tgz:28028.got - 2010.06.03 20:04:27.
