data_PCOD9136882
_publ_section_title
;
Structure prediction by ZEFSAII (Michael W. Deem and Ramdas Pophale) SiO2 
 PCOD9136882
Probable space group: C C
;
_chemical_formula_sum "Si O2"
_cell_formula_units_Z 32
_cell_length_a 9.240019
_cell_length_b 10.585583
_cell_length_c 28.251737
_cell_angle_alpha 90.000000
_cell_angle_beta 150.621192
_cell_angle_gamma 90.000000
_cell_volume 1355.638684
_symmetry_space_group_name_H-M "C C"
_symmetry_group_IT_number 9
_symmetry_cell_setting 'monoclinic'
loop_
_space_group_symop_operation_xyz
x,y,z
x,-y,1/2+z
1/2+x,1/2+y,z
1/2+x,1/2-y,1/2+z
loop_
_atom_site_type_symbol
_atom_site_label
_atom_site_fract_x
_atom_site_fract_y
_atom_site_fract_z
Si Si1 0.831840 0.966978 0.907690
Si Si2 0.151187 0.427500 0.045272
Si Si3 0.313549 0.618404 0.172687
Si Si4 0.033994 0.260444 0.155383
Si Si5 0.948236 0.484214 0.881972
Si Si6 0.189136 0.244591 0.462637
Si Si7 0.410589 0.037163 0.125326
Si Si8 0.296440 0.007124 0.202527
O O1 0.674193 0.913739 0.910519
O O2 0.588690 0.047247 0.810162
O O3 0.955820 0.866551 0.905162
O O4 0.118248 0.034662 0.010350
O O5 0.138748 0.531929 0.084137
O O6 0.499546 0.433752 0.131891
O O7 0.997455 0.456569 0.951248
O O8 0.975036 0.307168 0.015965
O O9 0.389960 0.743557 0.165565
O O10 0.619424 0.550690 0.273168
O O11 0.124118 0.641863 0.165340
O O12 0.271122 0.150132 0.217416
O O13 0.095119 0.407474 0.167398
O O14 0.805503 0.226397 0.048729
O O15 0.034896 0.630969 0.899162
O O16 0.326144 0.033239 0.155564
#
# Coordination Sequence:
#
# PCOD9136882 Si02
#       8
#     4   4   4   4   4   4   4   4
#     4  11  23  42  66  99 134 172 229 270 335 405
#     4  11  22  45  68  98 138 176 228 276 337 409
#     4  11  23  42  72  96 134 179 228 276 341 402
#     4  10  21  45  65  91 131 175 215 272 341 391
#     4  12  24  45  67  99 137 178 223 291 334 394
#     4  11  24  42  71  97 133 181 224 276 348 397
#     4  11  24  44  65  97 134 178 223 279 339 402
#     4  11  23  45  66  95 139 171 224 288 329 400
#
# _framework density 23.605108999999999
#
# number of rings (size 3 to 8) (size 9 to 14) (size 15 to 20)
#    0.000    1.000    8.750    0.000    3.500    0.000 
#    6.750    1.250    0.000    0.000    0.000    0.000 
#    0.000    0.000    0.000    0.000    0.000    0.000 
#
# Total GULP energy -89354.894580 kJ/mol
# GULP energy per Si atom -5584.680911 kJ/mol
# Density = 2.355138 g / cm^3
# Si number density = 23.605109 Si / 1000 Ang^3
#
#
#
# Elastic Constant Matrix: (Units=GPa)
#
#
# Indices 1 2 3 4 5 6 
#
# 1 168.0081 31.8612 61.7916 0.0000 13.9146 0.0000
# 2 31.8612 58.8234 10.9811 0.0000 -1.6873 0.0000
# 3 61.7916 10.9811 116.2819 0.0000 -4.5434 0.0000
# 4 0.0000 0.0000 0.0000 19.7650 0.0000 -4.3893
# 5 13.9146 -1.6873 -4.5434 0.0000 41.0891 0.0000
# 6 0.0000 0.0000 0.0000 -4.3893 0.0000 25.0657
#
#
#
# Elastic Compliance Matrix: (Units=1/GPa)
#
#
# Indices 1 2 3 4 5 6 
#
# 1 0.008586 -0.003944 -0.004329 0.000000 -0.003548 0.000000
# 2 -0.003944 0.019129 0.000374 0.000000 0.002163 0.000000
# 3 -0.004329 0.000374 0.010970 0.000000 0.002694 0.000000
# 4 0.000000 0.000000 0.000000 0.052641 0.000000 0.009218
# 5 -0.003548 0.002163 0.002694 0.000000 0.025926 0.000000
# 6 0.000000 0.000000 0.000000 0.009218 0.000000 0.041509
#
#
# Mechanical properties :
#
#
# Convention : Reuss Voigt Hill
#
# Bulk Modulus (GPa) = 43.69338 61.37570 52.53454
# Shear Modulus (GPa) = 27.44417 33.08258 30.26337
#
# Velocity S-wave (km/s) = 3.41345 3.74772 3.58448
# Velocity P-wave (km/s) = 5.83830 6.69214 6.27975
#
# Compressibility (1/GPa) = 0.02288676
#
# Stress axis : x y z
#
# Youngs Moduli (GPa) = 116.46846 52.27767 91.15760
#
# Poissons Ratio (x) = 0.20620 0.39460
# Poissons Ratio (y) = 0.45938 -0.03410
# Poissons Ratio (z) = 0.50416 -0.01955
#
# Static dielectric constant tensor:
#      x y z
#    x 1.914810 0.000000 0.018640 
#    y 0.000000 1.966780 0.000000 
#    z 0.018640 0.000000 1.869830 
# 
# From -- ./inp_files/37203.got.cif
#   From: 2010.05.17/outbox.cif.g08.bks.cpg/sg9_19_cif.got.tgz:37203.got - 2010.06.03 20:04:27.
