data_PCOD9136126
_publ_section_title
;
Structure prediction by ZEFSAII (Michael W. Deem and Ramdas Pophale) SiO2 
 PCOD9136126
Probable space group: C C
;
_chemical_formula_sum "Si O2"
_cell_formula_units_Z 32
_cell_length_a 12.044351
_cell_length_b 21.409969
_cell_length_c 6.011737
_cell_angle_alpha 90.000000
_cell_angle_beta 129.567338
_cell_angle_gamma 90.000000
_cell_volume 1195.044876
_symmetry_space_group_name_H-M "C C"
_symmetry_group_IT_number 9
_symmetry_cell_setting 'monoclinic'
loop_
_space_group_symop_operation_xyz
x,y,z
x,-y,1/2+z
1/2+x,1/2+y,z
1/2+x,1/2-y,1/2+z
loop_
_atom_site_type_symbol
_atom_site_label
_atom_site_fract_x
_atom_site_fract_y
_atom_site_fract_z
Si Si1 0.932370 0.799856 0.418160
Si Si2 0.458952 0.821389 0.206120
Si Si3 0.322573 0.469617 0.158611
Si Si4 0.079024 0.241376 0.733909
Si Si5 0.385951 0.003763 0.065354
Si Si6 0.607476 0.587331 0.207832
Si Si7 0.233040 0.123820 0.762930
Si Si8 0.160865 0.637991 0.624455
O O1 0.899407 0.731942 0.470183
O O2 0.822387 0.845053 0.404749
O O3 0.933151 0.789141 0.152386
O O4 0.083377 0.837251 0.640371
O O5 0.562327 0.777975 0.484762
O O6 0.343456 0.851317 0.218044
O O7 0.549730 0.871150 0.180648
O O8 0.311322 0.500830 0.395648
O O9 0.483562 0.440417 0.391701
O O10 0.192592 0.418732 0.002083
O O11 0.182156 0.183612 0.827998
O O12 0.118896 0.297301 0.951377
O O13 0.318914 0.072937 0.007396
O O14 0.453556 0.007441 0.899264
O O15 0.251202 0.954936 0.867058
O O16 0.600837 0.588877 0.469938
#
# Coordination Sequence:
#
# PCOD9136126 Si02
#       8
#     4   4   4   4   4   4   4   4
#     4  10  21  39  64  98 130 178 229 299 359 428
#     4  11  23  41  62  97 139 187 231 287 362 448
#     4  11  25  46  76 104 137 185 246 314 370 427
#     4  11  22  39  66 101 135 185 240 294 364 435
#     4  10  21  39  62  94 131 172 225 287 357 410
#     4  10  21  41  67 101 137 177 240 307 370 422
#     4  11  22  40  68 100 141 186 232 305 363 439
#     4  10  25  43  67  97 140 184 241 295 363 441
#
# _framework density 26.777235999999998
#
# number of rings (size 3 to 8) (size 9 to 14) (size 15 to 20)
#    0.000    1.500    1.250    3.750    3.500    3.000 
#    9.000    2.500    0.000    0.000    0.000    0.000 
#    0.000    0.000    0.000    0.000    0.000    0.000 
#
# Total GULP energy -89158.553052 kJ/mol
# GULP energy per Si atom -5572.409566 kJ/mol
# Density = 2.671629 g / cm^3
# Si number density = 26.777236 Si / 1000 Ang^3
#
#
#
# Elastic Constant Matrix: (Units=GPa)
#
#
# Indices 1 2 3 4 5 6 
#
# 1 114.8617 33.9770 37.3165 0.0000 -24.2436 0.0000
# 2 33.9770 97.6388 29.5582 0.0000 -15.4469 0.0000
# 3 37.3165 29.5582 106.1884 0.0000 -22.2966 0.0000
# 4 0.0000 0.0000 0.0000 45.9967 0.0000 -4.3162
# 5 -24.2436 -15.4469 -22.2966 0.0000 40.7302 0.0000
# 6 0.0000 0.0000 0.0000 -4.3162 0.0000 30.2982
#
#
#
# Elastic Compliance Matrix: (Units=1/GPa)
#
#
# Indices 1 2 3 4 5 6 
#
# 1 0.011116 -0.002475 -0.002288 0.000000 0.004425 0.000000
# 2 -0.002475 0.012040 -0.002070 0.000000 0.001960 0.000000
# 3 -0.002288 -0.002070 0.011690 0.000000 0.004253 0.000000
# 4 0.000000 0.000000 0.000000 0.022035 0.000000 0.003139
# 5 0.004425 0.001960 0.004253 0.000000 0.030257 0.000000
# 6 0.000000 0.000000 0.000000 0.003139 0.000000 0.033452
#
#
# Mechanical properties :
#
#
# Convention : Reuss Voigt Hill
#
# Bulk Modulus (GPa) = 47.21659 57.82138 52.51899
# Shear Modulus (GPa) = 35.38138 37.92749 36.65444
#
# Velocity S-wave (km/s) = 3.63894 3.76760 3.70383
# Velocity P-wave (km/s) = 5.94368 6.36921 6.16012
#
# Compressibility (1/GPa) = 0.02117900
#
# Stress axis : x y z
#
# Youngs Moduli (GPa) = 89.96285 83.05715 85.53992
#
# Poissons Ratio (x) = 0.20560 0.19572
# Poissons Ratio (y) = 0.22269 0.17707
# Poissons Ratio (z) = 0.20584 0.17193
#
# Static dielectric constant tensor:
#      x y z
#    x 2.181510 0.000000 0.062080 
#    y 0.000000 2.125300 0.000000 
#    z 0.062080 0.000000 2.210790 
# 
# From -- ./inp_files/1877.got.cif
#   From: 2010.05.17/outbox.cif.g08.bks.cpg/sg9_1_cif.got.tgz:1877.got - 2010.06.03 20:04:27.
