data_PCOD9136981
_publ_section_title
;
Structure prediction by ZEFSAII (Michael W. Deem and Ramdas Pophale) SiO2 
 PCOD9136981
Probable space group: C C
;
_chemical_formula_sum "Si O2"
_cell_formula_units_Z 28
_cell_length_a 5.725548
_cell_length_b 27.440393
_cell_length_c 7.288065
_cell_angle_alpha 90.000000
_cell_angle_beta 103.171857
_cell_angle_gamma 90.000000
_cell_volume 1114.912429
_symmetry_space_group_name_H-M "C C"
_symmetry_group_IT_number 9
_symmetry_cell_setting 'monoclinic'
loop_
_space_group_symop_operation_xyz
x,y,z
x,-y,1/2+z
1/2+x,1/2+y,z
1/2+x,1/2-y,1/2+z
loop_
_atom_site_type_symbol
_atom_site_label
_atom_site_fract_x
_atom_site_fract_y
_atom_site_fract_z
Si Si1 0.139510 0.374999 0.026940
Si Si2 0.095928 0.155086 0.781199
Si Si3 0.753117 0.294293 0.967446
Si Si4 0.279988 0.062062 0.606334
Si Si5 0.179067 0.049493 0.161104
Si Si6 0.674335 0.093728 0.130186
Si Si7 0.902155 0.188980 0.085693
O O1 0.319720 0.341751 0.171939
O O2 0.053057 0.418473 0.146175
O O3 0.232128 0.399663 0.857879
O O4 0.931505 0.336878 0.934379
O O5 0.225797 0.194089 0.678045
O O6 0.157587 0.102333 0.710954
O O7 0.107859 0.164091 0.997362
O O8 0.512500 0.301261 0.805686
O O9 0.839554 0.239154 0.974848
O O10 0.220621 0.065139 0.379335
O O11 0.215009 0.008521 0.657906
O O12 0.408682 0.070013 0.085228
O O13 0.899958 0.064786 0.078628
O O14 0.692222 0.148924 0.058554
#
# Coordination Sequence:
#
# PCOD9136981 Si02
#       7
#     4   4   4   4   4   4   4
#     4  10  21  49  71  99 154 194 246 318 372 441
#     4  11  24  47  73 106 147 195 255 309 380 454
#     4  11  26  48  70 111 148 197 250 319 376 464
#     4  10  24  43  70 106 146 194 252 309 375 450
#     4  11  25  44  74 105 154 198 252 312 377 447
#     4  11  24  47  71 106 149 201 247 315 372 448
#     4  12  26  46  77 107 148 199 254 310 392 450
#
# _framework density 25.114080000000001
#
# number of rings (size 3 to 8) (size 9 to 14) (size 15 to 20)
#    0.000    1.143    2.857    2.571    6.000    2.286 
#   12.857    0.000    0.000    0.000    0.000    0.000 
#    0.000    0.000    0.000    0.000    0.000    0.000 
#
# Total GULP energy -78249.974202 kJ/mol
# GULP energy per Si atom -5589.283872 kJ/mol
# Density = 2.505692 g / cm^3
# Si number density = 25.114080 Si / 1000 Ang^3
#
#
#
# Elastic Constant Matrix: (Units=GPa)
#
#
# Indices 1 2 3 4 5 6 
#
# 1 116.8886 68.0199 22.6855 0.0000 -26.2663 0.0000
# 2 68.0199 189.8941 21.3951 0.0000 -22.7116 0.0000
# 3 22.6855 21.3951 81.7732 0.0000 -14.6644 0.0000
# 4 0.0000 0.0000 0.0000 31.1787 0.0000 -1.0686
# 5 -26.2663 -22.7116 -14.6644 0.0000 38.7738 0.0000
# 6 0.0000 0.0000 0.0000 -1.0686 0.0000 14.0365
#
#
#
# Elastic Compliance Matrix: (Units=1/GPa)
#
#
# Indices 1 2 3 4 5 6 
#
# 1 0.012144 -0.003515 -0.001441 0.000000 0.005623 0.000000
# 2 -0.003515 0.006750 -0.000546 0.000000 0.001366 0.000000
# 3 -0.001441 -0.000546 0.013451 0.000000 0.003791 0.000000
# 4 0.000000 0.000000 0.000000 0.032157 0.000000 0.002448
# 5 0.005623 0.001366 0.003791 0.000000 0.031834 0.000000
# 6 0.000000 0.000000 0.000000 0.002448 0.000000 0.071429
#
#
# Mechanical properties :
#
#
# Convention : Reuss Voigt Hill
#
# Bulk Modulus (GPa) = 46.85731 68.08412 57.47071
# Shear Modulus (GPa) = 26.89866 35.22816 31.06341
#
# Velocity S-wave (km/s) = 3.27625 3.74936 3.52076
# Velocity P-wave (km/s) = 5.74544 6.77587 6.28182
#
# Compressibility (1/GPa) = 0.02134139
#
# Stress axis : x y z
#
# Youngs Moduli (GPa) = 82.34687 148.14602 74.34142
#
# Poissons Ratio (x) = 0.52074 0.10712
# Poissons Ratio (y) = 0.28945 0.04059
# Poissons Ratio (z) = 0.11866 0.08088
#
# Static dielectric constant tensor:
#      x y z
#    x 2.100770 0.000000 0.004670 
#    y 0.000000 1.956650 0.000000 
#    z 0.004670 0.000000 1.981420 
# 
# From -- ./inp_files/4088.got.cif
#   From: 2010.05.17/outbox.cif.g08.bks.cpg/sg9_3_cif.got.tgz:4088.got - 2010.06.03 20:04:27.
