data_PCOD9136760
_publ_section_title
;
Structure prediction by ZEFSAII (Michael W. Deem and Ramdas Pophale) SiO2 
 PCOD9136760
Probable space group: C C
;
_chemical_formula_sum "Si O2"
_cell_formula_units_Z 20
_cell_length_a 7.086760
_cell_length_b 14.716617
_cell_length_c 9.051158
_cell_angle_alpha 90.000000
_cell_angle_beta 55.355331
_cell_angle_gamma 90.000000
_cell_volume 776.600883
_symmetry_space_group_name_H-M "C C"
_symmetry_group_IT_number 9
_symmetry_cell_setting 'monoclinic'
loop_
_space_group_symop_operation_xyz
x,y,z
x,-y,1/2+z
1/2+x,1/2+y,z
1/2+x,1/2-y,1/2+z
loop_
_atom_site_type_symbol
_atom_site_label
_atom_site_fract_x
_atom_site_fract_y
_atom_site_fract_z
Si Si1 0.921460 0.425429 0.292550
Si Si2 0.557837 0.806841 0.508129
Si Si3 0.174365 0.362073 0.930948
Si Si4 0.995966 0.824656 0.528856
Si Si5 0.758483 0.624256 0.392405
O O1 0.706017 0.364557 0.339979
O O2 0.775964 0.515902 0.395774
O O3 0.046613 0.370019 0.367712
O O4 0.109162 0.438544 0.079512
O O5 0.785017 0.822278 0.507785
O O6 0.552551 0.695780 0.504782
O O7 0.348399 0.845467 0.693958
O O8 0.390643 0.370393 0.725467
O O9 0.961423 0.353673 0.914498
O O10 0.128033 0.265430 0.029501
#
# Coordination Sequence:
#
# PCOD9136760 Si02
#       5
#     4   4   4   4   4
#     4  12  24  46  75 106 139 193 249 288 364 448
#     4  10  25  47  69 104 145 186 240 300 362 431
#     4  10  21  43  70  99 143 186 234 296 360 424
#     4  10  22  44  71 100 145 194 227 306 366 412
#     4  10  24  48  69 103 152 181 236 316 352 427
#
# _framework density 25.753253999999998
#
# number of rings (size 3 to 8) (size 9 to 14) (size 15 to 20)
#    0.000    1.600    2.000    1.200    5.600    0.000 
#   10.800    4.000    0.000    0.000    0.000    0.000 
#    0.000    0.000    0.000    0.000    0.000    0.000 
#
# Total GULP energy -55671.003888 kJ/mol
# GULP energy per Si atom -5567.100389 kJ/mol
# Density = 2.569464 g / cm^3
# Si number density = 25.753254 Si / 1000 Ang^3
#
#
#
# Elastic Constant Matrix: (Units=GPa)
#
#
# Indices 1 2 3 4 5 6 
#
# 1 121.3190 24.1477 17.3196 0.0000 3.4325 0.0000
# 2 24.1477 86.3941 2.5701 0.0000 2.9319 0.0000
# 3 17.3196 2.5701 107.8776 0.0000 11.1260 0.0000
# 4 0.0000 0.0000 0.0000 -4.1330 0.0000 101.5495
# 5 3.4325 2.9319 11.1260 0.0000 32.0392 0.0000
# 6 0.0000 0.0000 0.0000 101.5495 0.0000 -322.6973
#
#
#
# Elastic Compliance Matrix: (Units=1/GPa)
#
#
# Indices 1 2 3 4 5 6 
#
# 1 0.008930 -0.002447 -0.001348 0.000000 -0.000265 0.000000
# 2 -0.002447 0.012284 0.000196 0.000000 -0.000930 0.000000
# 3 -0.001348 0.000196 0.009820 0.000000 -0.003284 0.000000
# 4 0.000000 0.000000 0.000000 0.035941 0.000000 0.011310
# 5 -0.000265 -0.000930 -0.003284 0.000000 0.032466 0.000000
# 6 0.000000 0.000000 0.000000 0.011310 0.000000 0.000460
#
#
# Mechanical properties :
#
#
# Convention : Reuss Voigt Hill
#
# Bulk Modulus (GPa) = 41.95195 44.85171 43.40183
# Shear Modulus (GPa) = 43.46159 -40.85465 1.30347
#
# Velocity S-wave (km/s) = 4.11252 -3.98727 0.71220
# Velocity P-wave (km/s) = 6.23504 1.93494 4.19116
#
# Compressibility (1/GPa) = 0.02383679
#
# Stress axis : x y z
#
# Youngs Moduli (GPa) = 111.98593 81.40341 101.83111
#
# Poissons Ratio (x) = 0.19918 0.13727
# Poissons Ratio (y) = 0.27401 -0.01997
# Poissons Ratio (z) = 0.15096 -0.01596
#
# Static dielectric constant tensor:
#      x y z
#    x 2.012920 0.000000 0.033170 
#    y 0.000000 6.541550 0.000000 
#    z 0.033170 0.000000 2.062510 
# 
# From -- ./inp_files/4867.got.cif
#   From: 2010.05.17/outbox.cif.g08.bks.cpg/sg9_3_cif.got.tgz:4867.got - 2010.06.03 20:04:27.
