data_PCOD9136153
_publ_section_title
;
Structure prediction by ZEFSAII (Michael W. Deem and Ramdas Pophale) SiO2 
 PCOD9136153
Probable space group: C C
;
_chemical_formula_sum "Si O2"
_cell_formula_units_Z 32
_cell_length_a 5.536026
_cell_length_b 19.259572
_cell_length_c 16.068923
_cell_angle_alpha 90.000000
_cell_angle_beta 59.811881
_cell_angle_gamma 90.000000
_cell_volume 1480.934243
_symmetry_space_group_name_H-M "C C"
_symmetry_group_IT_number 9
_symmetry_cell_setting 'monoclinic'
loop_
_space_group_symop_operation_xyz
x,y,z
x,-y,1/2+z
1/2+x,1/2+y,z
1/2+x,1/2-y,1/2+z
loop_
_atom_site_type_symbol
_atom_site_label
_atom_site_fract_x
_atom_site_fract_y
_atom_site_fract_z
Si Si1 0.986000 0.159618 0.134820
Si Si2 0.195833 0.039552 0.002772
Si Si3 0.367518 0.209336 0.207002
Si Si4 0.948053 0.862276 0.224896
Si Si5 0.396878 0.390223 0.826150
Si Si6 0.966451 0.397383 0.025182
Si Si7 0.632606 0.532813 0.821528
Si Si8 0.176733 0.460766 0.142113
O O1 0.698115 0.189246 0.144867
O O2 0.203895 0.115457 0.041516
O O3 0.189536 0.211865 0.151190
O O4 0.870320 0.112070 0.231530
O O5 0.354810 0.973939 0.016108
O O6 0.235586 0.040300 0.897473
O O7 0.875554 0.021481 0.079952
O O8 0.340829 0.284950 0.251665
O O9 0.183194 0.152877 0.290553
O O10 0.756977 0.917703 0.209755
O O11 0.212312 0.859450 0.115462
O O12 0.019173 0.896473 0.301156
O O13 0.423309 0.468566 0.853703
O O14 0.126741 0.361701 0.921429
O O15 0.181022 0.408975 0.063472
O O16 0.870483 0.511676 0.714154
#
# Coordination Sequence:
#
# PCOD9136153 Si02
#       8
#     4   4   4   4   4   4   4   4
#     4  10  24  42  70  94 138 181 228 286 340 415
#     4  11  23  38  66 104 135 173 230 297 351 415
#     4  10  25  44  73  90 146 181 239 274 356 412
#     4  10  24  44  64  97 133 195 221 294 344 431
#     4  10  22  39  67 105 130 183 227 297 341 423
#     4  10  22  37  67  98 137 169 234 282 363 403
#     4  11  23  37  69  99 139 171 236 291 358 406
#     4  10  21  39  64  91 138 171 227 283 353 409
#
# _framework density 21.607983000000001
#
# number of rings (size 3 to 8) (size 9 to 14) (size 15 to 20)
#    0.750    1.000    1.250    3.000   10.500    0.000 
#    0.000    3.750    0.000    0.000    0.000    0.000 
#    0.000    0.000    0.000    0.000    0.000    0.000 
#
# Total GULP energy -89106.936640 kJ/mol
# GULP energy per Si atom -5569.183540 kJ/mol
# Density = 2.155880 g / cm^3
# Si number density = 21.607983 Si / 1000 Ang^3
#
#
#
# Elastic Constant Matrix: (Units=GPa)
#
#
# Indices 1 2 3 4 5 6 
#
# 1 60.4789 5.8562 12.2244 0.0000 0.0916 0.0000
# 2 5.8562 68.3402 23.7167 0.0000 -7.8107 0.0000
# 3 12.2244 23.7167 77.1236 0.0000 15.9658 0.0000
# 4 0.0000 0.0000 0.0000 10.7715 0.0000 8.4224
# 5 0.0916 -7.8107 15.9658 0.0000 25.2726 0.0000
# 6 0.0000 0.0000 0.0000 8.4224 0.0000 18.6251
#
#
#
# Elastic Compliance Matrix: (Units=1/GPa)
#
#
# Indices 1 2 3 4 5 6 
#
# 1 0.017164 -0.000219 -0.003022 0.000000 0.001779 0.000000
# 2 -0.000219 0.018631 -0.007923 0.000000 0.010764 0.000000
# 3 -0.003022 -0.007923 0.018852 0.000000 -0.014347 0.000000
# 4 0.000000 0.000000 0.000000 0.143619 0.000000 -0.064946
# 5 0.001779 0.010764 -0.014347 0.000000 0.051953 0.000000
# 6 0.000000 0.000000 0.000000 -0.064946 0.000000 0.083060
#
#
# Mechanical properties :
#
#
# Convention : Reuss Voigt Hill
#
# Bulk Modulus (GPa) = 30.94071 32.17083 31.55577
# Shear Modulus (GPa) = 13.64706 21.87687 17.76197
#
# Velocity S-wave (km/s) = 2.51584 3.18534 2.87018
# Velocity P-wave (km/s) = 4.77383 5.33379 5.06156
#
# Compressibility (1/GPa) = 0.03231988
#
# Stress axis : x y z
#
# Youngs Moduli (GPa) = 58.26171 53.67307 53.04566
#
# Poissons Ratio (x) = 0.01175 0.16028
# Poissons Ratio (y) = 0.01275 0.42029
# Poissons Ratio (z) = 0.17604 0.42526
#
# Static dielectric constant tensor:
#      x y z
#    x 1.853440 0.000000 -0.014540 
#    y 0.000000 1.785480 0.000000 
#    z -0.014540 0.000000 1.780060 
# 
# From -- ./inp_files/22225.got.cif
#   From: 2010.05.17/outbox.cif.g08.bks.cpg/sg9_12_cif.got.tgz:22225.got - 2010.06.03 20:04:27.
