data_PCOD9136150
_publ_section_title
;
Structure prediction by ZEFSAII (Michael W. Deem and Ramdas Pophale) SiO2 
 PCOD9136150
Probable space group: C C
;
_chemical_formula_sum "Si O2"
_cell_formula_units_Z 32
_cell_length_a 9.569142
_cell_length_b 11.875537
_cell_length_c 13.378273
_cell_angle_alpha 90.000000
_cell_angle_beta 101.351734
_cell_angle_gamma 90.000000
_cell_volume 1490.548633
_symmetry_space_group_name_H-M "C C"
_symmetry_group_IT_number 9
_symmetry_cell_setting 'monoclinic'
loop_
_space_group_symop_operation_xyz
x,y,z
x,-y,1/2+z
1/2+x,1/2+y,z
1/2+x,1/2-y,1/2+z
loop_
_atom_site_type_symbol
_atom_site_label
_atom_site_fract_x
_atom_site_fract_y
_atom_site_fract_z
Si Si1 0.069910 0.642062 0.883840
Si Si2 0.284315 0.947652 0.393242
Si Si3 0.963712 0.745147 0.283037
Si Si4 0.615548 0.472113 0.558703
Si Si5 0.751275 0.808613 0.892681
Si Si6 0.148646 0.847721 0.766489
Si Si7 0.367976 0.536443 0.863104
Si Si8 0.510220 0.283288 0.069434
O O1 0.058487 0.746233 0.802910
O O2 0.218332 0.585353 0.879318
O O3 0.946324 0.547851 0.876814
O O4 0.070631 0.704599 0.990660
O O5 0.254436 0.950083 0.508551
O O6 0.258559 0.819407 0.354094
O O7 0.175078 0.041464 0.338174
O O8 0.809451 0.695970 0.280682
O O9 0.933965 0.879771 0.290466
O O10 0.009277 0.724816 0.175908
O O11 0.080146 0.688544 0.372841
O O12 0.604280 0.391209 0.651803
O O13 0.480608 0.453650 0.468244
O O14 0.601758 0.602450 0.587612
O O15 0.825978 0.906302 0.837464
O O16 0.848047 0.810755 0.007112
#
# Coordination Sequence:
#
# PCOD9136150 Si02
#       8
#     4   4   4   4   4   4   4   4
#     4  10  22  43  62  93 134 160 220 273 322 398
#     4  11  21  40  67  91 127 172 211 275 320 388
#     4  11  22  41  68  93 135 174 216 274 338 389
#     4  11  22  41  65  94 128 169 222 265 328 400
#     4  10  21  39  64  90 130 164 217 265 320 387
#     4  11  23  40  66  96 129 176 220 267 337 396
#     4  10  23  42  63  96 127 172 214 272 330 385
#     4  10  22  40  65  97 124 173 218 267 329 399
#
# _framework density 21.468603999999999
#
# number of rings (size 3 to 8) (size 9 to 14) (size 15 to 20)
#    0.000    1.500    2.500    3.000    0.000    0.000 
#   11.250    0.000    8.250    0.000    0.000    0.000 
#    0.000    0.000    0.000    0.000    0.000    0.000 
#
# Total GULP energy -89140.148863 kJ/mol
# GULP energy per Si atom -5571.259304 kJ/mol
# Density = 2.141974 g / cm^3
# Si number density = 21.468604 Si / 1000 Ang^3
#
#
#
# Elastic Constant Matrix: (Units=GPa)
#
#
# Indices 1 2 3 4 5 6 
#
# 1 100.3101 20.2965 16.1740 0.0000 -5.9070 0.0000
# 2 20.2965 91.2682 10.7270 0.0000 0.2535 0.0000
# 3 16.1740 10.7270 66.1478 0.0000 -14.6294 0.0000
# 4 0.0000 0.0000 0.0000 7.0832 0.0000 -7.2914
# 5 -5.9070 0.2535 -14.6294 0.0000 22.0958 0.0000
# 6 0.0000 0.0000 0.0000 -7.2914 0.0000 48.7271
#
#
#
# Elastic Compliance Matrix: (Units=1/GPa)
#
#
# Indices 1 2 3 4 5 6 
#
# 1 0.010818 -0.002184 -0.001928 0.000000 0.001640 0.000000
# 2 -0.002184 0.011656 -0.001775 0.000000 -0.001893 0.000000
# 3 -0.001928 -0.001775 0.018472 0.000000 0.011735 0.000000
# 4 0.000000 0.000000 0.000000 0.166886 0.000000 0.024973
# 5 0.001640 -0.001893 0.011735 0.000000 0.053488 0.000000
# 6 0.000000 0.000000 0.000000 0.024973 0.000000 0.024259
#
#
# Mechanical properties :
#
#
# Convention : Reuss Voigt Hill
#
# Bulk Modulus (GPa) = 34.27806 39.12456 36.70131
# Shear Modulus (GPa) = 16.28249 29.61646 22.94948
#
# Velocity S-wave (km/s) = 2.75695 3.71822 3.27307
# Velocity P-wave (km/s) = 5.11230 6.05782 5.60504
#
# Compressibility (1/GPa) = 0.02917318
#
# Stress axis : x y z
#
# Youngs Moduli (GPa) = 92.43453 85.79120 54.13486
#
# Poissons Ratio (x) = 0.18735 0.10439
# Poissons Ratio (y) = 0.20185 0.09608
# Poissons Ratio (z) = 0.17824 0.15227
#
# Static dielectric constant tensor:
#      x y z
#    x 1.925180 0.000000 0.009920 
#    y 0.000000 1.876900 0.000000 
#    z 0.009920 0.000000 1.759050 
# 
# From -- ./inp_files/22899.got.cif
#   From: 2010.05.17/outbox.cif.g08.bks.cpg/sg9_12_cif.got.tgz:22899.got - 2010.06.03 20:04:27.
