data_PCOD9136382
_publ_section_title
;
Structure prediction by ZEFSAII (Michael W. Deem and Ramdas Pophale) SiO2 
 PCOD9136382
Probable space group: C C
;
_chemical_formula_sum "Si O2"
_cell_formula_units_Z 32
_cell_length_a 14.845757
_cell_length_b 10.274012
_cell_length_c 20.710242
_cell_angle_alpha 90.000000
_cell_angle_beta 153.912433
_cell_angle_gamma 90.000000
_cell_volume 1389.081730
_symmetry_space_group_name_H-M "C C"
_symmetry_group_IT_number 9
_symmetry_cell_setting 'monoclinic'
loop_
_space_group_symop_operation_xyz
x,y,z
x,-y,1/2+z
1/2+x,1/2+y,z
1/2+x,1/2-y,1/2+z
loop_
_atom_site_type_symbol
_atom_site_label
_atom_site_fract_x
_atom_site_fract_y
_atom_site_fract_z
Si Si1 0.194770 0.457183 0.476390
Si Si2 0.526268 0.620147 0.608418
Si Si3 0.891334 0.030256 0.726775
Si Si4 0.245147 0.150939 0.487447
Si Si5 0.175150 0.656507 0.709072
Si Si6 0.042212 0.881126 0.534677
Si Si7 0.885175 0.556734 0.176447
Si Si8 0.180136 0.777188 0.330676
O O1 0.377969 0.530866 0.557093
O O2 0.211550 0.500481 0.560782
O O3 0.227581 0.303995 0.488118
O O4 0.996364 0.510628 0.312921
O O5 0.561923 0.530343 0.569386
O O6 0.396555 0.743519 0.501162
O O7 0.696013 0.663771 0.769137
O O8 0.797603 0.075601 0.734051
O O9 0.046061 0.135279 0.793749
O O10 0.031882 0.902932 0.823885
O O11 0.440909 0.114377 0.569372
O O12 0.299527 0.068463 0.585607
O O13 0.136152 0.798298 0.653498
O O14 0.312464 0.652581 0.862779
O O15 0.191011 0.855320 0.569999
O O16 0.049587 0.642203 0.243098
#
# Coordination Sequence:
#
# PCOD9136382 Si02
#       8
#     4   4   4   4   4   4   4   4
#     4  10  23  42  68 101 141 184 235 287 359 415
#     4  10  22  43  66 105 135 185 227 290 346 416
#     4  11  24  44  71 105 138 190 238 289 353 423
#     4  12  24  46  71 101 143 189 231 297 359 417
#     4  12  27  44  73 105 136 184 244 287 350 433
#     4  12  26  45  69 107 143 180 243 297 348 423
#     4  11  23  44  70  97 145 186 229 299 350 415
#     4  10  21  40  70  97 137 180 235 282 349 414
#
# _framework density 23.036801000000001
#
# number of rings (size 3 to 8) (size 9 to 14) (size 15 to 20)
#    0.000    1.000    3.750    3.000    3.500    0.000 
#    2.250    2.500    0.000    0.000    0.000    0.000 
#    0.000    0.000    0.000    0.000    0.000    0.000 
#
# Total GULP energy -89434.665315 kJ/mol
# GULP energy per Si atom -5589.666582 kJ/mol
# Density = 2.298437 g / cm^3
# Si number density = 23.036801 Si / 1000 Ang^3
#
#
#
# Elastic Constant Matrix: (Units=GPa)
#
#
# Indices 1 2 3 4 5 6 
#
# 1 48.7540 0.5206 15.4147 0.0009 -5.1935 0.0002
# 2 0.5206 67.2494 16.3339 0.0003 -18.1496 0.0001
# 3 15.4147 16.3339 57.6938 -0.0006 -21.9687 0.0002
# 4 0.0009 0.0003 -0.0006 32.7634 0.0004 -7.7684
# 5 -5.1935 -18.1496 -21.9687 0.0004 34.3110 0.0001
# 6 0.0002 0.0001 0.0002 -7.7684 0.0001 29.9363
#
#
#
# Elastic Compliance Matrix: (Units=1/GPa)
#
#
# Indices 1 2 3 4 5 6 
#
# 1 0.022523 0.001392 -0.006392 -0.000001 0.000053 0.000000
# 2 0.001392 0.017587 -0.002286 0.000000 0.008050 0.000000
# 3 -0.006392 -0.002286 0.024939 0.000000 0.013792 0.000000
# 4 -0.000001 0.000000 0.000000 0.032523 -0.000001 0.008440
# 5 0.000053 0.008050 0.013792 -0.000001 0.042242 0.000000
# 6 0.000000 0.000000 0.000000 0.008440 0.000000 0.035594
#
#
# Mechanical properties :
#
#
# Convention : Reuss Voigt Hill
#
# Bulk Modulus (GPa) = 19.81003 26.47061 23.14032
# Shear Modulus (GPa) = 24.17738 28.83068 26.50403
#
# Velocity S-wave (km/s) = 3.24313 3.54150 3.39559
# Velocity P-wave (km/s) = 4.75834 5.31399 5.04382
#
# Compressibility (1/GPa) = 0.05047948
#
# Stress axis : x y z
#
# Youngs Moduli (GPa) = 44.39947 56.85986 40.09739
#
# Poissons Ratio (x) = -0.07917 0.25628
# Poissons Ratio (y) = -0.06182 0.09165
# Poissons Ratio (z) = 0.28378 0.12997
#
# Static dielectric constant tensor:
#      x y z
#    x 1.919140 0.000000 -0.011590 
#    y 0.000000 1.872530 0.000000 
#    z -0.011590 0.000000 1.830110 
# 
# From -- ./inp_files/27366.got.cif
#   From: 2010.05.17/outbox.cif.g08.bks.cpg/sg9_14_cif.got.tgz:27366.got - 2010.06.03 20:04:27.
