data_PCOD9136423
_publ_section_title
;
Structure prediction by ZEFSAII (Michael W. Deem and Ramdas Pophale) SiO2 
 PCOD9136423
Probable space group: C C
;
_chemical_formula_sum "Si O2"
_cell_formula_units_Z 32
_cell_length_a 12.012685
_cell_length_b 15.987142
_cell_length_c 8.604726
_cell_angle_alpha 90.000000
_cell_angle_beta 126.496969
_cell_angle_gamma 90.000000
_cell_volume 1328.445338
_symmetry_space_group_name_H-M "C C"
_symmetry_group_IT_number 9
_symmetry_cell_setting 'monoclinic'
loop_
_space_group_symop_operation_xyz
x,y,z
x,-y,1/2+z
1/2+x,1/2+y,z
1/2+x,1/2-y,1/2+z
loop_
_atom_site_type_symbol
_atom_site_label
_atom_site_fract_x
_atom_site_fract_y
_atom_site_fract_z
Si Si1 0.961970 0.549596 0.798630
Si Si2 0.207725 0.807806 0.375268
Si Si3 0.057620 0.695785 0.467397
Si Si4 0.517707 0.186609 0.100157
Si Si5 0.096967 0.032717 0.665759
Si Si6 0.223318 0.577557 0.824420
Si Si7 0.818668 0.595157 0.376972
Si Si8 0.900254 0.966800 0.736670
O O1 0.844789 0.580742 0.581249
O O2 0.908937 0.471853 0.852816
O O3 0.093596 0.534122 0.799606
O O4 0.006035 0.622860 0.952082
O O5 0.118857 0.784246 0.455572
O O6 0.364882 0.778007 0.510956
O O7 0.208511 0.904900 0.332718
O O8 0.126831 0.760588 0.170155
O O9 0.159282 0.655241 0.677603
O O10 0.066371 0.649671 0.306434
O O11 0.900091 0.680807 0.397549
O O12 0.971451 0.033723 0.682675
O O13 0.165115 0.940241 0.712366
O O14 0.027106 0.062678 0.448968
O O15 0.294219 0.514521 0.761474
O O16 0.327525 0.595584 0.054558
#
# Coordination Sequence:
#
# PCOD9136423 Si02
#       8
#     4   4   4   4   4   4   4   4
#     4  11  21  37  68 100 135 179 233 313 341 417
#     4  10  24  43  71  97 139 195 237 291 364 458
#     4   9  23  40  68  98 133 190 238 300 350 447
#     4  10  23  43  69 100 137 192 243 288 366 446
#     4  11  23  41  71 100 145 183 239 298 375 425
#     4  10  21  41  63 100 137 172 240 287 363 419
#     4  11  21  38  70 104 136 172 248 300 353 414
#     4  10  24  39  66 105 138 187 222 311 364 428
#
# _framework density 24.088308999999999
#
# number of rings (size 3 to 8) (size 9 to 14) (size 15 to 20)
#    0.750    1.000    1.250    3.000    3.500    4.000 
#    0.000    0.000   33.000    0.000    0.000    0.000 
#    0.000    0.000    0.000    0.000    0.000    0.000 
#
# Total GULP energy -89209.810614 kJ/mol
# GULP energy per Si atom -5575.613163 kJ/mol
# Density = 2.403348 g / cm^3
# Si number density = 24.088309 Si / 1000 Ang^3
#
#
#
# Elastic Constant Matrix: (Units=GPa)
#
#
# Indices 1 2 3 4 5 6 
#
# 1 110.4752 18.4278 29.2212 0.0000 3.3783 0.0000
# 2 18.4278 43.6831 17.6971 0.0000 -3.1693 0.0000
# 3 29.2212 17.6971 154.7651 0.0000 -7.2493 0.0000
# 4 0.0000 0.0000 0.0000 34.6264 0.0000 -1.4823
# 5 3.3783 -3.1693 -7.2493 0.0000 40.0191 0.0000
# 6 0.0000 0.0000 0.0000 -1.4823 0.0000 27.8685
#
#
#
# Elastic Compliance Matrix: (Units=1/GPa)
#
#
# Indices 1 2 3 4 5 6 
#
# 1 0.010131 -0.003749 -0.001551 0.000000 -0.001433 0.000000
# 2 -0.003749 0.025472 -0.002113 0.000000 0.001951 0.000000
# 3 -0.001551 -0.002113 0.007054 0.000000 0.001241 0.000000
# 4 0.000000 0.000000 0.000000 0.028946 0.000000 0.001540
# 5 -0.001433 0.001951 0.001241 0.000000 0.025488 0.000000
# 6 0.000000 0.000000 0.000000 0.001540 0.000000 0.035965
#
#
# Mechanical properties :
#
#
# Convention : Reuss Voigt Hill
#
# Bulk Modulus (GPa) = 35.93381 48.84618 42.39000
# Shear Modulus (GPa) = 31.81465 36.74128 34.27797
#
# Velocity S-wave (km/s) = 3.63816 3.90971 3.77638
# Velocity P-wave (km/s) = 5.70948 6.37990 6.05398
#
# Compressibility (1/GPa) = 0.02782894
#
# Stress axis : x y z
#
# Youngs Moduli (GPa) = 98.70320 39.25944 141.76138
#
# Poissons Ratio (x) = 0.14720 0.21991
# Poissons Ratio (y) = 0.37008 0.29958
# Poissons Ratio (z) = 0.15312 0.08297
#
# Static dielectric constant tensor:
#      x y z
#    x 1.951920 0.000000 0.031220 
#    y 0.000000 1.956490 0.000000 
#    z 0.031220 0.000000 1.996910 
# 
# From -- ./inp_files/8311.got.cif
#   From: 2010.05.17/outbox.cif.g08.bks.cpg/sg9_5_cif.got.tgz:8311.got - 2010.06.03 20:04:27.
