data_PCOD9136613
_publ_section_title
;
Structure prediction by ZEFSAII (Michael W. Deem and Ramdas Pophale) SiO2 
 PCOD9136613
Probable space group: C C
;
_chemical_formula_sum "Si O2"
_cell_formula_units_Z 32
_cell_length_a 9.783478
_cell_length_b 29.557178
_cell_length_c 5.639102
_cell_angle_alpha 90.000000
_cell_angle_beta 53.748920
_cell_angle_gamma 90.000000
_cell_volume 1315.027176
_symmetry_space_group_name_H-M "C C"
_symmetry_group_IT_number 9
_symmetry_cell_setting 'monoclinic'
loop_
_space_group_symop_operation_xyz
x,y,z
x,-y,1/2+z
1/2+x,1/2+y,z
1/2+x,1/2-y,1/2+z
loop_
_atom_site_type_symbol
_atom_site_label
_atom_site_fract_x
_atom_site_fract_y
_atom_site_fract_z
Si Si1 0.852150 0.391300 0.357060
Si Si2 0.626208 0.976381 0.637490
Si Si3 0.234749 0.379969 0.965850
Si Si4 0.317211 0.292766 0.089290
Si Si5 0.686196 0.296878 0.490048
Si Si6 0.920508 0.921343 0.168511
Si Si7 0.451636 0.326962 0.357453
Si Si8 0.762463 0.563067 0.457841
O O1 0.811259 0.338121 0.412158
O O2 0.808709 0.412252 0.658780
O O3 0.758116 0.410516 0.217230
O O4 0.051111 0.399612 0.106596
O O5 0.748001 0.932755 0.484722
O O6 0.423802 0.969265 0.831812
O O7 0.668786 0.001655 0.346187
O O8 0.329297 0.350923 0.672206
O O9 0.206906 0.338382 0.181241
O O10 0.362139 0.415656 0.956412
O O11 0.256227 0.251099 0.998859
O O12 0.342883 0.287864 0.342658
O O13 0.511212 0.301895 0.813894
O O14 0.618353 0.304628 0.294156
O O15 0.991712 0.871611 0.161903
O O16 0.072497 0.954125 0.092379
#
# Coordination Sequence:
#
# PCOD9136613 Si02
#       8
#     4   4   4   4   4   4   4   4
#     4  12  24  44  74 109 142 198 253 315 368 441
#     4  12  29  50  77 118 160 194 243 312 394 469
#     4  10  22  41  70 102 140 196 252 303 380 440
#     4  10  23  40  60  96 145 191 250 321 383 442
#     4  11  23  42  62  99 145 193 262 315 388 439
#     4  11  24  46  78 105 148 200 255 309 371 462
#     4  10  21  42  68 100 135 197 258 311 367 460
#     4  12  26  47  77 111 149 191 251 312 363 457
#
# _framework density 24.334098999999998
#
# number of rings (size 3 to 8) (size 9 to 14) (size 15 to 20)
#    0.000    1.000    2.500    4.500    3.500    3.000 
#    2.250    0.000    0.000    0.000    0.000    0.000 
#    0.000    0.000    0.000    0.000    0.000    0.000 
#
# Total GULP energy -89252.623108 kJ/mol
# GULP energy per Si atom -5578.288944 kJ/mol
# Density = 2.427871 g / cm^3
# Si number density = 24.334099 Si / 1000 Ang^3
#
#
#
# Elastic Constant Matrix: (Units=GPa)
#
#
# Indices 1 2 3 4 5 6 
#
# 1 147.7393 27.0863 30.5087 0.0000 6.6783 0.0000
# 2 27.0863 64.1823 15.3374 0.0000 18.9396 0.0000
# 3 30.5087 15.3374 77.1127 0.0000 -1.6869 0.0000
# 4 0.0000 0.0000 0.0000 29.3659 0.0000 1.1088
# 5 6.6783 18.9396 -1.6869 0.0000 39.3904 0.0000
# 6 0.0000 0.0000 0.0000 1.1088 0.0000 42.1488
#
#
#
# Elastic Compliance Matrix: (Units=1/GPa)
#
#
# Indices 1 2 3 4 5 6 
#
# 1 0.007787 -0.002624 -0.002562 0.000000 -0.000168 0.000000
# 2 -0.002624 0.020230 -0.003192 0.000000 -0.009419 0.000000
# 3 -0.002562 -0.003192 0.014673 0.000000 0.002597 0.000000
# 4 0.000000 0.000000 0.000000 0.034087 0.000000 -0.000897
# 5 -0.000168 -0.009419 0.002597 0.000000 0.030055 0.000000
# 6 0.000000 0.000000 0.000000 -0.000897 0.000000 0.023749
#
#
# Mechanical properties :
#
#
# Convention : Reuss Voigt Hill
#
# Bulk Modulus (GPa) = 38.55951 48.32214 43.44082
# Shear Modulus (GPa) = 32.05494 36.58782 34.32138
#
# Velocity S-wave (km/s) = 3.63338 3.88179 3.75963
# Velocity P-wave (km/s) = 5.78638 6.32392 6.06111
#
# Compressibility (1/GPa) = 0.02593394
#
# Stress axis : x y z
#
# Youngs Moduli (GPa) = 128.42688 49.43122 68.15049
#
# Poissons Ratio (x) = 0.12971 0.17463
# Poissons Ratio (y) = 0.33701 0.21750
# Poissons Ratio (z) = 0.32908 0.15776
#
# Static dielectric constant tensor:
#      x y z
#    x 2.056080 0.000000 0.138050 
#    y 0.000000 2.007300 0.000000 
#    z 0.138050 0.000000 2.077870 
# 
# From -- ./inp_files/1371.got.cif
#   From: 2010.05.17/outbox.cif.g08.bks.cpg/sg9_1_cif.got.tgz:1371.got - 2010.06.03 20:04:27.
