data_PCOD9136845
_publ_section_title
;
Structure prediction by ZEFSAII (Michael W. Deem and Ramdas Pophale) SiO2 
 PCOD9136845
Probable space group: C C
;
_chemical_formula_sum "Si O2"
_cell_formula_units_Z 32
_cell_length_a 12.150843
_cell_length_b 8.542175
_cell_length_c 14.929537
_cell_angle_alpha 90.000000
_cell_angle_beta 85.782995
_cell_angle_gamma 90.000000
_cell_volume 1545.410476
_symmetry_space_group_name_H-M "C C"
_symmetry_group_IT_number 9
_symmetry_cell_setting 'monoclinic'
loop_
_space_group_symop_operation_xyz
x,y,z
x,-y,1/2+z
1/2+x,1/2+y,z
1/2+x,1/2-y,1/2+z
loop_
_atom_site_type_symbol
_atom_site_label
_atom_site_fract_x
_atom_site_fract_y
_atom_site_fract_z
Si Si1 0.312020 0.915348 0.430150
Si Si2 0.159772 0.308746 0.153028
Si Si3 0.477117 0.350235 0.548612
Si Si4 0.232695 0.933048 0.774883
Si Si5 0.100330 0.811482 0.361597
Si Si6 0.398829 0.296337 0.059085
Si Si7 0.263813 0.860312 0.096771
Si Si8 0.567049 0.152116 0.175949
O O1 0.262494 0.024771 0.511586
O O2 0.324601 0.031561 0.344867
O O3 0.222279 0.790775 0.397605
O O4 0.407289 0.815469 0.471397
O O5 0.515090 0.699347 0.946993
O O6 0.269616 0.323070 0.086836
O O7 0.096724 0.471322 0.165379
O O8 0.203571 0.239082 0.244205
O O9 0.575322 0.311540 0.611706
O O10 0.452911 0.534339 0.548454
O O11 0.370837 0.249691 0.582999
O O12 0.121084 0.012532 0.822169
O O13 0.264308 0.033960 0.685823
O O14 0.076331 0.705105 0.278190
O O15 0.452532 0.202391 0.138278
O O16 0.158118 0.749661 0.114030
#
# Coordination Sequence:
#
# PCOD9136845 Si02
#       8
#     4   4   4   4   4   4   4   4
#     4  10  21  44  69  98 138 186 233 294 341 421
#     4  12  23  47  72 104 139 189 234 290 362 424
#     4  12  24  44  73 104 143 189 238 297 361 423
#     4   9  21  43  70  96 144 184 232 295 348 419
#     4   9  21  46  66  99 143 180 239 300 341 429
#     4  12  24  45  76  99 142 190 234 295 357 422
#     4  11  21  44  71 103 144 187 233 294 359 418
#     4  11  25  45  71 105 143 187 243 289 359 432
#
# _framework density 20.706472999999999
#
# number of rings (size 3 to 8) (size 9 to 14) (size 15 to 20)
#    0.750    0.500    3.750    3.000    0.000    1.000 
#   11.250    0.000    0.000    0.000    0.000    0.000 
#    0.000    0.000    0.000    0.000    0.000    0.000 
#
# Total GULP energy -89288.701160 kJ/mol
# GULP energy per Si atom -5580.543823 kJ/mol
# Density = 2.065934 g / cm^3
# Si number density = 20.706473 Si / 1000 Ang^3
#
#
#
# Elastic Constant Matrix: (Units=GPa)
#
#
# Indices 1 2 3 4 5 6 
#
# 1 70.8688 16.9469 12.4289 0.0000 13.7916 0.0000
# 2 16.9469 105.6059 38.5602 0.0000 23.7463 0.0000
# 3 12.4289 38.5602 128.1047 0.0000 26.0371 0.0000
# 4 0.0000 0.0000 0.0000 33.0179 0.0000 2.3419
# 5 13.7916 23.7463 26.0371 0.0000 25.8935 0.0000
# 6 0.0000 0.0000 0.0000 2.3419 0.0000 31.7781
#
#
#
# Elastic Compliance Matrix: (Units=1/GPa)
#
#
# Indices 1 2 3 4 5 6 
#
# 1 0.015809 -0.000872 0.000349 0.000000 -0.007972 0.000000
# 2 -0.000872 0.012286 -0.001782 0.000000 -0.009011 0.000000
# 3 0.000349 -0.001782 0.010073 0.000000 -0.008680 0.000000
# 4 0.000000 0.000000 0.000000 0.030446 0.000000 -0.002244
# 5 -0.007972 -0.009011 -0.008680 0.000000 0.059858 0.000000
# 6 0.000000 0.000000 0.000000 -0.002244 0.000000 0.031634
#
#
# Mechanical properties :
#
#
# Convention : Reuss Voigt Hill
#
# Bulk Modulus (GPa) = 29.79929 48.93905 39.36917
# Shear Modulus (GPa) = 28.42504 33.91412 31.16958
#
# Velocity S-wave (km/s) = 3.70910 4.05143 3.88404
# Velocity P-wave (km/s) = 5.72414 6.75066 6.25848
#
# Compressibility (1/GPa) = 0.03355785
#
# Stress axis : x y z
#
# Youngs Moduli (GPa) = 63.25420 81.39388 99.27583
#
# Poissons Ratio (x) = 0.07096 -0.03463
# Poissons Ratio (y) = 0.05515 0.17692
# Poissons Ratio (z) = -0.02206 0.14505
#
# Static dielectric constant tensor:
#      x y z
#    x 1.766590 0.000000 0.008010 
#    y 0.000000 1.732810 0.000000 
#    z 0.008010 0.000000 1.750900 
# 
# From -- ./inp_files/30523.got.cif
#   From: 2010.05.17/outbox.cif.g08.bks.cpg/sg9_16_cif.got.tgz:30523.got - 2010.06.03 20:04:27.
