data_PCOD9136484
_publ_section_title
;
Structure prediction by ZEFSAII (Michael W. Deem and Ramdas Pophale) SiO2 
 PCOD9136484
Probable space group: C C
;
_chemical_formula_sum "Si O2"
_cell_formula_units_Z 32
_cell_length_a 11.845198
_cell_length_b 14.712523
_cell_length_c 8.944272
_cell_angle_alpha 90.000000
_cell_angle_beta 123.407097
_cell_angle_gamma 90.000000
_cell_volume 1301.206852
_symmetry_space_group_name_H-M "C C"
_symmetry_group_IT_number 9
_symmetry_cell_setting 'monoclinic'
loop_
_space_group_symop_operation_xyz
x,y,z
x,-y,1/2+z
1/2+x,1/2+y,z
1/2+x,1/2-y,1/2+z
loop_
_atom_site_type_symbol
_atom_site_label
_atom_site_fract_x
_atom_site_fract_y
_atom_site_fract_z
Si Si1 0.909770 0.574345 0.314660
Si Si2 0.403566 0.516153 0.217904
Si Si3 0.503896 0.671400 0.456902
Si Si4 0.612243 0.765143 0.051598
Si Si5 0.250329 0.594193 0.825615
Si Si6 0.619854 0.607269 0.240742
Si Si7 0.037616 0.563008 0.108994
Si Si8 0.216300 0.739968 0.301423
O O1 0.767721 0.586579 0.291081
O O2 0.919163 0.578447 0.143056
O O3 0.973696 0.478274 0.413274
O O4 0.000817 0.659217 0.434716
O O5 0.427484 0.574876 0.386701
O O6 0.330201 0.429785 0.228855
O O7 0.547669 0.514746 0.241949
O O8 0.320002 0.575372 0.035696
O O9 0.587862 0.668413 0.363627
O O10 0.374767 0.739062 0.373019
O O11 0.616458 0.683969 0.663541
O O12 0.702737 0.758552 0.969853
O O13 0.696973 0.805711 0.252427
O O14 0.556686 0.667291 0.060371
O O15 0.130655 0.519912 0.734607
O O16 0.136789 0.649733 0.180594
#
# Coordination Sequence:
#
# PCOD9136484 Si02
#       8
#     4   4   4   4   4   4   4   4
#     4  10  23  41  62  93 129 171 226 266 346 408
#     4  10  24  40  66  99 137 177 231 290 346 415
#     4  10  26  42  70  98 137 180 232 288 347 418
#     4  10  25  39  73  95 136 177 225 291 345 420
#     4  11  21  43  70 100 128 180 237 285 344 419
#     4  10  25  41  60  99 138 174 218 284 352 409
#     4  10  21  41  67  92 126 176 223 279 331 418
#     4  11  23  45  68 104 133 179 236 285 349 415
#
# _framework density 24.592555999999998
#
# number of rings (size 3 to 8) (size 9 to 14) (size 15 to 20)
#    0.750    1.000    1.250    2.250    8.750    2.000 
#    0.000    0.000    0.000    0.000    0.000    0.000 
#    0.000    0.000    0.000    0.000    0.000    0.000 
#
# Total GULP energy -89256.075964 kJ/mol
# GULP energy per Si atom -5578.504748 kJ/mol
# Density = 2.453658 g / cm^3
# Si number density = 24.592556 Si / 1000 Ang^3
#
#
#
# Elastic Constant Matrix: (Units=GPa)
#
#
# Indices 1 2 3 4 5 6 
#
# 1 154.0639 28.4056 16.6834 0.0000 -8.8309 0.0000
# 2 28.4056 59.0111 17.4027 0.0000 -14.7389 0.0000
# 3 16.6834 17.4027 80.2125 0.0000 -7.9701 0.0000
# 4 0.0000 0.0000 0.0000 29.9154 0.0000 1.3655
# 5 -8.8309 -14.7389 -7.9701 0.0000 24.2388 0.0000
# 6 0.0000 0.0000 0.0000 1.3655 0.0000 22.2249
#
#
#
# Elastic Compliance Matrix: (Units=1/GPa)
#
#
# Indices 1 2 3 4 5 6 
#
# 1 0.007174 -0.003109 -0.000771 0.000000 0.000470 0.000000
# 2 -0.003109 0.022173 -0.003036 0.000000 0.011352 0.000000
# 3 -0.000771 -0.003036 0.013516 0.000000 0.002317 0.000000
# 4 0.000000 0.000000 0.000000 0.033522 0.000000 -0.002060
# 5 0.000470 0.011352 0.002317 0.000000 0.049092 0.000000
# 6 0.000000 0.000000 0.000000 -0.002060 0.000000 0.045121
#
#
# Mechanical properties :
#
#
# Convention : Reuss Voigt Hill
#
# Bulk Modulus (GPa) = 34.44474 46.47455 40.45965
# Shear Modulus (GPa) = 25.75891 30.66219 28.21055
#
# Velocity S-wave (km/s) = 3.23991 3.53485 3.39059
# Velocity P-wave (km/s) = 5.29458 5.96649 5.64055
#
# Compressibility (1/GPa) = 0.02903200
#
# Stress axis : x y z
#
# Youngs Moduli (GPa) = 139.38410 45.09982 73.98526
#
# Poissons Ratio (x) = 0.14020 0.05705
# Poissons Ratio (y) = 0.43331 0.22462
# Poissons Ratio (z) = 0.10747 0.13693
#
# Static dielectric constant tensor:
#      x y z
#    x 1.940020 0.000000 0.050020 
#    y 0.000000 1.986450 0.000000 
#    z 0.050020 0.000000 1.948670 
# 
# From -- ./inp_files/8045.got.cif
#   From: 2010.05.17/outbox.cif.g08.bks.cpg/sg9_5_cif.got.tgz:8045.got - 2010.06.03 20:04:27.
