data_PCOD9136235
_publ_section_title
;
Structure prediction by ZEFSAII (Michael W. Deem and Ramdas Pophale) SiO2 
 PCOD9136235
Probable space group: C C
;
_chemical_formula_sum "Si O2"
_cell_formula_units_Z 32
_cell_length_a 9.278659
_cell_length_b 5.272948
_cell_length_c 26.863322
_cell_angle_alpha 90.000000
_cell_angle_beta 81.508098
_cell_angle_gamma 90.000000
_cell_volume 1299.902704
_symmetry_space_group_name_H-M "C C"
_symmetry_group_IT_number 9
_symmetry_cell_setting 'monoclinic'
loop_
_space_group_symop_operation_xyz
x,y,z
x,-y,1/2+z
1/2+x,1/2+y,z
1/2+x,1/2-y,1/2+z
loop_
_atom_site_type_symbol
_atom_site_label
_atom_site_fract_x
_atom_site_fract_y
_atom_site_fract_z
Si Si1 0.654110 0.160148 0.241670
Si Si2 0.299929 0.280395 0.547529
Si Si3 0.807447 0.660249 0.277982
Si Si4 0.889526 0.851003 0.128180
Si Si5 0.262187 0.793465 0.897963
Si Si6 0.510863 0.888918 0.528907
Si Si7 0.415176 0.706677 0.434256
Si Si8 0.675744 0.459189 0.146556
O O1 0.716907 0.411160 0.265775
O O2 0.478747 0.141149 0.254777
O O3 0.689868 0.216813 0.181517
O O4 0.731848 0.915163 0.260548
O O5 0.318299 0.490224 0.588190
O O6 0.230463 0.057246 0.586467
O O7 0.180703 0.343187 0.512996
O O8 0.453138 0.170200 0.522074
O O9 0.800782 0.678837 0.337955
O O10 0.990409 0.662020 0.089007
O O11 0.777528 0.677561 0.162750
O O12 0.004361 0.014421 0.153298
O O13 0.343931 0.543293 0.914575
O O14 0.086117 0.772697 0.910742
O O15 0.324474 0.046236 0.921658
O O16 0.422609 0.717668 0.494423
#
# Coordination Sequence:
#
# PCOD9136235 Si02
#       8
#     4   4   4   4   4   4   4   4
#     4  12  26  44  74 106 138 183 233 289 338 426
#     4  10  21  40  60  87 132 174 218 275 328 396
#     4  12  26  49  73 104 140 181 227 291 359 415
#     4  10  21  40  60  87 132 174 218 275 328 396
#     4  12  26  49  73 104 140 181 227 291 359 415
#     4  10  23  37  60  94 126 175 226 270 334 390
#     4  12  26  44  74 106 138 183 233 289 338 426
#     4  10  23  37  60  94 126 175 226 270 334 390
#
# _framework density 24.617228999999998
#
# number of rings (size 3 to 8) (size 9 to 14) (size 15 to 20)
#    0.000    1.000    0.000    6.000    7.000    0.000 
#    0.000    0.000    0.000    0.000    0.000    0.000 
#    0.000    0.000    0.000    0.000    0.000    0.000 
#
# Total GULP energy -89488.984642 kJ/mol
# GULP energy per Si atom -5593.061540 kJ/mol
# Density = 2.456120 g / cm^3
# Si number density = 24.617229 Si / 1000 Ang^3
#
#
#
# Elastic Constant Matrix: (Units=GPa)
#
#
# Indices 1 2 3 4 5 6 
#
# 1 180.6779 70.9637 13.5123 0.0000 13.8576 0.0000
# 2 70.9637 141.8486 8.6664 0.0000 17.3799 0.0000
# 3 13.5123 8.6664 103.4426 0.0000 8.4954 0.0000
# 4 0.0000 0.0000 0.0000 33.5837 0.0000 17.1896
# 5 13.8576 17.3799 8.4954 0.0000 35.0877 0.0000
# 6 0.0000 0.0000 0.0000 17.1896 0.0000 49.6495
#
#
#
# Elastic Compliance Matrix: (Units=1/GPa)
#
#
# Indices 1 2 3 4 5 6 
#
# 1 0.006957 -0.003329 -0.000551 0.000000 -0.000966 0.000000
# 2 -0.003329 0.009109 -0.000067 0.000000 -0.003181 0.000000
# 3 -0.000551 -0.000067 0.009921 0.000000 -0.002151 0.000000
# 4 0.000000 0.000000 0.000000 0.036189 0.000000 -0.012529
# 5 -0.000966 -0.003181 -0.002151 0.000000 0.030978 0.000000
# 6 0.000000 0.000000 0.000000 -0.012529 0.000000 0.024479
#
#
# Mechanical properties :
#
#
# Convention : Reuss Voigt Hill
#
# Bulk Modulus (GPa) = 55.26415 68.02822 61.64619
# Shear Modulus (GPa) = 38.00594 45.85264 41.92929
#
# Velocity S-wave (km/s) = 3.93348 4.32050 4.13152
# Velocity P-wave (km/s) = 6.56718 7.25143 6.91777
#
# Compressibility (1/GPa) = 0.01809491
#
# Stress axis : x y z
#
# Youngs Moduli (GPa) = 143.73350 109.78320 100.79187
#
# Poissons Ratio (x) = 0.36543 0.05550
# Poissons Ratio (y) = 0.47844 0.00676
# Poissons Ratio (z) = 0.07914 0.00737
#
# Static dielectric constant tensor:
#      x y z
#    x 2.006970 0.000000 -0.044160 
#    y 0.000000 2.000220 0.000000 
#    z -0.044160 0.000000 1.963760 
# 
# From -- ./inp_files/37116.got.cif
#   From: 2010.05.17/outbox.cif.g08.bks.cpg/sg9_19_cif.got.tgz:37116.got - 2010.06.03 20:04:27.
