data_PCOD9136687
_publ_section_title
;
Structure prediction by ZEFSAII (Michael W. Deem and Ramdas Pophale) SiO2 
 PCOD9136687
Probable space group: C C
;
_chemical_formula_sum "Si O2"
_cell_formula_units_Z 28
_cell_length_a 13.622477
_cell_length_b 13.961108
_cell_length_c 11.209922
_cell_angle_alpha 90.000000
_cell_angle_beta 28.853343
_cell_angle_gamma 90.000000
_cell_volume 1028.817316
_symmetry_space_group_name_H-M "C C"
_symmetry_group_IT_number 9
_symmetry_cell_setting 'monoclinic'
loop_
_space_group_symop_operation_xyz
x,y,z
x,-y,1/2+z
1/2+x,1/2+y,z
1/2+x,1/2-y,1/2+z
loop_
_atom_site_type_symbol
_atom_site_label
_atom_site_fract_x
_atom_site_fract_y
_atom_site_fract_z
Si Si1 0.884030 0.310297 0.801460
Si Si2 0.460170 0.613152 0.156482
Si Si3 0.129827 0.203967 0.389550
Si Si4 0.224699 0.065558 0.099933
Si Si5 0.132032 0.478873 0.396107
Si Si6 0.149269 0.656053 0.654991
Si Si7 0.824075 0.373832 0.103270
O O1 0.641061 0.309288 0.025218
O O2 0.674788 0.401841 0.789088
O O3 0.023988 0.398274 0.597747
O O4 0.906910 0.298396 0.918337
O O5 0.570310 0.582273 0.159607
O O6 0.327490 0.525655 0.247475
O O7 0.287453 0.680740 0.395477
O O8 0.626329 0.652619 0.889289
O O9 0.143408 0.252158 0.243306
O O10 0.888158 0.246061 0.666513
O O11 0.256967 0.953277 0.078033
O O12 0.435847 0.115137 0.839707
O O13 0.200282 0.424781 0.201986
O O14 0.984661 0.566457 0.512633
#
# Coordination Sequence:
#
# PCOD9136687 Si02
#       7
#     4   4   4   4   4   4   4
#     4  11  23  43  73 101 144 180 241 298 350 427
#     4  12  23  37  67 102 136 183 229 279 364 426
#     4  11  21  46  72  98 130 186 234 294 352 409
#     4  11  23  43  70 103 137 180 245 295 347 415
#     4  10  21  43  64 101 139 180 234 302 343 409
#     4  10  22  41  67  99 140 176 233 299 346 414
#     4  11  23  43  65 102 144 183 224 295 358 422
#
# _framework density 27.215714999999999
#
# number of rings (size 3 to 8) (size 9 to 14) (size 15 to 20)
#    0.000    1.143    4.286    5.143    0.000    1.143 
#    2.571    1.429    0.000    0.000    0.000    0.000 
#    0.000    0.000    0.000    0.000    0.000    0.000 
#
# Total GULP energy -77993.675959 kJ/mol
# GULP energy per Si atom -5570.976854 kJ/mol
# Density = 2.715377 g / cm^3
# Si number density = 27.215715 Si / 1000 Ang^3
#
#
#
# Elastic Constant Matrix: (Units=GPa)
#
#
# Indices 1 2 3 4 5 6 
#
# 1 222.1587 48.2089 31.9726 0.0006 -13.1313 -0.0014
# 2 48.2089 46.7928 33.0835 0.0005 -1.4946 -0.0012
# 3 31.9726 33.0835 254.4569 -0.0014 38.1429 0.0006
# 4 0.0006 0.0005 -0.0014 33.3705 -0.0009 15.8123
# 5 -13.1313 -1.4946 38.1429 -0.0009 23.1405 0.0017
# 6 -0.0014 -0.0012 0.0006 15.8123 0.0017 66.6507
#
#
#
# Elastic Compliance Matrix: (Units=1/GPa)
#
#
# Indices 1 2 3 4 5 6 
#
# 1 0.006068 -0.005661 -0.000648 0.000000 0.004145 0.000000
# 2 -0.005661 0.030219 -0.004023 -0.000001 0.005370 0.000000
# 3 -0.000648 -0.004023 0.006147 0.000000 -0.010760 0.000000
# 4 0.000000 -0.000001 0.000000 0.033762 0.000002 -0.008010
# 5 0.004145 0.005370 -0.010760 0.000002 0.063649 -0.000002
# 6 0.000000 0.000000 0.000000 -0.008010 -0.000002 0.016904
#
#
# Mechanical properties :
#
#
# Convention : Reuss Voigt Hill
#
# Bulk Modulus (GPa) = 45.93257 83.32649 64.62953
# Shear Modulus (GPa) = 27.07541 51.97525 39.52533
#
# Velocity S-wave (km/s) = 3.15754 4.37481 3.81504
# Velocity P-wave (km/s) = 5.49611 7.49681 6.57303
#
# Compressibility (1/GPa) = 0.02177105
#
# Stress axis : x y z
#
# Youngs Moduli (GPa) = 164.79742 33.09184 162.67457
#
# Poissons Ratio (x) = 0.18734 0.10538
# Poissons Ratio (y) = 0.93296 0.65436
# Poissons Ratio (z) = 0.10676 0.13311
#
# Static dielectric constant tensor:
#      x y z
#    x 2.001290 0.000000 0.014000 
#    y 0.000000 1.278640 0.000000 
#    z 0.014000 0.000000 1.998590 
# 
# From -- ./inp_files/8474.got.cif
#   From: 2010.05.17/outbox.cif.g08.bks.cpg/sg9_5_cif.got.tgz:8474.got - 2010.06.03 20:04:27.
