data_PCOD9136852
_publ_section_title
;
Structure prediction by ZEFSAII (Michael W. Deem and Ramdas Pophale) SiO2 
 PCOD9136852
Probable space group: C C
;
_chemical_formula_sum "Si O2"
_cell_formula_units_Z 32
_cell_length_a 10.858696
_cell_length_b 19.321812
_cell_length_c 8.227802
_cell_angle_alpha 90.000000
_cell_angle_beta 54.194722
_cell_angle_gamma 90.000000
_cell_volume 1400.024161
_symmetry_space_group_name_H-M "C C"
_symmetry_group_IT_number 9
_symmetry_cell_setting 'monoclinic'
loop_
_space_group_symop_operation_xyz
x,y,z
x,-y,1/2+z
1/2+x,1/2+y,z
1/2+x,1/2-y,1/2+z
loop_
_atom_site_type_symbol
_atom_site_label
_atom_site_fract_x
_atom_site_fract_y
_atom_site_fract_z
Si Si1 0.226200 0.331847 0.418000
Si Si2 0.864603 0.444253 0.387936
Si Si3 0.942818 0.407783 0.682893
Si Si4 0.982219 0.186917 0.978452
Si Si5 0.187083 0.192999 0.276481
Si Si6 0.312049 0.199343 0.810587
Si Si7 0.917127 0.088792 0.521584
Si Si8 0.509987 0.543570 0.136824
O O1 0.373303 0.310595 0.408001
O O2 0.156574 0.264573 0.388624
O O3 0.282570 0.381012 0.229624
O O4 0.097320 0.371170 0.618962
O O5 0.951291 0.425246 0.484523
O O6 0.910970 0.519357 0.291109
O O7 0.879230 0.378916 0.253954
O O8 0.683177 0.448389 0.566164
O O9 0.804791 0.352946 0.791467
O O10 0.920456 0.240837 0.161173
O O11 0.980753 0.107497 0.040083
O O12 0.159574 0.203143 0.819892
O O13 0.258782 0.206126 0.041261
O O14 0.031486 0.150615 0.388973
O O15 0.887409 0.051161 0.374414
O O16 0.999394 0.030488 0.563955
#
# Coordination Sequence:
#
# PCOD9136852 Si02
#       8
#     4   4   4   4   4   4   4   4
#     4  12  29  41  65 105 143 178 227 291 350 405
#     4  10  21  44  70  98 130 177 229 279 331 415
#     4  11  24  44  66  99 134 178 230 274 347 400
#     4  11  25  46  68 104 139 176 234 284 347 410
#     4  11  23  45  72  95 137 186 230 279 339 425
#     4  10  24  45  71 103 131 184 230 282 351 406
#     4  12  23  44  72 100 134 184 228 288 343 415
#     4  11  21  45  72  98 132 181 236 279 342 412
#
# _framework density 22.856748
#
# number of rings (size 3 to 8) (size 9 to 14) (size 15 to 20)
#    0.000    1.000    5.000    2.250    7.000    4.000 
#    2.250    0.000    0.000    0.000    0.000    0.000 
#    0.000    0.000    0.000    0.000    0.000    0.000 
#
# Total GULP energy -89510.054094 kJ/mol
# GULP energy per Si atom -5594.378381 kJ/mol
# Density = 2.280472 g / cm^3
# Si number density = 22.856748 Si / 1000 Ang^3
#
#
#
# Elastic Constant Matrix: (Units=GPa)
#
#
# Indices 1 2 3 4 5 6 
#
# 1 33.1053 21.1797 -11.2475 0.0000 1.1788 0.0000
# 2 21.1797 124.2656 27.7767 0.0000 -8.4698 0.0000
# 3 -11.2475 27.7767 37.8911 0.0000 -4.1887 0.0000
# 4 0.0000 0.0000 0.0000 37.8342 0.0000 3.5484
# 5 1.1788 -8.4698 -4.1887 0.0000 20.2573 0.0000
# 6 0.0000 0.0000 0.0000 3.5484 0.0000 15.8056
#
#
#
# Elastic Compliance Matrix: (Units=1/GPa)
#
#
# Indices 1 2 3 4 5 6 
#
# 1 0.046896 -0.013464 0.023401 0.000000 -0.003520 0.000000
# 2 -0.013464 0.013628 -0.013581 0.000000 0.003673 0.000000
# 3 0.023401 -0.013581 0.043510 0.000000 0.001957 0.000000
# 4 0.000000 0.000000 0.000000 0.027000 0.000000 -0.006062
# 5 -0.003520 0.003673 0.001957 0.000000 0.051510 0.000000
# 6 0.000000 0.000000 0.000000 -0.006062 0.000000 0.064629
#
#
# Mechanical properties :
#
#
# Convention : Reuss Voigt Hill
#
# Bulk Modulus (GPa) = 10.33615 30.07551 20.20583
# Shear Modulus (GPa) = 17.43931 25.28296 21.36114
#
# Velocity S-wave (km/s) = 2.76521 3.32949 3.06038
# Velocity P-wave (km/s) = 3.83760 5.28843 4.62032
#
# Compressibility (1/GPa) = 0.09674781
#
# Stress axis : x y z
#
# Youngs Moduli (GPa) = 21.32369 73.37826 22.98339
#
# Poissons Ratio (x) = 0.98794 -0.53784
# Poissons Ratio (y) = 0.28709 0.31213
# Poissons Ratio (z) = -0.49900 0.99653
#
# Static dielectric constant tensor:
#      x y z
#    x 1.846970 0.000000 0.019510 
#    y 0.000000 1.834170 0.000000 
#    z 0.019510 0.000000 1.865580 
# 
# From -- ./inp_files/8037.got.cif
#   From: 2010.05.17/outbox.cif.g08.bks.cpg/sg9_5_cif.got.tgz:8037.got - 2010.06.03 20:04:27.
