data_PCOD9136084
_publ_section_title
;
Structure prediction by ZEFSAII (Michael W. Deem and Ramdas Pophale) SiO2 
 PCOD9136084
Probable space group: C C
;
_chemical_formula_sum "Si O2"
_cell_formula_units_Z 24
_cell_length_a 11.249199
_cell_length_b 15.157831
_cell_length_c 5.292530
_cell_angle_alpha 90.000000
_cell_angle_beta 80.988723
_cell_angle_gamma 90.000000
_cell_volume 891.309158
_symmetry_space_group_name_H-M "C C"
_symmetry_group_IT_number 9
_symmetry_cell_setting 'monoclinic'
loop_
_space_group_symop_operation_xyz
x,y,z
x,-y,1/2+z
1/2+x,1/2+y,z
1/2+x,1/2-y,1/2+z
loop_
_atom_site_type_symbol
_atom_site_label
_atom_site_fract_x
_atom_site_fract_y
_atom_site_fract_z
Si Si1 0.665050 0.954659 0.574530
Si Si2 0.869080 0.442231 0.967393
Si Si3 0.456089 0.750785 0.905770
Si Si4 0.369144 0.397682 0.802841
Si Si5 0.216757 0.296849 0.232162
Si Si6 0.105024 0.861170 0.977397
O O1 0.810176 0.958638 0.601095
O O2 0.659661 0.854621 0.478123
O O3 0.615581 0.005480 0.347736
O O4 0.884253 0.489738 0.692274
O O5 0.952452 0.354239 0.972562
O O6 0.727714 0.410454 0.010160
O O7 0.347191 0.743170 0.742107
O O8 0.561096 0.696651 0.731535
O O9 0.404541 0.692493 0.149031
O O10 0.491860 0.418379 0.914618
O O11 0.252634 0.366943 0.006854
O O12 0.136097 0.210534 0.246736
#
# Coordination Sequence:
#
# PCOD9136084 Si02
#       6
#     4   4   4   4   4   4
#     4  11  21  38  61  87 129 166 205 270 339 391
#     4  11  27  46  72 104 147 180 229 299 360 403
#     4   9  22  42  66  95 136 185 228 275 347 423
#     4  10  21  38  69  93 128 177 227 277 346 417
#     4   9  20  40  63  91 128 180 225 276 333 416
#     4  10  23  42  69 100 130 182 238 279 337 428
#
# _framework density 26.926686
#
# number of rings (size 3 to 8) (size 9 to 14) (size 15 to 20)
#    0.000    2.000    1.667    0.000    9.333    4.000 
#    0.000    1.667    0.000    0.000    0.000    0.000 
#    0.000    0.000    0.000    0.000    0.000    0.000 
#
# Total GULP energy -66980.677536 kJ/mol
# GULP energy per Si atom -5581.723128 kJ/mol
# Density = 2.686540 g / cm^3
# Si number density = 26.926686 Si / 1000 Ang^3
#
#
#
# Elastic Constant Matrix: (Units=GPa)
#
#
# Indices 1 2 3 4 5 6 
#
# 1 117.0239 23.8133 35.1115 0.0000 -5.4924 0.0000
# 2 23.8133 79.4098 31.2590 0.0000 -13.1817 0.0000
# 3 35.1115 31.2590 146.2115 0.0000 -1.0943 0.0000
# 4 0.0000 0.0000 0.0000 34.4223 0.0000 -18.5966
# 5 -5.4924 -13.1817 -1.0943 0.0000 34.7228 0.0000
# 6 0.0000 0.0000 0.0000 -18.5966 0.0000 56.7148
#
#
#
# Elastic Compliance Matrix: (Units=1/GPa)
#
#
# Indices 1 2 3 4 5 6 
#
# 1 0.009545 -0.002018 -0.001856 0.000000 0.000685 0.000000
# 2 -0.002018 0.015155 -0.002715 0.000000 0.005348 0.000000
# 3 -0.001856 -0.002715 0.007857 0.000000 -0.001077 0.000000
# 4 0.000000 0.000000 0.000000 0.035305 0.000000 0.011576
# 5 0.000685 0.005348 -0.001077 0.000000 0.030904 0.000000
# 6 0.000000 0.000000 0.000000 0.011576 0.000000 0.021428
#
#
# Mechanical properties :
#
#
# Convention : Reuss Voigt Hill
#
# Bulk Modulus (GPa) = 51.60201 58.11253 54.85727
# Shear Modulus (GPa) = 35.75720 42.00275 38.87998
#
# Velocity S-wave (km/s) = 3.64805 3.95383 3.80402
# Velocity P-wave (km/s) = 6.07864 6.51708 6.30168
#
# Compressibility (1/GPa) = 0.01937909
#
# Stress axis : x y z
#
# Youngs Moduli (GPa) = 104.76890 65.98582 127.26775
#
# Poissons Ratio (x) = 0.13317 0.23615
# Poissons Ratio (y) = 0.21144 0.34557
# Poissons Ratio (z) = 0.19440 0.17917
#
# Static dielectric constant tensor:
#      x y z
#    x 2.174860 0.000000 -0.040310 
#    y 0.000000 2.220950 0.000000 
#    z -0.040310 0.000000 2.220160 
# 
# From -- ./inp_files/2431.got.cif
#   From: 2010.05.17/outbox.cif.g08.bks.cpg/sg9_2_cif.got.tgz:2431.got - 2010.06.03 20:04:27.
