data_PCOD9136255
_publ_section_title
;
Structure prediction by ZEFSAII (Michael W. Deem and Ramdas Pophale) SiO2 
 PCOD9136255
Probable space group: C C
;
_chemical_formula_sum "Si O2"
_cell_formula_units_Z 28
_cell_length_a 11.387759
_cell_length_b 9.205391
_cell_length_c 14.927157
_cell_angle_alpha 90.000000
_cell_angle_beta 114.342807
_cell_angle_gamma 90.000000
_cell_volume 1425.678313
_symmetry_space_group_name_H-M "C C"
_symmetry_group_IT_number 9
_symmetry_cell_setting 'monoclinic'
loop_
_space_group_symop_operation_xyz
x,y,z
x,-y,1/2+z
1/2+x,1/2+y,z
1/2+x,1/2-y,1/2+z
loop_
_atom_site_type_symbol
_atom_site_label
_atom_site_fract_x
_atom_site_fract_y
_atom_site_fract_z
Si Si1 0.272150 0.170601 0.016150
Si Si2 0.151846 0.327690 0.329410
Si Si3 0.762443 0.331185 0.023635
Si Si4 0.260118 0.366656 0.850804
Si Si5 0.362956 0.839544 0.238325
Si Si6 0.997801 0.868867 0.044497
Si Si7 0.170844 0.104343 0.173666
O O1 0.414956 0.242904 0.067132
O O2 0.197408 0.181650 0.086437
O O3 0.209640 0.260615 0.914468
O O4 0.276561 0.998769 0.996743
O O5 0.249972 0.276048 0.437279
O O6 0.179477 0.490885 0.308830
O O7 0.161529 0.214852 0.251533
O O8 0.006431 0.330225 0.320716
O O9 0.866941 0.304480 0.133620
O O10 0.628404 0.319485 0.036998
O O11 0.279819 0.274062 0.768315
O O12 0.398478 0.416231 0.935346
O O13 0.292672 0.994877 0.224693
O O14 0.046451 0.999651 0.122592
#
# Coordination Sequence:
#
# PCOD9136255 Si02
#       7
#     4   4   4   4   4   4   4
#     4   8  18  40  63  87 117 162 204 247 307 358
#     4  12  24  38  61  96 122 161 204 253 308 366
#     4  10  21  40  65  87 124 162 204 257 302 363
#     4  10  21  40  62  90 122 159 206 248 310 360
#     4  10  23  42  60  90 123 161 207 250 307 362
#     4   8  18  40  65  79 122 161 199 251 307 346
#     4  10  23  40  62  91 122 162 208 248 307 367
#
# _framework density 19.639773000000002
#
# number of rings (size 3 to 8) (size 9 to 14) (size 15 to 20)
#    0.857    1.714    1.429    0.857    2.000    6.857 
#    5.143    2.857    0.000    0.000    0.000    0.000 
#    0.000    0.000    0.000    0.000    0.000    0.000 
#
# Total GULP energy -77978.894177 kJ/mol
# GULP energy per Si atom -5569.921013 kJ/mol
# Density = 1.959507 g / cm^3
# Si number density = 19.639773 Si / 1000 Ang^3
#
#
#
# Elastic Constant Matrix: (Units=GPa)
#
#
# Indices 1 2 3 4 5 6 
#
# 1 42.7072 29.7842 -3.4267 0.0000 0.0514 0.0000
# 2 29.7842 98.9494 49.9282 0.0000 -16.2997 0.0000
# 3 -3.4267 49.9282 71.0630 0.0000 -4.7525 0.0000
# 4 0.0000 0.0000 0.0000 30.3995 0.0000 1.4422
# 5 0.0514 -16.2997 -4.7525 0.0000 18.2604 0.0000
# 6 0.0000 0.0000 0.0000 1.4422 0.0000 32.0088
#
#
#
# Elastic Compliance Matrix: (Units=1/GPa)
#
#
# Indices 1 2 3 4 5 6 
#
# 1 0.042230 -0.024841 0.018317 0.000000 -0.017525 0.000000
# 2 -0.024841 0.032958 -0.022778 0.000000 0.023561 0.000000
# 3 0.018317 -0.022778 0.030120 0.000000 -0.012545 0.000000
# 4 0.000000 0.000000 0.000000 0.032966 0.000000 -0.001485
# 5 -0.017525 0.023561 -0.012545 0.000000 0.072578 0.000000
# 6 0.000000 0.000000 0.000000 -0.001485 0.000000 0.031308
#
#
# Mechanical properties :
#
#
# Convention : Reuss Voigt Hill
#
# Bulk Modulus (GPa) = 21.41112 40.58788 30.99950
# Shear Modulus (GPa) = 15.80618 25.22933 20.51776
#
# Velocity S-wave (km/s) = 2.83999 3.58803 3.23570
# Velocity P-wave (km/s) = 4.65614 6.15437 5.45692
#
# Compressibility (1/GPa) = 0.04670471
#
# Stress axis : x y z
#
# Youngs Moduli (GPa) = 23.67976 30.34178 33.20055
#
# Poissons Ratio (x) = 0.75372 -0.60814
# Poissons Ratio (y) = 0.58823 0.75624
# Poissons Ratio (z) = -0.43375 0.69113
#
# Static dielectric constant tensor:
#      x y z
#    x 1.700970 0.000000 0.016780 
#    y 0.000000 1.664460 0.000000 
#    z 0.016780 0.000000 1.708460 
# 
# From -- ./inp_files/24267.got.cif
#   From: 2010.05.17/outbox.cif.g08.bks.cpg/sg9_13_cif.got.tgz:24267.got - 2010.06.03 20:04:27.
