data_PCOD9136649
_publ_section_title
;
Structure prediction by ZEFSAII (Michael W. Deem and Ramdas Pophale) SiO2 
 PCOD9136649
Probable space group: C C
;
_chemical_formula_sum "Si O2"
_cell_formula_units_Z 28
_cell_length_a 11.020951
_cell_length_b 9.688704
_cell_length_c 20.965428
_cell_angle_alpha 90.000000
_cell_angle_beta 29.664123
_cell_angle_gamma 90.000000
_cell_volume 1107.946550
_symmetry_space_group_name_H-M "C C"
_symmetry_group_IT_number 9
_symmetry_cell_setting 'monoclinic'
loop_
_space_group_symop_operation_xyz
x,y,z
x,-y,1/2+z
1/2+x,1/2+y,z
1/2+x,1/2-y,1/2+z
loop_
_atom_site_type_symbol
_atom_site_label
_atom_site_fract_x
_atom_site_fract_y
_atom_site_fract_z
Si Si1 0.719830 0.260373 0.193460
Si Si2 0.157714 0.949040 0.683209
Si Si3 0.760994 0.879295 0.943118
Si Si4 0.936380 0.625166 0.927779
Si Si5 0.916223 0.766252 0.151500
Si Si6 0.525283 0.512800 0.019658
Si Si7 0.414319 0.647311 0.943301
O O1 0.585685 0.389970 0.221321
O O2 0.780220 0.102806 0.148791
O O3 0.599947 0.260847 0.317961
O O4 0.987720 0.327984 0.064212
O O5 0.330467 0.926194 0.543411
O O6 0.293673 0.876845 0.682462
O O7 0.900174 0.867414 0.811466
O O8 0.867794 0.785122 0.950542
O O9 0.799079 0.031853 0.950250
O O10 0.222784 0.636522 0.778041
O O11 0.761858 0.554644 0.953839
O O12 0.979895 0.854677 0.058708
O O13 0.169818 0.733552 0.072185
O O14 0.555693 0.565196 0.933909
#
# Coordination Sequence:
#
# PCOD9136649 Si02
#       7
#     4   4   4   4   4   4   4
#     4  10  23  42  67 102 137 191 235 295 356 429
#     4  10  21  42  70  96 140 187 241 287 359 437
#     4   9  20  43  67 101 132 190 237 291 360 425
#     4  10  24  43  69 103 144 186 238 302 364 428
#     4  11  25  45  69 108 140 191 241 295 364 427
#     4  11  27  42  68 105 146 184 239 302 361 425
#     4  11  24  45  72 103 147 189 243 296 358 441
#
# _framework density 25.271977
#
# number of rings (size 3 to 8) (size 9 to 14) (size 15 to 20)
#    0.000    1.714    1.429    0.857    4.000   10.286 
#    0.000    0.000    0.000    0.000    0.000    0.000 
#    0.000    0.000    0.000    0.000    0.000    0.000 
#
# Total GULP energy -77989.000061 kJ/mol
# GULP energy per Si atom -5570.642861 kJ/mol
# Density = 2.521446 g / cm^3
# Si number density = 25.271977 Si / 1000 Ang^3
#
#
#
# Elastic Constant Matrix: (Units=GPa)
#
#
# Indices 1 2 3 4 5 6 
#
# 1 79.0796 -3.1761 29.0197 -0.0031 1.2094 -0.0018
# 2 -3.1761 81.1151 -21.5280 0.0028 4.2480 0.0018
# 3 29.0197 -21.5280 99.8996 -0.0300 -1.9194 -0.0167
# 4 -0.0031 0.0028 -0.0300 -176.9301 0.0155 -112.1362
# 5 1.2094 4.2480 -1.9194 0.0155 22.5902 0.0092
# 6 -0.0018 0.0018 -0.0167 -112.1362 0.0092 -46.9684
#
#
#
# Elastic Compliance Matrix: (Units=1/GPa)
#
#
# Indices 1 2 3 4 5 6 
#
# 1 0.014203 -0.000520 -0.004257 0.000000 -0.001024 0.000000
# 2 -0.000520 0.013207 0.002955 0.000000 -0.002205 0.000000
# 3 -0.004257 0.002955 0.011897 -0.000001 0.000683 -0.000001
# 4 0.000000 0.000000 -0.000001 0.011014 0.000003 -0.026296
# 5 -0.001024 -0.002205 0.000683 0.000003 0.044794 0.000001
# 6 0.000000 0.000000 -0.000001 -0.026296 0.000001 0.041490
#
#
# Mechanical properties :
#
#
# Convention : Reuss Voigt Hill
#
# Bulk Modulus (GPa) = 28.04158 29.85838 28.94998
# Shear Modulus (GPa) = 32.86488 -23.20976 4.82756
#
# Velocity S-wave (km/s) = 3.61008 -3.03380 1.38361
# Velocity P-wave (km/s) = 5.33825 0.65684 3.74603
#
# Compressibility (1/GPa) = 0.03566133
#
# Stress axis : x y z
#
# Youngs Moduli (GPa) = 70.40959 75.71456 84.05690
#
# Poissons Ratio (x) = 0.03939 0.35787
# Poissons Ratio (y) = 0.03663 -0.24838
# Poissons Ratio (z) = 0.29977 -0.22373
#
# Static dielectric constant tensor:
#      x y z
#    x 2.108650 0.000010 0.003550 
#    y 0.000010 3.346660 -0.000020 
#    z 0.003550 -0.000020 2.105790 
# 
# From -- ./inp_files/16096.got.cif
#   From: 2010.05.17/outbox.cif.g08.bks.cpg/sg9_9_cif.got.tgz:16096.got - 2010.06.03 20:04:27.
