data_PCOD9136044
_publ_section_title
;
Structure prediction by ZEFSAII (Michael W. Deem and Ramdas Pophale) SiO2 
 PCOD9136044
Probable space group: C C
;
_chemical_formula_sum "Si O2"
_cell_formula_units_Z 28
_cell_length_a 18.880805
_cell_length_b 10.302502
_cell_length_c 11.737979
_cell_angle_alpha 90.000000
_cell_angle_beta 32.631387
_cell_angle_gamma 90.000000
_cell_volume 1231.210653
_symmetry_space_group_name_H-M "C C"
_symmetry_group_IT_number 9
_symmetry_cell_setting 'monoclinic'
loop_
_space_group_symop_operation_xyz
x,y,z
x,-y,1/2+z
1/2+x,1/2+y,z
1/2+x,1/2-y,1/2+z
loop_
_atom_site_type_symbol
_atom_site_label
_atom_site_fract_x
_atom_site_fract_y
_atom_site_fract_z
Si Si1 0.211220 0.111789 0.500000
Si Si2 0.108114 0.189250 0.413988
Si Si3 0.957897 0.970948 0.934761
Si Si4 0.640443 0.138337 0.209738
Si Si5 0.776787 0.855032 0.013000
Si Si6 0.704723 0.871417 0.865347
Si Si7 0.981312 0.578915 0.230182
O O1 0.191195 0.105666 0.391979
O O2 0.221780 0.263395 0.520510
O O3 0.336789 0.043521 0.384411
O O4 0.076527 0.062569 0.737209
O O5 0.006608 0.111589 0.475164
O O6 0.029713 0.297786 0.591382
O O7 0.205524 0.260077 0.196120
O O8 0.917904 0.884602 0.878419
O O9 0.831030 0.048723 0.149753
O O10 0.649572 0.194455 0.324909
O O11 0.500386 0.119339 0.336723
O O12 0.705245 0.995962 0.116972
O O13 0.756050 0.805999 0.912149
O O14 0.585140 0.966111 0.062445
#
# Coordination Sequence:
#
# PCOD9136044 Si02
#       7
#     4   4   4   4   4   4   4
#     4  11  25  40  67  97 129 167 219 269 320 381
#     4  11  22  42  69  94 126 170 221 259 325 387
#     4  11  23  42  64  98 126 171 216 270 320 383
#     4   9  21  38  64  94 125 167 211 260 319 381
#     4  10  21  43  67  93 126 172 215 262 320 385
#     4  10  21  43  65  92 132 168 214 261 327 380
#     4  10  21  38  64  96 120 173 212 261 317 383
#
# _framework density 22.741844
#
# number of rings (size 3 to 8) (size 9 to 14) (size 15 to 20)
#    0.000    1.714    2.857    1.714   12.000    1.143 
#   10.286    0.000    0.000    0.000    0.000    0.000 
#    0.000    0.000    0.000    0.000    0.000    0.000 
#
# Total GULP energy -78179.481200 kJ/mol
# GULP energy per Si atom -5584.248657 kJ/mol
# Density = 2.269008 g / cm^3
# Si number density = 22.741844 Si / 1000 Ang^3
#
#
#
# Elastic Constant Matrix: (Units=GPa)
#
#
# Indices 1 2 3 4 5 6 
#
# 1 223.5361 16.2228 34.7787 0.0000 -0.1822 0.0000
# 2 16.2228 10.8241 6.0201 0.0000 -1.4591 0.0000
# 3 34.7787 6.0201 61.4903 0.0000 -22.5883 0.0000
# 4 0.0000 0.0000 0.0000 6.1807 0.0000 10.1162
# 5 -0.1822 -1.4591 -22.5883 0.0000 37.8674 0.0000
# 6 0.0000 0.0000 0.0000 10.1162 0.0000 24.1225
#
#
#
# Elastic Compliance Matrix: (Units=1/GPa)
#
#
# Indices 1 2 3 4 5 6 
#
# 1 0.005458 -0.006677 -0.003225 0.000000 -0.002155 0.000000
# 2 -0.006677 0.106058 -0.006554 0.000000 0.000145 0.000000
# 3 -0.003225 -0.006554 0.023858 0.000000 0.013963 0.000000
# 4 0.000000 0.000000 0.000000 0.515922 0.000000 -0.216361
# 5 -0.002155 0.000145 0.013963 0.000000 0.034732 0.000000
# 6 0.000000 0.000000 0.000000 -0.216361 0.000000 0.132190
#
#
# Mechanical properties :
#
#
# Convention : Reuss Voigt Hill
#
# Bulk Modulus (GPa) = 9.75964 45.54374 27.65169
# Shear Modulus (GPa) = 5.64790 29.55605 17.60198
#
# Velocity S-wave (km/s) = 1.57762 3.60895 2.78509
# Velocity P-wave (km/s) = 2.76031 6.11849 4.74633
#
# Compressibility (1/GPa) = 0.10246277
#
# Stress axis : x y z
#
# Youngs Moduli (GPa) = 183.21291 9.42877 41.91509
#
# Poissons Ratio (x) = 0.06296 0.13517
# Poissons Ratio (y) = 1.22336 0.27469
# Poissons Ratio (z) = 0.59084 0.06179
#
# Static dielectric constant tensor:
#      x y z
#    x 1.961750 0.000000 -0.008860 
#    y 0.000000 1.891550 0.000000 
#    z -0.008860 0.000000 1.857690 
# 
# From -- ./inp_files/16357.got.cif
#   From: 2010.05.17/outbox.cif.g08.bks.cpg/sg9_9_cif.got.tgz:16357.got - 2010.06.03 20:04:27.
