data_PCOD9136349
_publ_section_title
;
Structure prediction by ZEFSAII (Michael W. Deem and Ramdas Pophale) SiO2 
 PCOD9136349
Probable space group: C C
;
_chemical_formula_sum "Si O2"
_cell_formula_units_Z 28
_cell_length_a 10.345971
_cell_length_b 9.606132
_cell_length_c 13.950942
_cell_angle_alpha 90.000000
_cell_angle_beta 113.379674
_cell_angle_gamma 90.000000
_cell_volume 1272.672210
_symmetry_space_group_name_H-M "C C"
_symmetry_group_IT_number 9
_symmetry_cell_setting 'monoclinic'
loop_
_space_group_symop_operation_xyz
x,y,z
x,-y,1/2+z
1/2+x,1/2+y,z
1/2+x,1/2-y,1/2+z
loop_
_atom_site_type_symbol
_atom_site_label
_atom_site_fract_x
_atom_site_fract_y
_atom_site_fract_z
Si Si1 0.682960 0.588552 0.145190
Si Si2 0.285507 0.221101 0.705559
Si Si3 0.353081 0.831065 0.876210
Si Si4 0.851699 0.112344 0.035353
Si Si5 0.876730 0.370806 0.423675
Si Si6 0.857471 0.819773 0.081612
Si Si7 0.074977 0.788985 0.294303
O O1 0.736179 0.429674 0.151133
O O2 0.726649 0.627618 0.267099
O O3 0.519644 0.596021 0.073629
O O4 0.762670 0.703311 0.104526
O O5 0.324802 0.315305 0.629008
O O6 0.400811 0.180854 0.821511
O O7 0.163952 0.290971 0.737297
O O8 0.480459 0.785685 0.844116
O O9 0.409858 0.968513 0.946812
O O10 0.307267 0.711865 0.935674
O O11 0.787137 0.957305 0.017581
O O12 0.932866 0.262295 0.517026
O O13 0.704819 0.366195 0.381873
O O14 0.964458 0.872008 0.195729
#
# Coordination Sequence:
#
# PCOD9136349 Si02
#       7
#     4   4   4   4   4   4   4
#     4  10  22  45  62  87 124 169 195 255 303 366
#     4   9  21  44  63  85 128 159 206 244 310 354
#     4  10  21  40  68  88 121 165 209 240 316 356
#     4  12  23  41  62  97 120 160 205 259 294 374
#     4   9  20  41  59  93 119 163 200 248 302 367
#     4  11  21  40  66  91 125 159 206 250 314 349
#     4   9  20  43  62  87 125 163 197 258 293 368
#
# _framework density 22.000952000000002
#
# number of rings (size 3 to 8) (size 9 to 14) (size 15 to 20)
#    0.857    1.143    1.429    1.714    0.000    2.286 
#   15.429    1.429    0.000    0.000    0.000    0.000 
#    0.000    0.000    0.000    0.000    0.000    0.000 
#
# Total GULP energy -78001.337477 kJ/mol
# GULP energy per Si atom -5571.524106 kJ/mol
# Density = 2.195088 g / cm^3
# Si number density = 22.000952 Si / 1000 Ang^3
#
#
#
# Elastic Constant Matrix: (Units=GPa)
#
#
# Indices 1 2 3 4 5 6 
#
# 1 35.9226 4.2487 4.4980 0.0000 -5.3777 0.0000
# 2 4.2487 119.4099 49.0018 0.0000 -27.4551 0.0000
# 3 4.4980 49.0018 77.3876 0.0000 -12.4661 0.0000
# 4 0.0000 0.0000 0.0000 31.1723 0.0000 -11.6001
# 5 -5.3777 -27.4551 -12.4661 0.0000 25.0791 0.0000
# 6 0.0000 0.0000 0.0000 -11.6001 0.0000 26.2244
#
#
#
# Elastic Compliance Matrix: (Units=1/GPa)
#
#
# Indices 1 2 3 4 5 6 
#
# 1 0.028875 0.001023 -0.001248 0.000000 0.006691 0.000000
# 2 0.001023 0.013965 -0.006961 0.000000 0.012047 0.000000
# 3 -0.001248 -0.006961 0.017536 0.000000 0.000828 0.000000
# 4 0.000000 0.000000 0.000000 0.038401 0.000000 0.016986
# 5 0.006691 0.012047 0.000828 0.000000 0.054908 0.000000
# 6 0.000000 0.000000 0.000000 0.016986 0.000000 0.045646
#
#
# Mechanical properties :
#
#
# Convention : Reuss Voigt Hill
#
# Bulk Modulus (GPa) = 21.73796 38.69079 30.21438
# Shear Modulus (GPa) = 21.83053 28.15994 24.99523
#
# Velocity S-wave (km/s) = 3.15342 3.58151 3.37426
# Velocity P-wave (km/s) = 4.81255 5.89297 5.37995
#
# Compressibility (1/GPa) = 0.04600247
#
# Stress axis : x y z
#
# Youngs Moduli (GPa) = 34.63252 71.60946 57.02618
#
# Poissons Ratio (x) = -0.07329 0.07119
# Poissons Ratio (y) = -0.03545 0.39698
# Poissons Ratio (z) = 0.04324 0.49849
#
# Static dielectric constant tensor:
#      x y z
#    x 1.841230 0.000000 0.034520 
#    y 0.000000 1.820880 0.000000 
#    z 0.034520 0.000000 1.858870 
# 
# From -- ./inp_files/24124.got.cif
#   From: 2010.05.17/outbox.cif.g08.bks.cpg/sg9_13_cif.got.tgz:24124.got - 2010.06.03 20:04:27.
