data_PCOD9136106
_publ_section_title
;
Structure prediction by ZEFSAII (Michael W. Deem and Ramdas Pophale) SiO2 
 PCOD9136106
Probable space group: C C
;
_chemical_formula_sum "Si O2"
_cell_formula_units_Z 28
_cell_length_a 21.730560
_cell_length_b 5.401423
_cell_length_c 10.540135
_cell_angle_alpha 90.000000
_cell_angle_beta 107.343672
_cell_angle_gamma 90.000000
_cell_volume 1180.909506
_symmetry_space_group_name_H-M "C C"
_symmetry_group_IT_number 9
_symmetry_cell_setting 'monoclinic'
loop_
_space_group_symop_operation_xyz
x,y,z
x,-y,1/2+z
1/2+x,1/2+y,z
1/2+x,1/2-y,1/2+z
loop_
_atom_site_type_symbol
_atom_site_label
_atom_site_fract_x
_atom_site_fract_y
_atom_site_fract_z
Si Si1 0.401010 0.313354 0.007900
Si Si2 0.933276 0.317936 0.934967
Si Si3 0.279688 0.695961 0.259234
Si Si4 0.554226 0.018227 0.415762
Si Si5 0.603083 0.507273 0.539777
Si Si6 0.810954 0.294305 0.689342
Si Si7 0.157785 0.792115 0.334502
O O1 0.355349 0.289982 0.100768
O O2 0.441190 0.564854 0.017942
O O3 0.352332 0.317987 0.857387
O O4 0.440583 0.060762 0.024831
O O5 0.860194 0.312987 0.838873
O O6 0.981920 0.379190 0.848884
O O7 0.263269 0.434565 0.184287
O O8 0.230582 0.724489 0.345505
O O9 0.279565 0.934663 0.167777
O O10 0.573736 0.230519 0.531386
O O11 0.607524 0.073655 0.340891
O O12 0.558749 0.736299 0.464029
O O13 0.652053 0.470172 0.452059
O O14 0.632391 0.584866 0.690350
#
# Coordination Sequence:
#
# PCOD9136106 Si02
#       7
#     4   4   4   4   4   4   4
#     4  10  21  39  61  91 122 162 206 265 314 387
#     4  10  21  40  60  92 121 161 212 255 323 373
#     4  10  23  37  63  89 126 159 211 257 325 379
#     4  10  24  40  65  94 132 172 216 273 324 394
#     4  10  25  42  65  95 134 170 223 264 331 384
#     4  10  22  39  61  91 121 164 207 260 321 379
#     4  10  26  43  67  98 134 172 223 270 328 396
#
# _framework density 23.710538
#
# number of rings (size 3 to 8) (size 9 to 14) (size 15 to 20)
#    0.857    1.143    0.000    1.714    6.000    3.429 
#    0.000    0.000    0.000    0.000    0.000    0.000 
#    0.000    0.000    0.000    0.000    0.000    0.000 
#
# Total GULP energy -78011.598146 kJ/mol
# GULP energy per Si atom -5572.257010 kJ/mol
# Density = 2.365657 g / cm^3
# Si number density = 23.710538 Si / 1000 Ang^3
#
#
#
# Elastic Constant Matrix: (Units=GPa)
#
#
# Indices 1 2 3 4 5 6 
#
# 1 78.5935 40.3295 -7.5093 0.0000 -25.7884 0.0000
# 2 40.3295 133.7686 0.4024 0.0000 -13.7874 0.0000
# 3 -7.5093 0.4024 51.2058 0.0000 -8.9379 0.0000
# 4 0.0000 0.0000 0.0000 15.1364 0.0000 -15.6892
# 5 -25.7884 -13.7874 -8.9379 0.0000 23.2682 0.0000
# 6 0.0000 0.0000 0.0000 -15.6892 0.0000 25.8325
#
#
#
# Elastic Compliance Matrix: (Units=1/GPa)
#
#
# Indices 1 2 3 4 5 6 
#
# 1 0.025422 -0.004728 0.008783 0.000000 0.028747 0.000000
# 2 -0.004728 0.008873 -0.000815 0.000000 -0.000295 0.000000
# 3 0.008783 -0.000815 0.024051 0.000000 0.018490 0.000000
# 4 0.000000 0.000000 0.000000 0.178329 0.000000 0.108307
# 5 0.028747 -0.000295 0.018490 0.000000 0.081766 0.000000
# 6 0.000000 0.000000 0.000000 0.108307 0.000000 0.104491
#
#
# Mechanical properties :
#
#
# Convention : Reuss Voigt Hill
#
# Bulk Modulus (GPa) = 15.42570 36.66810 26.04690
# Shear Modulus (GPa) = 11.41402 28.20378 19.80890
#
# Velocity S-wave (km/s) = 2.19644 3.45266 2.89355
# Velocity P-wave (km/s) = 3.59895 5.60294 4.70879
#
# Compressibility (1/GPa) = 0.06482688
#
# Stress axis : x y z
#
# Youngs Moduli (GPa) = 39.33677 112.70167 41.57849
#
# Poissons Ratio (x) = 0.53282 -0.36518
# Poissons Ratio (y) = 0.18597 0.03387
# Poissons Ratio (z) = -0.34549 0.09180
#
# Static dielectric constant tensor:
#      x y z
#    x 1.997500 0.000000 0.028170 
#    y 0.000000 1.963350 0.000000 
#    z 0.028170 0.000000 1.875200 
# 
# From -- ./inp_files/19541.got.cif
#   From: 2010.05.17/outbox.cif.g08.bks.cpg/sg9_10_cif.got.tgz:19541.got - 2010.06.03 20:04:27.
