data_PCOD9136159
_publ_section_title
;
Structure prediction by ZEFSAII (Michael W. Deem and Ramdas Pophale) SiO2 
 PCOD9136159
Probable space group: C C
;
_chemical_formula_sum "Si O2"
_cell_formula_units_Z 20
_cell_length_a 19.505380
_cell_length_b 7.446268
_cell_length_c 5.533817
_cell_angle_alpha 90.000000
_cell_angle_beta 76.275157
_cell_angle_gamma 90.000000
_cell_volume 780.794395
_symmetry_space_group_name_H-M "C C"
_symmetry_group_IT_number 9
_symmetry_cell_setting 'monoclinic'
loop_
_space_group_symop_operation_xyz
x,y,z
x,-y,1/2+z
1/2+x,1/2+y,z
1/2+x,1/2-y,1/2+z
loop_
_atom_site_type_symbol
_atom_site_label
_atom_site_fract_x
_atom_site_fract_y
_atom_site_fract_z
Si Si1 0.958790 0.775989 0.875000
Si Si2 0.904138 0.188971 0.923260
Si Si3 0.280222 0.102913 0.653336
Si Si4 0.630158 0.472428 0.777465
Si Si5 0.113073 0.395842 0.308436
O O1 0.942580 0.713174 0.615470
O O2 0.037350 0.705579 0.861932
O O3 0.935599 0.987745 0.879711
O O4 0.917213 0.721682 0.152528
O O5 0.822418 0.213545 0.066525
O O6 0.297761 0.977000 0.404684
O O7 0.195093 0.110500 0.722397
O O8 0.590054 0.496202 0.560320
O O9 0.664172 0.275636 0.755002
O O10 0.119840 0.492977 0.557867
#
# Coordination Sequence:
#
# PCOD9136159 Si02
#       5
#     4   4   4   4   4
#     4  10  23  38  63 100 137 179 219 280 345 408
#     4  10  21  39  64  97 135 173 230 274 340 405
#     4  10  21  39  68  95 129 176 225 279 335 401
#     4  10  23  43  74  97 133 186 232 278 343 404
#     4  12  26  43  69 105 144 178 228 285 345 416
#
# _framework density 25.614937000000001
#
# number of rings (size 3 to 8) (size 9 to 14) (size 15 to 20)
#    0.000    1.600    0.000    3.600    5.600    4.800 
#    0.000    0.000  105.600    0.000    0.000    0.000 
#    0.000    0.000    0.000    0.000    0.000    0.000 
#
# Total GULP energy -55785.190620 kJ/mol
# GULP energy per Si atom -5578.519062 kJ/mol
# Density = 2.555664 g / cm^3
# Si number density = 25.614937 Si / 1000 Ang^3
#
#
#
# Elastic Constant Matrix: (Units=GPa)
#
#
# Indices 1 2 3 4 5 6 
#
# 1 50.6591 12.4049 16.9833 0.0000 -0.9219 0.0000
# 2 12.4049 90.5072 58.0224 0.0000 2.4826 0.0000
# 3 16.9833 58.0224 290.4718 0.0000 20.5635 0.0000
# 4 0.0000 0.0000 0.0000 36.7261 0.0000 -7.3016
# 5 -0.9219 2.4826 20.5635 0.0000 32.1322 0.0000
# 6 0.0000 0.0000 0.0000 -7.3016 0.0000 40.8995
#
#
#
# Elastic Compliance Matrix: (Units=1/GPa)
#
#
# Indices 1 2 3 4 5 6 
#
# 1 0.020613 -0.002327 -0.000833 0.000000 0.001304 0.000000
# 2 -0.002327 0.012948 -0.002487 0.000000 0.000525 0.000000
# 3 -0.000833 -0.002487 0.004165 0.000000 -0.002497 0.000000
# 4 0.000000 0.000000 0.000000 0.028231 0.000000 0.005040
# 5 0.001304 0.000525 -0.002497 0.000000 0.032716 0.000000
# 6 0.000000 0.000000 0.000000 0.005040 0.000000 0.025350
#
#
# Mechanical properties :
#
#
# Convention : Reuss Voigt Hill
#
# Bulk Modulus (GPa) = 37.83420 67.38437 52.60928
# Shear Modulus (GPa) = 34.69151 44.90005 39.79578
#
# Velocity S-wave (km/s) = 3.68414 4.19129 3.94587
# Velocity P-wave (km/s) = 5.73582 7.05594 6.42985
#
# Compressibility (1/GPa) = 0.02643112
#
# Stress axis : x y z
#
# Youngs Moduli (GPa) = 48.51420 77.23152 240.09466
#
# Poissons Ratio (x) = 0.17973 0.19991
# Poissons Ratio (y) = 0.11290 0.59723
# Poissons Ratio (z) = 0.04040 0.19211
#
# Static dielectric constant tensor:
#      x y z
#    x 2.091920 0.000000 0.013250 
#    y 0.000000 2.142330 0.000000 
#    z 0.013250 0.000000 2.067680 
# 
# From -- ./inp_files/2845.got.cif
#   From: 2010.05.17/outbox.cif.g08.bks.cpg/sg9_2_cif.got.tgz:2845.got - 2010.06.03 20:04:27.
