data_PCOD9136741
_publ_section_title
;
Structure prediction by ZEFSAII (Michael W. Deem and Ramdas Pophale) SiO2 
 PCOD9136741
Probable space group: C C
;
_chemical_formula_sum "Si O2"
_cell_formula_units_Z 32
_cell_length_a 15.745272
_cell_length_b 13.670571
_cell_length_c 9.231951
_cell_angle_alpha 90.000000
_cell_angle_beta 48.546539
_cell_angle_gamma 90.000000
_cell_volume 1489.355232
_symmetry_space_group_name_H-M "C C"
_symmetry_group_IT_number 9
_symmetry_cell_setting 'monoclinic'
loop_
_space_group_symop_operation_xyz
x,y,z
x,-y,1/2+z
1/2+x,1/2+y,z
1/2+x,1/2-y,1/2+z
loop_
_atom_site_type_symbol
_atom_site_label
_atom_site_fract_x
_atom_site_fract_y
_atom_site_fract_z
Si Si1 0.061490 0.568798 0.936760
Si Si2 0.866806 0.308621 0.764321
Si Si3 0.169178 0.853079 0.400375
Si Si4 0.776680 0.813285 0.608169
Si Si5 0.804279 0.309387 0.525391
Si Si6 0.912197 0.859683 0.734624
Si Si7 0.357292 0.971373 0.025856
Si Si8 0.208444 0.505287 0.540653
O O1 0.138918 0.585992 0.709151
O O2 0.135923 0.534636 0.988620
O O3 0.988459 0.664405 0.059852
O O4 0.971971 0.483266 0.990528
O O5 0.782691 0.301017 0.721884
O O6 0.843082 0.215329 0.888077
O O7 0.855192 0.395904 0.895323
O O8 0.184153 0.766317 0.264504
O O9 0.208501 0.809776 0.510630
O O10 0.254799 0.937017 0.245699
O O11 0.041632 0.887631 0.565322
O O12 0.865911 0.815215 0.637063
O O13 0.723193 0.917403 0.637417
O O14 0.890985 0.224613 0.378246
O O15 0.848087 0.420815 0.469816
O O16 0.828807 0.949665 0.862679
#
# Coordination Sequence:
#
# PCOD9136741 Si02
#       8
#     4   4   4   4   4   4   4   4
#     4  11  23  41  75 100 132 174 236 283 329 400
#     4  10  22  40  67 102 131 166 228 285 331 392
#     4  10  24  44  69  95 140 178 225 277 345 406
#     4  10  25  45  66  97 137 180 227 272 345 406
#     4  10  22  40  65  98 134 170 227 271 334 397
#     4  11  26  46  64 101 139 185 218 278 347 409
#     4  10  21  43  69 104 128 177 225 288 334 392
#     4  12  25  45  71  99 139 184 226 278 343 406
#
# _framework density 21.485807999999999
#
# number of rings (size 3 to 8) (size 9 to 14) (size 15 to 20)
#    0.000    1.500    2.500    1.500    5.250    7.000 
#    0.000    1.250    0.000    0.000    0.000    0.000 
#    0.000    0.000    0.000    0.000    0.000    0.000 
#
# Total GULP energy -89268.976495 kJ/mol
# GULP energy per Si atom -5579.311031 kJ/mol
# Density = 2.143691 g / cm^3
# Si number density = 21.485808 Si / 1000 Ang^3
#
#
#
# Elastic Constant Matrix: (Units=GPa)
#
#
# Indices 1 2 3 4 5 6 
#
# 1 90.8524 11.7283 58.0464 0.0000 -1.4070 0.0000
# 2 11.7283 58.0987 8.5606 0.0000 -6.7116 0.0000
# 3 58.0464 8.5606 89.7416 0.0000 -17.4295 0.0000
# 4 0.0000 0.0000 0.0000 38.4604 0.0000 5.0402
# 5 -1.4070 -6.7116 -17.4295 0.0000 44.1414 0.0000
# 6 0.0000 0.0000 0.0000 5.0402 0.0000 16.0454
#
#
#
# Elastic Compliance Matrix: (Units=1/GPa)
#
#
# Indices 1 2 3 4 5 6 
#
# 1 0.020021 -0.002620 -0.013704 0.000000 -0.005171 0.000000
# 2 -0.002620 0.017993 0.000534 0.000000 0.002863 0.000000
# 3 -0.013704 0.000534 0.021539 0.000000 0.008149 0.000000
# 4 0.000000 0.000000 0.000000 0.027117 0.000000 -0.008518
# 5 -0.005171 0.002863 0.008149 0.000000 0.026143 0.000000
# 6 0.000000 0.000000 0.000000 -0.008518 0.000000 0.064999
#
#
# Mechanical properties :
#
#
# Convention : Reuss Voigt Hill
#
# Bulk Modulus (GPa) = 35.74850 43.92927 39.83888
# Shear Modulus (GPa) = 22.86076 30.41991 26.64034
#
# Velocity S-wave (km/s) = 3.26543 3.76681 3.52505
# Velocity P-wave (km/s) = 5.55803 6.27763 5.92876
#
# Compressibility (1/GPa) = 0.02797321
#
# Stress axis : x y z
#
# Youngs Moduli (GPa) = 49.94830 55.57723 46.42745
#
# Poissons Ratio (x) = 0.14560 0.63625
# Poissons Ratio (y) = 0.13085 -0.02480
# Poissons Ratio (z) = 0.68450 -0.02969
#
# Static dielectric constant tensor:
#      x y z
#    x 1.791330 0.000000 -0.001110 
#    y 0.000000 1.780090 0.000000 
#    z -0.001110 0.000000 1.814940 
# 
# From -- ./inp_files/9660.got.cif
#   From: 2010.05.17/outbox.cif.g08.bks.cpg/sg9_5_cif.got.tgz:9660.got - 2010.06.03 20:04:27.
