data_PCOD9136155
_publ_section_title
;
Structure prediction by ZEFSAII (Michael W. Deem and Ramdas Pophale) SiO2 
 PCOD9136155
Probable space group: C C
;
_chemical_formula_sum "Si O2"
_cell_formula_units_Z 32
_cell_length_a 25.484441
_cell_length_b 11.717235
_cell_length_c 14.499874
_cell_angle_alpha 90.000000
_cell_angle_beta 19.714779
_cell_angle_gamma 90.000000
_cell_volume 1460.595186
_symmetry_space_group_name_H-M "C C"
_symmetry_group_IT_number 9
_symmetry_cell_setting 'monoclinic'
loop_
_space_group_symop_operation_xyz
x,y,z
x,-y,1/2+z
1/2+x,1/2+y,z
1/2+x,1/2-y,1/2+z
loop_
_atom_site_type_symbol
_atom_site_label
_atom_site_fract_x
_atom_site_fract_y
_atom_site_fract_z
Si Si1 0.257490 0.529263 0.205560
Si Si2 0.571348 0.318382 0.046891
Si Si3 0.226332 0.052135 0.777862
Si Si4 0.242043 0.258716 0.606203
Si Si5 0.910160 0.204946 0.454298
Si Si6 0.523270 0.353976 0.341123
Si Si7 0.191294 0.090016 0.053754
Si Si8 0.446414 0.082798 0.788103
O O1 0.236500 0.616506 0.157946
O O2 0.086891 0.504250 0.522759
O O3 0.361933 0.422556 0.004456
O O4 0.349164 0.598592 0.134219
O O5 0.594013 0.452647 0.982245
O O6 0.739626 0.259497 0.754691
O O7 0.412689 0.257514 0.273689
O O8 0.543587 0.317256 0.202295
O O9 0.223637 0.162557 0.716309
O O10 0.373824 0.982375 0.495457
O O11 0.232134 0.084629 0.876605
O O12 0.092383 0.241923 0.790385
O O13 0.989679 0.290715 0.251064
O O14 0.045631 0.177809 0.304885
O O15 0.630818 0.463901 0.178738
O O16 0.328464 0.107145 0.899200
#
# Coordination Sequence:
#
# PCOD9136155 Si02
#       8
#     4   4   4   4   4   4   4   4
#     4  10  23  39  61  92 133 163 214 273 313 390
#     4   9  21  37  62  91 127 161 212 263 310 385
#     4  10  21  39  64  95 122 166 218 262 311 395
#     4  11  20  38  67  86 124 173 211 255 328 380
#     4  10  22  41  60  96 134 160 216 271 317 391
#     4   9  20  40  63  90 121 171 209 261 322 375
#     4  10  21  41  65  90 130 167 208 267 327 381
#     4  11  22  41  68  92 127 179 208 268 336 373
#
# _framework density 21.908875999999999
#
# number of rings (size 3 to 8) (size 9 to 14) (size 15 to 20)
#    0.000    2.000    1.250    2.250    0.000    5.000 
#    4.500    0.000    8.250    0.000    0.000    0.000 
#    0.000    0.000    0.000    0.000    0.000    0.000 
#
# Total GULP energy -89123.028010 kJ/mol
# GULP energy per Si atom -5570.189251 kJ/mol
# Density = 2.185901 g / cm^3
# Si number density = 21.908876 Si / 1000 Ang^3
#
#
#
# Elastic Constant Matrix: (Units=GPa)
#
#
# Indices 1 2 3 4 5 6 
#
# 1 21.8382 1.1766 -3.3761 0.0000 -3.2760 -0.0001
# 2 1.1766 67.2131 3.7438 0.0000 2.6916 0.0001
# 3 -3.3761 3.7438 73.5373 0.0000 6.9669 0.0001
# 4 0.0000 0.0000 0.0000 18.2142 0.0000 -9.7247
# 5 -3.2760 2.6916 6.9669 0.0000 20.2059 0.0000
# 6 -0.0001 0.0001 0.0001 -9.7247 0.0000 18.0654
#
#
#
# Elastic Compliance Matrix: (Units=1/GPa)
#
#
# Indices 1 2 3 4 5 6 
#
# 1 0.047186 -0.001203 0.001538 0.000000 0.007280 0.000000
# 2 -0.001203 0.015013 -0.000632 0.000000 -0.001977 0.000000
# 3 0.001538 -0.000632 0.014131 0.000000 -0.004539 0.000000
# 4 0.000000 0.000000 0.000000 0.077045 0.000000 0.041474
# 5 0.007280 -0.001977 -0.004539 0.000000 0.052499 0.000000
# 6 0.000000 0.000000 0.000000 0.041474 0.000000 0.077680
#
#
# Mechanical properties :
#
#
# Convention : Reuss Voigt Hill
#
# Bulk Modulus (GPa) = 13.20386 18.40859 15.80622
# Shear Modulus (GPa) = 16.16052 22.03338 19.09695
#
# Velocity S-wave (km/s) = 2.71887 3.17469 2.95558
# Velocity P-wave (km/s) = 3.98700 4.67534 4.34482
#
# Compressibility (1/GPa) = 0.07573544
#
# Stress axis : x y z
#
# Youngs Moduli (GPa) = 21.19272 66.60675 70.76469
#
# Poissons Ratio (x) = 0.08014 -0.10882
# Poissons Ratio (y) = 0.02550 0.04474
# Poissons Ratio (z) = -0.03259 0.04211
#
# Static dielectric constant tensor:
#      x y z
#    x 1.804790 0.000000 -0.026770 
#    y 0.000000 1.844790 0.000000 
#    z -0.026770 0.000000 1.913790 
# 
# From -- ./inp_files/28089.got.cif
#   From: 2010.05.17/outbox.cif.g08.bks.cpg/sg9_15_cif.got.tgz:28089.got - 2010.06.03 20:04:27.
