data_PCOD9136342
_publ_section_title
;
Structure prediction by ZEFSAII (Michael W. Deem and Ramdas Pophale) SiO2 
 PCOD9136342
Probable space group: C C
;
_chemical_formula_sum "Si O2"
_cell_formula_units_Z 32
_cell_length_a 23.902567
_cell_length_b 7.109476
_cell_length_c 14.275357
_cell_angle_alpha 90.000000
_cell_angle_beta 31.775483
_cell_angle_gamma 90.000000
_cell_volume 1277.448599
_symmetry_space_group_name_H-M "C C"
_symmetry_group_IT_number 9
_symmetry_cell_setting 'monoclinic'
loop_
_space_group_symop_operation_xyz
x,y,z
x,-y,1/2+z
1/2+x,1/2+y,z
1/2+x,1/2-y,1/2+z
loop_
_atom_site_type_symbol
_atom_site_label
_atom_site_fract_x
_atom_site_fract_y
_atom_site_fract_z
Si Si1 0.496610 0.267940 0.956680
Si Si2 0.564939 0.175207 0.655029
Si Si3 0.868657 0.532200 0.439396
Si Si4 0.761297 0.779539 0.348542
Si Si5 0.727898 0.866651 0.607599
Si Si6 0.708018 0.745638 0.236002
Si Si7 0.514890 0.166269 0.507940
Si Si8 0.788133 0.356350 0.355235
O O1 0.514850 0.281267 0.818493
O O2 0.601761 0.355727 0.853142
O O3 0.382776 0.334426 0.153306
O O4 0.504268 0.055247 0.990477
O O5 0.538688 0.217016 0.583134
O O6 0.688867 0.217979 0.491539
O O7 0.495103 0.984042 0.767257
O O8 0.825280 0.741361 0.505297
O O9 0.805606 0.398995 0.600837
O O10 0.828312 0.434946 0.399496
O O11 0.728975 0.848596 0.495302
O O12 0.692008 0.842725 0.359307
O O13 0.750563 0.552913 0.364714
O O14 0.735267 0.081895 0.628774
O O15 0.618811 0.780012 0.802154
O O16 0.394578 0.231249 0.659012
#
# Coordination Sequence:
#
# PCOD9136342 Si02
#       8
#     4   4   4   4   4   4   4   4
#     4  10  21  40  67  97 139 184 228 298 354 413
#     4  11  20  38  74  99 137 187 235 289 364 420
#     4  10  21  42  72 100 140 183 228 294 351 425
#     4  10  22  45  69  99 145 187 231 303 360 412
#     4  10  24  44  69 106 143 181 245 291 357 431
#     4  11  22  42  72  99 137 188 237 291 353 423
#     4   9  22  38  65 101 135 184 236 289 352 423
#     4   9  20  41  70 101 136 184 240 291 359 423
#
# _framework density 25.049931999999998
#
# number of rings (size 3 to 8) (size 9 to 14) (size 15 to 20)
#    0.000    2.000    2.500    0.750    1.750    4.000 
#    2.250    1.250   19.250    0.000    0.000    0.000 
#    0.000    0.000    0.000    0.000    0.000    0.000 
#
# Total GULP energy -89300.457160 kJ/mol
# GULP energy per Si atom -5581.278573 kJ/mol
# Density = 2.499292 g / cm^3
# Si number density = 25.049932 Si / 1000 Ang^3
#
#
#
# Elastic Constant Matrix: (Units=GPa)
#
#
# Indices 1 2 3 4 5 6 
#
# 1 111.5809 22.2886 60.8920 -0.0005 28.7087 0.0012
# 2 22.2886 92.9013 14.6713 -0.0008 -2.7076 0.0042
# 3 60.8920 14.6713 155.0607 -0.0013 10.7139 0.0028
# 4 -0.0005 -0.0008 -0.0013 12.8161 0.0008 -4.0073
# 5 28.7087 -2.7076 10.7139 0.0008 64.5193 -0.0011
# 6 0.0012 0.0042 0.0028 -4.0073 -0.0011 22.9755
#
#
#
# Elastic Compliance Matrix: (Units=1/GPa)
#
#
# Indices 1 2 3 4 5 6 
#
# 1 0.013382 -0.002632 -0.004640 0.000000 -0.005295 0.000000
# 2 -0.002632 0.011471 -0.000168 0.000000 0.001680 -0.000002
# 3 -0.004640 -0.000168 0.008240 0.000000 0.000690 -0.000001
# 4 0.000000 0.000000 0.000000 0.082527 -0.000001 0.014394
# 5 -0.005295 0.001680 0.000690 -0.000001 0.017811 0.000001
# 6 0.000000 -0.000002 -0.000001 0.014394 0.000001 0.046035
#
#
# Mechanical properties :
#
#
# Convention : Reuss Voigt Hill
#
# Bulk Modulus (GPa) = 54.90762 61.69408 58.30085
# Shear Modulus (GPa) = 24.94779 37.50825 31.22802
#
# Velocity S-wave (km/s) = 3.15925 3.87374 3.53460
# Velocity P-wave (km/s) = 5.93925 6.68504 6.32315
#
# Compressibility (1/GPa) = 0.01821241
#
# Stress axis : x y z
#
# Youngs Moduli (GPa) = 74.72452 87.17568 121.36514
#
# Poissons Ratio (x) = 0.22946 0.56318
# Poissons Ratio (y) = 0.19669 0.02037
# Poissons Ratio (z) = 0.34675 0.01463
#
# Static dielectric constant tensor:
#      x y z
#    x 2.098270 0.000000 0.064210 
#    y 0.000000 2.024580 0.000000 
#    z 0.064210 0.000000 2.046020 
# 
# From -- ./inp_files/28014.got.cif
#   From: 2010.05.17/outbox.cif.g08.bks.cpg/sg9_15_cif.got.tgz:28014.got - 2010.06.03 20:04:27.
