data_PCOD9136018
_publ_section_title
;
Structure prediction by ZEFSAII (Michael W. Deem and Ramdas Pophale) SiO2 
 PCOD9136018
Probable space group: C C
;
_chemical_formula_sum "Si O2"
_cell_formula_units_Z 32
_cell_length_a 15.332022
_cell_length_b 22.014732
_cell_length_c 8.553096
_cell_angle_alpha 90.000000
_cell_angle_beta 35.911864
_cell_angle_gamma 90.000000
_cell_volume 1693.299868
_symmetry_space_group_name_H-M "C C"
_symmetry_group_IT_number 9
_symmetry_cell_setting 'monoclinic'
loop_
_space_group_symop_operation_xyz
x,y,z
x,-y,1/2+z
1/2+x,1/2+y,z
1/2+x,1/2-y,1/2+z
loop_
_atom_site_type_symbol
_atom_site_label
_atom_site_fract_x
_atom_site_fract_y
_atom_site_fract_z
Si Si1 0.235040 0.574729 0.468160
Si Si2 0.193683 0.814550 0.308708
Si Si3 0.892396 0.002473 0.474440
Si Si4 0.867771 0.194371 0.140018
Si Si5 0.898590 0.539281 0.973913
Si Si6 0.136474 0.099698 0.182847
Si Si7 0.288295 0.919811 0.969964
Si Si8 0.990033 0.111435 0.711375
O O1 0.280620 0.553936 0.575663
O O2 0.337953 0.538014 0.196894
O O3 0.275537 0.644923 0.376260
O O4 0.068194 0.551909 0.683239
O O5 0.279643 0.756341 0.247543
O O6 0.148309 0.859068 0.515372
O O7 0.299460 0.854569 0.039862
O O8 0.035320 0.796747 0.461525
O O9 0.045790 0.038389 0.275237
O O10 0.901200 0.951236 0.326161
O O11 0.894122 0.162503 0.933656
O O12 0.796912 0.581771 0.013760
O O13 0.832003 0.471950 0.033150
O O14 0.877259 0.559847 0.185243
O O15 0.054145 0.129376 0.451251
O O16 0.121802 0.910348 0.139058
#
# Coordination Sequence:
#
# PCOD9136018 Si02
#       8
#     4   4   4   4   4   4   4   4
#     4  11  23  38  61  94 131 152 198 261 312 373
#     4  11  24  44  64  87 121 171 213 258 300 370
#     4  11  19  36  61  91 122 155 192 252 320 371
#     4  10  24  44  62  85 123 167 214 248 312 366
#     4  11  22  37  62 100 127 157 200 257 321 372
#     4  11  21  37  67  91 119 163 207 248 316 374
#     4  10  21  38  62  91 127 158 203 253 308 372
#     4   9  20  38  63  93 118 159 203 255 307 378
#
# _framework density 18.898011
#
# number of rings (size 3 to 8) (size 9 to 14) (size 15 to 20)
#    0.000    1.500    3.750    1.500    3.500    0.000 
#    4.500    1.250    0.000    0.000    0.000    0.000 
#    0.000    0.000    0.000    0.000    0.000    0.000 
#
# Total GULP energy -89138.416050 kJ/mol
# GULP energy per Si atom -5571.151003 kJ/mol
# Density = 1.885500 g / cm^3
# Si number density = 18.898011 Si / 1000 Ang^3
#
#
#
# Elastic Constant Matrix: (Units=GPa)
#
#
# Indices 1 2 3 4 5 6 
#
# 1 59.7297 31.3496 12.3930 0.0000 2.3169 0.0000
# 2 31.3496 113.9604 33.1083 0.0000 7.2806 0.0000
# 3 12.3930 33.1083 62.0233 0.0000 -1.6396 0.0000
# 4 0.0000 0.0000 0.0000 16.4984 0.0000 -1.2457
# 5 2.3169 7.2806 -1.6396 0.0000 19.7053 0.0000
# 6 0.0000 0.0000 0.0000 -1.2457 0.0000 29.4853
#
#
#
# Elastic Compliance Matrix: (Units=1/GPa)
#
#
# Indices 1 2 3 4 5 6 
#
# 1 0.019653 -0.005000 -0.001273 0.000000 -0.000569 0.000000
# 2 -0.005000 0.012036 -0.005540 0.000000 -0.004320 0.000000
# 3 -0.001273 -0.005540 0.019435 0.000000 0.003814 0.000000
# 4 0.000000 0.000000 0.000000 0.060806 0.000000 0.002569
# 5 -0.000569 -0.004320 0.003814 0.000000 0.052728 0.000000
# 6 0.000000 0.000000 0.000000 0.002569 0.000000 0.034024
#
#
# Mechanical properties :
#
#
# Convention : Reuss Voigt Hill
#
# Bulk Modulus (GPa) = 36.36605 43.26837 39.81721
# Shear Modulus (GPa) = 21.60072 23.72861 22.66466
#
# Velocity S-wave (km/s) = 3.38452 3.54731 3.46687
# Velocity P-wave (km/s) = 5.87864 6.30264 6.09433
#
# Compressibility (1/GPa) = 0.02749817
#
# Stress axis : x y z
#
# Youngs Moduli (GPa) = 50.88377 83.08428 51.45255
#
# Poissons Ratio (x) = 0.41543 0.06549
# Poissons Ratio (y) = 0.25443 0.28505
# Poissons Ratio (z) = 0.06476 0.46028
#
# Static dielectric constant tensor:
#      x y z
#    x 1.701850 0.000000 0.014560 
#    y 0.000000 1.647900 0.000000 
#    z 0.014560 0.000000 1.678290 
# 
# From -- ./inp_files/8007.got.cif
#   From: 2010.05.17/outbox.cif.g08.bks.cpg/sg9_5_cif.got.tgz:8007.got - 2010.06.03 20:04:27.
