data_PCOD9136980
_publ_section_title
;
Structure prediction by ZEFSAII (Michael W. Deem and Ramdas Pophale) SiO2 
 PCOD9136980
Probable space group: C C
;
_chemical_formula_sum "Si O2"
_cell_formula_units_Z 32
_cell_length_a 8.440767
_cell_length_b 19.869839
_cell_length_c 14.899246
_cell_angle_alpha 90.000000
_cell_angle_beta 33.481138
_cell_angle_gamma 90.000000
_cell_volume 1378.522835
_symmetry_space_group_name_H-M "C C"
_symmetry_group_IT_number 9
_symmetry_cell_setting 'monoclinic'
loop_
_space_group_symop_operation_xyz
x,y,z
x,-y,1/2+z
1/2+x,1/2+y,z
1/2+x,1/2-y,1/2+z
loop_
_atom_site_type_symbol
_atom_site_label
_atom_site_fract_x
_atom_site_fract_y
_atom_site_fract_z
Si Si1 0.467180 0.837490 0.539860
Si Si2 0.276643 0.637398 0.076943
Si Si3 0.526618 0.778700 0.986725
Si Si4 0.306233 0.439946 0.253676
Si Si5 0.595027 0.215744 0.657361
Si Si6 0.312209 0.911122 0.385656
Si Si7 0.458615 0.422397 0.738043
Si Si8 0.878350 0.379689 0.929696
O O1 0.654382 0.840146 0.540123
O O2 0.657601 0.878912 0.377483
O O3 0.368244 0.763117 0.552737
O O4 0.178867 0.882351 0.696327
O O5 0.021160 0.619547 0.265247
O O6 0.415054 0.703485 0.056030
O O7 0.548266 0.585967 0.939772
O O8 0.315726 0.810130 0.012066
O O9 0.832561 0.767268 0.795719
O O10 0.578603 0.807639 0.061747
O O11 0.422703 0.497670 0.264951
O O12 0.056231 0.464025 0.302415
O O13 0.585581 0.419336 0.067712
O O14 0.510865 0.152195 0.759730
O O15 0.114185 0.907890 0.568757
O O16 0.128561 0.401607 0.881870
#
# Coordination Sequence:
#
# PCOD9136980 Si02
#       8
#     4   4   4   4   4   4   4   4
#     4  11  23  43  68 105 140 183 230 294 358 425
#     4  10  23  42  64  98 148 174 225 289 355 429
#     4  11  21  40  64  94 137 186 222 287 350 427
#     4  11  24  41  74  99 133 188 240 286 349 425
#     4  11  22  42  69  97 142 183 230 295 357 423
#     4   9  22  43  69  99 136 184 233 286 355 415
#     4  10  21  49  69  94 139 188 241 285 347 427
#     4  11  22  40  65  96 125 186 227 280 353 403
#
# _framework density 23.213253999999999
#
# number of rings (size 3 to 8) (size 9 to 14) (size 15 to 20)
#    0.000    1.500    2.500    4.500    5.250    1.000 
#    2.250    5.000    2.750    0.000    0.000    0.000 
#    0.000    0.000    0.000    0.000    0.000    0.000 
#
# Total GULP energy -89070.393915 kJ/mol
# GULP energy per Si atom -5566.899620 kJ/mol
# Density = 2.316042 g / cm^3
# Si number density = 23.213254 Si / 1000 Ang^3
#
#
#
# Elastic Constant Matrix: (Units=GPa)
#
#
# Indices 1 2 3 4 5 6 
#
# 1 109.9938 8.0018 30.9907 -0.0033 0.6737 -0.0006
# 2 8.0018 40.4094 20.0793 -0.0012 1.3904 -0.0004
# 3 30.9907 20.0793 109.7220 0.0062 -11.1291 -0.0002
# 4 -0.0033 -0.0012 0.0062 31.2551 0.0011 -8.8977
# 5 0.6737 1.3904 -11.1291 0.0011 40.5096 -0.0047
# 6 -0.0006 -0.0004 -0.0002 -8.8977 -0.0047 11.0726
#
#
#
# Elastic Compliance Matrix: (Units=1/GPa)
#
#
# Indices 1 2 3 4 5 6 
#
# 1 0.009924 -0.000544 -0.002796 0.000002 -0.000915 0.000002
# 2 -0.000544 0.027475 -0.005111 0.000003 -0.002338 0.000002
# 3 -0.002796 -0.005111 0.011173 -0.000003 0.003291 -0.000001
# 4 0.000002 0.000003 -0.000003 0.041485 0.000002 0.033336
# 5 -0.000915 -0.002338 0.003291 0.000002 0.025685 0.000012
# 6 0.000002 0.000002 -0.000001 0.033336 0.000012 0.117101
#
#
# Mechanical properties :
#
#
# Convention : Reuss Voigt Hill
#
# Bulk Modulus (GPa) = 31.57725 42.02985 36.80355
# Shear Modulus (GPa) = 19.20836 29.97103 24.58970
#
# Velocity S-wave (km/s) = 2.87971 3.59711 3.25821
# Velocity P-wave (km/s) = 4.96886 5.94958 5.48120
#
# Compressibility (1/GPa) = 0.03166837
#
# Stress axis : x y z
#
# Youngs Moduli (GPa) = 100.76098 36.39700 89.50150
#
# Poissons Ratio (x) = 0.01981 0.25027
# Poissons Ratio (y) = 0.05484 0.45748
# Poissons Ratio (z) = 0.28176 0.18604
#
# Static dielectric constant tensor:
#      x y z
#    x 1.936960 -0.000020 -0.003010 
#    y -0.000020 2.115970 -0.000020 
#    z -0.003010 -0.000020 1.889720 
# 
# From -- ./inp_files/23795.got.cif
#   From: 2010.05.17/outbox.cif.g08.bks.cpg/sg9_12_cif.got.tgz:23795.got - 2010.06.03 20:04:27.
