data_PCOD9136079
_publ_section_title
;
Structure prediction by ZEFSAII (Michael W. Deem and Ramdas Pophale) SiO2 
 PCOD9136079
Probable space group: C C
;
_chemical_formula_sum "Si O2"
_cell_formula_units_Z 28
_cell_length_a 8.765749
_cell_length_b 25.469805
_cell_length_c 5.601294
_cell_angle_alpha 90.000000
_cell_angle_beta 90.215122
_cell_angle_gamma 90.000000
_cell_volume 1250.546826
_symmetry_space_group_name_H-M "C C"
_symmetry_group_IT_number 9
_symmetry_cell_setting 'monoclinic'
loop_
_space_group_symop_operation_xyz
x,y,z
x,-y,1/2+z
1/2+x,1/2+y,z
1/2+x,1/2-y,1/2+z
loop_
_atom_site_type_symbol
_atom_site_label
_atom_site_fract_x
_atom_site_fract_y
_atom_site_fract_z
Si Si1 0.091560 0.397399 0.894770
Si Si2 0.599404 0.811877 0.516755
Si Si3 0.098830 0.897399 0.558913
Si Si4 0.845195 0.376591 0.226841
Si Si5 0.590986 0.311877 0.936927
Si Si6 0.845195 0.031135 0.226841
Si Si7 0.845195 0.137424 0.726841
O O1 0.076148 0.339791 0.772761
O O2 0.186544 0.434807 0.718300
O O3 0.211832 0.395451 0.110625
O O4 0.930363 0.409284 0.018768
O O5 0.471289 0.839572 0.351457
O O6 0.595195 0.750000 0.476842
O O7 0.766847 0.828350 0.429362
O O8 0.260027 0.909284 0.434915
O O9 0.114243 0.839791 0.680921
O O10 0.003847 0.934807 0.735383
O O11 0.978558 0.895451 0.343058
O O12 0.719102 0.339572 0.102226
O O13 0.423543 0.328350 0.024320
O O14 0.845195 0.000000 0.476841
#
# Coordination Sequence:
#
# PCOD9136079 Si02
#       7
#     4   4   4   4   4   4   4
#     4  11  23  47  67 103 143 181 235 307 351 435
#     4  11  24  38  67 100 143 190 237 284 358 433
#     4  11  23  47  67 103 143 181 235 307 351 435
#     4  10  26  39  68  96 146 188 227 290 374 406
#     4  11  24  38  67 100 143 190 237 284 358 433
#     4  12  27  47  84 110 134 190 251 305 380 436
#     4  10  21  38  68  94 144 186 230 283 354 410
#
# _framework density 22.390205000000002
#
# number of rings (size 3 to 8) (size 9 to 14) (size 15 to 20)
#    0.000    1.143    2.857    1.714   12.000    2.286 
#    0.000    1.429    0.000    0.000    0.000    0.000 
#    0.000    0.000    0.000    0.000    0.000    0.000 
#
# Total GULP energy -78075.424393 kJ/mol
# GULP energy per Si atom -5576.816028 kJ/mol
# Density = 2.233924 g / cm^3
# Si number density = 22.390205 Si / 1000 Ang^3
#
#
#
# Elastic Constant Matrix: (Units=GPa)
#
#
# Indices 1 2 3 4 5 6 
#
# 1 107.9742 26.3922 33.9169 0.0000 -33.6289 0.0000
# 2 26.3922 88.6527 43.4938 0.0000 -22.3077 0.0000
# 3 33.9169 43.4938 120.2058 0.0000 -25.8875 0.0000
# 4 0.0000 0.0000 0.0000 19.6052 0.0000 8.1942
# 5 -33.6289 -22.3077 -25.8875 0.0000 67.8472 0.0000
# 6 0.0000 0.0000 0.0000 8.1942 0.0000 9.5522
#
#
#
# Elastic Compliance Matrix: (Units=1/GPa)
#
#
# Indices 1 2 3 4 5 6 
#
# 1 0.011599 -0.001429 -0.001764 0.000000 0.004607 0.000000
# 2 -0.001429 0.014416 -0.004298 0.000000 0.002392 0.000000
# 3 -0.001764 -0.004298 0.010764 0.000000 0.001820 0.000000
# 4 0.000000 0.000000 0.000000 0.079516 0.000000 -0.068212
# 5 0.004607 0.002392 0.001820 0.000000 0.018503 0.000000
# 6 0.000000 0.000000 0.000000 -0.068212 0.000000 0.163202
#
#
# Mechanical properties :
#
#
# Convention : Reuss Voigt Hill
#
# Bulk Modulus (GPa) = 45.87537 58.27095 52.07316
# Shear Modulus (GPa) = 15.61297 33.60291 24.60794
#
# Velocity S-wave (km/s) = 2.64353 3.87820 3.31879
# Velocity P-wave (km/s) = 5.46363 6.79232 6.16388
#
# Compressibility (1/GPa) = 0.02179819
#
# Stress axis : x y z
#
# Youngs Moduli (GPa) = 86.21067 69.36897 92.90504
#
# Poissons Ratio (x) = 0.09911 0.16387
# Poissons Ratio (y) = 0.12317 0.39929
# Poissons Ratio (z) = 0.15206 0.29813
#
# Static dielectric constant tensor:
#      x y z
#    x 1.904950 0.000000 -0.060750 
#    y 0.000000 1.869680 0.000000 
#    z -0.060750 0.000000 1.925780 
# 
# From -- ./inp_files/866.got.cif
#   From: 2010.05.17/outbox.cif.g08.bks.cpg/sg9_1_cif.got.tgz:866.got - 2010.06.03 20:04:27.
