data_PCOD9136864
_publ_section_title
;
Structure prediction by ZEFSAII (Michael W. Deem and Ramdas Pophale) SiO2 
 PCOD9136864
Probable space group: C C
;
_chemical_formula_sum "Si O2"
_cell_formula_units_Z 32
_cell_length_a 12.325424
_cell_length_b 13.010346
_cell_length_c 8.583863
_cell_angle_alpha 90.000000
_cell_angle_beta 107.987274
_cell_angle_gamma 90.000000
_cell_volume 1309.215529
_symmetry_space_group_name_H-M "C C"
_symmetry_group_IT_number 9
_symmetry_cell_setting 'monoclinic'
loop_
_space_group_symop_operation_xyz
x,y,z
x,-y,1/2+z
1/2+x,1/2+y,z
1/2+x,1/2-y,1/2+z
loop_
_atom_site_type_symbol
_atom_site_label
_atom_site_fract_x
_atom_site_fract_y
_atom_site_fract_z
Si Si1 0.398880 0.874087 0.576970
Si Si2 0.211603 0.339284 0.298003
Si Si3 0.421985 0.677410 0.423139
Si Si4 0.587669 0.659745 0.218552
Si Si5 0.986931 0.448537 0.290772
Si Si6 0.283833 0.800484 0.124864
Si Si7 0.170590 0.941893 0.312439
Si Si8 0.940008 0.061131 0.898904
O O1 0.421507 0.752958 0.570858
O O2 0.469585 0.920405 0.462456
O O3 0.269564 0.906013 0.474418
O O4 0.445990 0.935428 0.743957
O O5 0.149985 0.254604 0.164563
O O6 0.250581 0.265179 0.459730
O O7 0.322615 0.394206 0.284988
O O8 0.115046 0.421376 0.300122
O O9 0.529449 0.695791 0.354337
O O10 0.315918 0.718896 0.273905
O O11 0.419861 0.556273 0.440616
O O12 0.672591 0.563935 0.280450
O O13 0.482634 0.620448 0.070291
O O14 0.895764 0.374323 0.159182
O O15 0.192185 0.877620 0.164383
O O16 0.046135 0.929178 0.329926
#
# Coordination Sequence:
#
# PCOD9136864 Si02
#       8
#     4   4   4   4   4   4   4   4
#     4  10  21  44  73 100 141 180 240 281 347 418
#     4  12  22  41  72  95 144 180 220 284 352 418
#     4   9  20  44  68  96 135 178 228 278 346 410
#     4  11  21  40  68  96 131 184 226 267 353 403
#     4  10  22  40  72 105 131 189 234 283 347 414
#     4  10  21  44  73  98 132 188 231 275 353 415
#     4   9  23  38  72 103 130 175 234 291 323 415
#     4  11  24  41  68 109 134 172 237 287 341 409
#
# _framework density 24.442119000000002
#
# number of rings (size 3 to 8) (size 9 to 14) (size 15 to 20)
#    0.000    2.000    3.750    0.750    7.000    1.000 
#    0.000    7.500   24.750    0.000    0.000    0.000 
#    0.000    0.000    0.000    0.000    0.000    0.000 
#
# Total GULP energy -89503.375370 kJ/mol
# GULP energy per Si atom -5593.960961 kJ/mol
# Density = 2.438649 g / cm^3
# Si number density = 24.442119 Si / 1000 Ang^3
#
#
#
# Elastic Constant Matrix: (Units=GPa)
#
#
# Indices 1 2 3 4 5 6 
#
# 1 159.3025 68.2349 4.9024 0.0000 9.4810 0.0000
# 2 68.2349 140.5457 13.7937 0.0000 11.2302 0.0000
# 3 4.9024 13.7937 19.2951 0.0000 0.5215 0.0000
# 4 0.0000 0.0000 0.0000 35.7939 0.0000 10.1748
# 5 9.4810 11.2302 0.5215 0.0000 19.6777 0.0000
# 6 0.0000 0.0000 0.0000 10.1748 0.0000 43.2934
#
#
#
# Elastic Compliance Matrix: (Units=1/GPa)
#
#
# Indices 1 2 3 4 5 6 
#
# 1 0.007990 -0.003817 0.000744 0.000000 -0.001691 0.000000
# 2 -0.003817 0.009843 -0.005969 0.000000 -0.003620 0.000000
# 3 0.000744 -0.005969 0.055862 0.000000 0.001567 0.000000
# 4 0.000000 0.000000 0.000000 0.029938 0.000000 -0.007036
# 5 -0.001691 -0.003620 0.001567 0.000000 0.053658 0.000000
# 6 0.000000 0.000000 0.000000 -0.007036 0.000000 0.024752
#
#
# Mechanical properties :
#
#
# Convention : Reuss Voigt Hill
#
# Bulk Modulus (GPa) = 17.98170 54.77835 36.38003
# Shear Modulus (GPa) = 22.86602 35.23382 29.04992
#
# Velocity S-wave (km/s) = 3.06194 3.80086 3.45123
# Velocity P-wave (km/s) = 4.45797 6.45927 5.54958
#
# Compressibility (1/GPa) = 0.05561208
#
# Stress axis : x y z
#
# Youngs Moduli (GPa) = 125.15466 101.59021 17.90115
#
# Poissons Ratio (x) = 0.38778 -0.01333
# Poissons Ratio (y) = 0.47773 0.10686
# Poissons Ratio (z) = -0.09317 0.60641
#
# Static dielectric constant tensor:
#      x y z
#    x 1.943240 0.000000 0.009400 
#    y 0.000000 1.981690 0.000000 
#    z 0.009400 0.000000 2.026530 
# 
# From -- ./inp_files/16488.got.cif
#   From: 2010.05.17/outbox.cif.g08.bks.cpg/sg9_9_cif.got.tgz:16488.got - 2010.06.03 20:04:27.
