data_PCOD9136693
_publ_section_title
;
Structure prediction by ZEFSAII (Michael W. Deem and Ramdas Pophale) SiO2 
 PCOD9136693
Probable space group: C C
;
_chemical_formula_sum "Si O2"
_cell_formula_units_Z 32
_cell_length_a 17.087644
_cell_length_b 5.277300
_cell_length_c 24.057134
_cell_angle_alpha 90.000000
_cell_angle_beta 34.936025
_cell_angle_gamma 90.000000
_cell_volume 1242.326631
_symmetry_space_group_name_H-M "C C"
_symmetry_group_IT_number 9
_symmetry_cell_setting 'monoclinic'
loop_
_space_group_symop_operation_xyz
x,y,z
x,-y,1/2+z
1/2+x,1/2+y,z
1/2+x,1/2-y,1/2+z
loop_
_atom_site_type_symbol
_atom_site_label
_atom_site_fract_x
_atom_site_fract_y
_atom_site_fract_z
Si Si1 0.500000 0.326763 0.690750
Si Si2 0.299956 0.156562 0.009273
Si Si3 0.829021 0.161982 0.919395
Si Si4 0.917241 0.194930 0.113874
Si Si5 0.746650 0.195373 0.753725
Si Si6 0.848319 0.347948 0.798678
Si Si7 0.607892 0.415445 0.285422
Si Si8 0.533685 0.121828 0.433249
O O1 0.653877 0.308477 0.622691
O O2 0.487498 0.244296 0.632367
O O3 0.448162 0.616064 0.722816
O O4 0.413515 0.118797 0.775114
O O5 0.311693 0.394688 0.960321
O O6 0.288170 0.896729 0.981303
O O7 0.421350 0.092087 0.981832
O O8 0.762096 0.227256 0.899077
O O9 0.993183 0.172337 0.809656
O O10 0.762136 0.305437 0.191802
O O11 0.877719 0.899156 0.144494
O O12 0.007198 0.271193 0.009256
O O13 0.771929 0.406327 0.785240
O O14 0.634330 0.286149 0.775494
O O15 0.681979 0.988174 0.832357
O O16 0.529114 0.334505 0.388063
#
# Coordination Sequence:
#
# PCOD9136693 Si02
#       8
#     4   4   4   4   4   4   4   4
#     4  11  24  44  64 100 135 173 228 284 330 419
#     4  11  24  44  64  97 140 168 226 281 335 415
#     4  11  24  43  67  96 131 183 218 277 348 400
#     4  10  23  41  67  96 133 178 231 282 347 396
#     4  10  21  43  66  95 137 175 233 287 328 418
#     4  11  24  43  69  95 135 181 224 276 350 398
#     4  10  21  43  64  93 137 169 233 285 328 416
#     4  10  23  41  65 100 132 183 223 286 348 398
#
# _framework density 25.758120999999999
#
# number of rings (size 3 to 8) (size 9 to 14) (size 15 to 20)
#    0.000    1.500    2.500    1.500    3.500    2.000 
#    0.000    0.000    0.000    0.000    0.000    0.000 
#    0.000    0.000    0.000    0.000    0.000    0.000 
#
# Total GULP energy -89225.926577 kJ/mol
# GULP energy per Si atom -5576.620411 kJ/mol
# Density = 2.569949 g / cm^3
# Si number density = 25.758121 Si / 1000 Ang^3
#
#
#
# Elastic Constant Matrix: (Units=GPa)
#
#
# Indices 1 2 3 4 5 6 
#
# 1 59.1265 11.6739 10.4642 0.0129 12.5952 -0.0007
# 2 11.6739 105.4541 10.4438 0.0158 3.0734 -0.0658
# 3 10.4642 10.4438 61.2063 0.0386 5.6275 -0.0041
# 4 0.0129 0.0158 0.0386 22.9070 -0.0006 0.3737
# 5 12.5952 3.0734 5.6275 -0.0006 43.3854 -0.0045
# 6 -0.0007 -0.0658 -0.0041 0.3737 -0.0045 27.9273
#
#
#
# Elastic Compliance Matrix: (Units=1/GPa)
#
#
# Indices 1 2 3 4 5 6 
#
# 1 0.018747 -0.001686 -0.002457 -0.000005 -0.005004 -0.000005
# 2 -0.001686 0.009807 -0.001383 -0.000004 -0.000026 0.000023
# 3 -0.002457 -0.001383 0.017124 -0.000027 -0.001410 -0.000001
# 4 -0.000005 -0.000004 -0.000027 0.043664 0.000006 -0.000584
# 5 -0.005004 -0.000026 -0.001410 0.000006 0.024687 0.000004
# 6 -0.000005 0.000023 -0.000001 -0.000584 0.000004 0.035815
#
#
# Mechanical properties :
#
#
# Convention : Reuss Voigt Hill
#
# Bulk Modulus (GPa) = 28.88043 32.32785 30.60414
# Shear Modulus (GPa) = 28.99594 31.72428 30.36011
#
# Velocity S-wave (km/s) = 3.35879 3.51325 3.43689
# Velocity P-wave (km/s) = 5.12625 5.38842 5.25897
#
# Compressibility (1/GPa) = 0.03462552
#
# Stress axis : x y z
#
# Youngs Moduli (GPa) = 53.34284 101.96628 58.39797
#
# Poissons Ratio (x) = 0.17192 0.14350
# Poissons Ratio (y) = 0.08994 0.08075
# Poissons Ratio (z) = 0.13108 0.14100
#
# Static dielectric constant tensor:
#      x y z
#    x 2.159690 -0.000050 -0.057720 
#    y -0.000050 2.133800 -0.000010 
#    z -0.057720 -0.000010 1.993630 
# 
# From -- ./inp_files/19723.got.cif
#   From: 2010.05.17/outbox.cif.g08.bks.cpg/sg9_10_cif.got.tgz:19723.got - 2010.06.03 20:04:27.
