data_PCOD9136916
_publ_section_title
;
Structure prediction by ZEFSAII (Michael W. Deem and Ramdas Pophale) SiO2 
 PCOD9136916
Probable space group: C C
;
_chemical_formula_sum "Si O2"
_cell_formula_units_Z 28
_cell_length_a 10.811067
_cell_length_b 20.042788
_cell_length_c 5.471011
_cell_angle_alpha 90.000000
_cell_angle_beta 60.675862
_cell_angle_gamma 90.000000
_cell_volume 1033.576293
_symmetry_space_group_name_H-M "C C"
_symmetry_group_IT_number 9
_symmetry_cell_setting 'monoclinic'
loop_
_space_group_symop_operation_xyz
x,y,z
x,-y,1/2+z
1/2+x,1/2+y,z
1/2+x,1/2-y,1/2+z
loop_
_atom_site_type_symbol
_atom_site_label
_atom_site_fract_x
_atom_site_fract_y
_atom_site_fract_z
Si Si1 0.321160 0.930170 0.210410
Si Si2 0.155317 0.178770 0.560678
Si Si3 0.403303 0.667919 0.476509
Si Si4 0.394684 0.814810 0.474800
Si Si5 0.651139 0.825706 0.568415
Si Si6 0.522774 0.535533 0.158493
Si Si7 0.122678 0.534693 0.296091
O O1 0.227013 0.882304 0.127177
O O2 0.409093 0.877556 0.289798
O O3 0.196238 0.965129 0.486221
O O4 0.448973 0.969253 0.958063
O O5 0.179460 0.252228 0.649635
O O6 0.994460 0.166207 0.641497
O O7 0.233649 0.184399 0.223268
O O8 0.426174 0.741492 0.342553
O O9 0.461897 0.609364 0.253852
O O10 0.245130 0.663012 0.733702
O O11 0.491311 0.823749 0.620570
O O12 0.668911 0.888695 0.723094
O O13 0.478499 0.495866 0.444441
O O14 0.170617 0.502971 0.503934
#
# Coordination Sequence:
#
# PCOD9136916 Si02
#       7
#     4   4   4   4   4   4   4
#     4  12  24  44  78 110 136 188 254 316 356 418
#     4  10  21  45  74 109 142 182 245 312 368 422
#     4  10  23  46  72 107 150 191 236 300 375 441
#     4  10  21  45  74 109 142 182 245 312 368 422
#     4  10  23  46  72 107 150 191 236 300 375 441
#     4  12  27  47  73 106 151 201 246 297 358 447
#     4  12  27  47  73 106 151 201 246 297 358 447
#
# _framework density 27.090406000000002
#
# number of rings (size 3 to 8) (size 9 to 14) (size 15 to 20)
#    0.000    1.143    2.857    2.571    0.000    2.286 
#   10.286    0.000    0.000    0.000    0.000    0.000 
#    0.000    0.000    0.000    0.000    0.000    0.000 
#
# Total GULP energy -78527.204702 kJ/mol
# GULP energy per Si atom -5609.086050 kJ/mol
# Density = 2.702875 g / cm^3
# Si number density = 27.090406 Si / 1000 Ang^3
#
#
#
# Elastic Constant Matrix: (Units=GPa)
#
#
# Indices 1 2 3 4 5 6 
#
# 1 81.9557 16.2945 11.2962 0.0000 7.8924 0.0000
# 2 16.2945 154.8376 69.4541 0.0000 24.3017 0.0000
# 3 11.2962 69.4541 136.0016 0.0000 7.5499 0.0000
# 4 0.0000 0.0000 0.0000 35.2521 0.0000 -5.2825
# 5 7.8924 24.3017 7.5499 0.0000 43.7210 0.0000
# 6 0.0000 0.0000 0.0000 -5.2825 0.0000 34.0838
#
#
#
# Elastic Compliance Matrix: (Units=1/GPa)
#
#
# Indices 1 2 3 4 5 6 
#
# 1 0.012604 -0.000815 -0.000535 0.000000 -0.001730 0.000000
# 2 -0.000815 0.009167 -0.004381 0.000000 -0.004192 0.000000
# 3 -0.000535 -0.004381 0.009586 0.000000 0.000876 0.000000
# 4 0.000000 0.000000 0.000000 0.029042 0.000000 0.004501
# 5 -0.001730 -0.004192 0.000876 0.000000 0.025363 0.000000
# 6 0.000000 0.000000 0.000000 0.004501 0.000000 0.030037
#
#
# Mechanical properties :
#
#
# Convention : Reuss Voigt Hill
#
# Bulk Modulus (GPa) = 50.26245 62.98717 56.62481
# Shear Modulus (GPa) = 37.34331 40.99473 39.16902
#
# Velocity S-wave (km/s) = 3.71680 3.89428 3.80658
# Velocity P-wave (km/s) = 6.08386 6.59710 6.34567
#
# Compressibility (1/GPa) = 0.01989557
#
# Stress axis : x y z
#
# Youngs Moduli (GPa) = 79.33964 109.08341 104.31857
#
# Poissons Ratio (x) = 0.08891 0.05577
# Poissons Ratio (y) = 0.06467 0.45704
# Poissons Ratio (z) = 0.04241 0.47792
#
# Static dielectric constant tensor:
#      x y z
#    x 2.070150 0.000000 0.020500 
#    y 0.000000 2.096380 0.000000 
#    z 0.020500 0.000000 2.103610 
# 
# From -- ./inp_files/1821.got.cif
#   From: 2010.05.17/outbox.cif.g08.bks.cpg/sg9_1_cif.got.tgz:1821.got - 2010.06.03 20:04:27.
