data_PCOD9136297
_publ_section_title
;
Structure prediction by ZEFSAII (Michael W. Deem and Ramdas Pophale) SiO2 
 PCOD9136297
Probable space group: C C
;
_chemical_formula_sum "Si O2"
_cell_formula_units_Z 28
_cell_length_a 7.102259
_cell_length_b 8.581673
_cell_length_c 18.455034
_cell_angle_alpha 90.000000
_cell_angle_beta 108.780742
_cell_angle_gamma 90.000000
_cell_volume 1064.932505
_symmetry_space_group_name_H-M "C C"
_symmetry_group_IT_number 9
_symmetry_cell_setting 'monoclinic'
loop_
_space_group_symop_operation_xyz
x,y,z
x,-y,1/2+z
1/2+x,1/2+y,z
1/2+x,1/2-y,1/2+z
loop_
_atom_site_type_symbol
_atom_site_label
_atom_site_fract_x
_atom_site_fract_y
_atom_site_fract_z
Si Si1 0.384650 0.077287 0.807730
Si Si2 0.866509 0.497865 0.451381
Si Si3 0.188796 0.928138 0.069298
Si Si4 0.028274 0.590315 0.199217
Si Si5 0.765464 0.807044 0.357646
Si Si6 0.276689 0.578383 0.022649
Si Si7 0.430461 0.424257 0.229021
O O1 0.365581 0.131572 0.889698
O O2 0.520514 0.944952 0.784685
O O3 0.536437 0.214253 0.801554
O O4 0.164455 0.038705 0.754279
O O5 0.714640 0.480913 0.496283
O O6 0.834710 0.640352 0.393525
O O7 0.080235 0.520882 0.514008
O O8 0.369444 0.976331 0.142767
O O9 0.223983 0.748033 0.050316
O O10 0.977610 0.992733 0.071017
O O11 0.246345 0.544986 0.194377
O O12 0.937061 0.763506 0.182446
O O13 0.774236 0.904058 0.434151
O O14 0.889164 0.876523 0.307638
#
# Coordination Sequence:
#
# PCOD9136297 Si02
#       7
#     4   4   4   4   4   4   4
#     4  10  22  39  63  89 127 167 213 268 340 397
#     4  10  21  40  65  92 123 164 219 269 339 402
#     4  11  24  42  63  90 135 169 225 273 344 400
#     4  11  25  41  60  97 127 173 222 281 326 419
#     4   9  20  39  61  95 123 163 215 275 330 405
#     4  10  23  40  64  93 126 177 217 281 336 413
#     4  11  23  39  66  90 131 171 225 271 345 394
#
# _framework density 26.292743999999999
#
# number of rings (size 3 to 8) (size 9 to 14) (size 15 to 20)
#    0.000    1.714    1.429    1.714    2.000    8.000 
#    0.000    0.000    0.000    0.000    0.000    0.000 
#    0.000    0.000    0.000    0.000    0.000    0.000 
#
# Total GULP energy -78012.601453 kJ/mol
# GULP energy per Si atom -5572.328675 kJ/mol
# Density = 2.623290 g / cm^3
# Si number density = 26.292744 Si / 1000 Ang^3
#
#
#
# Elastic Constant Matrix: (Units=GPa)
#
#
# Indices 1 2 3 4 5 6 
#
# 1 211.9371 49.3451 31.8079 0.0000 30.5827 0.0000
# 2 49.3451 50.5870 32.5045 0.0000 -1.0969 0.0000
# 3 31.8079 32.5045 85.6477 0.0000 15.2495 0.0000
# 4 0.0000 0.0000 0.0000 44.9029 0.0000 2.2320
# 5 30.5827 -1.0969 15.2495 0.0000 45.3039 0.0000
# 6 0.0000 0.0000 0.0000 2.2320 0.0000 27.6537
#
#
#
# Elastic Compliance Matrix: (Units=1/GPa)
#
#
# Indices 1 2 3 4 5 6 
#
# 1 0.007163 -0.007966 0.001338 0.000000 -0.005479 0.000000
# 2 -0.007966 0.035785 -0.012482 0.000000 0.010445 0.000000
# 3 0.001338 -0.012482 0.017159 0.000000 -0.006982 0.000000
# 4 0.000000 0.000000 0.000000 0.022360 0.000000 -0.001805
# 5 -0.005479 0.010445 -0.006982 0.000000 0.028374 0.000000
# 6 0.000000 0.000000 0.000000 -0.001805 0.000000 0.036307
#
#
# Mechanical properties :
#
#
# Convention : Reuss Voigt Hill
#
# Bulk Modulus (GPa) = 45.68825 63.94298 54.81562
# Shear Modulus (GPa) = 25.95200 39.20638 32.57919
#
# Velocity S-wave (km/s) = 3.14513 3.86573 3.52390
# Velocity P-wave (km/s) = 5.53205 6.65564 6.11969
#
# Compressibility (1/GPa) = 0.02188746
#
# Stress axis : x y z
#
# Youngs Moduli (GPa) = 139.61194 27.94467 58.27864
#
# Poissons Ratio (x) = 0.22260 -0.07800
# Poissons Ratio (y) = 1.11210 0.72746
# Poissons Ratio (z) = -0.18686 0.34882
#
# Static dielectric constant tensor:
#      x y z
#    x 2.160740 0.000000 -0.140590 
#    y 0.000000 2.300530 0.000000 
#    z -0.140590 0.000000 2.480530 
# 
# From -- ./inp_files/28472.got.cif
#   From: 2010.05.17/outbox.cif.g08.bks.cpg/sg9_15_cif.got.tgz:28472.got - 2010.06.03 20:04:27.
