data_PCOD9136504
_publ_section_title
;
Structure prediction by ZEFSAII (Michael W. Deem and Ramdas Pophale) SiO2 
 PCOD9136504
Probable space group: C C
;
_chemical_formula_sum "Si O2"
_cell_formula_units_Z 32
_cell_length_a 11.604695
_cell_length_b 23.440800
_cell_length_c 8.910242
_cell_angle_alpha 90.000000
_cell_angle_beta 141.436460
_cell_angle_gamma 90.000000
_cell_volume 1510.949758
_symmetry_space_group_name_H-M "C C"
_symmetry_group_IT_number 9
_symmetry_cell_setting 'monoclinic'
loop_
_space_group_symop_operation_xyz
x,y,z
x,-y,1/2+z
1/2+x,1/2+y,z
1/2+x,1/2-y,1/2+z
loop_
_atom_site_type_symbol
_atom_site_label
_atom_site_fract_x
_atom_site_fract_y
_atom_site_fract_z
Si Si1 0.181930 0.787933 0.824980
Si Si2 0.509931 0.874448 0.126126
Si Si3 0.141177 0.065130 0.729002
Si Si4 0.438645 0.143451 0.892454
Si Si5 0.212992 0.055261 0.152229
Si Si6 0.400172 0.650047 0.865849
Si Si7 0.795398 0.136930 0.420063
Si Si8 0.400636 0.277325 0.768054
O O1 0.029628 0.795312 0.540979
O O2 0.063458 0.810664 0.846749
O O3 0.366458 0.820899 0.966587
O O4 0.251475 0.731386 0.981567
O O5 0.505175 0.883561 0.301403
O O6 0.712872 0.864220 0.265739
O O7 0.401075 0.922862 0.922184
O O8 0.249813 0.116080 0.757495
O O9 0.927449 0.083406 0.523056
O O10 0.169279 0.007637 0.665455
O O11 0.216063 0.057932 0.975039
O O12 0.434682 0.212288 0.860928
O O13 0.582853 0.126611 0.168565
O O14 0.046689 0.098174 0.031399
O O15 0.337755 0.656114 0.631044
O O16 0.843284 0.186204 0.350038
#
# Coordination Sequence:
#
# PCOD9136504 Si02
#       8
#     4   4   4   4   4   4   4   4
#     4  10  22  39  63  90 125 171 224 269 320 391
#     4  10  21  41  68  93 131 168 216 274 332 396
#     4  11  24  42  68  99 133 174 221 277 337 401
#     4  11  23  39  66  94 129 175 224 270 326 396
#     4  10  23  44  68  98 133 171 218 275 345 401
#     4  10  23  43  65  97 135 172 216 285 335 395
#     4  11  23  42  64  95 132 173 224 275 330 395
#     4  11  21  42  64  88 130 178 227 273 321 389
#
# _framework density 21.178733000000001
#
# number of rings (size 3 to 8) (size 9 to 14) (size 15 to 20)
#    0.000    1.500    1.250    3.750    1.750    4.000 
#    2.250    5.000    0.000    0.000    0.000    0.000 
#    0.000    0.000    0.000    0.000    0.000    0.000 
#
# Total GULP energy -89195.859281 kJ/mol
# GULP energy per Si atom -5574.741205 kJ/mol
# Density = 2.113053 g / cm^3
# Si number density = 21.178733 Si / 1000 Ang^3
#
#
#
# Elastic Constant Matrix: (Units=GPa)
#
#
# Indices 1 2 3 4 5 6 
#
# 1 85.1002 17.0567 20.3628 0.0000 5.5330 0.0000
# 2 17.0567 81.8024 30.9262 0.0000 -11.0828 0.0000
# 3 20.3628 30.9262 143.8434 0.0000 -1.2412 0.0000
# 4 0.0000 0.0000 0.0000 25.4601 0.0000 -9.5466
# 5 5.5330 -11.0828 -1.2412 0.0000 33.5026 0.0000
# 6 0.0000 0.0000 0.0000 -9.5466 0.0000 27.5670
#
#
#
# Elastic Compliance Matrix: (Units=1/GPa)
#
#
# Indices 1 2 3 4 5 6 
#
# 1 0.012771 -0.002588 -0.001277 0.000000 -0.003013 0.000000
# 2 -0.002588 0.014479 -0.002702 0.000000 0.005117 0.000000
# 3 -0.001277 -0.002702 0.007710 0.000000 -0.000397 0.000000
# 4 0.000000 0.000000 0.000000 0.045139 0.000000 0.015632
# 5 -0.003013 0.005117 -0.000397 0.000000 0.032024 0.000000
# 6 0.000000 0.000000 0.000000 0.015632 0.000000 0.041689
#
#
# Mechanical properties :
#
#
# Convention : Reuss Voigt Hill
#
# Bulk Modulus (GPa) = 45.81978 49.71530 47.76754
# Shear Modulus (GPa) = 28.69881 33.46594 31.08237
#
# Velocity S-wave (km/s) = 3.68513 3.97944 3.83511
# Velocity P-wave (km/s) = 6.30783 6.68130 6.49725
#
# Compressibility (1/GPa) = 0.02182464
#
# Stress axis : x y z
#
# Youngs Moduli (GPa) = 78.30152 69.06451 129.69412
#
# Poissons Ratio (x) = 0.17875 0.16568
# Poissons Ratio (y) = 0.20266 0.35050
# Poissons Ratio (z) = 0.10003 0.18665
#
# Static dielectric constant tensor:
#      x y z
#    x 1.783730 0.000000 0.051040 
#    y 0.000000 1.790680 0.000000 
#    z 0.051040 0.000000 1.833480 
# 
# From -- ./inp_files/8538.got.cif
#   From: 2010.05.17/outbox.cif.g08.bks.cpg/sg9_5_cif.got.tgz:8538.got - 2010.06.03 20:04:27.
