data_PCOD9136005
_publ_section_title
;
Structure prediction by ZEFSAII (Michael W. Deem and Ramdas Pophale) SiO2 
 PCOD9136005
Probable space group: C C
;
_chemical_formula_sum "Si O2"
_cell_formula_units_Z 32
_cell_length_a 17.716153
_cell_length_b 4.905128
_cell_length_c 20.134172
_cell_angle_alpha 90.000000
_cell_angle_beta 127.846291
_cell_angle_gamma 90.000000
_cell_volume 1381.635373
_symmetry_space_group_name_H-M "C C"
_symmetry_group_IT_number 9
_symmetry_cell_setting 'monoclinic'
loop_
_space_group_symop_operation_xyz
x,y,z
x,-y,1/2+z
1/2+x,1/2+y,z
1/2+x,1/2-y,1/2+z
loop_
_atom_site_type_symbol
_atom_site_label
_atom_site_fract_x
_atom_site_fract_y
_atom_site_fract_z
Si Si1 0.177930 0.833345 0.460340
Si Si2 0.284185 0.427754 0.139549
Si Si3 0.316212 0.008525 0.331812
Si Si4 0.214397 0.494452 0.734152
Si Si5 0.469604 0.175652 0.317122
Si Si6 0.024389 0.452669 0.208762
Si Si7 0.780383 0.831430 0.448181
Si Si8 0.927707 0.032027 0.612706
O O1 0.216829 0.755743 0.555319
O O2 0.218124 0.603978 0.429923
O O3 0.063161 0.841048 0.390548
O O4 0.225762 0.112653 0.464347
O O5 0.220624 0.581283 0.159712
O O6 0.378014 0.318249 0.231506
O O7 0.344453 0.584132 0.116131
O O8 0.240287 0.184745 0.247014
O O9 0.419869 0.046626 0.354744
O O10 0.295575 0.157462 0.389637
O O11 0.292497 0.691386 0.313321
O O12 0.120593 0.447065 0.726193
O O13 0.509583 0.984271 0.279258
O O14 0.017492 0.138721 0.184641
O O15 0.944172 0.649444 0.132037
O O16 0.887270 0.941212 0.521280
#
# Coordination Sequence:
#
# PCOD9136005 Si02
#       8
#     4   4   4   4   4   4   4   4
#     4  11  24  41  66  92 124 168 211 258 312 374
#     4   9  22  43  63  92 128 164 209 261 314 369
#     4  11  23  39  61  89 125 164 205 260 317 368
#     4  11  23  39  62  90 124 165 208 260 313 371
#     4  10  22  40  64  91 123 164 208 254 311 372
#     4  11  21  37  62  90 119 162 212 249 306 376
#     4  11  22  41  61  90 127 163 209 258 314 373
#     4  10  21  38  61  86 122 166 202 254 311 365
#
# _framework density 23.160958000000001
#
# number of rings (size 3 to 8) (size 9 to 14) (size 15 to 20)
#    0.000    1.500    0.000    6.000    0.000    9.000 
#    0.000    2.500    0.000    0.000    0.000    0.000 
#    0.000    0.000    0.000    0.000    0.000    0.000 
#
# Total GULP energy -89072.894021 kJ/mol
# GULP energy per Si atom -5567.055876 kJ/mol
# Density = 2.310824 g / cm^3
# Si number density = 23.160958 Si / 1000 Ang^3
#
#
#
# Elastic Constant Matrix: (Units=GPa)
#
#
# Indices 1 2 3 4 5 6 
#
# 1 132.0366 9.1088 17.6153 0.0001 4.7510 0.0003
# 2 9.1088 83.3835 2.8577 0.0001 5.6291 0.0018
# 3 17.6153 2.8577 76.3552 0.0004 11.2666 -0.0004
# 4 0.0001 0.0001 0.0004 23.3268 -0.0002 0.6430
# 5 4.7510 5.6291 11.2666 -0.0002 28.9564 0.0003
# 6 0.0003 0.0018 -0.0004 0.6430 0.0003 21.0244
#
#
#
# Elastic Compliance Matrix: (Units=1/GPa)
#
#
# Indices 1 2 3 4 5 6 
#
# 1 0.007873 -0.000769 -0.001718 0.000000 -0.000474 0.000000
# 2 -0.000769 0.012228 0.000055 0.000000 -0.002272 -0.000001
# 3 -0.001718 0.000055 0.014270 0.000000 -0.005281 0.000000
# 4 0.000000 0.000000 0.000000 0.042905 0.000000 -0.001312
# 5 -0.000474 -0.002272 -0.005281 0.000000 0.037109 0.000000
# 6 0.000000 -0.000001 0.000000 -0.001312 0.000000 0.047604
#
#
# Mechanical properties :
#
#
# Convention : Reuss Voigt Hill
#
# Bulk Modulus (GPa) = 33.88904 38.99322 36.44113
# Shear Modulus (GPa) = 28.29831 32.14109 30.21970
#
# Velocity S-wave (km/s) = 3.49923 3.72926 3.61608
# Velocity P-wave (km/s) = 5.56686 5.95109 5.76218
#
# Compressibility (1/GPa) = 0.02950807
#
# Stress axis : x y z
#
# Youngs Moduli (GPa) = 127.01770 81.77733 70.07633
#
# Poissons Ratio (x) = 0.06290 0.12036
# Poissons Ratio (y) = 0.09770 -0.00386
# Poissons Ratio (z) = 0.21816 -0.00451
#
# Static dielectric constant tensor:
#      x y z
#    x 1.892960 0.000000 -0.019410 
#    y 0.000000 1.861680 0.000000 
#    z -0.019410 0.000000 2.071180 
# 
# From -- ./inp_files/33938.got.cif
#   From: 2010.05.17/outbox.cif.g08.bks.cpg/sg9_17_cif.got.tgz:33938.got - 2010.06.03 20:04:27.
