data_PCOD9136089
_publ_section_title
;
Structure prediction by ZEFSAII (Michael W. Deem and Ramdas Pophale) SiO2 
 PCOD9136089
Probable space group: C C
;
_chemical_formula_sum "Si O2"
_cell_formula_units_Z 28
_cell_length_a 17.358932
_cell_length_b 5.133336
_cell_length_c 18.457145
_cell_angle_alpha 90.000000
_cell_angle_beta 45.238337
_cell_angle_gamma 90.000000
_cell_volume 1167.807577
_symmetry_space_group_name_H-M "C C"
_symmetry_group_IT_number 9
_symmetry_cell_setting 'monoclinic'
loop_
_space_group_symop_operation_xyz
x,y,z
x,-y,1/2+z
1/2+x,1/2+y,z
1/2+x,1/2-y,1/2+z
loop_
_atom_site_type_symbol
_atom_site_label
_atom_site_fract_x
_atom_site_fract_y
_atom_site_fract_z
Si Si1 0.000000 0.253663 0.132440
Si Si2 0.254100 0.666136 0.329361
Si Si3 0.510152 0.365469 0.250781
Si Si4 0.688248 0.940775 0.592173
Si Si5 0.786357 0.355142 0.896406
Si Si6 0.918203 0.821275 0.945618
Si Si7 0.523716 0.183853 0.446199
O O1 0.868675 0.269341 0.224171
O O2 0.087539 0.421992 0.118874
O O3 0.015162 0.978655 0.165548
O O4 0.019476 0.325742 0.036071
O O5 0.260681 0.374045 0.355977
O O6 0.151881 0.679172 0.344843
O O7 0.237630 0.871668 0.405704
O O8 0.625011 0.234287 0.193411
O O9 0.415746 0.150351 0.316573
O O10 0.464211 0.590101 0.335498
O O11 0.742497 0.738111 0.501523
O O12 0.787939 0.138030 0.540409
O O13 0.960952 0.546898 0.946824
O O14 0.971397 0.043883 0.959731
#
# Coordination Sequence:
#
# PCOD9136089 Si02
#       7
#     4   4   4   4   4   4   4
#     4  11  25  44  82 105 140 194 273 301 366 441
#     4  11  22  42  70 106 143 186 243 311 362 431
#     4  10  24  44  75 111 143 197 259 311 368 455
#     4  11  23  44  76 105 143 195 254 310 359 457
#     4  10  21  38  70 108 139 178 245 316 360 412
#     4  11  30  48  73 107 163 199 237 307 404 437
#     4  12  27  50  70 110 155 201 241 318 377 455
#
# _framework density 23.976552999999999
#
# number of rings (size 3 to 8) (size 9 to 14) (size 15 to 20)
#    0.000    1.143    2.857    1.714    6.000    3.429 
#    0.000    0.000    0.000    0.000    0.000    0.000 
#    0.000    0.000    0.000    0.000    0.000    0.000 
#
# Total GULP energy -78198.639218 kJ/mol
# GULP energy per Si atom -5585.617087 kJ/mol
# Density = 2.392198 g / cm^3
# Si number density = 23.976553 Si / 1000 Ang^3
#
#
#
# Elastic Constant Matrix: (Units=GPa)
#
#
# Indices 1 2 3 4 5 6 
#
# 1 119.9009 27.4103 60.8043 -0.0153 -21.0349 -0.0072
# 2 27.4103 63.8965 33.1756 -0.0240 -10.2816 -0.0873
# 3 60.8043 33.1756 116.3037 -0.0061 -38.9089 -0.0012
# 4 -0.0153 -0.0240 -0.0061 21.7756 0.0115 -3.7567
# 5 -21.0349 -10.2816 -38.9089 0.0115 43.9014 -0.0079
# 6 -0.0072 -0.0873 -0.0012 -3.7567 -0.0079 16.1666
#
#
#
# Elastic Compliance Matrix: (Units=1/GPa)
#
#
# Indices 1 2 3 4 5 6 
#
# 1 0.011597 -0.002149 -0.005344 0.000003 0.000317 -0.000006
# 2 -0.002149 0.018777 -0.004415 0.000037 -0.000545 0.000108
# 3 -0.005344 -0.004415 0.016274 -0.000014 0.010829 -0.000023
# 4 0.000003 0.000037 -0.000014 0.047841 -0.000013 0.011117
# 5 0.000317 -0.000545 0.010829 -0.000013 0.032400 0.000011
# 6 -0.000006 0.000108 -0.000023 0.011117 0.000011 0.064440
#
#
# Mechanical properties :
#
#
# Convention : Reuss Voigt Hill
#
# Bulk Modulus (GPa) = 43.79767 60.32017 52.05892
# Shear Modulus (GPa) = 22.44606 28.28276 25.36441
#
# Velocity S-wave (km/s) = 3.06300 3.43826 3.25604
# Velocity P-wave (km/s) = 5.55120 6.40115 5.99127
#
# Compressibility (1/GPa) = 0.02283227
#
# Stress axis : x y z
#
# Youngs Moduli (GPa) = 86.22756 53.25667 61.44736
#
# Poissons Ratio (x) = 0.11447 0.32837
# Poissons Ratio (y) = 0.18533 0.27128
# Poissons Ratio (z) = 0.46079 0.23512
#
# Static dielectric constant tensor:
#      x y z
#    x 1.918540 -0.000020 0.009550 
#    y -0.000020 1.947330 0.000020 
#    z 0.009550 0.000020 2.040550 
# 
# From -- ./inp_files/33908.got.cif
#   From: 2010.05.17/outbox.cif.g08.bks.cpg/sg9_17_cif.got.tgz:33908.got - 2010.06.03 20:04:27.
