data_PCOD9136004
_publ_section_title
;
Structure prediction by ZEFSAII (Michael W. Deem and Ramdas Pophale) SiO2 
 PCOD9136004
Probable space group: C C
;
_chemical_formula_sum "Si O2"
_cell_formula_units_Z 28
_cell_length_a 23.373234
_cell_length_b 8.961594
_cell_length_c 11.564428
_cell_angle_alpha 90.000000
_cell_angle_beta 25.409814
_cell_angle_gamma 90.000000
_cell_volume 1039.385074
_symmetry_space_group_name_H-M "C C"
_symmetry_group_IT_number 9
_symmetry_cell_setting 'monoclinic'
loop_
_space_group_symop_operation_xyz
x,y,z
x,-y,1/2+z
1/2+x,1/2+y,z
1/2+x,1/2-y,1/2+z
loop_
_atom_site_type_symbol
_atom_site_label
_atom_site_fract_x
_atom_site_fract_y
_atom_site_fract_z
Si Si1 0.913190 0.310562 0.071210
Si Si2 0.810734 0.391254 0.486242
Si Si3 0.591123 0.075029 0.986510
Si Si4 0.658409 0.686335 0.741496
Si Si5 0.972207 0.175988 0.301932
Si Si6 0.906943 0.836549 0.358430
Si Si7 0.091241 0.420601 0.222713
O O1 0.820565 0.298507 0.349955
O O2 0.847236 0.247572 0.079276
O O3 0.050289 0.220317 0.840351
O O4 0.954744 0.481200 0.980768
O O5 0.947180 0.489513 0.243915
O O6 0.698612 0.514424 0.680536
O O7 0.833703 0.268020 0.542398
O O8 0.542210 0.246160 0.085953
O O9 0.652507 0.003198 0.993948
O O10 0.646557 0.058848 0.753414
O O11 0.790246 0.788343 0.482609
O O12 0.570429 0.718727 0.016141
O O13 0.045897 0.251495 0.276057
O O14 0.938091 0.004221 0.339959
#
# Coordination Sequence:
#
# PCOD9136004 Si02
#       7
#     4   4   4   4   4   4   4
#     4   9  19  38  64  91 125 169 219 277 337 404
#     4   8  17  37  62  87 122 166 217 270 328 396
#     4   8  16  33  60  87 122 171 211 265 334 389
#     4  10  21  41  65  89 124 174 220 273 342 398
#     4  10  21  38  62  94 131 170 219 278 335 405
#     4  10  21  38  60  94 133 168 224 285 333 406
#     4   9  17  35  61  90 129 172 214 272 339 392
#
# _framework density 26.939007
#
# number of rings (size 3 to 8) (size 9 to 14) (size 15 to 20)
#    0.000    2.857    0.000    1.714    0.000    3.429 
#    0.000   21.429    0.000    0.000    0.000    0.000 
#    0.000    0.000    0.000    0.000    0.000    0.000 
#
# Total GULP energy -78079.085224 kJ/mol
# GULP energy per Si atom -5577.077516 kJ/mol
# Density = 2.687769 g / cm^3
# Si number density = 26.939007 Si / 1000 Ang^3
#
#
#
# Elastic Constant Matrix: (Units=GPa)
#
#
# Indices 1 2 3 4 5 6 
#
# 1 124.1631 25.0901 37.5883 0.0000 17.3891 0.0000
# 2 25.0901 188.4580 31.9225 0.0000 -9.1831 0.0000
# 3 37.5883 31.9225 81.0698 0.0000 -12.0526 0.0000
# 4 0.0000 0.0000 0.0000 50.8873 0.0000 -9.9195
# 5 17.3891 -9.1831 -12.0526 0.0000 46.5042 0.0000
# 6 0.0000 0.0000 0.0000 -9.9195 0.0000 39.1065
#
#
#
# Elastic Compliance Matrix: (Units=1/GPa)
#
#
# Indices 1 2 3 4 5 6 
#
# 1 0.010635 -0.000762 -0.005455 0.000000 -0.005541 0.000000
# 2 -0.000762 0.005754 -0.001769 0.000000 0.000963 0.000000
# 3 -0.005455 -0.001769 0.016446 0.000000 0.005953 0.000000
# 4 0.000000 0.000000 0.000000 0.020673 0.000000 0.005244
# 5 -0.005541 0.000963 0.005953 0.000000 0.025308 0.000000
# 6 0.000000 0.000000 0.000000 0.005244 0.000000 0.026901
#
#
# Mechanical properties :
#
#
# Convention : Reuss Voigt Hill
#
# Bulk Modulus (GPa) = 59.30131 64.76588 62.03360
# Shear Modulus (GPa) = 39.27360 47.23892 43.25626
#
# Velocity S-wave (km/s) = 3.82235 4.19208 4.01148
# Velocity P-wave (km/s) = 6.44527 6.89386 6.67333
#
# Compressibility (1/GPa) = 0.01686303
#
# Stress axis : x y z
#
# Youngs Moduli (GPa) = 94.02676 173.78336 60.80529
#
# Poissons Ratio (x) = 0.13241 0.33168
# Poissons Ratio (y) = 0.07164 0.10759
# Poissons Ratio (z) = 0.51290 0.30750
#
# Static dielectric constant tensor:
#      x y z
#    x 2.143420 0.000000 0.007020 
#    y 0.000000 2.204760 0.000000 
#    z 0.007020 0.000000 2.184090 
# 
# From -- ./inp_files/20787.got.cif
#   From: 2010.05.17/outbox.cif.g08.bks.cpg/sg9_11_cif.got.tgz:20787.got - 2010.06.03 20:04:27.
