data_PCOD9136231
_publ_section_title
;
Structure prediction by ZEFSAII (Michael W. Deem and Ramdas Pophale) SiO2 
 PCOD9136231
Probable space group: C C
;
_chemical_formula_sum "Si O2"
_cell_formula_units_Z 32
_cell_length_a 16.813022
_cell_length_b 7.810224
_cell_length_c 14.108532
_cell_angle_alpha 90.000000
_cell_angle_beta 53.111108
_cell_angle_gamma 90.000000
_cell_volume 1481.743624
_symmetry_space_group_name_H-M "C C"
_symmetry_group_IT_number 9
_symmetry_cell_setting 'monoclinic'
loop_
_space_group_symop_operation_xyz
x,y,z
x,-y,1/2+z
1/2+x,1/2+y,z
1/2+x,1/2-y,1/2+z
loop_
_atom_site_type_symbol
_atom_site_label
_atom_site_fract_x
_atom_site_fract_y
_atom_site_fract_z
Si Si1 0.302500 0.478411 0.421640
Si Si2 0.893969 0.643823 0.134445
Si Si3 0.380771 0.547687 0.181482
Si Si4 0.000960 0.838686 0.758470
Si Si5 0.720796 0.475739 0.620116
Si Si6 0.218998 0.623396 0.160336
Si Si7 0.018237 0.509347 0.875720
Si Si8 0.855573 0.594658 0.371196
O O1 0.294241 0.562288 0.324610
O O2 0.414405 0.542109 0.366740
O O3 0.226475 0.496891 0.561421
O O4 0.300860 0.276386 0.402200
O O5 0.791905 0.606055 0.149697
O O6 0.889091 0.554356 0.240749
O O7 0.906480 0.847711 0.144754
O O8 0.980224 0.570509 0.004933
O O9 0.470792 0.645281 0.168773
O O10 0.328694 0.617666 0.126676
O O11 0.995491 0.660513 0.816580
O O12 0.112741 0.897527 0.692280
O O13 0.703096 0.677539 0.650825
O O14 0.782045 0.464563 0.477391
O O15 0.130824 0.549428 0.286812
O O16 0.944851 0.370176 0.881509
#
# Coordination Sequence:
#
# PCOD9136231 Si02
#       8
#     4   4   4   4   4   4   4   4
#     4   8  19  38  61  78 125 158 198 244 302 351
#     4  10  21  42  65  87 122 164 210 246 307 363
#     4   9  21  39  60  85 120 158 203 250 301 353
#     4  10  21  40  58  88 124 156 198 253 304 360
#     4  10  22  40  63  90 120 160 206 247 306 360
#     4  11  21  38  61  91 121 160 202 249 299 367
#     4  11  23  36  66  90 127 158 204 252 309 359
#     4   9  20  41  62  89 117 162 199 259 294 363
#
# _framework density 21.596177000000001
#
# number of rings (size 3 to 8) (size 9 to 14) (size 15 to 20)
#    0.750    1.500    0.000    2.250    1.750    2.000 
#    9.000    1.250    0.000    0.000    0.000    0.000 
#    0.000    0.000    0.000    0.000    0.000    0.000 
#
# Total GULP energy -89126.962121 kJ/mol
# GULP energy per Si atom -5570.435133 kJ/mol
# Density = 2.154702 g / cm^3
# Si number density = 21.596177 Si / 1000 Ang^3
#
#
#
# Elastic Constant Matrix: (Units=GPa)
#
#
# Indices 1 2 3 4 5 6 
#
# 1 53.0371 13.0597 51.6348 0.0000 3.9168 0.0001
# 2 13.0597 50.4381 23.3161 -0.0001 5.3669 0.0002
# 3 51.6348 23.3161 124.8744 0.0000 0.2574 0.0001
# 4 0.0000 -0.0001 0.0000 22.6943 0.0000 0.9798
# 5 3.9168 5.3669 0.2574 0.0000 30.6526 0.0000
# 6 0.0001 0.0002 0.0001 0.9798 0.0000 25.6971
#
#
#
# Elastic Compliance Matrix: (Units=1/GPa)
#
#
# Indices 1 2 3 4 5 6 
#
# 1 0.032212 -0.001967 -0.012945 0.000000 -0.003663 0.000000
# 2 -0.001967 0.022263 -0.003336 0.000000 -0.003619 0.000000
# 3 -0.012945 -0.003336 0.013979 0.000000 0.002121 0.000000
# 4 0.000000 0.000000 0.000000 0.044137 0.000000 -0.001683
# 5 -0.003663 -0.003619 0.002121 0.000000 0.033707 0.000000
# 6 0.000000 0.000000 0.000000 -0.001683 0.000000 0.038979
#
#
# Mechanical properties :
#
#
# Convention : Reuss Voigt Hill
#
# Bulk Modulus (GPa) = 31.29038 44.93009 38.11024
# Shear Modulus (GPa) = 21.51232 25.16474 23.33853
#
# Velocity S-wave (km/s) = 3.15956 3.41727 3.29093
# Velocity P-wave (km/s) = 5.27548 6.03491 5.66793
#
# Compressibility (1/GPa) = 0.03195871
#
# Stress axis : x y z
#
# Youngs Moduli (GPa) = 31.04438 44.91802 71.53521
#
# Poissons Ratio (x) = 0.08834 0.92600
# Poissons Ratio (y) = 0.06106 0.23865
# Poissons Ratio (z) = 0.40186 0.14985
#
# Static dielectric constant tensor:
#      x y z
#    x 1.776090 0.000000 0.021660 
#    y 0.000000 1.831120 0.000000 
#    z 0.021660 0.000000 1.833090 
# 
# From -- ./inp_files/26660.got.cif
#   From: 2010.05.17/outbox.cif.g08.bks.cpg/sg9_14_cif.got.tgz:26660.got - 2010.06.03 20:04:27.
