data_PCOD9136894
_publ_section_title
;
Structure prediction by ZEFSAII (Michael W. Deem and Ramdas Pophale) SiO2 
 PCOD9136894
Probable space group: C C
;
_chemical_formula_sum "Si O2"
_cell_formula_units_Z 32
_cell_length_a 26.283641
_cell_length_b 13.544735
_cell_length_c 9.314683
_cell_angle_alpha 90.000000
_cell_angle_beta 150.677344
_cell_angle_gamma 90.000000
_cell_volume 1623.971442
_symmetry_space_group_name_H-M "C C"
_symmetry_group_IT_number 9
_symmetry_cell_setting 'monoclinic'
loop_
_space_group_symop_operation_xyz
x,y,z
x,-y,1/2+z
1/2+x,1/2+y,z
1/2+x,1/2-y,1/2+z
loop_
_atom_site_type_symbol
_atom_site_label
_atom_site_fract_x
_atom_site_fract_y
_atom_site_fract_z
Si Si1 0.528850 0.635579 0.390670
Si Si2 0.136750 0.795799 0.443865
Si Si3 0.954579 0.753026 0.214634
Si Si4 0.276553 0.878076 0.187111
Si Si5 0.287610 0.610268 0.773325
Si Si6 0.104592 0.731514 0.822453
Si Si7 0.699991 0.491673 0.744484
Si Si8 0.275632 0.600596 0.396053
O O1 0.589303 0.687074 0.669544
O O2 0.548957 0.695675 0.295772
O O3 0.584971 0.529306 0.506575
O O4 0.406223 0.633375 0.109456
O O5 0.209581 0.698986 0.624346
O O6 0.196680 0.894966 0.637508
O O7 0.040705 0.791304 0.317253
O O8 0.016510 0.698516 0.495375
O O9 0.884623 0.676046 0.956620
O O10 0.876356 0.837107 0.085461
O O11 0.251417 0.920218 0.282375
O O12 0.187440 0.797253 0.937293
O O13 0.264024 0.963540 0.041796
O O14 0.280851 0.597747 0.582610
O O15 0.267754 0.507675 0.806993
O O16 0.173952 0.656906 0.085109
#
# Coordination Sequence:
#
# PCOD9136894 Si02
#       8
#     4   4   4   4   4   4   4   4
#     4  11  24  42  71  96 131 176 226 275 339 394
#     4  12  26  44  64 101 141 172 227 276 335 405
#     4  11  24  44  69  97 132 182 217 277 342 397
#     4  10  23  40  67  97 129 167 225 270 331 390
#     4  12  28  43  69 103 134 185 226 278 338 404
#     4  10  21  45  68  93 133 176 219 279 334 398
#     4  11  22  42  66  99 129 168 220 283 321 399
#     4  11  26  46  68  98 139 178 230 278 334 409
#
# _framework density 19.704781000000001
#
# number of rings (size 3 to 8) (size 9 to 14) (size 15 to 20)
#    0.000    1.000    5.000    0.750    7.000    0.000 
#    2.250    0.000    0.000    0.000    0.000    0.000 
#    0.000    0.000    0.000    0.000    0.000    0.000 
#
# Total GULP energy -89327.251908 kJ/mol
# GULP energy per Si atom -5582.953244 kJ/mol
# Density = 1.965993 g / cm^3
# Si number density = 19.704781 Si / 1000 Ang^3
#
#
#
# Elastic Constant Matrix: (Units=GPa)
#
#
# Indices 1 2 3 4 5 6 
#
# 1 39.5127 14.6984 16.3146 0.0000 -5.4324 0.0000
# 2 14.6984 89.3535 48.5551 0.0000 16.1056 0.0000
# 3 16.3146 48.5551 88.3978 0.0000 -3.8482 0.0000
# 4 0.0000 0.0000 0.0000 28.6943 0.0000 -7.4322
# 5 -5.4324 16.1056 -3.8482 0.0000 24.5884 0.0000
# 6 0.0000 0.0000 0.0000 -7.4322 0.0000 27.8784
#
#
#
# Elastic Compliance Matrix: (Units=1/GPa)
#
#
# Indices 1 2 3 4 5 6 
#
# 1 0.029549 -0.005574 -0.001962 0.000000 0.009872 0.000000
# 2 -0.005574 0.021422 -0.011481 0.000000 -0.017060 0.000000
# 3 -0.001962 -0.011481 0.018415 0.000000 0.009968 0.000000
# 4 0.000000 0.000000 0.000000 0.037435 0.000000 0.009980
# 5 0.009872 -0.017060 0.009968 0.000000 0.055585 0.000000
# 6 0.000000 0.000000 0.000000 0.009980 0.000000 0.038531
#
#
# Mechanical properties :
#
#
# Convention : Reuss Voigt Hill
#
# Bulk Modulus (GPa) = 31.89544 41.82225 36.85884
# Shear Modulus (GPa) = 20.04646 25.41195 22.72920
#
# Velocity S-wave (km/s) = 3.19304 3.59504 3.39999
# Velocity P-wave (km/s) = 5.46038 6.20507 5.84460
#
# Compressibility (1/GPa) = 0.03135244
#
# Stress axis : x y z
#
# Youngs Moduli (GPa) = 33.84180 46.68114 54.30472
#
# Poissons Ratio (x) = 0.26020 0.10655
# Poissons Ratio (y) = 0.18863 0.62345
# Poissons Ratio (z) = 0.06640 0.53593
#
# Static dielectric constant tensor:
#      x y z
#    x 1.714730 0.000000 -0.006520 
#    y 0.000000 1.674340 0.000000 
#    z -0.006520 0.000000 1.688050 
# 
# From -- ./inp_files/7404.got.cif
#   From: 2010.05.17/outbox.cif.g08.bks.cpg/sg9_4_cif.got.tgz:7404.got - 2010.06.03 20:04:27.
