data_PCOD9136906
_publ_section_title
;
Structure prediction by ZEFSAII (Michael W. Deem and Ramdas Pophale) SiO2 
 PCOD9136906
Probable space group: C C
;
_chemical_formula_sum "Si O2"
_cell_formula_units_Z 32
_cell_length_a 23.599534
_cell_length_b 5.337384
_cell_length_c 13.666810
_cell_angle_alpha 90.000000
_cell_angle_beta 123.834273
_cell_angle_gamma 90.000000
_cell_volume 1429.940337
_symmetry_space_group_name_H-M "C C"
_symmetry_group_IT_number 9
_symmetry_cell_setting 'monoclinic'
loop_
_space_group_symop_operation_xyz
x,y,z
x,-y,1/2+z
1/2+x,1/2+y,z
1/2+x,1/2-y,1/2+z
loop_
_atom_site_type_symbol
_atom_site_label
_atom_site_fract_x
_atom_site_fract_y
_atom_site_fract_z
Si Si1 0.973010 0.061752 0.739510
Si Si2 0.706882 0.396967 0.392612
Si Si3 0.757308 0.073021 0.289315
Si Si4 0.851475 0.808944 0.238647
Si Si5 0.124619 0.241940 0.183984
Si Si6 0.781728 0.289371 0.114941
Si Si7 0.600365 0.231338 0.432748
Si Si8 0.507889 0.938202 0.211348
O O1 0.930760 0.146276 0.794209
O O2 0.052815 0.047756 0.844572
O O3 0.969636 0.295775 0.661382
O O4 0.957257 0.790813 0.681946
O O5 0.765482 0.261236 0.386917
O O6 0.648626 0.487814 0.260814
O O7 0.737011 0.629127 0.481210
O O8 0.670940 0.230295 0.441663
O O9 0.740493 0.234843 0.175499
O O10 0.819351 0.896987 0.311579
O O11 0.691821 0.912866 0.253969
O O12 0.828642 0.530432 0.187657
O O13 0.819551 0.025147 0.137517
O O14 0.060512 0.363892 0.177476
O O15 0.109677 0.226904 0.055106
O O16 0.554060 0.999954 0.352194
#
# Coordination Sequence:
#
# PCOD9136906 Si02
#       8
#     4   4   4   4   4   4   4   4
#     4  10  21  45  71  88 136 174 222 267 329 386
#     4  12  22  41  64 102 138 172 219 277 338 404
#     4  10  23  36  68  94 137 172 216 274 329 396
#     4  10  22  45  68  95 129 181 222 272 324 395
#     4  12  23  41  65 103 139 167 225 273 341 402
#     4  10  25  40  67  95 130 177 220 268 338 378
#     4  10  24  38  68  97 138 174 215 278 334 389
#     4  10  22  42  65 100 129 175 215 269 327 394
#
# _framework density 22.378554999999999
#
# number of rings (size 3 to 8) (size 9 to 14) (size 15 to 20)
#    1.500    0.000    2.500    3.000    3.500    1.000 
#    0.000    1.250    8.250    0.000    0.000    0.000 
#    0.000    0.000    0.000    0.000    0.000    0.000 
#
# Total GULP energy -89150.240670 kJ/mol
# GULP energy per Si atom -5571.890042 kJ/mol
# Density = 2.232762 g / cm^3
# Si number density = 22.378555 Si / 1000 Ang^3
#
#
#
# Elastic Constant Matrix: (Units=GPa)
#
#
# Indices 1 2 3 4 5 6 
#
# 1 66.9174 6.1500 14.8601 0.0000 -23.6827 0.0000
# 2 6.1500 112.9391 9.9969 0.0000 -8.4373 -0.0002
# 3 14.8601 9.9969 69.6807 0.0000 -31.5037 0.0000
# 4 0.0000 0.0000 0.0000 30.4943 0.0000 -7.1012
# 5 -23.6827 -8.4373 -31.5037 0.0000 24.9990 0.0000
# 6 0.0000 -0.0002 0.0000 -7.1012 0.0000 31.9515
#
#
#
# Elastic Compliance Matrix: (Units=1/GPa)
#
#
# Indices 1 2 3 4 5 6 
#
# 1 0.027064 0.000531 0.013539 0.000000 0.042880 0.000000
# 2 0.000531 0.009095 0.000458 0.000000 0.004151 0.000000
# 3 0.013539 0.000458 0.040133 0.000000 0.063556 0.000000
# 4 0.000000 0.000000 0.000000 0.034583 0.000000 0.007686
# 5 0.042880 0.004151 0.063556 0.000000 0.162118 0.000000
# 6 0.000000 0.000000 0.000000 0.007686 0.000000 0.033006
#
#
# Mechanical properties :
#
#
# Convention : Reuss Voigt Hill
#
# Bulk Modulus (GPa) = 9.49225 34.61679 22.05452
# Shear Modulus (GPa) = 16.02267 32.05764 24.04015
#
# Velocity S-wave (km/s) = 2.67869 3.78897 3.28113
# Velocity P-wave (km/s) = 3.71726 5.88591 4.92250
#
# Compressibility (1/GPa) = 0.10534911
#
# Stress axis : x y z
#
# Youngs Moduli (GPa) = 36.94926 109.95168 24.91723
#
# Poissons Ratio (x) = -0.05842 -0.33735
# Poissons Ratio (y) = -0.01963 -0.01142
# Poissons Ratio (z) = -0.50025 -0.05041
#
# Static dielectric constant tensor:
#      x y z
#    x 1.847280 0.000000 0.007860 
#    y 0.000000 1.935860 0.000000 
#    z 0.007860 0.000000 1.813350 
# 
# From -- ./inp_files/20669.got.cif
#   From: 2010.05.17/outbox.cif.g08.bks.cpg/sg9_11_cif.got.tgz:20669.got - 2010.06.03 20:04:27.
