data_PCOD9136985
_publ_section_title
;
Structure prediction by ZEFSAII (Michael W. Deem and Ramdas Pophale) SiO2 
 PCOD9136985
Probable space group: C C
;
_chemical_formula_sum "Si O2"
_cell_formula_units_Z 28
_cell_length_a 14.941815
_cell_length_b 13.744699
_cell_length_c 8.706935
_cell_angle_alpha 90.000000
_cell_angle_beta 40.481910
_cell_angle_gamma 90.000000
_cell_volume 1160.881015
_symmetry_space_group_name_H-M "C C"
_symmetry_group_IT_number 9
_symmetry_cell_setting 'monoclinic'
loop_
_space_group_symop_operation_xyz
x,y,z
x,-y,1/2+z
1/2+x,1/2+y,z
1/2+x,1/2-y,1/2+z
loop_
_atom_site_type_symbol
_atom_site_label
_atom_site_fract_x
_atom_site_fract_y
_atom_site_fract_z
Si Si1 0.746500 0.907035 0.980500
Si Si2 0.443376 0.433271 0.135134
Si Si3 0.306170 0.900101 0.123055
Si Si4 0.074065 0.527901 0.445167
Si Si5 0.132598 0.026505 0.116946
Si Si6 0.952864 0.322992 0.680568
Si Si7 0.754918 0.772649 0.246126
O O1 0.634483 0.899554 0.992652
O O2 0.875529 0.959092 0.732936
O O3 0.769333 0.812444 0.054082
O O4 0.689472 0.986612 0.178201
O O5 0.546890 0.441390 0.143025
O O6 0.321659 0.354778 0.273847
O O7 0.529825 0.421216 0.867064
O O8 0.195865 0.903475 0.404536
O O9 0.246954 0.976960 0.075847
O O10 0.447282 0.929575 0.019624
O O11 0.352406 0.809376 0.957271
O O12 0.017927 0.430333 0.599393
O O13 0.092149 0.259726 0.488342
O O14 0.855491 0.315452 0.657734
#
# Coordination Sequence:
#
# PCOD9136985 Si02
#       7
#     4   4   4   4   4   4   4
#     4  11  19  38  68 103 128 179 250 283 343 430
#     4  11  19  39  62 100 134 178 240 292 348 425
#     4  11  20  39  63 104 134 181 239 292 345 425
#     4  11  19  37  69  99 127 178 243 294 333 425
#     4  10  22  32  66 104 133 174 237 306 345 405
#     4  11  24  41  66 100 145 185 237 292 364 417
#     4  11  25  40  68 104 141 191 230 295 368 421
#
# _framework density 24.119612
#
# number of rings (size 3 to 8) (size 9 to 14) (size 15 to 20)
#    0.000    1.143    7.143    0.000    2.000    0.000 
#    0.000    0.000    0.000   29.143    0.000    0.000 
#    0.000    0.000    0.000    0.000    0.000    0.000 
#
# Total GULP energy -78179.069399 kJ/mol
# GULP energy per Si atom -5584.219243 kJ/mol
# Density = 2.406472 g / cm^3
# Si number density = 24.119612 Si / 1000 Ang^3
#
#
#
# Elastic Constant Matrix: (Units=GPa)
#
#
# Indices 1 2 3 4 5 6 
#
# 1 183.8842 25.4035 40.7112 0.0000 -4.0973 0.0000
# 2 25.4035 34.3419 18.2365 0.0000 3.9153 0.0000
# 3 40.7112 18.2365 149.3682 0.0000 5.0543 0.0000
# 4 0.0000 0.0000 0.0000 11.1610 0.0000 10.0464
# 5 -4.0973 3.9153 5.0543 0.0000 39.9561 0.0000
# 6 0.0000 0.0000 0.0000 10.0464 0.0000 47.6001
#
#
#
# Elastic Compliance Matrix: (Units=1/GPa)
#
#
# Indices 1 2 3 4 5 6 
#
# 1 0.006316 -0.004143 -0.001257 0.000000 0.001213 0.000000
# 2 -0.004143 0.034123 -0.002922 0.000000 -0.003399 0.000000
# 3 -0.001257 -0.002922 0.007421 0.000000 -0.000781 0.000000
# 4 0.000000 0.000000 0.000000 0.110612 0.000000 -0.023346
# 5 0.001213 -0.003399 -0.000781 0.000000 0.025584 0.000000
# 6 0.000000 0.000000 0.000000 -0.023346 0.000000 0.025936
#
#
# Mechanical properties :
#
#
# Convention : Reuss Voigt Hill
#
# Bulk Modulus (GPa) = 32.03464 59.58850 45.81157
# Shear Modulus (GPa) = 21.09360 38.62631 29.85995
#
# Velocity S-wave (km/s) = 2.96047 4.00615 3.52233
# Velocity P-wave (km/s) = 4.99963 6.79397 5.96466
#
# Compressibility (1/GPa) = 0.03121621
#
# Stress axis : x y z
#
# Youngs Moduli (GPa) = 158.33393 29.30606 134.76120
#
# Poissons Ratio (x) = 0.12141 0.16934
# Poissons Ratio (y) = 0.65595 0.39376
# Poissons Ratio (z) = 0.19897 0.08563
#
# Static dielectric constant tensor:
#      x y z
#    x 1.955210 0.000000 0.001200 
#    y 0.000000 2.007350 0.000000 
#    z 0.001200 0.000000 2.019770 
# 
# From -- ./inp_files/7720.got.cif
#   From: 2010.05.17/outbox.cif.g08.bks.cpg/sg9_4_cif.got.tgz:7720.got - 2010.06.03 20:04:27.
