data_PCOD9136240
_publ_section_title
;
Structure prediction by ZEFSAII (Michael W. Deem and Ramdas Pophale) SiO2 
 PCOD9136240
Probable space group: C C
;
_chemical_formula_sum "Si O2"
_cell_formula_units_Z 28
_cell_length_a 7.752377
_cell_length_b 7.239821
_cell_length_c 28.248096
_cell_angle_alpha 90.000000
_cell_angle_beta 41.781640
_cell_angle_gamma 90.000000
_cell_volume 1056.373517
_symmetry_space_group_name_H-M "C C"
_symmetry_group_IT_number 9
_symmetry_cell_setting 'monoclinic'
loop_
_space_group_symop_operation_xyz
x,y,z
x,-y,1/2+z
1/2+x,1/2+y,z
1/2+x,1/2-y,1/2+z
loop_
_atom_site_type_symbol
_atom_site_label
_atom_site_fract_x
_atom_site_fract_y
_atom_site_fract_z
Si Si1 0.034170 0.508341 0.956380
Si Si2 0.605943 0.653743 0.182642
Si Si3 0.613073 0.483121 0.847804
Si Si4 0.115628 0.390861 0.085658
Si Si5 0.849594 0.356343 0.896397
Si Si6 0.841128 0.211687 0.724646
Si Si7 0.858359 0.225216 0.061417
O O1 0.315519 0.408827 0.907553
O O2 0.956267 0.477922 0.917827
O O3 0.840048 0.392588 0.028809
O O4 0.118386 0.710764 0.956942
O O5 0.583865 0.780412 0.140886
O O6 0.643092 0.774760 0.221740
O O7 0.386261 0.497803 0.231243
O O8 0.871282 0.530228 0.125852
O O9 0.750440 0.463740 0.870499
O O10 0.566381 0.695574 0.841317
O O11 0.763489 0.353171 0.780783
O O12 0.101223 0.251307 0.045281
O O13 0.352545 0.531324 0.036963
O O14 0.114739 0.276885 0.646617
#
# Coordination Sequence:
#
# PCOD9136240 Si02
#       7
#     4   4   4   4   4   4   4
#     4  10  24  46  67  99 133 177 225 273 332 399
#     4  10  21  40  60  93 128 164 205 259 323 384
#     4  10  24  46  67  99 133 177 225 273 332 399
#     4  10  21  40  60  93 128 164 205 259 323 384
#     4  10  24  44  68  94 134 176 224 270 330 398
#     4  10  21  43  66  98 130 170 216 275 328 389
#     4  10  21  43  66  98 130 170 216 275 328 389
#
# _framework density 26.505776999999998
#
# number of rings (size 3 to 8) (size 9 to 14) (size 15 to 20)
#    0.857    1.143    0.000    2.571    2.000    0.000 
#   30.857    0.000    0.000    0.000    0.000    0.000 
#    0.000    0.000    0.000    0.000    0.000    0.000 
#
# Total GULP energy -78393.354394 kJ/mol
# GULP energy per Si atom -5599.525314 kJ/mol
# Density = 2.644545 g / cm^3
# Si number density = 26.505777 Si / 1000 Ang^3
#
#
#
# Elastic Constant Matrix: (Units=GPa)
#
#
# Indices 1 2 3 4 5 6 
#
# 1 190.4802 56.1866 21.7194 0.0000 30.0114 0.0000
# 2 56.1866 163.5804 22.7545 0.0000 12.9797 0.0000
# 3 21.7194 22.7545 76.2858 0.0000 8.1109 -0.0001
# 4 0.0000 0.0000 0.0000 45.5028 -0.0001 6.0702
# 5 30.0114 12.9797 8.1109 -0.0001 50.9093 0.0000
# 6 0.0000 0.0000 -0.0001 6.0702 0.0000 71.1348
#
#
#
# Elastic Compliance Matrix: (Units=1/GPa)
#
#
# Indices 1 2 3 4 5 6 
#
# 1 0.006389 -0.001813 -0.000943 0.000000 -0.003154 0.000000
# 2 -0.001813 0.006984 -0.001517 0.000000 -0.000470 0.000000
# 3 -0.000943 -0.001517 0.013966 0.000000 -0.001282 0.000000
# 4 0.000000 0.000000 0.000000 0.022230 0.000000 -0.001897
# 5 -0.003154 -0.000470 -0.001282 0.000000 0.021826 0.000000
# 6 0.000000 0.000000 0.000000 -0.001897 0.000000 0.014220
#
#
# Mechanical properties :
#
#
# Convention : Reuss Voigt Hill
#
# Bulk Modulus (GPa) = 53.21086 70.18529 61.69807
# Shear Modulus (GPa) = 49.78807 55.48843 52.63825
#
# Velocity S-wave (km/s) = 4.33874 4.58038 4.46120
# Velocity P-wave (km/s) = 6.72445 7.38308 7.06145
#
# Compressibility (1/GPa) = 0.01879316
#
# Stress axis : x y z
#
# Youngs Moduli (GPa) = 156.51515 143.17805 71.60291
#
# Poissons Ratio (x) = 0.25960 0.06752
# Poissons Ratio (y) = 0.28378 0.10863
# Poissons Ratio (z) = 0.14758 0.21721
#
# Static dielectric constant tensor:
#      x y z
#    x 2.149810 0.000000 -0.133630 
#    y 0.000000 2.177110 0.000000 
#    z -0.133630 0.000000 2.147580 
# 
# From -- ./inp_files/36310.got.cif
#   From: 2010.05.17/outbox.cif.g08.bks.cpg/sg9_19_cif.got.tgz:36310.got - 2010.06.03 20:04:27.
