data_PCOD9136602
_publ_section_title
;
Structure prediction by ZEFSAII (Michael W. Deem and Ramdas Pophale) SiO2 
 PCOD9136602
Probable space group: C C
;
_chemical_formula_sum "Si O2"
_cell_formula_units_Z 32
_cell_length_a 30.137049
_cell_length_b 9.853801
_cell_length_c 10.597174
_cell_angle_alpha 90.000000
_cell_angle_beta 151.440588
_cell_angle_gamma 90.000000
_cell_volume 1504.478093
_symmetry_space_group_name_H-M "C C"
_symmetry_group_IT_number 9
_symmetry_cell_setting 'monoclinic'
loop_
_space_group_symop_operation_xyz
x,y,z
x,-y,1/2+z
1/2+x,1/2+y,z
1/2+x,1/2-y,1/2+z
loop_
_atom_site_type_symbol
_atom_site_label
_atom_site_fract_x
_atom_site_fract_y
_atom_site_fract_z
Si Si1 0.848030 0.666808 0.190750
Si Si2 0.266327 0.880156 0.934809
Si Si3 0.190113 0.498476 0.075922
Si Si4 0.437473 0.601596 0.802823
Si Si5 0.081907 0.963367 0.045244
Si Si6 0.546364 0.237745 0.753839
Si Si7 0.187322 0.211516 0.979254
Si Si8 0.300693 0.417607 0.604966
O O1 0.868274 0.770057 0.125219
O O2 0.940405 0.684653 0.507014
O O3 0.831011 0.511627 0.112751
O O4 0.757772 0.719822 0.037634
O O5 0.251637 0.841104 0.752959
O O6 0.301379 0.745929 0.094342
O O7 0.163922 0.931461 0.720578
O O8 0.232511 0.466154 0.319595
O O9 0.115292 0.615725 0.901969
O O10 0.148641 0.356983 0.921476
O O11 0.264262 0.539306 0.151997
O O12 0.393195 0.495979 0.790943
O O13 0.478620 0.524804 0.786948
O O14 0.530576 0.670505 0.091033
O O15 0.107898 0.893643 0.243600
O O16 0.081853 0.837684 0.949221
#
# Coordination Sequence:
#
# PCOD9136602 Si02
#       8
#     4   4   4   4   4   4   4   4
#     4   9  22  45  59  96 129 175 221 277 343 398
#     4  10  23  41  65  97 132 174 226 280 340 406
#     4  11  22  43  66 102 130 182 224 279 339 406
#     4  10  23  41  64  96 127 176 221 273 341 398
#     4  11  22  41  66  97 130 177 221 285 338 407
#     4  10  23  38  66  93 138 169 223 278 336 403
#     4  10  21  42  67  92 130 173 228 274 346 404
#     4  11  24  41  73  97 136 178 232 278 337 412
#
# _framework density 21.269836000000002
#
# number of rings (size 3 to 8) (size 9 to 14) (size 15 to 20)
#    0.750    1.000    1.250    2.250    7.000    2.000 
#    2.250    0.000    0.000    0.000    0.000    0.000 
#    0.000    0.000    0.000    0.000    0.000    0.000 
#
# Total GULP energy -89204.444106 kJ/mol
# GULP energy per Si atom -5575.277757 kJ/mol
# Density = 2.122142 g / cm^3
# Si number density = 21.269836 Si / 1000 Ang^3
#
#
#
# Elastic Constant Matrix: (Units=GPa)
#
#
# Indices 1 2 3 4 5 6 
#
# 1 43.2399 30.2719 12.9532 0.0000 15.2772 0.0000
# 2 30.2719 160.1737 29.9488 0.0000 20.2466 0.0000
# 3 12.9532 29.9488 49.0994 0.0000 15.4507 0.0000
# 4 0.0000 0.0000 0.0000 44.8489 0.0000 9.7558
# 5 15.2772 20.2466 15.4507 0.0000 29.9643 0.0000
# 6 0.0000 0.0000 0.0000 9.7558 0.0000 32.5578
#
#
#
# Elastic Compliance Matrix: (Units=1/GPa)
#
#
# Indices 1 2 3 4 5 6 
#
# 1 0.030691 -0.003923 -0.001927 0.000000 -0.012004 0.000000
# 2 -0.003923 0.007788 -0.003210 0.000000 -0.001607 0.000000
# 3 -0.001927 -0.003210 0.026072 0.000000 -0.010292 0.000000
# 4 0.000000 0.000000 0.000000 0.023852 0.000000 -0.007147
# 5 -0.012004 -0.001607 -0.010292 0.000000 0.045886 0.000000
# 6 0.000000 0.000000 0.000000 -0.007147 0.000000 0.032856
#
#
# Mechanical properties :
#
#
# Convention : Reuss Voigt Hill
#
# Bulk Modulus (GPa) = 21.53660 44.31786 32.92723
# Shear Modulus (GPa) = 24.90767 33.43016 29.16892
#
# Velocity S-wave (km/s) = 3.42575 3.96879 3.70723
# Velocity P-wave (km/s) = 5.07888 6.47170 5.81713
#
# Compressibility (1/GPa) = 0.04643258
#
# Stress axis : x y z
#
# Youngs Moduli (GPa) = 32.58235 128.40405 38.35566
#
# Poissons Ratio (x) = 0.50372 0.07390
# Poissons Ratio (y) = 0.12782 0.12311
# Poissons Ratio (z) = 0.06278 0.41214
#
# Static dielectric constant tensor:
#      x y z
#    x 1.791940 0.000000 -0.005990 
#    y 0.000000 1.798260 0.000000 
#    z -0.005990 0.000000 1.782130 
# 
# From -- ./inp_files/17762.got.cif
#   From: 2010.05.17/outbox.cif.g08.bks.cpg/sg9_9_cif.got.tgz:17762.got - 2010.06.03 20:04:27.
