data_PCOD9136378
_publ_section_title
;
Structure prediction by ZEFSAII (Michael W. Deem and Ramdas Pophale) SiO2 
 PCOD9136378
Probable space group: C C
;
_chemical_formula_sum "Si O2"
_cell_formula_units_Z 20
_cell_length_a 12.476611
_cell_length_b 13.664690
_cell_length_c 7.245627
_cell_angle_alpha 90.000000
_cell_angle_beta 33.321646
_cell_angle_gamma 90.000000
_cell_volume 678.597823
_symmetry_space_group_name_H-M "C C"
_symmetry_group_IT_number 9
_symmetry_cell_setting 'monoclinic'
loop_
_space_group_symop_operation_xyz
x,y,z
x,-y,1/2+z
1/2+x,1/2+y,z
1/2+x,1/2-y,1/2+z
loop_
_atom_site_type_symbol
_atom_site_label
_atom_site_fract_x
_atom_site_fract_y
_atom_site_fract_z
Si Si1 0.633880 0.637964 0.442980
Si Si2 0.067805 0.336148 0.010388
Si Si3 0.992811 0.859577 0.772168
Si Si4 0.392932 0.818758 0.888308
Si Si5 0.835310 0.997355 0.762843
O O1 0.657553 0.618510 0.189035
O O2 0.562591 0.748916 0.567024
O O3 0.800312 0.622260 0.352454
O O4 0.436562 0.573669 0.763311
O O5 0.237953 0.259059 0.699252
O O6 0.149448 0.427693 0.004965
O O7 0.973900 0.371761 0.953402
O O8 0.957726 0.254473 0.294352
O O9 0.001374 0.912514 0.562961
O O10 0.821469 0.923078 0.116476
#
# Coordination Sequence:
#
# PCOD9136378 Si02
#       5
#     4   4   4   4   4
#     4   9  23  39  70 102 147 191 247 309 363 447
#     4  11  21  41  72 108 144 200 244 309 374 444
#     4  10  23  37  74 100 145 195 251 292 386 426
#     4  10  21  40  70 102 148 195 244 304 379 436
#     4  10  22  41  70 102 148 193 240 316 362 443
#
# _framework density 29.472539000000001
#
# number of rings (size 3 to 8) (size 9 to 14) (size 15 to 20)
#    1.200    0.800    2.000    1.200    5.600    0.000 
#    0.000    0.000   26.400    0.000    0.000    0.000 
#    0.000    0.000    0.000    0.000    0.000    0.000 
#
# Total GULP energy -55715.733771 kJ/mol
# GULP energy per Si atom -5571.573377 kJ/mol
# Density = 2.940546 g / cm^3
# Si number density = 29.472539 Si / 1000 Ang^3
#
#
#
# Elastic Constant Matrix: (Units=GPa)
#
#
# Indices 1 2 3 4 5 6 
#
# 1 350.0723 93.0618 20.2303 -0.0029 5.9981 0.0019
# 2 93.0618 204.4413 38.0031 -0.0009 0.3968 0.0009
# 3 20.2303 38.0031 61.5078 -0.0057 11.6093 0.0044
# 4 -0.0029 -0.0009 -0.0057 44.4289 0.0034 -7.2031
# 5 5.9981 0.3968 11.6093 0.0034 28.0537 -0.0025
# 6 0.0019 0.0009 0.0044 -7.2031 -0.0025 67.9602
#
#
#
# Elastic Compliance Matrix: (Units=1/GPa)
#
#
# Indices 1 2 3 4 5 6 
#
# 1 0.003263 -0.001477 -0.000035 0.000000 -0.000662 0.000000
# 2 -0.001477 0.006250 -0.003708 -0.000001 0.001762 0.000000
# 3 -0.000035 -0.003708 0.020121 0.000003 -0.008267 -0.000001
# 4 0.000000 -0.000001 0.000003 0.022901 -0.000004 0.002427
# 5 -0.000662 0.001762 -0.008267 -0.000004 0.039183 0.000002
# 6 0.000000 0.000000 -0.000001 0.002427 0.000002 0.014972
#
#
# Mechanical properties :
#
#
# Convention : Reuss Voigt Hill
#
# Bulk Modulus (GPa) = 52.10535 102.06797 77.08666
# Shear Modulus (GPa) = 40.47632 59.07031 49.77331
#
# Velocity S-wave (km/s) = 3.70990 4.48174 4.11396
# Velocity P-wave (km/s) = 6.00573 7.84143 6.98416
#
# Compressibility (1/GPa) = 0.01919189
#
# Stress axis : x y z
#
# Youngs Moduli (GPa) = 306.49825 160.00726 49.69908
#
# Poissons Ratio (x) = 0.23638 0.00176
# Poissons Ratio (y) = 0.45279 0.18429
# Poissons Ratio (z) = 0.01085 0.59332
#
# Static dielectric constant tensor:
#      x y z
#    x 2.425260 0.000000 0.325100 
#    y 0.000000 2.232210 0.000000 
#    z 0.325100 0.000000 3.065730 
# 
# From -- ./inp_files/6923.got.cif
#   From: 2010.05.17/outbox.cif.g08.bks.cpg/sg9_4_cif.got.tgz:6923.got - 2010.06.03 20:04:27.
