data_PCOD9136886
_publ_section_title
;
Structure prediction by ZEFSAII (Michael W. Deem and Ramdas Pophale) SiO2 
 PCOD9136886
Probable space group: C C
;
_chemical_formula_sum "Si O2"
_cell_formula_units_Z 28
_cell_length_a 7.299294
_cell_length_b 12.223255
_cell_length_c 14.704557
_cell_angle_alpha 90.000000
_cell_angle_beta 104.291844
_cell_angle_gamma 90.000000
_cell_volume 1271.353300
_symmetry_space_group_name_H-M "C C"
_symmetry_group_IT_number 9
_symmetry_cell_setting 'monoclinic'
loop_
_space_group_symop_operation_xyz
x,y,z
x,-y,1/2+z
1/2+x,1/2+y,z
1/2+x,1/2-y,1/2+z
loop_
_atom_site_type_symbol
_atom_site_label
_atom_site_fract_x
_atom_site_fract_y
_atom_site_fract_z
Si Si1 0.897410 0.706110 0.987860
Si Si2 0.991414 0.870034 0.363831
Si Si3 0.944691 0.966307 0.699986
Si Si4 0.000941 0.580674 0.166021
Si Si5 0.284730 0.147654 0.314461
Si Si6 0.982974 0.472556 0.990047
Si Si7 0.402155 0.445041 0.998030
O O1 0.687922 0.681323 0.924410
O O2 0.974308 0.825747 0.977206
O O3 0.920582 0.684985 0.099451
O O4 0.011569 0.600287 0.965882
O O5 0.845038 0.771347 0.337141
O O6 0.003416 0.930176 0.268564
O O7 0.925540 0.964988 0.423895
O O8 0.078406 0.868576 0.748655
O O9 0.727311 0.931736 0.689626
O O10 0.977156 0.000922 0.599941
O O11 0.934795 0.481619 0.091157
O O12 0.923732 0.590639 0.257179
O O13 0.321655 0.081553 0.411412
O O14 0.182598 0.417937 0.994979
#
# Coordination Sequence:
#
# PCOD9136886 Si02
#       7
#     4   4   4   4   4   4   4
#     4  10  21  45  66  91 140 175 218 281 334 391
#     4  12  25  41  72 100 134 183 223 282 341 400
#     4  11  24  43  66 107 133 174 236 274 339 411
#     4   9  22  43  67  99 133 179 223 279 333 399
#     4  12  22  44  71  98 138 177 225 279 343 400
#     4   9  21  42  65  98 129 178 222 270 340 398
#     4  11  23  44  69  95 137 174 227 281 334 405
#
# _framework density 22.023775000000001
#
# number of rings (size 3 to 8) (size 9 to 14) (size 15 to 20)
#    0.857    0.571    2.857    2.571    0.000    1.143 
#    0.000    2.857    0.000    0.000    0.000    0.000 
#    0.000    0.000    0.000    0.000    0.000    0.000 
#
# Total GULP energy -78142.083146 kJ/mol
# GULP energy per Si atom -5581.577368 kJ/mol
# Density = 2.197365 g / cm^3
# Si number density = 22.023775 Si / 1000 Ang^3
#
#
#
# Elastic Constant Matrix: (Units=GPa)
#
#
# Indices 1 2 3 4 5 6 
#
# 1 62.4130 3.7235 20.2891 0.0000 16.4121 0.0000
# 2 3.7235 81.0261 25.8333 0.0000 -0.5626 0.0000
# 3 20.2891 25.8333 43.2099 0.0000 20.8886 0.0000
# 4 0.0000 0.0000 0.0000 15.7981 0.0000 -5.5690
# 5 16.4121 -0.5626 20.8886 0.0000 36.4708 0.0000
# 6 0.0000 0.0000 0.0000 -5.5690 0.0000 24.1488
#
#
#
# Elastic Compliance Matrix: (Units=1/GPa)
#
#
# Indices 1 2 3 4 5 6 
#
# 1 0.019690 0.001711 -0.008295 0.000000 -0.004084 0.000000
# 2 0.001711 0.017063 -0.014879 0.000000 0.008015 0.000000
# 3 -0.008295 -0.014879 0.047350 0.000000 -0.023617 0.000000
# 4 0.000000 0.000000 0.000000 0.068900 0.000000 0.015889
# 5 -0.004084 0.008015 -0.023617 0.000000 0.042907 0.000000
# 6 0.000000 0.000000 0.000000 0.015889 0.000000 0.045074
#
#
# Mechanical properties :
#
#
# Convention : Reuss Voigt Hill
#
# Bulk Modulus (GPa) = 24.28475 31.81564 28.05020
# Shear Modulus (GPa) = 16.79907 24.40373 20.60140
#
# Velocity S-wave (km/s) = 2.76483 3.33237 3.06178
# Velocity P-wave (km/s) = 4.60900 5.41144 5.02626
#
# Compressibility (1/GPa) = 0.04117810
#
# Stress axis : x y z
#
# Youngs Moduli (GPa) = 50.78607 58.60757 21.11928
#
# Poissons Ratio (x) = -0.10030 0.17517
# Poissons Ratio (y) = -0.08691 0.31424
# Poissons Ratio (z) = 0.42125 0.87204
#
# Static dielectric constant tensor:
#      x y z
#    x 1.820160 0.000000 0.007130 
#    y 0.000000 1.780080 0.000000 
#    z 0.007130 0.000000 1.819370 
# 
# From -- ./inp_files/22678.got.cif
#   From: 2010.05.17/outbox.cif.g08.bks.cpg/sg9_12_cif.got.tgz:22678.got - 2010.06.03 20:04:27.
