data_PCOD9136890
_publ_section_title
;
Structure prediction by ZEFSAII (Michael W. Deem and Ramdas Pophale) SiO2 
 PCOD9136890
Probable space group: C C
;
_chemical_formula_sum "Si O2"
_cell_formula_units_Z 28
_cell_length_a 9.921950
_cell_length_b 11.266793
_cell_length_c 11.362575
_cell_angle_alpha 90.000000
_cell_angle_beta 127.501726
_cell_angle_gamma 90.000000
_cell_volume 1007.698768
_symmetry_space_group_name_H-M "C C"
_symmetry_group_IT_number 9
_symmetry_cell_setting 'monoclinic'
loop_
_space_group_symop_operation_xyz
x,y,z
x,-y,1/2+z
1/2+x,1/2+y,z
1/2+x,1/2-y,1/2+z
loop_
_atom_site_type_symbol
_atom_site_label
_atom_site_fract_x
_atom_site_fract_y
_atom_site_fract_z
Si Si1 0.465620 0.025982 0.244600
Si Si2 0.927792 0.303017 0.918117
Si Si3 0.084015 0.883721 0.732161
Si Si4 0.818795 0.285650 0.132396
Si Si5 0.062616 0.902411 0.350574
Si Si6 0.979316 0.255583 0.581655
Si Si7 0.842068 0.978493 0.916077
O O1 0.497482 0.081183 0.390732
O O2 0.423621 0.122483 0.118360
O O3 0.650494 0.976330 0.313474
O O4 0.329176 0.921459 0.180889
O O5 0.737681 0.306669 0.759571
O O6 0.056533 0.200825 0.945587
O O7 0.874994 0.292297 0.025096
O O8 0.974556 0.796265 0.755613
O O9 0.957375 0.954028 0.575884
O O10 0.171072 0.988845 0.855197
O O11 0.642470 0.230589 0.083211
O O12 0.032687 0.822481 0.221488
O O13 0.913994 0.982387 0.328825
O O14 0.852094 0.163510 0.447517
#
# Coordination Sequence:
#
# PCOD9136890 Si02
#       7
#     4   4   4   4   4   4   4
#     4  11  26  47  71 110 143 186 248 304 361 444
#     4  11  25  47  71 104 145 191 239 303 371 431
#     4  11  24  42  74 102 141 187 243 289 364 435
#     4  12  25  46  72 106 145 192 241 297 369 442
#     4  10  21  45  68 100 140 185 237 295 360 425
#     4  10  25  45  69 108 141 189 246 300 366 436
#     4  11  22  46  71  98 141 188 234 302 365 431
#
# _framework density 27.786083000000001
#
# number of rings (size 3 to 8) (size 9 to 14) (size 15 to 20)
#    0.000    1.143    1.429    4.286    0.000    6.857 
#   18.000    0.000    0.000    0.000    0.000    0.000 
#    0.000    0.000    0.000    0.000    0.000    0.000 
#
# Total GULP energy -78096.955832 kJ/mol
# GULP energy per Si atom -5578.353988 kJ/mol
# Density = 2.772284 g / cm^3
# Si number density = 27.786083 Si / 1000 Ang^3
#
#
#
# Elastic Constant Matrix: (Units=GPa)
#
#
# Indices 1 2 3 4 5 6 
#
# 1 139.7210 24.9548 28.3038 0.0000 -26.8026 0.0000
# 2 24.9548 154.8653 28.9511 0.0000 -5.5536 0.0000
# 3 28.3038 28.9511 87.5675 0.0000 -20.8801 0.0000
# 4 0.0000 0.0000 0.0000 34.3034 0.0000 -6.9553
# 5 -26.8026 -5.5536 -20.8801 0.0000 50.9174 0.0000
# 6 0.0000 0.0000 0.0000 -6.9553 0.0000 39.6912
#
#
#
# Elastic Compliance Matrix: (Units=1/GPa)
#
#
# Indices 1 2 3 4 5 6 
#
# 1 0.008332 -0.000929 -0.001512 0.000000 0.003665 0.000000
# 2 -0.000929 0.006988 -0.002156 0.000000 -0.000611 0.000000
# 3 -0.001512 -0.002156 0.013717 0.000000 0.004594 0.000000
# 4 0.000000 0.000000 0.000000 0.030226 0.000000 0.005297
# 5 0.003665 -0.000611 0.004594 0.000000 0.023386 0.000000
# 6 0.000000 0.000000 0.000000 0.005297 0.000000 0.026123
#
#
# Mechanical properties :
#
#
# Convention : Reuss Voigt Hill
#
# Bulk Modulus (GPa) = 50.39429 60.73035 55.56232
# Shear Modulus (GPa) = 40.13520 44.97867 42.55693
#
# Velocity S-wave (km/s) = 3.80470 4.02773 3.91780
# Velocity P-wave (km/s) = 6.12183 6.59803 6.36439
#
# Compressibility (1/GPa) = 0.01984352
#
# Stress axis : x y z
#
# Youngs Moduli (GPa) = 120.01481 143.10332 72.90389
#
# Poissons Ratio (x) = 0.13287 0.11026
# Poissons Ratio (y) = 0.11143 0.15717
# Poissons Ratio (z) = 0.18151 0.30850
#
# Static dielectric constant tensor:
#      x y z
#    x 2.156030 0.000000 -0.025610 
#    y 0.000000 2.282650 0.000000 
#    z -0.025610 0.000000 2.336450 
# 
# From -- ./inp_files/16529.got.cif
#   From: 2010.05.17/outbox.cif.g08.bks.cpg/sg9_9_cif.got.tgz:16529.got - 2010.06.03 20:04:27.
