data_PCOD9136211
_publ_section_title
;
Structure prediction by ZEFSAII (Michael W. Deem and Ramdas Pophale) SiO2 
 PCOD9136211
Probable space group: C C
;
_chemical_formula_sum "Si O2"
_cell_formula_units_Z 28
_cell_length_a 11.901255
_cell_length_b 9.987785
_cell_length_c 9.555818
_cell_angle_alpha 90.000000
_cell_angle_beta 95.262854
_cell_angle_gamma 90.000000
_cell_volume 1131.084686
_symmetry_space_group_name_H-M "C C"
_symmetry_group_IT_number 9
_symmetry_cell_setting 'monoclinic'
loop_
_space_group_symop_operation_xyz
x,y,z
x,-y,1/2+z
1/2+x,1/2+y,z
1/2+x,1/2-y,1/2+z
loop_
_atom_site_type_symbol
_atom_site_label
_atom_site_fract_x
_atom_site_fract_y
_atom_site_fract_z
Si Si1 0.294800 0.279184 0.804010
Si Si2 0.883533 0.558737 0.003106
Si Si3 0.675089 0.226545 0.893133
Si Si4 0.672398 0.449606 0.113844
Si Si5 0.423767 0.786378 0.856271
Si Si6 0.091216 0.613626 0.171335
Si Si7 0.511197 0.319814 0.651513
O O1 0.194498 0.391642 0.794261
O O2 0.388317 0.326004 0.705595
O O3 0.223518 0.156561 0.728328
O O4 0.367625 0.206425 0.933754
O O5 0.773627 0.548005 0.085754
O O6 0.990243 0.518123 0.111141
O O7 0.892900 0.441954 0.888149
O O8 0.802042 0.215785 0.850817
O O9 0.589286 0.223806 0.755460
O O10 0.653559 0.370312 0.966745
O O11 0.647793 0.136672 0.025415
O O12 0.569217 0.535540 0.154011
O O13 0.503135 0.777930 0.729719
O O14 0.496875 0.729764 0.992413
#
# Coordination Sequence:
#
# PCOD9136211 Si02
#       7
#     4   4   4   4   4   4   4
#     4  11  22  40  64  98 129 176 224 275 337 408
#     4  11  20  40  66  92 130 176 226 279 340 407
#     4  10  22  42  64  98 133 173 230 287 332 412
#     4  10  21  39  68  96 130 174 231 272 342 407
#     4  11  24  40  69  99 127 181 230 277 349 409
#     4  11  22  38  66  95 134 174 222 288 344 401
#     4  12  21  41  71  98 135 176 225 288 334 406
#
# _framework density 24.754999000000002
#
# number of rings (size 3 to 8) (size 9 to 14) (size 15 to 20)
#    0.000    1.143    5.714    4.286    0.000    1.143 
#    0.000    1.429   15.714    0.000    0.000    0.000 
#    0.000    0.000    0.000    0.000    0.000    0.000 
#
# Total GULP energy -78029.979299 kJ/mol
# GULP energy per Si atom -5573.569950 kJ/mol
# Density = 2.469866 g / cm^3
# Si number density = 24.754999 Si / 1000 Ang^3
#
#
#
# Elastic Constant Matrix: (Units=GPa)
#
#
# Indices 1 2 3 4 5 6 
#
# 1 118.9106 19.3736 43.3800 0.0000 3.9610 0.0000
# 2 19.3736 29.6053 13.4892 0.0000 3.7873 0.0000
# 3 43.3800 13.4892 93.2653 0.0000 15.2804 0.0000
# 4 0.0000 0.0000 0.0000 19.8897 0.0000 13.6699
# 5 3.9610 3.7873 15.2804 0.0000 50.5890 0.0000
# 6 0.0000 0.0000 0.0000 13.6699 0.0000 36.7162
#
#
#
# Elastic Compliance Matrix: (Units=1/GPa)
#
#
# Indices 1 2 3 4 5 6 
#
# 1 0.010844 -0.005187 -0.004438 0.000000 0.000880 0.000000
# 2 -0.005187 0.038710 -0.002922 0.000000 -0.001609 0.000000
# 3 -0.004438 -0.002922 0.013799 0.000000 -0.003602 0.000000
# 4 0.000000 0.000000 0.000000 0.067566 0.000000 -0.025156
# 5 0.000880 -0.001609 -0.003602 0.000000 0.020907 0.000000
# 6 0.000000 0.000000 0.000000 -0.025156 0.000000 0.036602
#
#
# Mechanical properties :
#
#
# Convention : Reuss Voigt Hill
#
# Bulk Modulus (GPa) = 26.13812 43.80741 34.97277
# Shear Modulus (GPa) = 22.09696 32.47488 27.28592
#
# Velocity S-wave (km/s) = 2.99093 3.62588 3.32360
# Velocity P-wave (km/s) = 4.74438 5.93836 5.37463
#
# Compressibility (1/GPa) = 0.03825830
#
# Stress axis : x y z
#
# Youngs Moduli (GPa) = 92.21271 25.83345 72.46865
#
# Poissons Ratio (x) = 0.13400 0.32161
# Poissons Ratio (y) = 0.47831 0.21178
# Poissons Ratio (z) = 0.40924 0.07550
#
# Static dielectric constant tensor:
#      x y z
#    x 1.981780 0.000000 0.058830 
#    y 0.000000 2.167140 0.000000 
#    z 0.058830 0.000000 1.986840 
# 
# From -- ./inp_files/16001.got.cif
#   From: 2010.05.17/outbox.cif.g08.bks.cpg/sg9_9_cif.got.tgz:16001.got - 2010.06.03 20:04:27.
