data_PCOD9136090
_publ_section_title
;
Structure prediction by ZEFSAII (Michael W. Deem and Ramdas Pophale) SiO2 
 PCOD9136090
Probable space group: C C
;
_chemical_formula_sum "Si O2"
_cell_formula_units_Z 32
_cell_length_a 14.623938
_cell_length_b 11.935164
_cell_length_c 8.712771
_cell_angle_alpha 90.000000
_cell_angle_beta 74.649440
_cell_angle_gamma 90.000000
_cell_volume 1466.466307
_symmetry_space_group_name_H-M "C C"
_symmetry_group_IT_number 9
_symmetry_cell_setting 'monoclinic'
loop_
_space_group_symop_operation_xyz
x,y,z
x,-y,1/2+z
1/2+x,1/2+y,z
1/2+x,1/2-y,1/2+z
loop_
_atom_site_type_symbol
_atom_site_label
_atom_site_fract_x
_atom_site_fract_y
_atom_site_fract_z
Si Si1 0.808910 0.278273 0.251050
Si Si2 0.644208 0.110303 0.217210
Si Si3 0.954669 0.709862 0.406276
Si Si4 0.883304 0.926611 0.856523
Si Si5 0.002318 0.056128 0.002877
Si Si6 0.714302 0.907671 0.373012
Si Si7 0.217060 0.958122 0.503783
Si Si8 0.280286 0.841365 0.791249
O O1 0.725153 0.203614 0.213579
O O2 0.842634 0.197907 0.376559
O O3 0.768733 0.388694 0.346377
O O4 0.891222 0.301994 0.089517
O O5 0.550581 0.139983 0.352799
O O6 0.680332 0.990069 0.256503
O O7 0.635107 0.105811 0.038890
O O8 0.889571 0.675493 0.291611
O O9 0.987988 0.839481 0.394293
O O10 0.923178 0.935850 0.667796
O O11 0.804111 0.024141 0.908143
O O12 0.972839 0.945524 0.925363
O O13 0.104913 0.059152 0.032236
O O14 0.741259 0.785016 0.303624
O O15 0.254124 0.908900 0.648440
O O16 0.237470 0.087293 0.453505
#
# Coordination Sequence:
#
# PCOD9136090 Si02
#       8
#     4   4   4   4   4   4   4   4
#     4  10  22  43  73 103 148 188 233 311 367 422
#     4  11  24  43  75 106 143 181 244 304 364 434
#     4  11  23  46  72 102 142 198 239 296 364 447
#     4  10  21  38  71 106 139 179 243 297 357 420
#     4  11  22  42  69 106 138 189 246 296 349 435
#     4  11  24  44  72 108 143 186 237 307 373 424
#     4  12  27  45  70 100 150 198 239 305 368 431
#     4  12  27  47  68 103 147 197 245 292 378 435
#
# _framework density 21.821164
#
# number of rings (size 3 to 8) (size 9 to 14) (size 15 to 20)
#    0.000    1.000    3.750    3.000    5.250    3.000 
#    0.000    5.000    0.000    0.000    0.000    0.000 
#    0.000    0.000    0.000    0.000    0.000    0.000 
#
# Total GULP energy -89386.524889 kJ/mol
# GULP energy per Si atom -5586.657806 kJ/mol
# Density = 2.177150 g / cm^3
# Si number density = 21.821164 Si / 1000 Ang^3
#
#
#
# Elastic Constant Matrix: (Units=GPa)
#
#
# Indices 1 2 3 4 5 6 
#
# 1 74.2287 43.4063 24.1146 0.0000 -18.1929 0.0000
# 2 43.4063 114.7047 35.4508 0.0000 -14.0935 0.0000
# 3 24.1146 35.4508 82.4484 0.0000 -13.1672 0.0000
# 4 0.0000 0.0000 0.0000 21.1054 0.0000 4.5240
# 5 -18.1929 -14.0935 -13.1672 0.0000 28.2526 0.0000
# 6 0.0000 0.0000 0.0000 4.5240 0.0000 27.1327
#
#
#
# Elastic Compliance Matrix: (Units=1/GPa)
#
#
# Indices 1 2 3 4 5 6 
#
# 1 0.019621 -0.005763 -0.001839 0.000000 0.008903 0.000000
# 2 -0.005763 0.012029 -0.003372 0.000000 0.000718 0.000000
# 3 -0.001839 -0.003372 0.014757 0.000000 0.004011 0.000000
# 4 0.000000 0.000000 0.000000 0.049137 0.000000 -0.008193
# 5 0.008903 0.000718 0.004011 0.000000 0.043356 0.000000
# 6 0.000000 0.000000 0.000000 -0.008193 0.000000 0.038222
#
#
# Mechanical properties :
#
#
# Convention : Reuss Voigt Hill
#
# Bulk Modulus (GPa) = 40.88353 53.03614 46.95984
# Shear Modulus (GPa) = 24.12848 26.52547 25.32697
#
# Velocity S-wave (km/s) = 3.32887 3.49031 3.41054
# Velocity P-wave (km/s) = 5.79237 6.37186 6.08902
#
# Compressibility (1/GPa) = 0.02445973
#
# Stress axis : x y z
#
# Youngs Moduli (GPa) = 50.96513 83.13115 67.76336
#
# Poissons Ratio (x) = 0.47906 0.12463
# Poissons Ratio (y) = 0.29370 0.22850
# Poissons Ratio (z) = 0.09373 0.28032
#
# Static dielectric constant tensor:
#      x y z
#    x 1.859350 0.000000 0.026070 
#    y 0.000000 1.826540 0.000000 
#    z 0.026070 0.000000 1.809220 
# 
# From -- ./inp_files/9258.got.cif
#   From: 2010.05.17/outbox.cif.g08.bks.cpg/sg9_5_cif.got.tgz:9258.got - 2010.06.03 20:04:27.
