data_PCOD9136739
_publ_section_title
;
Structure prediction by ZEFSAII (Michael W. Deem and Ramdas Pophale) SiO2 
 PCOD9136739
Probable space group: C C
;
_chemical_formula_sum "Si O2"
_cell_formula_units_Z 32
_cell_length_a 9.174916
_cell_length_b 12.465093
_cell_length_c 15.066377
_cell_angle_alpha 90.000000
_cell_angle_beta 47.611873
_cell_angle_gamma 90.000000
_cell_volume 1272.661325
_symmetry_space_group_name_H-M "C C"
_symmetry_group_IT_number 9
_symmetry_cell_setting 'monoclinic'
loop_
_space_group_symop_operation_xyz
x,y,z
x,-y,1/2+z
1/2+x,1/2+y,z
1/2+x,1/2-y,1/2+z
loop_
_atom_site_type_symbol
_atom_site_label
_atom_site_fract_x
_atom_site_fract_y
_atom_site_fract_z
Si Si1 0.665970 0.093554 0.512860
Si Si2 0.453833 0.440181 0.747214
Si Si3 0.513930 0.045865 0.346963
Si Si4 0.076985 0.674890 0.897183
Si Si5 0.115335 0.384302 0.617095
Si Si6 0.711650 0.241885 0.647758
Si Si7 0.989133 0.756967 0.443254
Si Si8 0.023968 0.831355 0.246881
O O1 0.876986 0.074114 0.380074
O O2 0.670589 0.134256 0.610738
O O3 0.582976 0.194892 0.489222
O O4 0.571864 0.973605 0.558570
O O5 0.247513 0.445260 0.778535
O O6 0.578425 0.339177 0.668050
O O7 0.574744 0.550217 0.693676
O O8 0.510969 0.061189 0.244251
O O9 0.401418 0.148173 0.433589
O O10 0.465292 0.931292 0.407228
O O11 0.146539 0.729606 0.776254
O O12 0.287897 0.660412 0.858120
O O13 0.933082 0.732172 0.024997
O O14 0.351052 0.357576 0.525183
O O15 0.054034 0.260401 0.661654
O O16 0.115004 0.799606 0.305661
#
# Coordination Sequence:
#
# PCOD9136739 Si02
#       8
#     4   4   4   4   4   4   4   4
#     4  11  22  42  71 104 147 185 240 317 365 432
#     4  10  21  43  68  97 138 189 239 303 370 437
#     4   9  21  41  62  96 140 183 233 309 359 431
#     4  11  25  42  70  97 146 185 238 300 369 438
#     4  11  21  41  68 100 142 185 239 309 366 430
#     4  12  24  43  71 105 139 193 239 300 379 438
#     4  10  22  39  69  97 136 187 243 291 375 437
#     4  10  24  43  65 104 136 189 245 301 369 445
#
# _framework density 25.144161
#
# number of rings (size 3 to 8) (size 9 to 14) (size 15 to 20)
#    0.000    1.500    3.750    0.750    3.500    0.000 
#    0.000    0.000    8.250    0.000    0.000    0.000 
#    0.000    0.000    0.000    0.000    0.000    0.000 
#
# Total GULP energy -89096.075181 kJ/mol
# GULP energy per Si atom -5568.504699 kJ/mol
# Density = 2.508693 g / cm^3
# Si number density = 25.144161 Si / 1000 Ang^3
#
#
#
# Elastic Constant Matrix: (Units=GPa)
#
#
# Indices 1 2 3 4 5 6 
#
# 1 17.1430 2.7593 14.6558 0.0000 11.6886 0.0000
# 2 2.7593 98.7945 17.4095 0.0000 4.6511 0.0000
# 3 14.6558 17.4095 106.4084 0.0000 15.5636 0.0000
# 4 0.0000 0.0000 0.0000 52.3945 0.0000 6.0543
# 5 11.6886 4.6511 15.5636 0.0000 26.3855 0.0000
# 6 0.0000 0.0000 0.0000 6.0543 0.0000 28.6876
#
#
#
# Elastic Compliance Matrix: (Units=1/GPa)
#
#
# Indices 1 2 3 4 5 6 
#
# 1 0.088159 0.000434 -0.007103 0.000000 -0.034941 0.000000
# 2 0.000434 0.010445 -0.001610 0.000000 -0.001084 0.000000
# 3 -0.007103 -0.001610 0.011095 0.000000 -0.003114 0.000000
# 4 0.000000 0.000000 0.000000 0.019563 0.000000 -0.004129
# 5 -0.034941 -0.001084 -0.003114 0.000000 0.055406 0.000000
# 6 0.000000 0.000000 0.000000 -0.004129 0.000000 0.035730
#
#
# Mechanical properties :
#
#
# Convention : Reuss Voigt Hill
#
# Bulk Modulus (GPa) = 10.73635 32.44391 21.59013
# Shear Modulus (GPa) = 18.65657 33.99493 26.32575
#
# Velocity S-wave (km/s) = 2.72689 3.68095 3.23924
# Velocity P-wave (km/s) = 3.76746 5.56749 4.75346
#
# Compressibility (1/GPa) = 0.09314154
#
# Stress axis : x y z
#
# Youngs Moduli (GPa) = 11.34311 95.74275 90.13115
#
# Poissons Ratio (x) = -0.04159 0.64019
# Poissons Ratio (y) = -0.00493 0.14513
# Poissons Ratio (z) = 0.08057 0.15416
#
# Static dielectric constant tensor:
#      x y z
#    x 2.136020 0.000000 0.009270 
#    y 0.000000 2.027010 0.000000 
#    z 0.009270 0.000000 2.036000 
# 
# From -- ./inp_files/16206.got.cif
#   From: 2010.05.17/outbox.cif.g08.bks.cpg/sg9_9_cif.got.tgz:16206.got - 2010.06.03 20:04:27.
