data_PCOD9136975
_publ_section_title
;
Structure prediction by ZEFSAII (Michael W. Deem and Ramdas Pophale) SiO2 
 PCOD9136975
Probable space group: C C
;
_chemical_formula_sum "Si O2"
_cell_formula_units_Z 28
_cell_length_a 19.149280
_cell_length_b 8.821449
_cell_length_c 12.711400
_cell_angle_alpha 90.000000
_cell_angle_beta 27.800341
_cell_angle_gamma 90.000000
_cell_volume 1001.467284
_symmetry_space_group_name_H-M "C C"
_symmetry_group_IT_number 9
_symmetry_cell_setting 'monoclinic'
loop_
_space_group_symop_operation_xyz
x,y,z
x,-y,1/2+z
1/2+x,1/2+y,z
1/2+x,1/2-y,1/2+z
loop_
_atom_site_type_symbol
_atom_site_label
_atom_site_fract_x
_atom_site_fract_y
_atom_site_fract_z
Si Si1 0.318850 0.504683 0.170990
Si Si2 0.606852 0.307630 0.725530
Si Si3 0.247837 0.923191 0.316016
Si Si4 0.650411 0.259434 0.991632
Si Si5 0.823059 0.763163 0.471962
Si Si6 0.408290 0.090696 0.890540
Si Si7 0.978427 0.765087 0.585291
O O1 0.187754 0.391165 0.377469
O O2 0.355896 0.604496 0.225667
O O3 0.470169 0.412629 0.943984
O O4 0.294187 0.616374 0.104540
O O5 0.671839 0.373874 0.528564
O O6 0.749778 0.319651 0.609749
O O7 0.534068 0.143890 0.804503
O O8 0.413739 0.854226 0.087705
O O9 0.133656 0.854832 0.382229
O O10 0.366902 0.914727 0.935113
O O11 0.480180 0.314279 0.209214
O O12 0.693656 0.235495 0.056647
O O13 0.752069 0.398091 0.817653
O O14 0.471046 0.165628 0.699552
#
# Coordination Sequence:
#
# PCOD9136975 Si02
#       7
#     4   4   4   4   4   4   4
#     4  12  28  43  80 118 155 214 271 329 414 491
#     4  10  22  45  70 110 145 202 253 323 394 477
#     4  10  21  48  73 105 156 201 256 329 397 463
#     4  12  27  49  79 112 165 214 261 343 410 485
#     4  12  26  53  74 118 163 209 270 343 409 488
#     4  10  23  46  77 100 158 206 254 333 404 471
#     4  10  23  42  75 109 148 206 267 324 394 483
#
# _framework density 27.958974999999999
#
# number of rings (size 3 to 8) (size 9 to 14) (size 15 to 20)
#    0.000    1.143    4.286    0.857    8.000    5.714 
#    0.000    0.000    0.000    0.000    0.000    0.000 
#    0.000    0.000    0.000    0.000    0.000    0.000 
#
# Total GULP energy -78395.117217 kJ/mol
# GULP energy per Si atom -5599.651230 kJ/mol
# Density = 2.789534 g / cm^3
# Si number density = 27.958975 Si / 1000 Ang^3
#
#
#
# Elastic Constant Matrix: (Units=GPa)
#
#
# Indices 1 2 3 4 5 6 
#
# 1 115.2342 44.9722 32.6796 0.0000 0.7247 0.0000
# 2 44.9722 164.8351 48.5530 0.0000 20.6274 0.0000
# 3 32.6796 48.5530 93.8199 0.0000 9.8239 0.0000
# 4 0.0000 0.0000 0.0000 55.3860 0.0000 -6.2255
# 5 0.7247 20.6274 9.8239 0.0000 33.9959 0.0000
# 6 0.0000 0.0000 0.0000 -6.2255 0.0000 43.6008
#
#
#
# Elastic Compliance Matrix: (Units=1/GPa)
#
#
# Indices 1 2 3 4 5 6 
#
# 1 0.010295 -0.002281 -0.002606 0.000000 0.001918 0.000000
# 2 -0.002281 0.008059 -0.002959 0.000000 -0.003987 0.000000
# 3 -0.002606 -0.002959 0.013307 0.000000 -0.001994 0.000000
# 4 0.000000 0.000000 0.000000 0.018350 0.000000 0.002620
# 5 0.001918 -0.003987 -0.001994 0.000000 0.032370 0.000000
# 6 0.000000 0.000000 0.000000 0.002620 0.000000 0.023309
#
#
# Mechanical properties :
#
#
# Convention : Reuss Voigt Hill
#
# Bulk Modulus (GPa) = 62.62275 69.58875 66.10575
# Shear Modulus (GPa) = 39.46149 43.10884 41.28516
#
# Velocity S-wave (km/s) = 3.76095 3.93091 3.84687
# Velocity P-wave (km/s) = 6.42700 6.74881 6.58987
#
# Compressibility (1/GPa) = 0.01596864
#
# Stress axis : x y z
#
# Youngs Moduli (GPa) = 97.13143 124.07784 75.15037
#
# Poissons Ratio (x) = 0.28304 0.19587
# Poissons Ratio (y) = 0.22157 0.22236
# Poissons Ratio (z) = 0.25316 0.36713
#
# Static dielectric constant tensor:
#      x y z
#    x 2.194190 0.000000 0.093880 
#    y 0.000000 2.171730 0.000000 
#    z 0.093880 0.000000 2.272610 
# 
# From -- ./inp_files/16308.got.cif
#   From: 2010.05.17/outbox.cif.g08.bks.cpg/sg9_9_cif.got.tgz:16308.got - 2010.06.03 20:04:27.
