data_PCOD9136551
_publ_section_title
;
Structure prediction by ZEFSAII (Michael W. Deem and Ramdas Pophale) SiO2 
 PCOD9136551
Probable space group: C C
;
_chemical_formula_sum "Si O2"
_cell_formula_units_Z 32
_cell_length_a 8.091190
_cell_length_b 8.648958
_cell_length_c 16.523104
_cell_angle_alpha 90.000000
_cell_angle_beta 89.999989
_cell_angle_gamma 90.000000
_cell_volume 1156.292807
_symmetry_space_group_name_H-M "C C"
_symmetry_group_IT_number 9
_symmetry_cell_setting 'monoclinic'
loop_
_space_group_symop_operation_xyz
x,y,z
x,-y,1/2+z
1/2+x,1/2+y,z
1/2+x,1/2-y,1/2+z
loop_
_atom_site_type_symbol
_atom_site_label
_atom_site_fract_x
_atom_site_fract_y
_atom_site_fract_z
Si Si1 0.136390 0.069114 0.400290
Si Si2 0.335472 0.130380 0.551138
Si Si3 0.492040 0.191067 0.102968
Si Si4 0.309776 0.637704 0.462333
Si Si5 0.636390 0.930886 0.367894
Si Si6 0.809776 0.362298 0.305850
Si Si7 0.335471 0.630381 0.717045
Si Si8 0.992039 0.191067 0.165215
O O1 0.282038 0.060563 0.465592
O O2 0.123057 0.250000 0.384093
O O3 0.966348 0.028420 0.442715
O O4 0.159225 0.979318 0.316404
O O5 0.469630 0.260799 0.571518
O O6 0.166751 0.228753 0.576496
O O7 0.423656 0.984650 0.596996
O O8 0.469630 0.239201 0.196665
O O9 0.360258 0.276765 0.043125
O O10 0.159224 0.520685 0.451779
O O11 0.283406 0.750000 0.384091
O O12 0.466349 0.971580 0.325468
O O13 0.782039 0.939435 0.302591
O O14 0.860258 0.276766 0.225058
O O15 0.423655 0.484650 0.671187
O O16 0.166750 0.728754 0.691687
#
# Coordination Sequence:
#
# PCOD9136551 Si02
#       8
#     4   4   4   4   4   4   4   4
#     4  10  23  40  64  92 127 169 220 278 345 409
#     4  11  24  43  65  98 133 179 227 286 349 424
#     4  11  24  42  67  94 136 177 228 283 355 418
#     4  10  21  42  62  90 128 166 217 280 335 413
#     4  10  23  40  64  92 127 169 220 278 345 409
#     4  10  21  42  62  90 128 166 217 280 335 413
#     4  11  24  43  65  98 133 179 227 286 349 424
#     4  11  24  42  67  94 136 177 228 283 355 418
#
# _framework density 27.674651000000001
#
# number of rings (size 3 to 8) (size 9 to 14) (size 15 to 20)
#    0.000    1.500    2.500    1.500    3.500    3.000 
#    0.000    0.000    0.000    0.000    0.000    0.000 
#    0.000    0.000    0.000    0.000    0.000    0.000 
#
# Total GULP energy -89135.746457 kJ/mol
# GULP energy per Si atom -5570.984154 kJ/mol
# Density = 2.761166 g / cm^3
# Si number density = 27.674651 Si / 1000 Ang^3
#
#
#
# Elastic Constant Matrix: (Units=GPa)
#
#
# Indices 1 2 3 4 5 6 
#
# 1 115.8194 34.8011 9.6810 0.0000 0.0000 0.0000
# 2 34.8011 149.2713 38.0490 0.0000 0.0002 0.0000
# 3 9.6810 38.0490 77.1116 0.0000 -0.0004 0.0000
# 4 0.0000 0.0000 0.0000 66.7907 0.0000 -0.0002
# 5 0.0000 0.0002 -0.0004 0.0000 29.7441 0.0000
# 6 0.0000 0.0000 0.0000 -0.0002 0.0000 29.8602
#
#
#
# Elastic Compliance Matrix: (Units=1/GPa)
#
#
# Indices 1 2 3 4 5 6 
#
# 1 0.009285 -0.002136 -0.000112 0.000000 0.000000 0.000000
# 2 -0.002136 0.008155 -0.003755 0.000000 0.000000 0.000000
# 3 -0.000112 -0.003755 0.014835 0.000000 0.000000 0.000000
# 4 0.000000 0.000000 0.000000 0.014972 0.000000 0.000000
# 5 0.000000 0.000000 0.000000 0.000000 0.033620 0.000000
# 6 0.000000 0.000000 0.000000 0.000000 0.000000 0.033489
#
#
# Mechanical properties :
#
#
# Convention : Reuss Voigt Hill
#
# Bulk Modulus (GPa) = 49.33798 56.36274 52.85036
# Shear Modulus (GPa) = 37.56014 42.59041 40.07528
#
# Velocity S-wave (km/s) = 3.68802 3.92722 3.80950
# Velocity P-wave (km/s) = 6.00016 6.40114 6.20389
#
# Compressibility (1/GPa) = 0.02026836
#
# Stress axis : x y z
#
# Youngs Moduli (GPa) = 107.69611 122.63102 67.40687
#
# Poissons Ratio (x) = 0.26198 0.00752
# Poissons Ratio (y) = 0.23008 0.25314
# Poissons Ratio (z) = 0.01202 0.46054
#
# Static dielectric constant tensor:
#      x y z
#    x 2.255670 0.000000 0.000000 
#    y 0.000000 2.225450 0.000000 
#    z 0.000000 0.000000 2.140750 
# 
# From -- ./inp_files/32314.got.cif
#   From: 2010.05.17/outbox.cif.g08.bks.cpg/sg9_17_cif.got.tgz:32314.got - 2010.06.03 20:04:27.
