data_PCOD9136045
_publ_section_title
;
Structure prediction by ZEFSAII (Michael W. Deem and Ramdas Pophale) SiO2 
 PCOD9136045
Probable space group: C C
;
_chemical_formula_sum "Si O2"
_cell_formula_units_Z 28
_cell_length_a 6.876858
_cell_length_b 7.746851
_cell_length_c 27.846374
_cell_angle_alpha 90.000000
_cell_angle_beta 48.198597
_cell_angle_gamma 90.000000
_cell_volume 1105.880166
_symmetry_space_group_name_H-M "C C"
_symmetry_group_IT_number 9
_symmetry_cell_setting 'monoclinic'
loop_
_space_group_symop_operation_xyz
x,y,z
x,-y,1/2+z
1/2+x,1/2+y,z
1/2+x,1/2-y,1/2+z
loop_
_atom_site_type_symbol
_atom_site_label
_atom_site_fract_x
_atom_site_fract_y
_atom_site_fract_z
Si Si1 0.037790 0.710417 0.797450
Si Si2 0.277088 0.119396 0.339532
Si Si3 0.125759 0.345440 0.068478
Si Si4 0.207316 0.505117 0.956806
Si Si5 0.456415 0.166203 0.418629
Si Si6 0.391419 0.125937 0.165186
Si Si7 0.415127 0.517040 0.604826
O O1 0.237588 0.722878 0.809517
O O2 0.142106 0.834576 0.738708
O O3 0.993538 0.516373 0.786934
O O4 0.749674 0.764148 0.861987
O O5 0.342132 0.144179 0.384516
O O6 0.987586 0.039334 0.387787
O O7 0.389930 0.962438 0.129281
O O8 0.370405 0.432351 0.055922
O O9 0.105322 0.142951 0.083184
O O10 0.137248 0.372120 0.009937
O O11 0.272136 0.686195 0.970904
O O12 0.998818 0.491450 0.948185
O O13 0.450541 0.305224 0.127575
O O14 0.630920 0.070781 0.159926
#
# Coordination Sequence:
#
# PCOD9136045 Si02
#       7
#     4   4   4   4   4   4   4
#     4  10  21  41  61  93 136 167 231 280 340 411
#     4  10  21  38  64  97 126 176 222 284 344 402
#     4  10  24  43  66  98 139 183 227 285 342 413
#     4  10  21  41  61  96 133 171 227 282 336 415
#     4  10  21  38  67  94 128 174 225 278 349 402
#     4  10  24  43  65  99 135 187 225 286 341 418
#     4  10  24  42  68  93 139 178 231 275 348 405
#
# _framework density 25.319196999999999
#
# number of rings (size 3 to 8) (size 9 to 14) (size 15 to 20)
#    0.857    1.143    0.000    2.571    2.000    2.286 
#    2.571    0.000    0.000    0.000    0.000    0.000 
#    0.000    0.000    0.000    0.000    0.000    0.000 
#
# Total GULP energy -78132.332579 kJ/mol
# GULP energy per Si atom -5580.880898 kJ/mol
# Density = 2.526157 g / cm^3
# Si number density = 25.319197 Si / 1000 Ang^3
#
#
#
# Elastic Constant Matrix: (Units=GPa)
#
#
# Indices 1 2 3 4 5 6 
#
# 1 144.2073 60.3133 20.3038 0.0000 16.3013 0.0000
# 2 60.3133 122.7460 43.0621 0.0000 7.8119 0.0000
# 3 20.3038 43.0621 52.4920 0.0000 18.4160 0.0000
# 4 0.0000 0.0000 0.0000 8.8752 0.0000 15.3676
# 5 16.3013 7.8119 18.4160 0.0000 20.4108 0.0000
# 6 0.0000 0.0000 0.0000 15.3676 0.0000 36.1882
#
#
#
# Elastic Compliance Matrix: (Units=1/GPa)
#
#
# Indices 1 2 3 4 5 6 
#
# 1 0.009782 -0.005670 0.004166 0.000000 -0.009401 0.000000
# 2 -0.005670 0.015247 -0.014421 0.000000 0.011704 0.000000
# 3 0.004166 -0.014421 0.041701 -0.000001 -0.035433 0.000000
# 4 0.000000 0.000000 -0.000001 0.425675 0.000001 -0.180767
# 5 -0.009401 0.011704 -0.035433 0.000001 0.083992 0.000000
# 6 0.000000 0.000000 0.000000 -0.180767 0.000000 0.104398
#
#
# Mechanical properties :
#
#
# Convention : Reuss Voigt Hill
#
# Bulk Modulus (GPa) = 28.67027 62.97817 45.82422
# Shear Modulus (GPa) = 6.90348 26.14592 16.52470
#
# Velocity S-wave (km/s) = 1.65303 3.21698 2.55748
# Velocity P-wave (km/s) = 3.87188 6.22304 5.18255
#
# Compressibility (1/GPa) = 0.03487933
#
# Stress axis : x y z
#
# Youngs Moduli (GPa) = 102.22953 65.58563 23.98021
#
# Poissons Ratio (x) = 0.37184 -0.09989
# Poissons Ratio (y) = 0.57960 0.34583
# Poissons Ratio (z) = -0.42585 0.94584
#
# Static dielectric constant tensor:
#      x y z
#    x 2.012000 0.000000 -0.011100 
#    y 0.000000 2.078150 0.000000 
#    z -0.011100 0.000000 1.989300 
# 
# From -- ./inp_files/34726.got.cif
#   From: 2010.05.17/outbox.cif.g08.bks.cpg/sg9_18_cif.got.tgz:34726.got - 2010.06.03 20:04:27.
