data_PCOD9136401
_publ_section_title
;
Structure prediction by ZEFSAII (Michael W. Deem and Ramdas Pophale) SiO2 
 PCOD9136401
Probable space group: C C
;
_chemical_formula_sum "Si O2"
_cell_formula_units_Z 24
_cell_length_a 25.109536
_cell_length_b 7.107790
_cell_length_c 20.846789
_cell_angle_alpha 90.000000
_cell_angle_beta 13.726754
_cell_angle_gamma 90.000000
_cell_volume 882.866710
_symmetry_space_group_name_H-M "C C"
_symmetry_group_IT_number 9
_symmetry_cell_setting 'monoclinic'
loop_
_space_group_symop_operation_xyz
x,y,z
x,-y,1/2+z
1/2+x,1/2+y,z
1/2+x,1/2-y,1/2+z
loop_
_atom_site_type_symbol
_atom_site_label
_atom_site_fract_x
_atom_site_fract_y
_atom_site_fract_z
Si Si1 0.733050 0.926119 0.303190
Si Si2 0.625775 0.565063 0.625398
Si Si3 0.132180 0.554309 0.054076
Si Si4 0.226216 0.907039 0.241694
Si Si5 0.202126 0.495784 0.204563
Si Si6 0.266648 0.852668 0.347606
O O1 0.697928 0.858256 0.271416
O O2 0.752255 0.145239 0.397459
O O3 0.708301 0.825255 0.400711
O O4 0.984174 0.008291 0.008399
O O5 0.868700 0.502813 0.366489
O O6 0.654336 0.791515 0.584631
O O7 0.600669 0.475463 0.584629
O O8 0.422472 0.485407 0.904364
O O9 0.015557 0.438293 0.066324
O O10 0.225141 0.705902 0.207860
O O11 0.236888 0.884114 0.306511
O O12 0.462939 0.007038 0.948990
#
# Coordination Sequence:
#
# PCOD9136401 Si02
#       6
#     4   4   4   4   4   4
#     4  10  21  40  73  99 129 184 234 272 339 411
#     4  11  27  43  69 106 142 173 230 289 348 403
#     4  11  24  43  69 103 135 182 227 281 343 411
#     4  11  20  37  73  97 128 188 230 266 342 415
#     4  11  20  39  66  97 139 179 221 282 341 405
#     4  10  24  46  72 100 135 184 232 282 337 411
#
# _framework density 27.184170000000002
#
# number of rings (size 3 to 8) (size 9 to 14) (size 15 to 20)
#    0.000    1.333    3.333    2.000    4.667    0.000 
#    0.000    0.000   14.667    0.000    0.000    0.000 
#    0.000    0.000    0.000    0.000    0.000    0.000 
#
# Total GULP energy -67010.013348 kJ/mol
# GULP energy per Si atom -5584.167779 kJ/mol
# Density = 2.712230 g / cm^3
# Si number density = 27.184170 Si / 1000 Ang^3
#
#
#
# Elastic Constant Matrix: (Units=GPa)
#
#
# Indices 1 2 3 4 5 6 
#
# 1 51.4976 14.7532 25.6968 0.0047 -20.9801 -0.0040
# 2 14.7532 104.9916 36.2606 0.0075 -2.4515 -0.0105
# 3 25.6968 36.2606 239.3627 0.0025 -3.4709 -0.0053
# 4 0.0047 0.0075 0.0025 24.4758 -0.0009 7.5099
# 5 -20.9801 -2.4515 -3.4709 -0.0009 56.1971 0.0041
# 6 -0.0040 -0.0105 -0.0053 7.5099 0.0041 23.0420
#
#
#
# Elastic Compliance Matrix: (Units=1/GPa)
#
#
# Indices 1 2 3 4 5 6 
#
# 1 0.024914 -0.002544 -0.002158 -0.000004 0.009057 0.000002
# 2 -0.002544 0.010317 -0.001298 -0.000004 -0.000580 0.000005
# 3 -0.002158 -0.001298 0.004598 0.000000 -0.000578 0.000000
# 4 -0.000004 -0.000004 0.000000 0.045397 0.000000 -0.014796
# 5 0.009057 -0.000580 -0.000578 0.000000 0.021115 -0.000003
# 6 0.000002 0.000005 0.000000 -0.014796 -0.000003 0.048221
#
#
# Mechanical properties :
#
#
# Convention : Reuss Voigt Hill
#
# Bulk Modulus (GPa) = 35.93505 61.03034 48.48270
# Shear Modulus (GPa) = 28.43541 42.01906 35.22723
#
# Velocity S-wave (km/s) = 3.23774 3.93583 3.60373
# Velocity P-wave (km/s) = 5.21777 6.56915 5.93207
#
# Compressibility (1/GPa) = 0.02782798
#
# Stress axis : x y z
#
# Youngs Moduli (GPa) = 40.13852 96.92859 217.50047
#
# Poissons Ratio (x) = 0.24660 0.46934
# Poissons Ratio (y) = 0.10212 0.28235
# Poissons Ratio (z) = 0.08661 0.12583
#
# Static dielectric constant tensor:
#      x y z
#    x 2.305020 0.000000 -0.028580 
#    y 0.000000 2.296640 0.000000 
#    z -0.028580 0.000000 2.070510 
# 
# From -- ./inp_files/31549.got.cif
#   From: 2010.05.17/outbox.cif.g08.bks.cpg/sg9_16_cif.got.tgz:31549.got - 2010.06.03 20:04:27.
