data_PCOD9136688
_publ_section_title
;
Structure prediction by ZEFSAII (Michael W. Deem and Ramdas Pophale) SiO2 
 PCOD9136688
Probable space group: C C
;
_chemical_formula_sum "Si O2"
_cell_formula_units_Z 32
_cell_length_a 13.143002
_cell_length_b 8.217015
_cell_length_c 14.119043
_cell_angle_alpha 90.000000
_cell_angle_beta 72.132020
_cell_angle_gamma 90.000000
_cell_volume 1451.256278
_symmetry_space_group_name_H-M "C C"
_symmetry_group_IT_number 9
_symmetry_cell_setting 'monoclinic'
loop_
_space_group_symop_operation_xyz
x,y,z
x,-y,1/2+z
1/2+x,1/2+y,z
1/2+x,1/2-y,1/2+z
loop_
_atom_site_type_symbol
_atom_site_label
_atom_site_fract_x
_atom_site_fract_y
_atom_site_fract_z
Si Si1 0.923250 0.252461 0.231550
Si Si2 0.625315 0.666797 0.401561
Si Si3 0.310101 0.083619 0.199883
Si Si4 0.303163 0.565277 0.123414
Si Si5 0.598178 0.942853 0.283912
Si Si6 0.978057 0.768402 0.256109
Si Si7 0.897837 0.035822 0.408273
Si Si8 0.183344 0.103407 0.599603
O O1 0.861057 0.412559 0.217675
O O2 0.907312 0.121150 0.152898
O O3 0.039727 0.313094 0.230713
O O4 0.869839 0.172549 0.339487
O O5 0.718593 0.625197 0.301268
O O6 0.599729 0.857618 0.386332
O O7 0.518530 0.570591 0.406269
O O8 0.658737 0.616926 0.496536
O O9 0.254404 0.047816 0.115460
O O10 0.406494 0.210204 0.187347
O O11 0.217490 0.477456 0.214633
O O12 0.247046 0.731940 0.106498
O O13 0.328006 0.468197 0.021641
O O14 0.530728 0.109538 0.291238
O O15 0.903558 0.865109 0.350606
O O16 0.074459 0.881116 0.191816
#
# Coordination Sequence:
#
# PCOD9136688 Si02
#       8
#     4   4   4   4   4   4   4   4
#     4   9  22  43  60  89 131 161 219 264 322 392
#     4  11  23  40  65  94 129 164 216 268 327 393
#     4  10  21  43  64  88 128 172 206 274 319 386
#     4  10  22  40  66  91 126 169 217 267 324 388
#     4   9  22  43  62  91 127 172 210 266 327 387
#     4  10  21  43  66  87 133 171 210 272 323 383
#     4  11  23  40  64  96 124 169 216 271 326 387
#     4  10  22  42  61  96 126 168 220 260 326 398
#
# _framework density 22.049861
#
# number of rings (size 3 to 8) (size 9 to 14) (size 15 to 20)
#    0.000    2.000    1.250    0.750    5.250    0.000 
#   20.250    0.000    0.000    0.000    0.000    0.000 
#    0.000    0.000    0.000    0.000    0.000    0.000 
#
# Total GULP energy -89401.011174 kJ/mol
# GULP energy per Si atom -5587.563198 kJ/mol
# Density = 2.199967 g / cm^3
# Si number density = 22.049861 Si / 1000 Ang^3
#
#
#
# Elastic Constant Matrix: (Units=GPa)
#
#
# Indices 1 2 3 4 5 6 
#
# 1 75.6766 24.9979 3.3257 0.0000 18.7535 0.0000
# 2 24.9979 71.6017 7.0587 0.0000 9.9710 0.0000
# 3 3.3257 7.0587 31.7647 0.0000 20.5417 0.0000
# 4 0.0000 0.0000 0.0000 19.7813 0.0000 -1.1536
# 5 18.7535 9.9710 20.5417 0.0000 37.2670 0.0000
# 6 0.0000 0.0000 0.0000 -1.1536 0.0000 24.4804
#
#
#
# Elastic Compliance Matrix: (Units=1/GPa)
#
#
# Indices 1 2 3 4 5 6 
#
# 1 0.017326 -0.005165 0.006337 0.000000 -0.010830 0.000000
# 2 -0.005165 0.016072 -0.003000 0.000000 -0.000047 0.000000
# 3 0.006337 -0.003000 0.051322 0.000000 -0.030675 0.000000
# 4 0.000000 0.000000 0.000000 0.050692 0.000000 0.002389
# 5 -0.010830 -0.000047 -0.030675 0.000000 0.049204 0.000000
# 6 0.000000 0.000000 0.000000 0.002389 0.000000 0.040962
#
#
# Mechanical properties :
#
#
# Convention : Reuss Voigt Hill
#
# Bulk Modulus (GPa) = 12.33620 27.75641 20.04630
# Shear Modulus (GPa) = 19.51186 25.88311 22.69749
#
# Velocity S-wave (km/s) = 2.97795 3.42986 3.21186
# Velocity P-wave (km/s) = 4.17505 5.31983 4.78182
#
# Compressibility (1/GPa) = 0.08106227
#
# Stress axis : x y z
#
# Youngs Moduli (GPa) = 57.71795 62.22060 19.48495
#
# Poissons Ratio (x) = 0.32140 -0.12348
# Poissons Ratio (y) = 0.29814 0.05846
# Poissons Ratio (z) = -0.36578 0.18668
#
# Static dielectric constant tensor:
#      x y z
#    x 1.840170 0.000000 0.027360 
#    y 0.000000 1.843790 0.000000 
#    z 0.027360 0.000000 1.761800 
# 
# From -- ./inp_files/17752.got.cif
#   From: 2010.05.17/outbox.cif.g08.bks.cpg/sg9_9_cif.got.tgz:17752.got - 2010.06.03 20:04:27.
