data_PCOD9136051
_publ_section_title
;
Structure prediction by ZEFSAII (Michael W. Deem and Ramdas Pophale) SiO2 
 PCOD9136051
Probable space group: C C
;
_chemical_formula_sum "Si O2"
_cell_formula_units_Z 32
_cell_length_a 10.615602
_cell_length_b 8.468153
_cell_length_c 16.207052
_cell_angle_alpha 90.000000
_cell_angle_beta 106.479072
_cell_angle_gamma 90.000000
_cell_volume 1397.079985
_symmetry_space_group_name_H-M "C C"
_symmetry_group_IT_number 9
_symmetry_cell_setting 'monoclinic'
loop_
_space_group_symop_operation_xyz
x,y,z
x,-y,1/2+z
1/2+x,1/2+y,z
1/2+x,1/2-y,1/2+z
loop_
_atom_site_type_symbol
_atom_site_label
_atom_site_fract_x
_atom_site_fract_y
_atom_site_fract_z
Si Si1 0.545430 0.947220 0.503500
Si Si2 0.139845 0.925388 0.351995
Si Si3 0.887073 0.442942 0.307787
Si Si4 0.329470 0.552484 0.004846
Si Si5 0.300713 0.078583 0.530224
Si Si6 0.073827 0.133317 0.596336
Si Si7 0.360043 0.431863 0.822872
Si Si8 0.589264 0.872132 0.749197
O O1 0.473172 0.983797 0.404797
O O2 0.695500 0.002918 0.525259
O O3 0.448711 0.014306 0.555115
O O4 0.544658 0.758285 0.516870
O O5 0.238581 0.994347 0.300900
O O6 0.209904 0.976276 0.450304
O O7 0.992519 0.985264 0.318706
O O8 0.130623 0.738051 0.335355
O O9 0.882550 0.252980 0.306461
O O10 0.964873 0.524981 0.249348
O O11 0.314718 0.741635 0.000880
O O12 0.461536 0.497428 0.075149
O O13 0.341780 0.484201 0.914858
O O14 0.220186 0.077032 0.600639
O O15 0.068820 0.242867 0.675054
O O16 0.220444 0.472233 0.754657
#
# Coordination Sequence:
#
# PCOD9136051 Si02
#       8
#     4   4   4   4   4   4   4   4
#     4  10  21  38  65  93 122 165 221 262 314 389
#     4  10  23  38  63  98 123 167 222 265 319 390
#     4  10  21  39  61  95 122 165 219 265 322 383
#     4  11  21  38  68  94 122 168 219 268 320 391
#     4  10  23  39  68  97 125 165 225 268 321 389
#     4  11  24  44  61  96 133 170 210 273 333 383
#     4  11  21  39  66  92 124 168 214 268 318 389
#     4  11  26  41  64  93 139 168 212 275 335 380
#
# _framework density 22.904917999999999
#
# number of rings (size 3 to 8) (size 9 to 14) (size 15 to 20)
#    0.000    1.500    3.750    0.750    3.500    5.000 
#    0.000    1.250    0.000    0.000    0.000    0.000 
#    0.000    0.000    0.000    0.000    0.000    0.000 
#
# Total GULP energy -89350.799598 kJ/mol
# GULP energy per Si atom -5584.424975 kJ/mol
# Density = 2.285279 g / cm^3
# Si number density = 22.904918 Si / 1000 Ang^3
#
#
#
# Elastic Constant Matrix: (Units=GPa)
#
#
# Indices 1 2 3 4 5 6 
#
# 1 235.3055 58.2117 20.8717 0.0000 -3.3102 0.0000
# 2 58.2117 57.6467 13.5125 0.0000 1.1171 0.0000
# 3 20.8717 13.5125 51.4964 0.0000 -4.9441 0.0000
# 4 0.0000 0.0000 0.0000 20.1123 0.0000 3.8823
# 5 -3.3102 1.1171 -4.9441 0.0000 26.8379 0.0000
# 6 0.0000 0.0000 0.0000 3.8823 0.0000 46.2152
#
#
#
# Elastic Compliance Matrix: (Units=1/GPa)
#
#
# Indices 1 2 3 4 5 6 
#
# 1 0.005716 -0.005608 -0.000769 0.000000 0.000797 0.000000
# 2 -0.005608 0.024061 -0.004279 0.000000 -0.002481 0.000000
# 3 -0.000769 -0.004279 0.021237 0.000000 0.003996 0.000000
# 4 0.000000 0.000000 0.000000 0.050540 0.000000 -0.004246
# 5 0.000797 -0.002481 0.003996 0.000000 0.038198 0.000000
# 6 0.000000 0.000000 0.000000 -0.004246 0.000000 0.021995
#
#
# Mechanical properties :
#
#
# Convention : Reuss Voigt Hill
#
# Bulk Modulus (GPa) = 33.66658 58.84891 46.25774
# Shear Modulus (GPa) = 25.91215 35.42325 30.66770
#
# Velocity S-wave (km/s) = 3.36712 3.93687 3.66309
# Velocity P-wave (km/s) = 5.46324 6.81276 6.17498
#
# Compressibility (1/GPa) = 0.02970305
#
# Stress axis : x y z
#
# Youngs Moduli (GPa) = 174.93252 41.56141 47.08790
#
# Poissons Ratio (x) = 0.23306 0.03621
# Poissons Ratio (y) = 0.98097 0.20148
# Poissons Ratio (z) = 0.13452 0.17784
#
# Static dielectric constant tensor:
#      x y z
#    x 1.904150 0.000000 -0.004870 
#    y 0.000000 1.823570 0.000000 
#    z -0.004870 0.000000 1.919410 
# 
# From -- ./inp_files/29851.got.cif
#   From: 2010.05.17/outbox.cif.g08.bks.cpg/sg9_15_cif.got.tgz:29851.got - 2010.06.03 20:04:27.
