data_PCOD9136585
_publ_section_title
;
Structure prediction by ZEFSAII (Michael W. Deem and Ramdas Pophale) SiO2 
 PCOD9136585
Probable space group: C C
;
_chemical_formula_sum "Si O2"
_cell_formula_units_Z 20
_cell_length_a 6.984140
_cell_length_b 20.589214
_cell_length_c 5.326941
_cell_angle_alpha 90.000000
_cell_angle_beta 114.160744
_cell_angle_gamma 90.000000
_cell_volume 698.901912
_symmetry_space_group_name_H-M "C C"
_symmetry_group_IT_number 9
_symmetry_cell_setting 'monoclinic'
loop_
_space_group_symop_operation_xyz
x,y,z
x,-y,1/2+z
1/2+x,1/2+y,z
1/2+x,1/2-y,1/2+z
loop_
_atom_site_type_symbol
_atom_site_label
_atom_site_fract_x
_atom_site_fract_y
_atom_site_fract_z
Si Si1 0.971660 0.256607 0.954750
Si Si2 0.103673 0.593557 0.568064
Si Si3 0.533411 0.457673 0.448760
Si Si4 0.961514 0.406794 0.495888
Si Si5 0.097491 0.257811 0.492249
O O1 0.869813 0.237956 0.192643
O O2 0.035948 0.224276 0.723430
O O3 0.022325 0.334032 0.974290
O O4 0.200245 0.239755 0.255952
O O5 0.331868 0.587972 0.809035
O O6 0.957161 0.564758 0.710818
O O7 0.112379 0.564084 0.292554
O O8 0.530992 0.489898 0.721132
O O9 0.738601 0.415295 0.505750
O O10 0.038998 0.334114 0.484615
#
# Coordination Sequence:
#
# PCOD9136585 Si02
#       5
#     4   4   4   4   4
#     4  10  21  42  65  99 139 185 227 281 346 417
#     4  10  23  45  67 100 143 180 227 296 347 414
#     4  12  26  44  74 104 130 184 242 288 360 420
#     4  10  23  45  67 100 143 180 227 296 347 414
#     4  10  21  42  65  99 139 185 227 281 346 417
#
# _framework density 28.616318
#
# number of rings (size 3 to 8) (size 9 to 14) (size 15 to 20)
#    0.000    1.600    0.000    3.600    0.000    4.800 
#   43.200    0.000    0.000    0.000    0.000    0.000 
#    0.000    0.000    0.000    0.000    0.000    0.000 
#
# Total GULP energy -55890.651486 kJ/mol
# GULP energy per Si atom -5589.065149 kJ/mol
# Density = 2.855119 g / cm^3
# Si number density = 28.616318 Si / 1000 Ang^3
#
#
#
# Elastic Constant Matrix: (Units=GPa)
#
#
# Indices 1 2 3 4 5 6 
#
# 1 233.4319 18.9262 47.4275 0.0000 13.6313 0.0000
# 2 18.9262 141.0203 3.9626 0.0000 20.0201 0.0000
# 3 47.4275 3.9626 323.3492 0.0000 -26.0943 0.0000
# 4 0.0000 0.0000 0.0000 40.0645 0.0000 10.6881
# 5 13.6313 20.0201 -26.0943 0.0000 77.3463 0.0000
# 6 0.0000 0.0000 0.0000 10.6881 0.0000 52.5976
#
#
#
# Elastic Compliance Matrix: (Units=1/GPa)
#
#
# Indices 1 2 3 4 5 6 
#
# 1 0.004524 -0.000455 -0.000733 0.000000 -0.000927 0.000000
# 2 -0.000455 0.007427 -0.000178 0.000000 -0.001902 0.000000
# 3 -0.000733 -0.000178 0.003306 0.000000 0.001291 0.000000
# 4 0.000000 0.000000 0.000000 0.026390 0.000000 -0.005363
# 5 -0.000927 -0.001902 0.001291 0.000000 0.014020 0.000000
# 6 0.000000 0.000000 0.000000 -0.005363 0.000000 0.020102
#
#
# Mechanical properties :
#
#
# Convention : Reuss Voigt Hill
#
# Bulk Modulus (GPa) = 79.83095 93.15937 86.49516
# Shear Modulus (GPa) = 60.47677 75.83402 68.15539
#
# Velocity S-wave (km/s) = 4.60212 5.15343 4.88556
# Velocity P-wave (km/s) = 7.49646 8.24838 7.88139
#
# Compressibility (1/GPa) = 0.01252647
#
# Stress axis : x y z
#
# Youngs Moduli (GPa) = 221.05396 134.63861 302.43999
#
# Poissons Ratio (x) = 0.06126 0.22161
# Poissons Ratio (y) = 0.10058 0.05377
# Poissons Ratio (z) = 0.16197 0.02394
#
# Static dielectric constant tensor:
#      x y z
#    x 2.301620 0.000000 0.101230 
#    y 0.000000 2.062510 0.000000 
#    z 0.101230 0.000000 2.512510 
# 
# From -- ./inp_files/217.got.cif
#   From: 2010.05.17/outbox.cif.g08.bks.cpg/sg9_1_cif.got.tgz:217.got - 2010.06.03 20:04:27.
