data_PCOD9136721
_publ_section_title
;
Structure prediction by ZEFSAII (Michael W. Deem and Ramdas Pophale) SiO2 
 PCOD9136721
Probable space group: C C
;
_chemical_formula_sum "Si O2"
_cell_formula_units_Z 28
_cell_length_a 11.498870
_cell_length_b 7.605983
_cell_length_c 23.103894
_cell_angle_alpha 90.000000
_cell_angle_beta 33.533222
_cell_angle_gamma 90.000000
_cell_volume 1116.260126
_symmetry_space_group_name_H-M "C C"
_symmetry_group_IT_number 9
_symmetry_cell_setting 'monoclinic'
loop_
_space_group_symop_operation_xyz
x,y,z
x,-y,1/2+z
1/2+x,1/2+y,z
1/2+x,1/2-y,1/2+z
loop_
_atom_site_type_symbol
_atom_site_label
_atom_site_fract_x
_atom_site_fract_y
_atom_site_fract_z
Si Si1 0.365200 0.633445 0.079320
Si Si2 0.932427 0.966991 0.675802
Si Si3 0.937596 0.625731 0.217737
Si Si4 0.329948 0.829590 0.560064
Si Si5 0.030065 0.659941 0.413200
Si Si6 0.162863 0.970302 0.231446
Si Si7 0.283399 0.767817 0.901351
O O1 0.400005 0.519539 0.121304
O O2 0.277962 0.810649 0.149168
O O3 0.176472 0.557577 0.117895
O O4 0.535345 0.692071 0.961031
O O5 0.738388 0.878623 0.790288
O O6 0.130543 0.834388 0.600110
O O7 0.949376 0.166353 0.694174
O O8 0.775806 0.522755 0.244279
O O9 0.880421 0.618242 0.309088
O O10 0.537174 0.719924 0.489247
O O11 0.459394 0.991810 0.478320
O O12 0.207689 0.869178 0.670329
O O13 0.849668 0.684419 0.438910
O O14 0.918728 0.915818 0.339238
#
# Coordination Sequence:
#
# PCOD9136721 Si02
#       7
#     4   4   4   4   4   4   4
#     4  10  23  46  67  94 137 176 221 278 333 398
#     4  12  22  45  71  98 138 179 222 282 340 396
#     4  11  21  43  66  99 135 170 221 283 333 398
#     4  11  22  41  66  94 134 180 215 276 340 393
#     4  11  21  44  72  91 139 178 219 283 336 391
#     4  10  21  43  67  91 131 176 217 273 340 393
#     4  11  22  44  67  93 136 179 221 277 336 395
#
# _framework density 25.083758
#
# number of rings (size 3 to 8) (size 9 to 14) (size 15 to 20)
#    0.000    1.143    8.571    0.857    0.000    0.000 
#   12.857    0.000    0.000    0.000    0.000    0.000 
#    0.000    0.000    0.000    0.000    0.000    0.000 
#
# Total GULP energy -78073.867284 kJ/mol
# GULP energy per Si atom -5576.704806 kJ/mol
# Density = 2.502667 g / cm^3
# Si number density = 25.083758 Si / 1000 Ang^3
#
#
#
# Elastic Constant Matrix: (Units=GPa)
#
#
# Indices 1 2 3 4 5 6 
#
# 1 129.6607 23.9545 47.8871 0.0000 11.5073 0.0000
# 2 23.9545 49.4912 24.6848 0.0000 7.8878 0.0000
# 3 47.8871 24.6848 148.7699 0.0003 -5.7377 0.0000
# 4 0.0000 0.0000 0.0003 23.6180 -0.0001 0.1275
# 5 11.5073 7.8878 -5.7377 -0.0001 62.7048 0.0000
# 6 0.0000 0.0000 0.0000 0.1275 0.0000 40.2450
#
#
#
# Elastic Compliance Matrix: (Units=1/GPa)
#
#
# Indices 1 2 3 4 5 6 
#
# 1 0.009357 -0.002993 -0.002576 0.000000 -0.001576 0.000000
# 2 -0.002993 0.023610 -0.003058 0.000000 -0.002701 0.000000
# 3 -0.002576 -0.003058 0.008120 0.000000 0.001600 0.000000
# 4 0.000000 0.000000 0.000000 0.042341 0.000000 -0.000134
# 5 -0.001576 -0.002701 0.001600 0.000000 0.016723 0.000000
# 6 0.000000 0.000000 0.000000 -0.000134 0.000000 0.024848
#
#
# Mechanical properties :
#
#
# Convention : Reuss Voigt Hill
#
# Bulk Modulus (GPa) = 41.95927 57.88609 49.92268
# Shear Modulus (GPa) = 33.28943 40.73991 37.01467
#
# Velocity S-wave (km/s) = 3.64693 4.03445 3.84558
# Velocity P-wave (km/s) = 5.87345 6.69549 6.29790
#
# Compressibility (1/GPa) = 0.02383263
#
# Stress axis : x y z
#
# Youngs Moduli (GPa) = 106.87632 42.35502 123.15029
#
# Poissons Ratio (x) = 0.12675 0.31724
# Poissons Ratio (y) = 0.31985 0.37664
# Poissons Ratio (z) = 0.27531 0.12954
#
# Static dielectric constant tensor:
#      x y z
#    x 2.012270 0.000000 -0.057490 
#    y 0.000000 2.293750 0.000000 
#    z -0.057490 0.000000 1.968990 
# 
# From -- ./inp_files/35296.got.cif
#   From: 2010.05.17/outbox.cif.g08.bks.cpg/sg9_18_cif.got.tgz:35296.got - 2010.06.03 20:04:27.
