data_PCOD9136486
_publ_section_title
;
Structure prediction by ZEFSAII (Michael W. Deem and Ramdas Pophale) SiO2 
 PCOD9136486
Probable space group: C C
;
_chemical_formula_sum "Si O2"
_cell_formula_units_Z 28
_cell_length_a 11.909063
_cell_length_b 20.672984
_cell_length_c 7.339679
_cell_angle_alpha 90.000000
_cell_angle_beta 136.591365
_cell_angle_gamma 90.000000
_cell_volume 1241.764058
_symmetry_space_group_name_H-M "C C"
_symmetry_group_IT_number 9
_symmetry_cell_setting 'monoclinic'
loop_
_space_group_symop_operation_xyz
x,y,z
x,-y,1/2+z
1/2+x,1/2+y,z
1/2+x,1/2-y,1/2+z
loop_
_atom_site_type_symbol
_atom_site_label
_atom_site_fract_x
_atom_site_fract_y
_atom_site_fract_z
Si Si1 0.958250 0.050293 0.777810
Si Si2 0.102093 0.656950 0.656117
Si Si3 0.903695 0.093582 0.128430
Si Si4 0.638471 0.295645 0.825519
Si Si5 0.896662 0.286079 0.443945
Si Si6 0.250962 0.335501 0.933693
Si Si7 0.264865 0.130413 0.119490
O O1 0.825761 0.092332 0.506050
O O2 0.939916 0.973712 0.765884
O O3 0.930608 0.074300 0.949780
O O4 0.140150 0.072303 0.935768
O O5 0.059607 0.726729 0.686532
O O6 0.206005 0.672483 0.594892
O O7 0.944970 0.615859 0.412031
O O8 0.219249 0.618159 0.929033
O O9 0.020593 0.154823 0.292864
O O10 0.684622 0.326806 0.685438
O O11 0.793976 0.286311 0.138406
O O12 0.886678 0.214830 0.522646
O O13 0.802833 0.330161 0.481891
O O14 0.079289 0.314371 0.639742
#
# Coordination Sequence:
#
# PCOD9136486 Si02
#       7
#     4   4   4   4   4   4   4
#     4  10  23  45  63  90 133 179 216 263 328 392
#     4  10  21  41  67  94 129 168 213 274 334 377
#     4  10  24  42  66  92 130 178 212 269 331 386
#     4  11  23  39  65  98 127 162 218 267 331 383
#     4  11  23  37  66  98 125 170 210 272 326 379
#     4  10  22  40  63  94 131 171 211 265 331 383
#     4  10  22  42  62  90 133 168 210 272 317 390
#
# _framework density 22.548566000000001
#
# number of rings (size 3 to 8) (size 9 to 14) (size 15 to 20)
#    0.000    1.714    1.429    1.714   14.000    1.143 
#    2.571    2.857    0.000    0.000    0.000    0.000 
#    0.000    0.000    0.000    0.000    0.000    0.000 
#
# Total GULP energy -78262.898380 kJ/mol
# GULP energy per Si atom -5590.207027 kJ/mol
# Density = 2.249724 g / cm^3
# Si number density = 22.548566 Si / 1000 Ang^3
#
#
#
# Elastic Constant Matrix: (Units=GPa)
#
#
# Indices 1 2 3 4 5 6 
#
# 1 91.9735 38.9986 30.5866 0.0000 12.4271 0.0000
# 2 38.9986 133.7463 43.6861 0.0000 22.6074 0.0000
# 3 30.5866 43.6861 102.5395 0.0000 15.9701 0.0000
# 4 0.0000 0.0000 0.0000 34.1312 0.0000 0.5046
# 5 12.4271 22.6074 15.9701 0.0000 29.0461 0.0000
# 6 0.0000 0.0000 0.0000 0.5046 0.0000 25.3879
#
#
#
# Elastic Compliance Matrix: (Units=1/GPa)
#
#
# Indices 1 2 3 4 5 6 
#
# 1 0.013105 -0.002653 -0.002436 0.000000 -0.002203 0.000000
# 2 -0.002653 0.009995 -0.002660 0.000000 -0.005182 0.000000
# 3 -0.002436 -0.002660 0.012169 0.000000 -0.003579 0.000000
# 4 0.000000 0.000000 0.000000 0.029307 0.000000 -0.000583
# 5 -0.002203 -0.005182 -0.003579 0.000000 0.041371 0.000000
# 6 0.000000 0.000000 0.000000 -0.000583 0.000000 0.039400
#
#
# Mechanical properties :
#
#
# Convention : Reuss Voigt Hill
#
# Bulk Modulus (GPa) = 50.57625 61.64465 56.11045
# Shear Modulus (GPa) = 29.86183 32.04558 30.95370
#
# Velocity S-wave (km/s) = 3.64309 3.77394 3.70909
# Velocity P-wave (km/s) = 6.33835 6.81089 6.57886
#
# Compressibility (1/GPa) = 0.01977213
#
# Stress axis : x y z
#
# Youngs Moduli (GPa) = 76.30421 100.04748 82.17297
#
# Poissons Ratio (x) = 0.26547 0.20015
# Poissons Ratio (y) = 0.20247 0.21857
# Poissons Ratio (z) = 0.18585 0.26611
#
# Static dielectric constant tensor:
#      x y z
#    x 1.878110 0.000000 -0.007880 
#    y 0.000000 1.844510 0.000000 
#    z -0.007880 0.000000 1.885650 
# 
# From -- ./inp_files/5557.got.cif
#   From: 2010.05.17/outbox.cif.g08.bks.cpg/sg9_3_cif.got.tgz:5557.got - 2010.06.03 20:04:27.
