data_PCOD9136761
_publ_section_title
;
Structure prediction by ZEFSAII (Michael W. Deem and Ramdas Pophale) SiO2 
 PCOD9136761
Probable space group: C C
;
_chemical_formula_sum "Si O2"
_cell_formula_units_Z 28
_cell_length_a 10.638062
_cell_length_b 9.159581
_cell_length_c 19.936032
_cell_angle_alpha 90.000000
_cell_angle_beta 38.998201
_cell_angle_gamma 90.000000
_cell_volume 1222.451987
_symmetry_space_group_name_H-M "C C"
_symmetry_group_IT_number 9
_symmetry_cell_setting 'monoclinic'
loop_
_space_group_symop_operation_xyz
x,y,z
x,-y,1/2+z
1/2+x,1/2+y,z
1/2+x,1/2-y,1/2+z
loop_
_atom_site_type_symbol
_atom_site_label
_atom_site_fract_x
_atom_site_fract_y
_atom_site_fract_z
Si Si1 0.841790 0.949233 0.866620
Si Si2 0.782130 0.423531 0.631087
Si Si3 0.546831 0.518572 0.538250
Si Si4 0.972024 0.717061 0.507698
Si Si5 0.810981 0.285799 0.843756
Si Si6 0.578236 0.229974 0.112808
Si Si7 0.875860 0.188762 0.492540
O O1 0.797773 0.893637 0.960353
O O2 0.829046 0.123177 0.864932
O O3 0.250939 0.910211 0.922304
O O4 0.668131 0.864105 0.898017
O O5 0.843597 0.591210 0.596888
O O6 0.789222 0.339500 0.556771
O O7 0.955040 0.354522 0.606708
O O8 0.535294 0.348010 0.530667
O O9 0.063809 0.906334 0.752521
O O10 0.524343 0.599685 0.618369
O O11 0.380106 0.585617 0.556598
O O12 0.817245 0.780215 0.517328
O O13 0.610523 0.282434 0.881618
O O14 0.993815 0.318094 0.719566
#
# Coordination Sequence:
#
# PCOD9136761 Si02
#       7
#     4   4   4   4   4   4   4
#     4  12  23  43  72 108 140 191 243 293 356 428
#     4  11  23  46  74 100 144 197 233 299 361 419
#     4   9  24  43  65 106 135 187 234 293 352 418
#     4  12  26  41  75 106 140 189 243 291 365 421
#     4  10  21  43  71 100 137 188 230 290 363 406
#     4  11  23  49  70  97 149 184 234 299 351 431
#     4   9  22  43  69  97 145 182 231 299 348 417
#
# _framework density 22.904786000000001
#
# number of rings (size 3 to 8) (size 9 to 14) (size 15 to 20)
#    0.857    0.571    4.286    0.000    6.000    0.000 
#    5.143    5.714    0.000    0.000    0.000    0.000 
#    0.000    0.000    0.000    0.000    0.000    0.000 
#
# Total GULP energy -78098.908279 kJ/mol
# GULP energy per Si atom -5578.493448 kJ/mol
# Density = 2.285265 g / cm^3
# Si number density = 22.904786 Si / 1000 Ang^3
#
#
#
# Elastic Constant Matrix: (Units=GPa)
#
#
# Indices 1 2 3 4 5 6 
#
# 1 108.8025 32.3611 32.1701 0.0000 -18.3690 0.0000
# 2 32.3611 117.9077 15.2519 0.0000 -2.0097 0.0000
# 3 32.1701 15.2519 85.5094 0.0000 -16.3673 0.0000
# 4 0.0000 0.0000 0.0000 22.6984 0.0000 -2.9936
# 5 -18.3690 -2.0097 -16.3673 0.0000 34.0325 0.0000
# 6 0.0000 0.0000 0.0000 -2.9936 0.0000 36.9601
#
#
#
# Elastic Compliance Matrix: (Units=1/GPa)
#
#
# Indices 1 2 3 4 5 6 
#
# 1 0.011689 -0.002739 -0.003009 0.000000 0.004700 0.000000
# 2 -0.002739 0.009325 -0.000893 0.000000 -0.001357 0.000000
# 3 -0.003009 -0.000893 0.013949 0.000000 0.005032 0.000000
# 4 0.000000 0.000000 0.000000 0.044532 0.000000 0.003607
# 5 0.004700 -0.001357 0.005032 0.000000 0.034260 0.000000
# 6 0.000000 0.000000 0.000000 0.003607 0.000000 0.027348
#
#
# Mechanical properties :
#
#
# Convention : Reuss Voigt Hill
#
# Bulk Modulus (GPa) = 46.12215 52.42064 49.27139
# Shear Modulus (GPa) = 30.93826 34.23396 32.58611
#
# Velocity S-wave (km/s) = 3.67922 3.87023 3.77593
# Velocity P-wave (km/s) = 6.18296 6.55038 6.36932
#
# Compressibility (1/GPa) = 0.02168156
#
# Stress axis : x y z
#
# Youngs Moduli (GPa) = 85.55163 107.23592 71.68908
#
# Poissons Ratio (x) = 0.29369 0.21574
# Poissons Ratio (y) = 0.23430 0.06399
# Poissons Ratio (z) = 0.25746 0.09572
#
# Static dielectric constant tensor:
#      x y z
#    x 1.908590 0.000000 0.000890 
#    y 0.000000 1.882090 0.000000 
#    z 0.000890 0.000000 1.833420 
# 
# From -- ./inp_files/32448.got.cif
#   From: 2010.05.17/outbox.cif.g08.bks.cpg/sg9_17_cif.got.tgz:32448.got - 2010.06.03 20:04:27.
