data_PCOD9136466
_publ_section_title
;
Structure prediction by ZEFSAII (Michael W. Deem and Ramdas Pophale) SiO2 
 PCOD9136466
Probable space group: C C
;
_chemical_formula_sum "Si O2"
_cell_formula_units_Z 32
_cell_length_a 12.504271
_cell_length_b 7.684753
_cell_length_c 19.083286
_cell_angle_alpha 90.000000
_cell_angle_beta 120.956349
_cell_angle_gamma 90.000000
_cell_volume 1572.554405
_symmetry_space_group_name_H-M "C C"
_symmetry_group_IT_number 9
_symmetry_cell_setting 'monoclinic'
loop_
_space_group_symop_operation_xyz
x,y,z
x,-y,1/2+z
1/2+x,1/2+y,z
1/2+x,1/2-y,1/2+z
loop_
_atom_site_type_symbol
_atom_site_label
_atom_site_fract_x
_atom_site_fract_y
_atom_site_fract_z
Si Si1 0.039550 0.327286 0.138140
Si Si2 0.760901 0.262943 0.994254
Si Si3 0.154108 0.946580 0.359208
Si Si4 0.176828 0.977335 0.210212
Si Si5 0.439502 0.641642 0.695661
Si Si6 0.678125 0.970788 0.575889
Si Si7 0.640528 0.071487 0.416077
Si Si8 0.932187 0.467057 0.240066
O O1 0.132793 0.163321 0.165408
O O2 0.103129 0.489271 0.120409
O O3 0.009445 0.359058 0.209498
O O4 0.904972 0.296037 0.058152
O O5 0.695746 0.417959 0.931121
O O6 0.742204 0.082496 0.945575
O O7 0.688006 0.216839 0.042188
O O8 0.007810 0.940313 0.287273
O O9 0.180673 0.750603 0.393770
O O10 0.216570 0.993641 0.305710
O O11 0.295456 0.897233 0.211934
O O12 0.048415 0.870686 0.174113
O O13 0.319400 0.534345 0.634537
O O14 0.410595 0.841494 0.700073
O O15 0.621827 0.089232 0.493422
O O16 0.517476 0.999729 0.336523
#
# Coordination Sequence:
#
# PCOD9136466 Si02
#       8
#     4   4   4   4   4   4   4   4
#     4  12  24  39  72  97 133 185 214 275 340 392
#     4  10  22  40  66  96 137 172 222 272 331 407
#     4   9  20  39  70  95 130 176 222 272 338 397
#     4  10  21  41  66  93 128 175 217 272 333 393
#     4   9  20  42  61  96 132 168 220 271 334 393
#     4  10  22  41  65  97 134 172 223 275 337 394
#     4   9  22  43  64  96 135 171 222 282 330 392
#     4  11  23  41  68  94 131 175 224 273 325 406
#
# _framework density 20.349056999999998
#
# number of rings (size 3 to 8) (size 9 to 14) (size 15 to 20)
#    1.500    0.500    2.500    0.750    3.500    1.000 
#    0.000    0.000   11.000    0.000    0.000    0.000 
#    0.000    0.000    0.000    0.000    0.000    0.000 
#
# Total GULP energy -89113.212701 kJ/mol
# GULP energy per Si atom -5569.575794 kJ/mol
# Density = 2.030274 g / cm^3
# Si number density = 20.349057 Si / 1000 Ang^3
#
#
#
# Elastic Constant Matrix: (Units=GPa)
#
#
# Indices 1 2 3 4 5 6 
#
# 1 102.9859 10.2901 22.5361 0.0000 3.4199 0.0000
# 2 10.2901 54.3750 38.9057 0.0000 10.2528 0.0000
# 3 22.5361 38.9057 79.0093 0.0000 0.9413 0.0000
# 4 0.0000 0.0000 0.0000 29.5915 0.0000 -3.0784
# 5 3.4199 10.2528 0.9413 0.0000 10.5594 0.0000
# 6 0.0000 0.0000 0.0000 -3.0784 0.0000 18.3750
#
#
#
# Elastic Compliance Matrix: (Units=1/GPa)
#
#
# Indices 1 2 3 4 5 6 
#
# 1 0.010517 0.001502 -0.003685 0.000000 -0.004536 0.000000
# 2 0.001502 0.038482 -0.018947 0.000000 -0.036162 0.000000
# 3 -0.003685 -0.018947 0.022828 0.000000 0.017555 0.000000
# 4 0.000000 0.000000 0.000000 0.034393 0.000000 0.005762
# 5 -0.004536 -0.036162 0.017555 0.000000 0.129718 0.000000
# 6 0.000000 0.000000 0.000000 0.005762 0.000000 0.055387
#
#
# Mechanical properties :
#
#
# Convention : Reuss Voigt Hill
#
# Bulk Modulus (GPa) = 33.82158 42.20376 38.01267
# Shear Modulus (GPa) = 14.55855 22.68107 18.61981
#
# Velocity S-wave (km/s) = 2.67767 3.34219 3.02821
# Velocity P-wave (km/s) = 5.12023 5.97315 5.56306
#
# Compressibility (1/GPa) = 0.02956692
#
# Stress axis : x y z
#
# Youngs Moduli (GPa) = 95.08340 25.98650 43.80500
#
# Poissons Ratio (x) = -0.03903 0.16144
# Poissons Ratio (y) = -0.14280 0.82996
# Poissons Ratio (z) = 0.35041 0.49236
#
# Static dielectric constant tensor:
#      x y z
#    x 1.726740 0.000000 -0.037080 
#    y 0.000000 1.734490 0.000000 
#    z -0.037080 0.000000 1.742390 
# 
# From -- ./inp_files/33149.got.cif
#   From: 2010.05.17/outbox.cif.g08.bks.cpg/sg9_17_cif.got.tgz:33149.got - 2010.06.03 20:04:27.
