data_PCOD9136986
_publ_section_title
;
Structure prediction by ZEFSAII (Michael W. Deem and Ramdas Pophale) SiO2 
 PCOD9136986
Probable space group: C C
;
_chemical_formula_sum "Si O2"
_cell_formula_units_Z 24
_cell_length_a 5.431863
_cell_length_b 21.916036
_cell_length_c 8.541995
_cell_angle_alpha 90.000000
_cell_angle_beta 90.853819
_cell_angle_gamma 90.000000
_cell_volume 1016.768077
_symmetry_space_group_name_H-M "C C"
_symmetry_group_IT_number 9
_symmetry_cell_setting 'monoclinic'
loop_
_space_group_symop_operation_xyz
x,y,z
x,-y,1/2+z
1/2+x,1/2+y,z
1/2+x,1/2-y,1/2+z
loop_
_atom_site_type_symbol
_atom_site_label
_atom_site_fract_x
_atom_site_fract_y
_atom_site_fract_z
Si Si1 0.898320 0.864951 0.530870
Si Si2 0.849069 0.061794 0.736166
Si Si3 0.551400 0.971100 0.949005
Si Si4 0.659466 0.772159 0.738861
Si Si5 0.652577 0.243457 0.590823
Si Si6 0.220616 0.033538 0.179722
O O1 0.835908 0.882285 0.353645
O O2 0.689276 0.832624 0.631810
O O3 0.112591 0.814378 0.539531
O O4 0.003429 0.925007 0.613890
O O5 0.701762 0.068931 0.573690
O O6 0.729902 0.005624 0.831590
O O7 0.120670 0.035491 0.706279
O O8 0.341779 0.941536 0.839090
O O9 0.421253 0.024748 0.047191
O O10 0.662969 0.788556 0.922094
O O11 0.405060 0.740272 0.688356
O O12 0.904028 0.733352 0.690859
#
# Coordination Sequence:
#
# PCOD9136986 Si02
#       6
#     4   4   4   4   4   4
#     4  10  24  36  70  87 138 169 222 262 344 378
#     4  11  20  39  56  93 126 174 208 265 309 394
#     4  10  22  32  66  81 140 169 218 254 322 370
#     4  10  23  44  73  97 131 172 224 284 339 394
#     4  10  23  44  73  97 131 172 224 284 339 394
#     4  11  20  39  56  93 126 174 208 265 309 394
#
# _framework density 23.604202999999998
#
# number of rings (size 3 to 8) (size 9 to 14) (size 15 to 20)
#    1.000    0.667    3.333    1.000    2.333    0.000 
#    0.000    6.667    3.667    0.000    0.000    0.000 
#    0.000    0.000    0.000    0.000    0.000    0.000 
#
# Total GULP energy -67010.568905 kJ/mol
# GULP energy per Si atom -5584.214075 kJ/mol
# Density = 2.355048 g / cm^3
# Si number density = 23.604203 Si / 1000 Ang^3
#
#
#
# Elastic Constant Matrix: (Units=GPa)
#
#
# Indices 1 2 3 4 5 6 
#
# 1 118.6160 4.1603 41.8387 0.0000 16.4298 0.0000
# 2 4.1603 49.0052 17.4314 0.0000 -0.5857 0.0000
# 3 41.8387 17.4314 116.6230 0.0000 23.8482 0.0000
# 4 0.0000 0.0000 0.0000 43.2649 0.0000 -5.2181
# 5 16.4298 -0.5857 23.8482 0.0000 50.0986 0.0000
# 6 0.0000 0.0000 0.0000 -5.2181 0.0000 7.5095
#
#
#
# Elastic Compliance Matrix: (Units=1/GPa)
#
#
# Indices 1 2 3 4 5 6 
#
# 1 0.009785 0.000291 -0.003211 0.000000 -0.001677 0.000000
# 2 0.000291 0.021739 -0.003751 0.000000 0.001944 0.000000
# 3 -0.003211 -0.003751 0.011168 0.000000 -0.004307 0.000000
# 4 0.000000 0.000000 0.000000 0.025228 0.000000 0.017530
# 5 -0.001677 0.001944 -0.004307 0.000000 0.022584 0.000000
# 6 0.000000 0.000000 0.000000 0.017530 0.000000 0.145346
#
#
# Mechanical properties :
#
#
# Convention : Reuss Voigt Hill
#
# Bulk Modulus (GPa) = 34.07141 45.67833 39.87487
# Shear Modulus (GPa) = 19.30686 34.89551 27.10119
#
# Velocity S-wave (km/s) = 2.86307 3.84912 3.39211
# Velocity P-wave (km/s) = 5.03938 6.25684 5.68082
#
# Compressibility (1/GPa) = 0.02935012
#
# Stress axis : x y z
#
# Youngs Moduli (GPa) = 102.19439 46.00047 89.54081
#
# Poissons Ratio (x) = -0.01341 0.28752
# Poissons Ratio (y) = -0.02978 0.33591
# Poissons Ratio (z) = 0.32816 0.17257
#
# Static dielectric constant tensor:
#      x y z
#    x 1.903170 0.000000 -0.000430 
#    y 0.000000 1.919400 0.000000 
#    z -0.000430 0.000000 1.884890 
# 
# From -- ./inp_files/3966.got.cif
#   From: 2010.05.17/outbox.cif.g08.bks.cpg/sg9_2_cif.got.tgz:3966.got - 2010.06.03 20:04:27.
