data_PCOD9136962
_publ_section_title
;
Structure prediction by ZEFSAII (Michael W. Deem and Ramdas Pophale) SiO2 
 PCOD9136962
Probable space group: C C
;
_chemical_formula_sum "Si O2"
_cell_formula_units_Z 28
_cell_length_a 9.848192
_cell_length_b 11.804731
_cell_length_c 25.679109
_cell_angle_alpha 90.000000
_cell_angle_beta 155.672352
_cell_angle_gamma 90.000000
_cell_volume 1229.819542
_symmetry_space_group_name_H-M "C C"
_symmetry_group_IT_number 9
_symmetry_cell_setting 'monoclinic'
loop_
_space_group_symop_operation_xyz
x,y,z
x,-y,1/2+z
1/2+x,1/2+y,z
1/2+x,1/2-y,1/2+z
loop_
_atom_site_type_symbol
_atom_site_label
_atom_site_fract_x
_atom_site_fract_y
_atom_site_fract_z
Si Si1 0.889380 0.284583 0.111660
Si Si2 0.934660 0.861818 0.379450
Si Si3 0.424822 0.557293 0.513978
Si Si4 0.418996 0.928218 0.461858
Si Si5 0.424500 0.303566 0.221083
Si Si6 0.193637 0.325082 0.032560
Si Si7 0.996664 0.447288 0.773807
O O1 0.658679 0.385552 0.052207
O O2 0.206077 0.288133 0.260771
O O3 0.048135 0.308084 0.110703
O O4 0.704028 0.164867 0.051339
O O5 0.260672 0.900093 0.462639
O O6 0.986272 0.788150 0.449476
O O7 0.733855 0.973817 0.323095
O O8 0.343146 0.652170 0.528054
O O9 0.093320 0.522036 0.367347
O O10 0.636668 0.469669 0.622651
O O11 0.131983 0.902307 0.319834
O O12 0.524719 0.057377 0.490664
O O13 0.445517 0.302243 0.166730
O O14 0.561342 0.184926 0.289849
#
# Coordination Sequence:
#
# PCOD9136962 Si02
#       7
#     4   4   4   4   4   4   4
#     4  10  21  47  69  93 142 186 223 300 361 422
#     4  10  24  45  69 108 141 184 238 300 366 431
#     4  11  23  43  73 101 145 185 239 297 369 422
#     4  11  24  44  72  98 146 186 234 304 360 428
#     4  11  25  44  69 105 136 185 248 287 369 442
#     4  12  26  43  70 109 138 186 244 299 358 451
#     4  11  23  46  74 100 142 194 234 305 363 446
#
# _framework density 22.767569000000002
#
# number of rings (size 3 to 8) (size 9 to 14) (size 15 to 20)
#    0.000    1.143    2.857    2.571    6.000    0.000 
#   10.286    0.000    0.000    0.000    0.000    0.000 
#    0.000    0.000    0.000    0.000    0.000    0.000 
#
# Total GULP energy -78193.391712 kJ/mol
# GULP energy per Si atom -5585.242265 kJ/mol
# Density = 2.271575 g / cm^3
# Si number density = 22.767569 Si / 1000 Ang^3
#
#
#
# Elastic Constant Matrix: (Units=GPa)
#
#
# Indices 1 2 3 4 5 6 
#
# 1 77.7932 12.3216 23.6006 0.0007 -9.6175 -0.0003
# 2 12.3216 60.0399 13.6155 0.0012 6.8292 0.0010
# 3 23.6006 13.6155 78.3069 0.0095 -26.8760 0.0014
# 4 0.0007 0.0012 0.0095 34.2565 0.0016 -1.3310
# 5 -9.6175 6.8292 -26.8760 0.0016 37.3419 -0.0002
# 6 -0.0003 0.0010 0.0014 -1.3310 -0.0002 37.2182
#
#
#
# Elastic Compliance Matrix: (Units=1/GPa)
#
#
# Indices 1 2 3 4 5 6 
#
# 1 0.014467 -0.002414 -0.003333 0.000001 0.001768 0.000000
# 2 -0.002414 0.019282 -0.005377 0.000001 -0.008018 0.000000
# 3 -0.003333 -0.005377 0.019592 -0.000006 0.014226 -0.000001
# 4 0.000001 0.000001 -0.000006 0.029232 -0.000006 0.001045
# 5 0.001768 -0.008018 0.014226 -0.000006 0.038940 0.000000
# 6 0.000000 0.000000 -0.000001 0.001045 0.000000 0.026906
#
#
# Mechanical properties :
#
#
# Convention : Reuss Voigt Hill
#
# Bulk Modulus (GPa) = 32.16222 35.02394 33.59308
# Shear Modulus (GPa) = 27.61917 32.87016 30.24467
#
# Velocity S-wave (km/s) = 3.48673 3.80376 3.64869
# Velocity P-wave (km/s) = 5.51060 5.89136 5.70416
#
# Compressibility (1/GPa) = 0.03109238
#
# Stress axis : x y z
#
# Youngs Moduli (GPa) = 69.12351 51.86063 51.04009
#
# Poissons Ratio (x) = 0.12520 0.17014
# Poissons Ratio (y) = 0.16687 0.27445
# Poissons Ratio (z) = 0.23042 0.27886
#
# Static dielectric constant tensor:
#      x y z
#    x 1.850510 0.000000 0.028990 
#    y 0.000000 1.864180 0.000000 
#    z 0.028990 0.000000 1.952050 
# 
# From -- ./inp_files/14269.got.cif
#   From: 2010.05.17/outbox.cif.g08.bks.cpg/sg9_8_cif.got.tgz:14269.got - 2010.06.03 20:04:27.
