data_PCOD9136246
_publ_section_title
;
Structure prediction by ZEFSAII (Michael W. Deem and Ramdas Pophale) SiO2 
 PCOD9136246
Probable space group: C C
;
_chemical_formula_sum "Si O2"
_cell_formula_units_Z 32
_cell_length_a 8.837182
_cell_length_b 20.604444
_cell_length_c 12.851087
_cell_angle_alpha 90.000000
_cell_angle_beta 135.809965
_cell_angle_gamma 90.000000
_cell_volume 1631.069687
_symmetry_space_group_name_H-M "C C"
_symmetry_group_IT_number 9
_symmetry_cell_setting 'monoclinic'
loop_
_space_group_symop_operation_xyz
x,y,z
x,-y,1/2+z
1/2+x,1/2+y,z
1/2+x,1/2-y,1/2+z
loop_
_atom_site_type_symbol
_atom_site_label
_atom_site_fract_x
_atom_site_fract_y
_atom_site_fract_z
Si Si1 0.748590 0.057609 0.491420
Si Si2 0.946673 0.049930 0.363931
Si Si3 0.766481 0.709124 0.025503
Si Si4 0.637220 0.679427 0.393320
Si Si5 0.433224 0.824518 0.837779
Si Si6 0.593866 0.928496 0.509860
Si Si7 0.604614 0.420944 0.344218
Si Si8 0.682036 0.213912 0.081353
O O1 0.867690 0.062812 0.440609
O O2 0.542174 0.104751 0.392920
O O3 0.917828 0.077633 0.664938
O O4 0.673007 0.983661 0.470939
O O5 0.121410 0.104703 0.419805
O O6 0.739656 0.059609 0.185271
O O7 0.042958 0.978632 0.392875
O O8 0.839788 0.690442 0.177622
O O9 0.974083 0.721738 0.053547
O O10 0.621416 0.772783 0.953295
O O11 0.632509 0.648644 0.912041
O O12 0.759414 0.682645 0.344032
O O13 0.726161 0.726785 0.525915
O O14 0.391267 0.703406 0.255623
O O15 0.340309 0.935350 0.410400
O O16 0.642176 0.854277 0.501395
#
# Coordination Sequence:
#
# PCOD9136246 Si02
#       8
#     4   4   4   4   4   4   4   4
#     4  11  22  38  62  89 119 158 204 251 305 364
#     4  10  22  39  60  85 120 161 199 247 307 367
#     4  11  23  41  64  89 123 161 203 250 306 367
#     4  11  23  39  60  87 120 156 199 249 302 359
#     4  12  24  40  62  90 123 159 202 253 305 362
#     4   9  21  40  58  84 119 155 198 248 303 364
#     4  10  22  39  61  89 118 155 203 252 304 362
#     4  10  21  40  61  85 118 157 198 246 302 363
#
# _framework density 19.619026999999999
#
# number of rings (size 3 to 8) (size 9 to 14) (size 15 to 20)
#    0.000    1.500    0.000    6.000    0.000    9.000 
#    0.000    1.250    0.000    0.000    0.000    0.000 
#    0.000    0.000    0.000    0.000    0.000    0.000 
#
# Total GULP energy -89431.326810 kJ/mol
# GULP energy per Si atom -5589.457926 kJ/mol
# Density = 1.957437 g / cm^3
# Si number density = 19.619027 Si / 1000 Ang^3
#
#
#
# Elastic Constant Matrix: (Units=GPa)
#
#
# Indices 1 2 3 4 5 6 
#
# 1 65.7324 16.9520 1.1575 0.0000 -19.3829 0.0000
# 2 16.9520 48.5767 2.0819 0.0000 -14.6893 0.0000
# 3 1.1575 2.0819 19.8970 0.0000 -14.2974 0.0000
# 4 0.0000 0.0000 0.0000 25.4278 0.0000 4.6659
# 5 -19.3829 -14.6893 -14.2974 0.0000 30.1864 0.0000
# 6 0.0000 0.0000 0.0000 4.6659 0.0000 32.8257
#
#
#
# Elastic Compliance Matrix: (Units=1/GPa)
#
#
# Indices 1 2 3 4 5 6 
#
# 1 0.020893 -0.002394 0.011882 0.000000 0.017878 0.000000
# 2 -0.002394 0.025516 0.008015 0.000000 0.014675 0.000000
# 3 0.011882 0.008015 0.086430 0.000000 0.052466 0.000000
# 4 0.000000 0.000000 0.000000 0.040380 0.000000 -0.005740
# 5 0.017878 0.014675 0.052466 0.000000 0.076599 0.000000
# 6 0.000000 0.000000 0.000000 -0.005740 0.000000 0.031280
#
#
# Mechanical properties :
#
#
# Convention : Reuss Voigt Hill
#
# Bulk Modulus (GPa) = 5.95792 19.39877 12.67835
# Shear Modulus (GPa) = 16.55409 25.28894 20.92151
#
# Velocity S-wave (km/s) = 2.90794 3.59416 3.26910
# Velocity P-wave (km/s) = 3.78394 5.20895 4.55255
#
# Compressibility (1/GPa) = 0.16784375
#
# Stress axis : x y z
#
# Youngs Moduli (GPa) = 47.86224 39.19157 11.57011
#
# Poissons Ratio (x) = 0.09383 -0.13748
# Poissons Ratio (y) = 0.11459 -0.09273
# Poissons Ratio (z) = -0.56870 -0.31411
#
# Static dielectric constant tensor:
#      x y z
#    x 1.645390 0.000000 0.010690 
#    y 0.000000 1.696070 0.000000 
#    z 0.010690 0.000000 1.670220 
# 
# From -- ./inp_files/5609.got.cif
#   From: 2010.05.17/outbox.cif.g08.bks.cpg/sg9_3_cif.got.tgz:5609.got - 2010.06.03 20:04:27.
