data_PCOD9136581
_publ_section_title
;
Structure prediction by ZEFSAII (Michael W. Deem and Ramdas Pophale) SiO2 
 PCOD9136581
Probable space group: C C
;
_chemical_formula_sum "Si O2"
_cell_formula_units_Z 32
_cell_length_a 17.517346
_cell_length_b 6.862376
_cell_length_c 28.546579
_cell_angle_alpha 90.000000
_cell_angle_beta 26.221807
_cell_angle_gamma 90.000000
_cell_volume 1516.244067
_symmetry_space_group_name_H-M "C C"
_symmetry_group_IT_number 9
_symmetry_cell_setting 'monoclinic'
loop_
_space_group_symop_operation_xyz
x,y,z
x,-y,1/2+z
1/2+x,1/2+y,z
1/2+x,1/2-y,1/2+z
loop_
_atom_site_type_symbol
_atom_site_label
_atom_site_fract_x
_atom_site_fract_y
_atom_site_fract_z
Si Si1 0.111150 0.700729 0.913550
Si Si2 0.963743 0.453909 0.373264
Si Si3 0.941933 0.941202 0.935501
Si Si4 0.164073 0.967691 0.968022
Si Si5 0.443487 0.179587 0.547480
Si Si6 0.738767 0.710892 0.567390
Si Si7 0.925662 0.934812 0.187826
Si Si8 0.739142 0.262919 0.247235
O O1 0.956248 0.826665 0.976657
O O2 0.249325 0.677791 0.795791
O O3 0.190203 0.809748 0.913931
O O4 0.050060 0.493476 0.965512
O O5 0.843751 0.484008 0.394272
O O6 0.860876 0.556708 0.472889
O O7 0.966232 0.224411 0.383035
O O8 0.140390 0.579242 0.276212
O O9 0.097901 0.097167 0.847603
O O10 0.772990 0.077088 0.025090
O O11 0.033288 0.894510 0.081133
O O12 0.070558 0.149082 0.994257
O O13 0.303744 0.233378 0.584551
O O14 0.343003 0.123809 0.650161
O O15 0.551004 0.624006 0.661245
O O16 0.866936 0.159861 0.213874
#
# Coordination Sequence:
#
# PCOD9136581 Si02
#       8
#     4   4   4   4   4   4   4   4
#     4  12  23  41  69  96 132 177 223 277 333 397
#     4  10  21  44  64  96 132 172 217 279 328 395
#     4  11  21  42  71  93 129 181 220 271 343 394
#     4  10  25  42  66  96 135 172 222 278 332 397
#     4  11  23  41  64  97 132 173 223 274 330 401
#     4  10  21  42  65  95 131 173 222 273 330 397
#     4  10  23  44  64  94 138 173 220 280 331 391
#     4  10  23  40  67  95 135 175 223 272 341 398
#
# _framework density 21.104782
#
# number of rings (size 3 to 8) (size 9 to 14) (size 15 to 20)
#    0.000    1.500    3.750    0.750    3.500    3.000 
#    4.500    0.000    0.000    0.000    0.000    0.000 
#    0.000    0.000    0.000    0.000    0.000    0.000 
#
# Total GULP energy -89265.911248 kJ/mol
# GULP energy per Si atom -5579.119453 kJ/mol
# Density = 2.105675 g / cm^3
# Si number density = 21.104782 Si / 1000 Ang^3
#
#
#
# Elastic Constant Matrix: (Units=GPa)
#
#
# Indices 1 2 3 4 5 6 
#
# 1 128.5361 50.7348 14.7454 -0.0032 -9.2578 0.0051
# 2 50.7348 95.3814 21.6391 -0.0086 -1.7583 0.0079
# 3 14.7454 21.6391 46.9691 0.0009 -6.9838 0.0021
# 4 -0.0032 -0.0086 0.0009 15.0545 -0.0008 0.9396
# 5 -9.2578 -1.7583 -6.9838 -0.0008 24.1770 0.0038
# 6 0.0051 0.0079 0.0021 0.9396 0.0038 39.6721
#
#
#
# Elastic Compliance Matrix: (Units=1/GPa)
#
#
# Indices 1 2 3 4 5 6 
#
# 1 0.010136 -0.005273 -0.000243 -0.000001 0.003428 -0.000001
# 2 -0.005273 0.014464 -0.005383 0.000007 -0.002522 -0.000002
# 3 -0.000243 -0.005383 0.024842 -0.000004 0.006691 -0.000001
# 4 -0.000001 0.000007 -0.000004 0.066524 0.000002 -0.001576
# 5 0.003428 -0.002522 0.006691 0.000002 0.044424 -0.000005
# 6 -0.000001 -0.000002 -0.000001 -0.001576 -0.000005 0.025244
#
#
# Mechanical properties :
#
#
# Convention : Reuss Voigt Hill
#
# Bulk Modulus (GPa) = 36.17558 49.45833 42.81696
# Shear Modulus (GPa) = 23.07909 28.03186 25.55548
#
# Velocity S-wave (km/s) = 3.31047 3.64843 3.48355
# Velocity P-wave (km/s) = 5.63830 6.42134 6.04252
#
# Compressibility (1/GPa) = 0.02764295
#
# Stress axis : x y z
#
# Youngs Moduli (GPa) = 98.65762 69.13759 40.25453
#
# Poissons Ratio (x) = 0.36458 0.00978
# Poissons Ratio (y) = 0.52024 0.21670
# Poissons Ratio (z) = 0.02398 0.37218
#
# Static dielectric constant tensor:
#      x y z
#    x 1.782950 0.000000 -0.012630 
#    y 0.000000 1.755450 0.000000 
#    z -0.012630 0.000000 1.785050 
# 
# From -- ./inp_files/26390.got.cif
#   From: 2010.05.17/outbox.cif.g08.bks.cpg/sg9_14_cif.got.tgz:26390.got - 2010.06.03 20:04:27.
