data_PCOD9136459
_publ_section_title
;
Structure prediction by ZEFSAII (Michael W. Deem and Ramdas Pophale) SiO2 
 PCOD9136459
Probable space group: C C
;
_chemical_formula_sum "Si O2"
_cell_formula_units_Z 28
_cell_length_a 5.294017
_cell_length_b 14.131678
_cell_length_c 14.068527
_cell_angle_alpha 90.000000
_cell_angle_beta 98.923110
_cell_angle_gamma 90.000000
_cell_volume 1039.775376
_symmetry_space_group_name_H-M "C C"
_symmetry_group_IT_number 9
_symmetry_cell_setting 'monoclinic'
loop_
_space_group_symop_operation_xyz
x,y,z
x,-y,1/2+z
1/2+x,1/2+y,z
1/2+x,1/2-y,1/2+z
loop_
_atom_site_type_symbol
_atom_site_label
_atom_site_fract_x
_atom_site_fract_y
_atom_site_fract_z
Si Si1 0.389370 0.723340 0.709280
Si Si2 0.545784 0.518056 0.217706
Si Si3 0.541339 0.666391 0.074324
Si Si4 0.377887 0.941737 0.908320
Si Si5 0.144459 0.168225 0.545143
Si Si6 0.058060 0.581222 0.781978
Si Si7 0.214376 0.743881 0.401659
O O1 0.443290 0.659012 0.619208
O O2 0.167451 0.684288 0.765154
O O3 0.634975 0.731169 0.790683
O O4 0.302975 0.817394 0.649948
O O5 0.447448 0.572440 0.119069
O O6 0.670861 0.577362 0.312881
O O7 0.297374 0.475848 0.253830
O O8 0.795164 0.450313 0.215443
O O9 0.365792 0.757924 0.086995
O O10 0.598154 0.676843 0.966463
O O11 0.502484 0.042058 0.885177
O O12 0.579923 0.857035 0.913307
O O13 0.248263 0.926539 0.002246
O O14 0.999484 0.225870 0.452665
#
# Coordination Sequence:
#
# PCOD9136459 Si02
#       7
#     4   4   4   4   4   4   4
#     4  11  23  42  70 104 140 182 241 301 346 422
#     4  10  22  43  71  96 137 192 228 282 354 431
#     4  10  23  40  69 101 135 189 235 298 348 424
#     4   9  20  40  66  97 139 183 233 275 362 420
#     4  10  23  36  70 109 140 182 246 299 359 412
#     4  10  24  40  72 100 139 184 232 284 366 415
#     4  10  21  41  66 107 136 184 241 295 347 426
#
# _framework density 26.928892999999999
#
# number of rings (size 3 to 8) (size 9 to 14) (size 15 to 20)
#    0.857    1.143    1.429    0.857   10.000    0.000 
#    0.000    5.714    0.000    0.000    0.000    0.000 
#    0.000    0.000    0.000    0.000    0.000    0.000 
#
# Total GULP energy -78183.398335 kJ/mol
# GULP energy per Si atom -5584.528453 kJ/mol
# Density = 2.686760 g / cm^3
# Si number density = 26.928893 Si / 1000 Ang^3
#
#
#
# Elastic Constant Matrix: (Units=GPa)
#
#
# Indices 1 2 3 4 5 6 
#
# 1 115.6930 15.1485 39.1676 0.0000 -8.7036 0.0000
# 2 15.1485 30.2294 17.8730 0.0000 -8.9805 0.0000
# 3 39.1676 17.8730 149.7998 0.0000 -6.0606 0.0000
# 4 0.0000 0.0000 0.0000 43.8010 0.0000 -7.9237
# 5 -8.7036 -8.9805 -6.0606 0.0000 53.9590 0.0000
# 6 0.0000 0.0000 0.0000 -7.9237 0.0000 34.9849
#
#
#
# Elastic Compliance Matrix: (Units=1/GPa)
#
#
# Indices 1 2 3 4 5 6 
#
# 1 0.009879 -0.003454 -0.002139 0.000000 0.000778 0.000000
# 2 -0.003454 0.038483 -0.003467 0.000000 0.005458 0.000000
# 3 -0.002139 -0.003467 0.007646 0.000000 -0.000063 0.000000
# 4 0.000000 0.000000 0.000000 0.023806 0.000000 0.005392
# 5 0.000778 0.005458 -0.000063 0.000000 0.019559 0.000000
# 6 0.000000 0.000000 0.000000 0.005392 0.000000 0.029805
#
#
# Mechanical properties :
#
#
# Convention : Reuss Voigt Hill
#
# Bulk Modulus (GPa) = 26.39529 48.90003 37.64766
# Shear Modulus (GPa) = 31.26390 41.45118 36.35754
#
# Velocity S-wave (km/s) = 3.41101 3.92763 3.67840
# Velocity P-wave (km/s) = 5.03353 6.22629 5.66141
#
# Compressibility (1/GPa) = 0.03788554
#
# Stress axis : x y z
#
# Youngs Moduli (GPa) = 101.22819 25.98548 130.78592
#
# Poissons Ratio (x) = 0.08976 0.27979
# Poissons Ratio (y) = 0.34968 0.45350
# Poissons Ratio (z) = 0.21656 0.09010
#
# Static dielectric constant tensor:
#      x y z
#    x 2.068220 0.000000 0.009410 
#    y 0.000000 2.330320 0.000000 
#    z 0.009410 0.000000 2.100400 
# 
# From -- ./inp_files/21824.got.cif
#   From: 2010.05.17/outbox.cif.g08.bks.cpg/sg9_11_cif.got.tgz:21824.got - 2010.06.03 20:04:27.
