data_PCOD9136685
_publ_section_title
;
Structure prediction by ZEFSAII (Michael W. Deem and Ramdas Pophale) SiO2 
 PCOD9136685
Probable space group: C C
;
_chemical_formula_sum "Si O2"
_cell_formula_units_Z 32
_cell_length_a 18.400515
_cell_length_b 7.636188
_cell_length_c 30.655025
_cell_angle_alpha 90.000000
_cell_angle_beta 160.287292
_cell_angle_gamma 90.000000
_cell_volume 1452.880317
_symmetry_space_group_name_H-M "C C"
_symmetry_group_IT_number 9
_symmetry_cell_setting 'monoclinic'
loop_
_space_group_symop_operation_xyz
x,y,z
x,-y,1/2+z
1/2+x,1/2+y,z
1/2+x,1/2-y,1/2+z
loop_
_atom_site_type_symbol
_atom_site_label
_atom_site_fract_x
_atom_site_fract_y
_atom_site_fract_z
Si Si1 0.049010 0.062272 0.606370
Si Si2 0.749107 0.213498 0.579960
Si Si3 0.157933 0.562825 0.338382
Si Si4 0.013579 0.358571 0.338929
Si Si5 0.952633 0.254138 0.104707
Si Si6 0.296014 0.214915 0.369486
Si Si7 0.043925 0.976925 0.795668
Si Si8 0.799075 0.654525 0.014454
O O1 0.298519 0.088195 0.740837
O O2 0.903095 0.127910 0.483180
O O3 0.967211 0.192461 0.597773
O O4 0.993576 0.856476 0.583138
O O5 0.540405 0.241569 0.492364
O O6 0.690526 0.273219 0.497625
O O7 0.965829 0.326707 0.710288
O O8 0.848254 0.029856 0.653271
O O9 0.190411 0.390761 0.328385
O O10 0.082292 0.507207 0.343911
O O11 0.215229 0.314876 0.483865
O O12 0.981996 0.187696 0.290774
O O13 0.922837 0.464607 0.086904
O O14 0.145643 0.182077 0.242782
O O15 0.244567 0.072418 0.377607
O O16 0.127433 0.118051 0.878471
#
# Coordination Sequence:
#
# PCOD9136685 Si02
#       8
#     4   4   4   4   4   4   4   4
#     4  11  22  42  71  97 133 187 230 288 361 421
#     4  12  24  43  72 101 138 192 231 299 370 417
#     4  10  21  43  63  93 133 170 240 286 336 435
#     4   9  22  42  67  98 132 188 224 292 361 410
#     4  10  23  43  63 100 145 172 239 296 341 438
#     4  11  24  44  69  99 141 191 229 299 370 422
#     4  10  24  45  67 104 148 176 248 301 349 453
#     4  11  24  44  68 104 142 182 241 297 348 444
#
# _framework density 22.025214999999999
#
# number of rings (size 3 to 8) (size 9 to 14) (size 15 to 20)
#    0.000    1.500    2.500    2.250    1.750    5.000 
#    6.750    0.000    0.000    0.000    0.000    0.000 
#    0.000    0.000    0.000    0.000    0.000    0.000 
#
# Total GULP energy -89155.532839 kJ/mol
# GULP energy per Si atom -5572.220802 kJ/mol
# Density = 2.197508 g / cm^3
# Si number density = 22.025215 Si / 1000 Ang^3
#
#
#
# Elastic Constant Matrix: (Units=GPa)
#
#
# Indices 1 2 3 4 5 6 
#
# 1 83.3135 21.4242 24.4756 -0.0027 9.3088 0.0009
# 2 21.4242 94.8375 15.8216 -0.0026 4.0097 0.0018
# 3 24.4756 15.8216 96.9758 -0.0033 9.1811 0.0013
# 4 -0.0027 -0.0026 -0.0033 29.8788 -0.0008 -3.4794
# 5 9.3088 4.0097 9.1811 -0.0008 43.4086 -0.0006
# 6 0.0009 0.0018 0.0013 -3.4794 -0.0006 15.5466
#
#
#
# Elastic Compliance Matrix: (Units=1/GPa)
#
#
# Indices 1 2 3 4 5 6 
#
# 1 0.013728 -0.002536 -0.002852 0.000001 -0.002107 0.000000
# 2 -0.002536 0.011325 -0.001184 0.000000 -0.000252 -0.000001
# 3 -0.002852 -0.001184 0.011384 0.000001 -0.001687 -0.000001
# 4 0.000001 0.000000 0.000001 0.034364 0.000000 0.007691
# 5 -0.002107 -0.000252 -0.001687 0.000000 0.023869 0.000001
# 6 0.000000 -0.000001 -0.000001 0.007691 0.000001 0.066044
#
#
# Mechanical properties :
#
#
# Convention : Reuss Voigt Hill
#
# Bulk Modulus (GPa) = 42.92855 44.28550 43.60702
# Shear Modulus (GPa) = 27.52949 31.99383 29.76166
#
# Velocity S-wave (km/s) = 3.53924 3.81543 3.67993
# Velocity P-wave (km/s) = 6.01952 6.28971 6.15609
#
# Compressibility (1/GPa) = 0.02329452
#
# Stress axis : x y z
#
# Youngs Moduli (GPa) = 72.84275 88.29647 87.83951
#
# Poissons Ratio (x) = 0.22396 0.25048
# Poissons Ratio (y) = 0.18476 0.10398
# Poissons Ratio (z) = 0.20772 0.10452
#
# Static dielectric constant tensor:
#      x y z
#    x 1.835060 0.000000 -0.072640 
#    y 0.000000 1.899930 0.000000 
#    z -0.072640 0.000000 1.855340 
# 
# From -- ./inp_files/19138.got.cif
#   From: 2010.05.17/outbox.cif.g08.bks.cpg/sg9_10_cif.got.tgz:19138.got - 2010.06.03 20:04:27.
