data_PCOD9136421
_publ_section_title
;
Structure prediction by ZEFSAII (Michael W. Deem and Ramdas Pophale) SiO2 
 PCOD9136421
Probable space group: C C
;
_chemical_formula_sum "Si O2"
_cell_formula_units_Z 32
_cell_length_a 18.519443
_cell_length_b 5.175419
_cell_length_c 13.601163
_cell_angle_alpha 90.000000
_cell_angle_beta 96.571178
_cell_angle_gamma 90.000000
_cell_volume 1295.051242
_symmetry_space_group_name_H-M "C C"
_symmetry_group_IT_number 9
_symmetry_cell_setting 'monoclinic'
loop_
_space_group_symop_operation_xyz
x,y,z
x,-y,1/2+z
1/2+x,1/2+y,z
1/2+x,1/2-y,1/2+z
loop_
_atom_site_type_symbol
_atom_site_label
_atom_site_fract_x
_atom_site_fract_y
_atom_site_fract_z
Si Si1 0.583630 0.197982 0.322090
Si Si2 0.892557 0.330884 0.981607
Si Si3 0.648306 0.724580 0.580292
Si Si4 0.773136 0.512803 0.207041
Si Si5 0.922759 0.348324 0.758065
Si Si6 0.341102 0.653474 0.572279
Si Si7 0.171199 0.796893 0.850996
Si Si8 0.556472 0.780462 0.051375
O O1 0.507924 0.106525 0.263148
O O2 0.611960 0.487352 0.308763
O O3 0.567373 0.198218 0.435675
O O4 0.645487 0.986165 0.316598
O O5 0.864626 0.619070 0.000395
O O6 0.970014 0.301086 0.049740
O O7 0.838966 0.114607 0.016293
O O8 0.907720 0.275402 0.869177
O O9 0.718677 0.697968 0.658770
O O10 0.672228 0.704427 0.469558
O O11 0.593327 0.485500 0.588639
O O12 0.602685 0.978722 0.595871
O O13 0.858317 0.441959 0.228361
O O14 0.772367 0.734519 0.121466
O O15 0.743817 0.621764 0.305261
O O16 0.900320 0.146995 0.669879
#
# Coordination Sequence:
#
# PCOD9136421 Si02
#       8
#     4   4   4   4   4   4   4   4
#     4   9  20  42  66  95 125 169 226 273 331 399
#     4  11  22  46  68  97 138 180 230 286 347 394
#     4  10  21  41  62  95 132 167 221 276 329 412
#     4  10  25  44  63 103 133 178 223 272 342 414
#     4   9  24  46  67 103 134 178 228 291 336 417
#     4  10  26  40  65 101 132 182 228 276 344 412
#     4  10  22  41  67  91 129 177 213 274 339 388
#     4   9  20  38  68  93 125 173 221 276 334 396
#
# _framework density 24.709446
#
# number of rings (size 3 to 8) (size 9 to 14) (size 15 to 20)
#    0.750    1.500    0.000    0.750    1.750   11.000 
#    4.500    0.000    0.000    0.000    0.000    0.000 
#    0.000    0.000    0.000    0.000    0.000    0.000 
#
# Total GULP energy -89433.209266 kJ/mol
# GULP energy per Si atom -5589.575579 kJ/mol
# Density = 2.465321 g / cm^3
# Si number density = 24.709446 Si / 1000 Ang^3
#
#
#
# Elastic Constant Matrix: (Units=GPa)
#
#
# Indices 1 2 3 4 5 6 
#
# 1 264.3556 297.2477 35.5972 0.0000 68.7627 0.0000
# 2 297.2477 563.1578 55.7231 0.0000 118.6988 0.0000
# 3 35.5972 55.7231 131.8822 0.0000 -5.3983 0.0000
# 4 0.0000 0.0000 0.0000 -1.3955 0.0000 -1.9203
# 5 68.7627 118.6988 -5.3983 0.0000 78.3908 0.0000
# 6 0.0000 0.0000 0.0000 -1.9203 0.0000 22.1444
#
#
#
# Elastic Compliance Matrix: (Units=1/GPa)
#
#
# Indices 1 2 3 4 5 6 
#
# 1 0.009415 -0.004637 -0.000635 0.000000 -0.001282 0.000000
# 2 -0.004637 0.005121 -0.001066 0.000000 -0.003761 0.000000
# 3 -0.000635 -0.001066 0.008317 0.000000 0.002744 0.000000
# 4 0.000000 0.000000 0.000000 -0.640203 0.000000 -0.055516
# 5 -0.001282 -0.003761 0.002744 0.000000 0.019764 0.000000
# 6 0.000000 0.000000 0.000000 -0.055516 0.000000 0.040344
#
#
# Mechanical properties :
#
#
# Convention : Reuss Voigt Hill
#
# Bulk Modulus (GPa) = 98.25207 192.94796 145.60001
# Shear Modulus (GPa) = -9.23917 57.88311 24.32197
#
# Velocity S-wave (km/s) = -1.93578 4.84524 3.14079
# Velocity P-wave (km/s) = 5.90364 10.46700 8.49738
#
# Compressibility (1/GPa) = 0.01017790
#
# Stress axis : x y z
#
# Youngs Moduli (GPa) = 106.21240 195.26907 120.24018
#
# Poissons Ratio (x) = 0.90537 0.07632
# Poissons Ratio (y) = 0.49246 0.12821
# Poissons Ratio (z) = 0.06742 0.20821
#
# Static dielectric constant tensor:
#      x y z
#    x 1.832170 0.000000 -0.052030 
#    y 0.000000 1.943310 0.000000 
#    z -0.052030 0.000000 1.956590 
# 
# From -- ./inp_files/27056.got.cif
#   From: 2010.05.17/outbox.cif.g08.bks.cpg/sg9_14_cif.got.tgz:27056.got - 2010.06.03 20:04:27.
