data_PCOD9136280
_publ_section_title
;
Structure prediction by ZEFSAII (Michael W. Deem and Ramdas Pophale) SiO2 
 PCOD9136280
Probable space group: C C
;
_chemical_formula_sum "Si O2"
_cell_formula_units_Z 28
_cell_length_a 5.194951
_cell_length_b 22.863730
_cell_length_c 12.810163
_cell_angle_alpha 90.000000
_cell_angle_beta 60.949638
_cell_angle_gamma 90.000000
_cell_volume 1330.119417
_symmetry_space_group_name_H-M "C C"
_symmetry_group_IT_number 9
_symmetry_cell_setting 'monoclinic'
loop_
_space_group_symop_operation_xyz
x,y,z
x,-y,1/2+z
1/2+x,1/2+y,z
1/2+x,1/2-y,1/2+z
loop_
_atom_site_type_symbol
_atom_site_label
_atom_site_fract_x
_atom_site_fract_y
_atom_site_fract_z
Si Si1 0.537510 0.606702 0.162840
Si Si2 0.770903 0.505403 0.969778
Si Si3 0.318003 0.102596 0.599670
Si Si4 0.169399 0.658118 0.050643
Si Si5 0.907156 0.056053 0.859136
Si Si6 0.376986 0.354429 0.911631
Si Si7 0.303856 0.208122 0.479191
O O1 0.284786 0.634578 0.139839
O O2 0.456178 0.603412 0.300301
O O3 0.822603 0.648448 0.105159
O O4 0.641891 0.546294 0.088637
O O5 0.559321 0.514458 0.914008
O O6 0.099424 0.528995 0.880621
O O7 0.786473 0.439450 0.005879
O O8 0.669858 0.113241 0.538309
O O9 0.195172 0.166727 0.596405
O O10 0.145910 0.072421 0.725855
O O11 0.325624 0.615514 0.936626
O O12 0.247477 0.724849 0.013107
O O13 0.640046 0.318792 0.911572
O O14 0.148734 0.307227 0.907531
#
# Coordination Sequence:
#
# PCOD9136280 Si02
#       7
#     4   4   4   4   4   4   4
#     4  10  21  40  64  87 123 159 207 254 305 368
#     4  10  24  40  63  91 120 166 205 254 307 368
#     4  10  26  39  65  90 132 157 213 251 317 367
#     4  10  21  43  62  91 122 162 209 249 311 371
#     4  10  24  42  64  90 124 166 204 257 309 364
#     4  10  23  39  58  97 120 160 204 251 314 361
#     4  10  23  39  60  96 123 162 206 252 315 369
#
# _framework density 21.050743000000001
#
# number of rings (size 3 to 8) (size 9 to 14) (size 15 to 20)
#    0.857    1.143    0.000    1.714    6.000    2.286 
#    2.571    0.000    0.000    0.000    0.000    0.000 
#    0.000    0.000    0.000    0.000    0.000    0.000 
#
# Total GULP energy -78146.696749 kJ/mol
# GULP energy per Si atom -5581.906911 kJ/mol
# Density = 2.100283 g / cm^3
# Si number density = 21.050743 Si / 1000 Ang^3
#
#
#
# Elastic Constant Matrix: (Units=GPa)
#
#
# Indices 1 2 3 4 5 6 
#
# 1 87.2839 7.3651 -8.7831 0.0000 4.2087 0.0000
# 2 7.3651 96.8555 -2.2749 0.0000 -3.5054 0.0000
# 3 -8.7831 -2.2749 71.1959 0.0000 -10.1045 0.0000
# 4 0.0000 0.0000 0.0000 6.2420 0.0000 1.1273
# 5 4.2087 -3.5054 -10.1045 0.0000 17.5112 0.0000
# 6 0.0000 0.0000 0.0000 1.1273 0.0000 21.1749
#
#
#
# Elastic Compliance Matrix: (Units=1/GPa)
#
#
# Indices 1 2 3 4 5 6 
#
# 1 0.011762 -0.000956 0.001081 0.000000 -0.002395 0.000000
# 2 -0.000956 0.010508 0.000598 0.000000 0.002678 0.000000
# 3 0.001081 0.000598 0.015443 0.000000 0.008771 0.000000
# 4 0.000000 0.000000 0.000000 0.161760 0.000000 -0.008611
# 5 -0.002395 0.002678 0.008771 0.000000 0.063279 0.000000
# 6 0.000000 0.000000 0.000000 -0.008611 0.000000 0.047684
#
#
# Mechanical properties :
#
#
# Convention : Reuss Voigt Hill
#
# Bulk Modulus (GPa) = 25.53699 27.54993 26.54346
# Shear Modulus (GPa) = 15.52584 26.25416 20.89000
#
# Velocity S-wave (km/s) = 2.71872 3.53538 3.15360
# Velocity P-wave (km/s) = 4.69178 5.45720 5.08890
#
# Compressibility (1/GPa) = 0.03915888
#
# Stress axis : x y z
#
# Youngs Moduli (GPa) = 85.02163 95.16278 64.75421
#
# Poissons Ratio (x) = 0.09094 -0.06997
# Poissons Ratio (y) = 0.08125 -0.03872
# Poissons Ratio (z) = -0.09187 -0.05691
#
# Static dielectric constant tensor:
#      x y z
#    x 1.752150 0.000000 -0.001000 
#    y 0.000000 1.724480 0.000000 
#    z -0.001000 0.000000 1.766270 
# 
# From -- ./inp_files/13569.got.cif
#   From: 2010.05.17/outbox.cif.g08.bks.cpg/sg9_7_cif.got.tgz:13569.got - 2010.06.03 20:04:27.
