data_PCOD9136046
_publ_section_title
;
Structure prediction by ZEFSAII (Michael W. Deem and Ramdas Pophale) SiO2 
 PCOD9136046
Probable space group: C C
;
_chemical_formula_sum "Si O2"
_cell_formula_units_Z 28
_cell_length_a 13.173715
_cell_length_b 5.085946
_cell_length_c 18.857190
_cell_angle_alpha 90.000000
_cell_angle_beta 63.344813
_cell_angle_gamma 90.000000
_cell_volume 1129.170953
_symmetry_space_group_name_H-M "C C"
_symmetry_group_IT_number 9
_symmetry_cell_setting 'monoclinic'
loop_
_space_group_symop_operation_xyz
x,y,z
x,-y,1/2+z
1/2+x,1/2+y,z
1/2+x,1/2-y,1/2+z
loop_
_atom_site_type_symbol
_atom_site_label
_atom_site_fract_x
_atom_site_fract_y
_atom_site_fract_z
Si Si1 0.453230 0.516207 0.805750
Si Si2 0.606583 0.018212 0.611313
Si Si3 0.549842 0.903163 0.965007
Si Si4 0.176418 0.093925 0.392496
Si Si5 0.875510 0.485904 0.416712
Si Si6 0.355352 0.156758 0.728522
Si Si7 0.192489 0.014101 0.657786
O O1 0.407672 0.296638 0.874916
O O2 0.380959 0.441925 0.756847
O O3 0.585230 0.486809 0.745805
O O4 0.435320 0.795528 0.847937
O O5 0.580849 0.067872 0.537089
O O6 0.482085 0.040017 0.686458
O O7 0.691258 0.234671 0.618419
O O8 0.654508 0.735714 0.614735
O O9 0.574483 0.611243 0.930373
O O10 0.632069 0.111780 0.899239
O O11 0.424202 0.981680 0.979801
O O12 0.245177 0.051829 0.444180
O O13 0.266051 0.993296 0.306720
O O14 0.298504 0.122968 0.669559
#
# Coordination Sequence:
#
# PCOD9136046 Si02
#       7
#     4   4   4   4   4   4   4
#     4  10  21  38  65 100 125 155 213 265 311 372
#     4  11  27  42  61  95 130 165 214 253 308 384
#     4  12  25  43  63  93 131 167 205 261 315 369
#     4  11  24  41  68  95 120 163 218 256 309 380
#     4  11  22  40  64  93 129 163 204 264 316 365
#     4  10  23  43  68  94 125 166 210 262 314 367
#     4  11  22  41  65  90 128 169 206 259 313 367
#
# _framework density 24.796952999999998
#
# number of rings (size 3 to 8) (size 9 to 14) (size 15 to 20)
#    0.000    1.143    0.000    7.714    0.000    9.143 
#    0.000    0.000    0.000    0.000    0.000    0.000 
#    0.000    0.000    0.000    0.000    0.000    0.000 
#
# Total GULP energy -78360.224315 kJ/mol
# GULP energy per Si atom -5597.158880 kJ/mol
# Density = 2.474051 g / cm^3
# Si number density = 24.796953 Si / 1000 Ang^3
#
#
#
# Elastic Constant Matrix: (Units=GPa)
#
#
# Indices 1 2 3 4 5 6 
#
# 1 142.6940 -0.2696 9.2138 0.0001 28.9403 0.0011
# 2 -0.2696 63.2223 3.0201 0.0002 -6.1383 0.0026
# 3 9.2138 3.0201 70.0038 0.0000 16.2348 0.0001
# 4 0.0001 0.0002 0.0000 24.3788 0.0000 0.8340
# 5 28.9403 -6.1383 16.2348 0.0000 33.7738 0.0002
# 6 0.0011 0.0026 0.0001 0.8340 0.0002 33.6536
#
#
#
# Elastic Compliance Matrix: (Units=1/GPa)
#
#
# Indices 1 2 3 4 5 6 
#
# 1 0.008543 -0.000755 0.000718 0.000000 -0.007802 0.000000
# 2 -0.000755 0.016318 -0.001623 0.000000 0.004393 -0.000001
# 3 0.000718 -0.001623 0.016287 0.000000 -0.008739 0.000000
# 4 0.000000 0.000000 0.000000 0.041054 0.000000 -0.001017
# 5 -0.007802 0.004393 -0.008739 0.000000 0.041294 0.000000
# 6 0.000000 -0.000001 0.000000 -0.001017 0.000000 0.029740
#
#
# Mechanical properties :
#
#
# Convention : Reuss Voigt Hill
#
# Bulk Modulus (GPa) = 26.43704 33.31651 29.87678
# Shear Modulus (GPa) = 29.55666 35.95829 32.75748
#
# Velocity S-wave (km/s) = 3.45620 3.81216 3.63854
# Velocity P-wave (km/s) = 5.15865 5.73076 5.45222
#
# Compressibility (1/GPa) = 0.03782571
#
# Stress axis : x y z
#
# Youngs Moduli (GPa) = 117.05947 61.28163 61.39764
#
# Poissons Ratio (x) = 0.04629 -0.04406
# Poissons Ratio (y) = 0.08843 0.09968
# Poissons Ratio (z) = -0.08401 0.09949
#
# Static dielectric constant tensor:
#      x y z
#    x 2.003850 0.000000 0.049100 
#    y 0.000000 1.915030 0.000000 
#    z 0.049100 0.000000 2.024060 
# 
# From -- ./inp_files/32953.got.cif
#   From: 2010.05.17/outbox.cif.g08.bks.cpg/sg9_17_cif.got.tgz:32953.got - 2010.06.03 20:04:27.
