data_PCOD9136592
_publ_section_title
;
Structure prediction by ZEFSAII (Michael W. Deem and Ramdas Pophale) SiO2 
 PCOD9136592
Probable space group: C C
;
_chemical_formula_sum "Si O2"
_cell_formula_units_Z 32
_cell_length_a 23.216977
_cell_length_b 5.344084
_cell_length_c 10.238656
_cell_angle_alpha 90.000000
_cell_angle_beta 82.540262
_cell_angle_gamma 90.000000
_cell_volume 1259.593856
_symmetry_space_group_name_H-M "C C"
_symmetry_group_IT_number 9
_symmetry_cell_setting 'monoclinic'
loop_
_space_group_symop_operation_xyz
x,y,z
x,-y,1/2+z
1/2+x,1/2+y,z
1/2+x,1/2-y,1/2+z
loop_
_atom_site_type_symbol
_atom_site_label
_atom_site_fract_x
_atom_site_fract_y
_atom_site_fract_z
Si Si1 0.710960 0.794883 0.456310
Si Si2 0.125554 0.250614 0.240922
Si Si3 0.737458 0.290899 0.543558
Si Si4 0.440085 0.046478 0.679719
Si Si5 0.601353 0.743250 0.657271
Si Si6 0.405426 0.582435 0.381336
Si Si7 0.846055 0.781377 0.160108
Si Si8 0.998096 0.040768 0.548266
O O1 0.666504 0.803151 0.350559
O O2 0.748335 0.544918 0.461703
O O3 0.668126 0.787519 0.595884
O O4 0.745866 0.050308 0.451042
O O5 0.169990 0.211801 0.106087
O O6 0.084651 0.486488 0.220924
O O7 0.097000 0.979183 0.262410
O O8 0.777820 0.256816 0.658601
O O9 0.420525 0.135096 0.829281
O O10 0.478485 0.280714 0.620853
O O11 0.376242 0.991213 0.639849
O O12 0.469871 0.783628 0.631749
O O13 0.564196 0.627571 0.548922
O O14 0.372199 0.427824 0.277913
O O15 0.367854 0.578251 0.523473
O O16 0.469293 0.503517 0.414967
#
# Coordination Sequence:
#
# PCOD9136592 Si02
#       8
#     4   4   4   4   4   4   4   4
#     4  10  22  42  64 100 134 171 222 287 333 417
#     4  10  21  42  66  94 140 165 224 284 337 410
#     4  10  24  40  66  98 131 175 227 272 352 410
#     4  11  24  45  64  99 140 181 229 296 333 424
#     4  10  22  41  65  99 130 176 225 273 347 409
#     4  11  25  47  69 100 144 180 240 294 342 422
#     4  11  27  44  74 102 142 191 236 292 358 418
#     4  11  25  43  70 100 139 187 235 286 360 410
#
# _framework density 25.405013
#
# number of rings (size 3 to 8) (size 9 to 14) (size 15 to 20)
#    0.000    1.500    2.500    1.500    7.000    3.000 
#    0.000    0.000    0.000    0.000    0.000    0.000 
#    0.000    0.000    0.000    0.000    0.000    0.000 
#
# Total GULP energy -89189.723404 kJ/mol
# GULP energy per Si atom -5574.357713 kJ/mol
# Density = 2.534719 g / cm^3
# Si number density = 25.405013 Si / 1000 Ang^3
#
#
#
# Elastic Constant Matrix: (Units=GPa)
#
#
# Indices 1 2 3 4 5 6 
#
# 1 88.5030 16.0573 6.9499 0.0000 17.0773 0.0000
# 2 16.0573 175.6859 33.3070 0.0000 6.9808 0.0000
# 3 6.9499 33.3070 114.7363 0.0000 22.6821 0.0000
# 4 0.0000 0.0000 0.0000 35.6614 0.0000 17.9896
# 5 17.0773 6.9808 22.6821 0.0000 37.9276 0.0000
# 6 0.0000 0.0000 0.0000 17.9896 0.0000 9.9617
#
#
#
# Elastic Compliance Matrix: (Units=1/GPa)
#
#
# Indices 1 2 3 4 5 6 
#
# 1 0.012570 -0.001049 0.000707 0.000000 -0.005890 0.000000
# 2 -0.001049 0.006111 -0.001794 0.000000 0.000420 0.000000
# 3 0.000707 -0.001794 0.010423 0.000000 -0.006222 0.000000
# 4 0.000000 0.000000 0.000000 0.315024 0.000000 -0.568894
# 5 -0.005890 0.000420 -0.006222 0.000000 0.032662 0.000000
# 6 0.000000 0.000000 0.000000 -0.568894 0.000000 1.127736
#
#
# Mechanical properties :
#
#
# Convention : Reuss Voigt Hill
#
# Bulk Modulus (GPa) = 40.26596 54.61705 47.44151
# Shear Modulus (GPa) = 3.29582 38.21756 20.75669
#
# Velocity S-wave (km/s) = 1.14023 3.88278 2.86148
# Velocity P-wave (km/s) = 4.19732 6.45341 5.44353
#
# Compressibility (1/GPa) = 0.02483487
#
# Stress axis : x y z
#
# Youngs Moduli (GPa) = 79.55240 163.63452 95.93740
#
# Poissons Ratio (x) = 0.17165 -0.06787
# Poissons Ratio (y) = 0.08345 0.17207
# Poissons Ratio (z) = -0.05628 0.29348
#
# Static dielectric constant tensor:
#      x y z
#    x 2.117480 0.000000 -0.042050 
#    y 0.000000 2.084470 0.000000 
#    z -0.042050 0.000000 2.021920 
# 
# From -- ./inp_files/20602.got.cif
#   From: 2010.05.17/outbox.cif.g08.bks.cpg/sg9_11_cif.got.tgz:20602.got - 2010.06.03 20:04:27.
