data_PCOD9136488
_publ_section_title
;
Structure prediction by ZEFSAII (Michael W. Deem and Ramdas Pophale) SiO2 
 PCOD9136488
Probable space group: C C
;
_chemical_formula_sum "Si O2"
_cell_formula_units_Z 32
_cell_length_a 24.792018
_cell_length_b 9.794495
_cell_length_c 9.950522
_cell_angle_alpha 90.000000
_cell_angle_beta 148.874091
_cell_angle_gamma 90.000000
_cell_volume 1249.003136
_symmetry_space_group_name_H-M "C C"
_symmetry_group_IT_number 9
_symmetry_cell_setting 'monoclinic'
loop_
_space_group_symop_operation_xyz
x,y,z
x,-y,1/2+z
1/2+x,1/2+y,z
1/2+x,1/2-y,1/2+z
loop_
_atom_site_type_symbol
_atom_site_label
_atom_site_fract_x
_atom_site_fract_y
_atom_site_fract_z
Si Si1 0.685790 0.195558 0.657020
Si Si2 0.695247 0.820970 0.474926
Si Si3 0.523203 0.046809 0.750176
Si Si4 0.760228 0.127702 0.554928
Si Si5 0.159555 0.101683 0.734505
Si Si6 0.057584 0.954599 0.284466
Si Si7 0.883502 0.189200 0.568891
Si Si8 0.399656 0.980389 0.722499
O O1 0.613574 0.058805 0.493002
O O2 0.779471 0.174989 0.749636
O O3 0.620955 0.318551 0.458153
O O4 0.707666 0.241148 0.854737
O O5 0.583459 0.829207 0.307313
O O6 0.713648 0.979496 0.473521
O O7 0.781559 0.773659 0.764015
O O8 0.446571 0.079946 0.709884
O O9 0.453542 0.988504 0.479251
O O10 0.681393 0.240352 0.322406
O O11 0.851086 0.118753 0.639624
O O12 0.084748 0.030886 0.686174
O O13 0.276278 0.037233 0.981294
O O14 0.106688 0.071665 0.480298
O O15 0.945421 0.911177 0.101997
O O16 0.931205 0.331963 0.723641
#
# Coordination Sequence:
#
# PCOD9136488 Si02
#       8
#     4   4   4   4   4   4   4   4
#     4  10  21  41  67  95 134 172 219 276 333 397
#     4  11  22  39  68 101 133 171 216 278 339 394
#     4  11  20  40  68  99 131 174 223 279 330 397
#     4   9  21  40  65  94 126 173 217 270 326 392
#     4  10  24  43  67  88 137 175 221 274 326 395
#     4  11  23  45  63  95 134 179 219 272 334 397
#     4  11  24  41  67 100 138 172 225 277 338 410
#     4  11  23  43  69 100 133 180 230 278 334 406
#
# _framework density 25.620432999999998
#
# number of rings (size 3 to 8) (size 9 to 14) (size 15 to 20)
#    0.000    1.500    2.500    2.250    3.500    3.000 
#    0.000    1.250    0.000    0.000    0.000    0.000 
#    0.000    0.000    0.000    0.000    0.000    0.000 
#
# Total GULP energy -89421.024843 kJ/mol
# GULP energy per Si atom -5588.814053 kJ/mol
# Density = 2.556212 g / cm^3
# Si number density = 25.620433 Si / 1000 Ang^3
#
#
#
# Elastic Constant Matrix: (Units=GPa)
#
#
# Indices 1 2 3 4 5 6 
#
# 1 192.2134 6.1144 32.7751 0.0000 -9.3374 0.0000
# 2 6.1144 38.8720 23.4520 0.0000 -6.6934 0.0000
# 3 32.7751 23.4520 70.2116 0.0000 -14.4719 0.0000
# 4 0.0000 0.0000 0.0000 31.8020 0.0000 -4.9524
# 5 -9.3374 -6.6934 -14.4719 0.0000 34.9166 0.0000
# 6 0.0000 0.0000 0.0000 -4.9524 0.0000 18.9961
#
#
#
# Elastic Compliance Matrix: (Units=1/GPa)
#
#
# Indices 1 2 3 4 5 6 
#
# 1 0.005685 0.000916 -0.002854 0.000000 0.000513 0.000000
# 2 0.000916 0.032478 -0.010871 0.000000 0.001965 0.000000
# 3 -0.002854 -0.010871 0.020358 0.000000 0.005591 0.000000
# 4 0.000000 0.000000 0.000000 0.032775 0.000000 0.008545
# 5 0.000513 0.001965 0.005591 0.000000 0.031471 0.000000
# 6 0.000000 0.000000 0.000000 0.008545 0.000000 0.054870
#
#
# Mechanical properties :
#
#
# Convention : Reuss Voigt Hill
#
# Bulk Modulus (GPa) = 30.39155 47.33110 38.86133
# Shear Modulus (GPa) = 23.34012 33.07333 28.20673
#
# Velocity S-wave (km/s) = 3.02155 3.59680 3.32165
# Velocity P-wave (km/s) = 4.90520 5.98025 5.46920
#
# Compressibility (1/GPa) = 0.03290389
#
# Stress axis : x y z
#
# Youngs Moduli (GPa) = 175.90223 30.78969 49.11987
#
# Poissons Ratio (x) = -0.02820 0.14019
# Poissons Ratio (y) = -0.16112 0.53398
# Poissons Ratio (z) = 0.50202 0.33471
#
# Static dielectric constant tensor:
#      x y z
#    x 2.241240 0.000000 0.043060 
#    y 0.000000 2.091470 0.000000 
#    z 0.043060 0.000000 1.993180 
# 
# From -- ./inp_files/12196.got.cif
#   From: 2010.05.17/outbox.cif.g08.bks.cpg/sg9_7_cif.got.tgz:12196.got - 2010.06.03 20:04:27.
