data_PCOD9136809
_publ_section_title
;
Structure prediction by ZEFSAII (Michael W. Deem and Ramdas Pophale) SiO2 
 PCOD9136809
Probable space group: C C
;
_chemical_formula_sum "Si O2"
_cell_formula_units_Z 32
_cell_length_a 5.267411
_cell_length_b 20.105081
_cell_length_c 12.857392
_cell_angle_alpha 90.000000
_cell_angle_beta 107.992731
_cell_angle_gamma 90.000000
_cell_volume 1295.030935
_symmetry_space_group_name_H-M "C C"
_symmetry_group_IT_number 9
_symmetry_cell_setting 'monoclinic'
loop_
_space_group_symop_operation_xyz
x,y,z
x,-y,1/2+z
1/2+x,1/2+y,z
1/2+x,1/2-y,1/2+z
loop_
_atom_site_type_symbol
_atom_site_label
_atom_site_fract_x
_atom_site_fract_y
_atom_site_fract_z
Si Si1 0.024760 0.717264 0.466630
Si Si2 0.880275 0.005824 0.427723
Si Si3 0.625300 0.167095 0.706439
Si Si4 0.413489 0.931342 0.335590
Si Si5 0.703242 0.084345 0.207748
Si Si6 0.579440 0.645525 0.913362
Si Si7 0.917549 0.213575 0.317140
Si Si8 0.635020 0.488370 0.649733
O O1 0.097741 0.677863 0.580710
O O2 0.031219 0.797378 0.490394
O O3 0.248446 0.713885 0.403693
O O4 0.728955 0.697543 0.387407
O O5 0.569859 0.990429 0.410850
O O6 0.982280 0.928969 0.427969
O O7 0.064771 0.032679 0.541488
O O8 0.853087 0.054972 0.328797
O O9 0.541257 0.096225 0.744891
O O10 0.454647 0.221731 0.748512
O O11 0.922648 0.172217 0.791482
O O12 0.375100 0.871444 0.410825
O O13 0.156263 0.964998 0.252939
O O14 0.749759 0.161972 0.225937
O O15 0.403072 0.055438 0.170684
O O16 0.878091 0.057342 0.135461
#
# Coordination Sequence:
#
# PCOD9136809 Si02
#       8
#     4   4   4   4   4   4   4   4
#     4  11  25  42  70 100 131 186 227 272 357 406
#     4  10  24  42  66  97 133 176 224 280 335 406
#     4  10  24  42  69  99 136 180 229 285 344 413
#     4  10  21  45  68  95 140 173 231 287 335 408
#     4  11  25  45  64 100 141 170 225 287 337 403
#     4  10  21  44  66  95 136 171 225 288 324 406
#     4  11  25  46  64 102 142 173 225 292 336 409
#     4  11  25  42  69 100 127 187 224 271 352 409
#
# _framework density 24.709833
#
# number of rings (size 3 to 8) (size 9 to 14) (size 15 to 20)
#    0.000    1.500    2.500    0.750    7.000    0.000 
#    2.250    0.000    0.000    0.000    0.000    0.000 
#    0.000    0.000    0.000    0.000    0.000    0.000 
#
# Total GULP energy -89197.222511 kJ/mol
# GULP energy per Si atom -5574.826407 kJ/mol
# Density = 2.465359 g / cm^3
# Si number density = 24.709833 Si / 1000 Ang^3
#
#
#
# Elastic Constant Matrix: (Units=GPa)
#
#
# Indices 1 2 3 4 5 6 
#
# 1 104.0079 5.3680 25.6067 0.0000 -17.9012 0.0000
# 2 5.3680 36.6382 -10.4717 0.0000 -0.9164 0.0000
# 3 25.6067 -10.4717 90.0729 0.0000 8.0848 0.0000
# 4 0.0000 0.0000 0.0000 27.8351 0.0000 -1.3147
# 5 -17.9012 -0.9164 8.0848 0.0000 25.9034 0.0000
# 6 0.0000 0.0000 0.0000 -1.3147 0.0000 23.4062
#
#
#
# Elastic Compliance Matrix: (Units=1/GPa)
#
#
# Indices 1 2 3 4 5 6 
#
# 1 0.012731 -0.003006 -0.004886 0.000000 0.010217 0.000000
# 2 -0.003006 0.028942 0.004438 0.000000 -0.002439 0.000000
# 3 -0.004886 0.004438 0.013679 0.000000 -0.007489 0.000000
# 4 0.000000 0.000000 0.000000 0.036021 0.000000 0.002023
# 5 0.010217 -0.002439 -0.007489 0.000000 0.047917 0.000000
# 6 0.000000 0.000000 0.000000 0.002023 0.000000 0.042837
#
#
# Mechanical properties :
#
#
# Convention : Reuss Voigt Hill
#
# Bulk Modulus (GPa) = 20.64209 30.19167 25.41688
# Shear Modulus (GPa) = 24.36843 29.44335 26.90589
#
# Velocity S-wave (km/s) = 3.14376 3.45565 3.30339
# Velocity P-wave (km/s) = 4.64215 5.30726 4.98581
#
# Compressibility (1/GPa) = 0.04844470
#
# Stress axis : x y z
#
# Youngs Moduli (GPa) = 78.54747 34.55205 73.10314
#
# Poissons Ratio (x) = 0.10387 0.35717
# Poissons Ratio (y) = 0.23613 -0.32445
# Poissons Ratio (z) = 0.38377 -0.15335
#
# Static dielectric constant tensor:
#      x y z
#    x 2.180630 0.000000 -0.008860 
#    y 0.000000 2.048320 0.000000 
#    z -0.008860 0.000000 1.952200 
# 
# From -- ./inp_files/13486.got.cif
#   From: 2010.05.17/outbox.cif.g08.bks.cpg/sg9_7_cif.got.tgz:13486.got - 2010.06.03 20:04:27.
