data_PCOD9136833
_publ_section_title
;
Structure prediction by ZEFSAII (Michael W. Deem and Ramdas Pophale) SiO2 
 PCOD9136833
Probable space group: C C
;
_chemical_formula_sum "Si O2"
_cell_formula_units_Z 32
_cell_length_a 8.640600
_cell_length_b 15.556056
_cell_length_c 10.552225
_cell_angle_alpha 90.000000
_cell_angle_beta 70.241268
_cell_angle_gamma 90.000000
_cell_volume 1334.856324
_symmetry_space_group_name_H-M "C C"
_symmetry_group_IT_number 9
_symmetry_cell_setting 'monoclinic'
loop_
_space_group_symop_operation_xyz
x,y,z
x,-y,1/2+z
1/2+x,1/2+y,z
1/2+x,1/2-y,1/2+z
loop_
_atom_site_type_symbol
_atom_site_label
_atom_site_fract_x
_atom_site_fract_y
_atom_site_fract_z
Si Si1 0.187700 0.406225 0.613860
Si Si2 0.360595 0.195586 0.917848
Si Si3 0.951470 0.563177 0.704143
Si Si4 0.630467 0.438269 0.153987
Si Si5 0.467036 0.479418 0.943820
Si Si6 0.716137 0.196084 0.861647
Si Si7 0.239871 0.333281 0.087548
Si Si8 0.580916 0.256568 0.295667
O O1 0.369919 0.441956 0.538481
O O2 0.146166 0.365480 0.489248
O O3 0.150217 0.330695 0.719740
O O4 0.077438 0.486449 0.682460
O O5 0.384193 0.100328 0.855826
O O6 0.544933 0.238286 0.858949
O O7 0.202663 0.226671 0.879545
O O8 0.298369 0.234601 0.067354
O O9 0.812147 0.536047 0.646735
O O10 0.050340 0.644430 0.617771
O O11 0.598471 0.454157 0.015180
O O12 0.522603 0.489452 0.290146
O O13 0.614681 0.337117 0.192575
O O14 0.344600 0.397730 0.972027
O O15 0.771293 0.140711 0.724720
O O16 0.880763 0.243673 0.865725
#
# Coordination Sequence:
#
# PCOD9136833 Si02
#       8
#     4   4   4   4   4   4   4   4
#     4  11  24  46  73 104 146 195 241 310 371 440
#     4  10  24  44  71 105 148 187 244 302 370 441
#     4   9  24  46  68 107 143 189 248 306 368 442
#     4  11  24  47  71 110 147 188 256 304 374 452
#     4  11  23  44  76 102 148 192 244 305 377 440
#     4  11  22  44  73 101 147 188 244 294 369 441
#     4  10  21  44  69 103 141 191 235 300 370 440
#     4  11  24  45  69 108 144 194 244 303 367 446
#
# _framework density 23.972619000000002
#
# number of rings (size 3 to 8) (size 9 to 14) (size 15 to 20)
#    0.000    1.500    2.500    0.750    1.750    7.000 
#    6.750    0.000    0.000    0.000    0.000    0.000 
#    0.000    0.000    0.000    0.000    0.000    0.000 
#
# Total GULP energy -89163.826610 kJ/mol
# GULP energy per Si atom -5572.739163 kJ/mol
# Density = 2.391806 g / cm^3
# Si number density = 23.972619 Si / 1000 Ang^3
#
#
#
# Elastic Constant Matrix: (Units=GPa)
#
#
# Indices 1 2 3 4 5 6 
#
# 1 111.9431 -11.8263 6.2007 0.0000 5.4126 0.0000
# 2 -11.8263 53.2714 24.2053 0.0000 -7.4788 0.0000
# 3 6.2007 24.2053 54.4701 0.0000 -0.5993 0.0000
# 4 0.0000 0.0000 0.0000 27.3395 0.0000 -18.3483
# 5 5.4126 -7.4788 -0.5993 0.0000 23.7219 0.0000
# 6 0.0000 0.0000 0.0000 -18.3483 0.0000 19.7225
#
#
#
# Elastic Compliance Matrix: (Units=1/GPa)
#
#
# Indices 1 2 3 4 5 6 
#
# 1 0.009449 0.003026 -0.002434 0.000000 -0.001263 0.000000
# 2 0.003026 0.025770 -0.011718 0.000000 0.007138 0.000000
# 3 -0.002434 -0.011718 0.023815 0.000000 -0.002537 0.000000
# 4 0.000000 0.000000 0.000000 0.097375 0.000000 0.090590
# 5 -0.001263 0.007138 -0.002537 0.000000 0.044630 0.000000
# 6 0.000000 0.000000 0.000000 0.090590 0.000000 0.134981
#
#
# Mechanical properties :
#
#
# Convention : Reuss Voigt Hill
#
# Bulk Modulus (GPa) = 27.18681 28.53822 27.86251
# Shear Modulus (GPa) = 13.49414 27.56377 20.52896
#
# Velocity S-wave (km/s) = 2.37512 3.39455 2.92952
# Velocity P-wave (km/s) = 4.34592 5.22440 4.80527
#
# Compressibility (1/GPa) = 0.03678254
#
# Stress axis : x y z
#
# Youngs Moduli (GPa) = 105.83391 38.80491 41.99043
#
# Poissons Ratio (x) = -0.11744 0.10222
# Poissons Ratio (y) = -0.32030 0.49203
# Poissons Ratio (z) = 0.25764 0.45470
#
# Static dielectric constant tensor:
#      x y z
#    x 2.042010 0.000000 -0.006470 
#    y 0.000000 1.967270 0.000000 
#    z -0.006470 0.000000 1.969280 
# 
# From -- ./inp_files/14577.got.cif
#   From: 2010.05.17/outbox.cif.g08.bks.cpg/sg9_8_cif.got.tgz:14577.got - 2010.06.03 20:04:27.
