data_PCOD9136731
_publ_section_title
;
Structure prediction by ZEFSAII (Michael W. Deem and Ramdas Pophale) SiO2 
 PCOD9136731
Probable space group: C C
;
_chemical_formula_sum "Si O2"
_cell_formula_units_Z 32
_cell_length_a 9.344891
_cell_length_b 10.518784
_cell_length_c 26.365130
_cell_angle_alpha 90.000000
_cell_angle_beta 146.813388
_cell_angle_gamma 90.000000
_cell_volume 1418.563724
_symmetry_space_group_name_H-M "C C"
_symmetry_group_IT_number 9
_symmetry_cell_setting 'monoclinic'
loop_
_space_group_symop_operation_xyz
x,y,z
x,-y,1/2+z
1/2+x,1/2+y,z
1/2+x,1/2-y,1/2+z
loop_
_atom_site_type_symbol
_atom_site_label
_atom_site_fract_x
_atom_site_fract_y
_atom_site_fract_z
Si Si1 0.864020 0.673163 0.834990
Si Si2 0.384065 0.662277 0.756845
Si Si3 0.096650 0.060172 0.388242
Si Si4 0.827590 0.574025 0.270399
Si Si5 0.289645 0.651196 0.153769
Si Si6 0.604168 0.970112 0.493095
Si Si7 0.885774 0.533950 0.581351
Si Si8 0.133882 0.056678 0.611961
O O1 0.559200 0.651652 0.758074
O O2 0.953108 0.555079 0.827278
O O3 0.934448 0.810662 0.835820
O O4 0.011574 0.646029 0.931019
O O5 0.439385 0.556689 0.816288
O O6 0.478960 0.795664 0.808287
O O7 0.079186 0.654751 0.650220
O O8 0.201210 0.043809 0.477109
O O9 0.361500 0.060647 0.433881
O O10 0.594442 0.614537 0.240043
O O11 0.739018 0.534752 0.187512
O O12 0.191741 0.595780 0.070925
O O13 0.241674 0.799839 0.148295
O O14 0.105466 0.574241 0.137681
O O15 0.825945 0.050125 0.531008
O O16 0.716698 0.510499 0.581109
#
# Coordination Sequence:
#
# PCOD9136731 Si02
#       8
#     4   4   4   4   4   4   4   4
#     4  11  24  43  71  99 140 182 233 289 350 413
#     4  11  25  46  71 103 143 183 232 294 353 414
#     4  10  25  46  75 102 141 188 235 287 357 417
#     4  11  25  41  69 100 143 179 229 285 350 413
#     4  10  21  43  67  98 134 180 229 282 346 413
#     4   9  23  44  63 100 139 180 226 297 343 414
#     4  11  23  45  76  98 139 188 230 288 349 416
#     4  11  24  40  70 106 135 184 236 282 352 418
#
# _framework density 22.558029000000001
#
# number of rings (size 3 to 8) (size 9 to 14) (size 15 to 20)
#    0.000    1.500    2.500    0.750    5.250    5.000 
#    0.000    1.250    0.000    0.000    0.000    0.000 
#    0.000    0.000    0.000    0.000    0.000    0.000 
#
# Total GULP energy -89347.292267 kJ/mol
# GULP energy per Si atom -5584.205767 kJ/mol
# Density = 2.250669 g / cm^3
# Si number density = 22.558029 Si / 1000 Ang^3
#
#
#
# Elastic Constant Matrix: (Units=GPa)
#
#
# Indices 1 2 3 4 5 6 
#
# 1 111.0770 59.3931 24.1013 0.0000 -11.4128 0.0000
# 2 59.3931 148.5720 14.8490 0.0000 -10.7523 0.0000
# 3 24.1013 14.8490 73.2506 0.0000 -16.4092 0.0000
# 4 0.0000 0.0000 0.0000 22.4607 0.0000 1.2911
# 5 -11.4128 -10.7523 -16.4092 0.0000 19.2386 0.0000
# 6 0.0000 0.0000 0.0000 1.2911 0.0000 31.9656
#
#
#
# Elastic Compliance Matrix: (Units=1/GPa)
#
#
# Indices 1 2 3 4 5 6 
#
# 1 0.012188 -0.004432 -0.002530 0.000000 0.002595 0.000000
# 2 -0.004432 0.008653 0.000245 0.000000 0.002416 0.000000
# 3 -0.002530 0.000245 0.017466 0.000000 0.013534 0.000000
# 4 0.000000 0.000000 0.000000 0.044626 0.000000 -0.001802
# 5 0.002595 0.002416 0.013534 0.000000 0.066412 0.000000
# 6 0.000000 0.000000 0.000000 -0.001802 0.000000 0.031356
#
#
# Mechanical properties :
#
#
# Convention : Reuss Voigt Hill
#
# Bulk Modulus (GPa) = 40.20318 58.84293 49.52305
# Shear Modulus (GPa) = 24.70041 30.37007 27.53524
#
# Velocity S-wave (km/s) = 3.31263 3.67319 3.49756
# Velocity P-wave (km/s) = 5.70019 6.64316 6.18965
#
# Compressibility (1/GPa) = 0.02487366
#
# Stress axis : x y z
#
# Youngs Moduli (GPa) = 82.04775 115.57159 57.25292
#
# Poissons Ratio (x) = 0.51216 0.14488
# Poissons Ratio (y) = 0.36360 -0.01405
# Poissons Ratio (z) = 0.20762 -0.02835
#
# Static dielectric constant tensor:
#      x y z
#    x 1.847270 0.000000 0.006150 
#    y 0.000000 1.838110 0.000000 
#    z 0.006150 0.000000 1.900720 
# 
# From -- ./inp_files/35018.got.cif
#   From: 2010.05.17/outbox.cif.g08.bks.cpg/sg9_18_cif.got.tgz:35018.got - 2010.06.03 20:04:27.
