data_PCOD9136135
_publ_section_title
;
Structure prediction by ZEFSAII (Michael W. Deem and Ramdas Pophale) SiO2 
 PCOD9136135
Probable space group: C C
;
_chemical_formula_sum "Si O2"
_cell_formula_units_Z 32
_cell_length_a 23.232286
_cell_length_b 15.584379
_cell_length_c 9.372764
_cell_angle_alpha 90.000000
_cell_angle_beta 154.156520
_cell_angle_gamma 90.000000
_cell_volume 1479.279175
_symmetry_space_group_name_H-M "C C"
_symmetry_group_IT_number 9
_symmetry_cell_setting 'monoclinic'
loop_
_space_group_symop_operation_xyz
x,y,z
x,-y,1/2+z
1/2+x,1/2+y,z
1/2+x,1/2-y,1/2+z
loop_
_atom_site_type_symbol
_atom_site_label
_atom_site_fract_x
_atom_site_fract_y
_atom_site_fract_z
Si Si1 0.031980 0.830529 0.329850
Si Si2 0.317264 0.886518 0.853097
Si Si3 0.567321 0.826792 0.770145
Si Si4 0.110194 0.865755 0.813556
Si Si5 0.304278 0.610907 0.950674
Si Si6 0.530086 0.742116 0.399706
Si Si7 0.360288 0.036119 0.750231
Si Si8 0.390246 0.493984 0.899841
O O1 0.169969 0.851914 0.554577
O O2 0.971527 0.746911 0.120053
O O3 0.057186 0.819038 0.553431
O O4 0.944706 0.914731 0.112740
O O5 0.337470 0.940429 0.754782
O O6 0.424319 0.810898 0.103602
O O7 0.343118 0.951554 0.042945
O O8 0.604673 0.790589 0.695678
O O9 0.496857 0.917855 0.596054
O O10 0.679360 0.830350 0.141178
O O11 0.109224 0.803295 0.948275
O O12 0.248854 0.906136 0.078190
O O13 0.012879 0.947076 0.623275
O O14 0.307589 0.555987 0.814274
O O15 0.438385 0.665924 0.258527
O O16 0.305887 0.546595 0.085167
#
# Coordination Sequence:
#
# PCOD9136135 Si02
#       8
#     4   4   4   4   4   4   4   4
#     4  11  20  38  64  92 126 165 211 264 319 377
#     4  10  21  39  63  90 124 167 206 256 318 381
#     4  11  24  42  62  91 133 168 204 268 331 378
#     4  10  22  39  63  99 120 161 223 266 310 383
#     4  11  23  40  63  97 128 169 211 265 322 383
#     4  10  22  41  64  91 126 165 216 261 321 379
#     4  10  23  39  62  92 126 162 209 258 321 381
#     4  11  21  38  65  94 127 165 216 264 318 380
#
# _framework density 21.632158
#
# number of rings (size 3 to 8) (size 9 to 14) (size 15 to 20)
#    0.000    1.500    5.000    0.000    0.000    4.000 
#    4.500    2.500    0.000    0.000    0.000    0.000 
#    0.000    0.000    0.000    0.000    0.000    0.000 
#
# Total GULP energy -89331.221652 kJ/mol
# GULP energy per Si atom -5583.201353 kJ/mol
# Density = 2.158292 g / cm^3
# Si number density = 21.632158 Si / 1000 Ang^3
#
#
#
# Elastic Constant Matrix: (Units=GPa)
#
#
# Indices 1 2 3 4 5 6 
#
# 1 47.7592 13.7156 13.4653 0.0000 -17.7667 0.0000
# 2 13.7156 59.9995 -7.5055 0.0000 -9.3789 0.0000
# 3 13.4653 -7.5055 48.4086 0.0000 -10.2677 0.0000
# 4 0.0000 0.0000 0.0000 23.6148 0.0000 -12.8932
# 5 -17.7667 -9.3789 -10.2677 0.0000 15.8137 0.0000
# 6 0.0000 0.0000 0.0000 -12.8932 0.0000 30.7086
#
#
#
# Elastic Compliance Matrix: (Units=1/GPa)
#
#
# Indices 1 2 3 4 5 6 
#
# 1 0.036471 -0.002776 -0.002590 0.000000 0.037647 0.000000
# 2 -0.002776 0.020208 0.006710 0.000000 0.013222 0.000000
# 3 -0.002590 0.006710 0.026262 0.000000 0.018121 0.000000
# 4 0.000000 0.000000 0.000000 0.054940 0.000000 0.023067
# 5 0.037647 0.013222 0.018121 0.000000 0.125140 0.000000
# 6 0.000000 0.000000 0.000000 0.023067 0.000000 0.042249
#
#
# Mechanical properties :
#
#
# Convention : Reuss Voigt Hill
#
# Bulk Modulus (GPa) = 11.67850 21.72423 16.70136
# Shear Modulus (GPa) = 15.10002 23.12688 19.11345
#
# Velocity S-wave (km/s) = 2.64490 3.27325 2.97571
# Velocity P-wave (km/s) = 3.83898 4.93457 4.42084
#
# Compressibility (1/GPa) = 0.08562744
#
# Stress axis : x y z
#
# Youngs Moduli (GPa) = 27.41927 49.48609 38.07796
#
# Poissons Ratio (x) = 0.13739 0.09863
# Poissons Ratio (y) = 0.07612 -0.25550
# Poissons Ratio (z) = 0.07102 -0.33205
#
# Static dielectric constant tensor:
#      x y z
#    x 1.779490 0.000000 -0.012910 
#    y 0.000000 1.756390 0.000000 
#    z -0.012910 0.000000 1.807040 
# 
# From -- ./inp_files/7281.got.cif
#   From: 2010.05.17/outbox.cif.g08.bks.cpg/sg9_4_cif.got.tgz:7281.got - 2010.06.03 20:04:27.
