data_PCOD9136546
_publ_section_title
;
Structure prediction by ZEFSAII (Michael W. Deem and Ramdas Pophale) SiO2 
 PCOD9136546
Probable space group: C C
;
_chemical_formula_sum "Si O2"
_cell_formula_units_Z 32
_cell_length_a 5.549174
_cell_length_b 24.681232
_cell_length_c 10.161606
_cell_angle_alpha 90.000000
_cell_angle_beta 99.117668
_cell_angle_gamma 90.000000
_cell_volume 1374.153514
_symmetry_space_group_name_H-M "C C"
_symmetry_group_IT_number 9
_symmetry_cell_setting 'monoclinic'
loop_
_space_group_symop_operation_xyz
x,y,z
x,-y,1/2+z
1/2+x,1/2+y,z
1/2+x,1/2-y,1/2+z
loop_
_atom_site_type_symbol
_atom_site_label
_atom_site_fract_x
_atom_site_fract_y
_atom_site_fract_z
Si Si1 0.348340 0.087907 0.099920
Si Si2 0.909982 0.824348 0.298697
Si Si3 0.508768 0.514847 0.508923
Si Si4 0.169431 0.136147 0.580957
Si Si5 0.743382 0.296522 0.549370
Si Si6 0.235836 0.247397 0.489477
Si Si7 0.705661 0.010335 0.229856
Si Si8 0.038329 0.404238 0.323292
O O1 0.243462 0.146521 0.127469
O O2 0.571296 0.067553 0.208674
O O3 0.447660 0.098319 0.962376
O O4 0.173959 0.035827 0.068506
O O5 0.738723 0.778358 0.348827
O O6 0.812067 0.880985 0.348724
O O7 0.951612 0.838669 0.151640
O O8 0.162286 0.808591 0.390883
O O9 0.612907 0.575374 0.531920
O O10 0.428392 0.509796 0.350789
O O11 0.282818 0.509368 0.591477
O O12 0.394652 0.129626 0.701320
O O13 0.217228 0.182751 0.479416
O O14 0.013358 0.271047 0.559422
O O15 0.504752 0.262066 0.570566
O O16 0.527353 0.965687 0.275141
#
# Coordination Sequence:
#
# PCOD9136546 Si02
#       8
#     4   4   4   4   4   4   4   4
#     4  12  23  44  76 104 153 194 258 309 384 471
#     4  10  21  41  75 102 138 198 253 304 379 449
#     4  12  27  44  70 115 148 205 242 328 382 468
#     4  12  24  43  75 108 153 193 261 315 396 459
#     4  10  22  44  70 103 145 196 254 308 376 450
#     4  10  24  43  70 108 146 196 261 310 374 458
#     4  12  26  41  73 109 153 194 256 309 394 459
#     4  12  21  44  73 105 142 206 249 307 377 474
#
# _framework density 23.287064000000001
#
# number of rings (size 3 to 8) (size 9 to 14) (size 15 to 20)
#    0.750    0.000    6.250    1.500    3.500    0.000 
#    0.000    3.750    0.000    0.000    0.000    0.000 
#    0.000    0.000    0.000    0.000    0.000    0.000 
#
# Total GULP energy -89232.803280 kJ/mol
# GULP energy per Si atom -5577.050205 kJ/mol
# Density = 2.323406 g / cm^3
# Si number density = 23.287064 Si / 1000 Ang^3
#
#
#
# Elastic Constant Matrix: (Units=GPa)
#
#
# Indices 1 2 3 4 5 6 
#
# 1 89.9251 28.0384 7.0000 0.0000 2.0992 0.0000
# 2 28.0384 125.7400 15.5445 0.0000 4.6764 0.0000
# 3 7.0000 15.5445 42.0558 0.0000 2.4128 0.0000
# 4 0.0000 0.0000 0.0000 26.2063 0.0000 30.3139
# 5 2.0992 4.6764 2.4128 0.0000 18.1375 0.0000
# 6 0.0000 0.0000 0.0000 30.3139 0.0000 -16.6963
#
#
#
# Elastic Compliance Matrix: (Units=1/GPa)
#
#
# Indices 1 2 3 4 5 6 
#
# 1 0.012002 -0.002527 -0.001029 0.000000 -0.000601 0.000000
# 2 -0.002527 0.008921 -0.002783 0.000000 -0.001638 0.000000
# 3 -0.001029 -0.002783 0.025122 0.000000 -0.002505 0.000000
# 4 0.000000 0.000000 0.000000 0.012309 0.000000 0.022347
# 5 -0.000601 -0.001638 -0.002505 0.000000 0.055959 0.000000
# 6 0.000000 0.000000 0.000000 0.022347 0.000000 -0.019319
#
#
# Mechanical properties :
#
#
# Convention : Reuss Voigt Hill
#
# Bulk Modulus (GPa) = 29.96959 39.87632 34.92295
# Shear Modulus (GPa) = 42.08958 19.33870 30.71414
#
# Velocity S-wave (km/s) = 4.25599 2.88488 3.63566
# Velocity P-wave (km/s) = 6.08678 5.31579 5.71430
#
# Compressibility (1/GPa) = 0.03336715
#
# Stress axis : x y z
#
# Youngs Moduli (GPa) = 83.31702 112.09133 39.80638
#
# Poissons Ratio (x) = 0.28323 0.04097
# Poissons Ratio (y) = 0.21052 0.11078
# Poissons Ratio (z) = 0.08576 0.31194
#
# Static dielectric constant tensor:
#      x y z
#    x 1.974270 0.000000 0.022060 
#    y 0.000000 1.910550 0.000000 
#    z 0.022060 0.000000 1.854910 
# 
# From -- ./inp_files/13670.got.cif
#   From: 2010.05.17/outbox.cif.g08.bks.cpg/sg9_7_cif.got.tgz:13670.got - 2010.06.03 20:04:27.
