data_PCOD9136790
_publ_section_title
;
Structure prediction by ZEFSAII (Michael W. Deem and Ramdas Pophale) SiO2 
 PCOD9136790
Probable space group: C C
;
_chemical_formula_sum "Si O2"
_cell_formula_units_Z 28
_cell_length_a 10.856287
_cell_length_b 11.898428
_cell_length_c 19.086979
_cell_angle_alpha 90.000000
_cell_angle_beta 29.954130
_cell_angle_gamma 90.000000
_cell_volume 1231.048976
_symmetry_space_group_name_H-M "C C"
_symmetry_group_IT_number 9
_symmetry_cell_setting 'monoclinic'
loop_
_space_group_symop_operation_xyz
x,y,z
x,-y,1/2+z
1/2+x,1/2+y,z
1/2+x,1/2-y,1/2+z
loop_
_atom_site_type_symbol
_atom_site_label
_atom_site_fract_x
_atom_site_fract_y
_atom_site_fract_z
Si Si1 0.583710 0.046079 0.257120
Si Si2 0.284104 0.337421 0.932300
Si Si3 0.006962 0.525354 0.003016
Si Si4 0.505905 0.654124 0.983210
Si Si5 0.238098 0.152758 0.536709
Si Si6 0.389505 0.032132 0.707413
Si Si7 0.157992 0.675142 0.809139
O O1 0.864890 0.087909 0.113924
O O2 0.406202 0.131123 0.385509
O O3 0.505822 0.030465 0.215593
O O4 0.568180 0.926947 0.303377
O O5 0.253444 0.449931 0.899403
O O6 0.523650 0.289547 0.852797
O O7 0.202001 0.236851 0.921852
O O8 0.069054 0.364327 0.095606
O O9 0.072904 0.636420 0.928574
O O10 0.823474 0.448212 0.046874
O O11 0.887102 0.539345 0.137906
O O12 0.317997 0.735487 0.037084
O O13 0.630768 0.575810 0.863765
O O14 0.952003 0.165943 0.661495
#
# Coordination Sequence:
#
# PCOD9136790 Si02
#       7
#     4   4   4   4   4   4   4
#     4  11  23  41  69  98 130 182 230 289 346 426
#     4   9  21  43  66 101 131 185 220 277 354 415
#     4   8  22  42  67 100 137 179 227 283 344 420
#     4  11  21  44  69  90 137 179 225 285 350 417
#     4  10  23  42  66 101 132 178 233 281 355 416
#     4  10  21  44  64 100 131 182 231 279 346 425
#     4  11  21  44  69 104 138 179 228 290 347 423
#
# _framework density 22.744831000000001
#
# number of rings (size 3 to 8) (size 9 to 14) (size 15 to 20)
#    0.857    1.143    1.429    1.714    2.000    1.143 
#    5.143    0.000    0.000    0.000    0.000    0.000 
#    0.000    0.000    0.000    0.000    0.000    0.000 
#
# Total GULP energy -78161.123620 kJ/mol
# GULP energy per Si atom -5582.937401 kJ/mol
# Density = 2.269306 g / cm^3
# Si number density = 22.744831 Si / 1000 Ang^3
#
#
#
# Elastic Constant Matrix: (Units=GPa)
#
#
# Indices 1 2 3 4 5 6 
#
# 1 102.2522 24.8017 38.8389 0.0084 11.0263 0.0086
# 2 24.8017 58.8403 27.8239 0.0047 -6.4368 0.0060
# 3 38.8389 27.8239 113.5431 0.0281 7.4691 0.0330
# 4 0.0084 0.0047 0.0281 16.3525 -0.0145 1.2996
# 5 11.0263 -6.4368 7.4691 -0.0145 43.7749 -0.0145
# 6 0.0086 0.0060 0.0330 1.2996 -0.0145 -2.6373
#
#
#
# Elastic Compliance Matrix: (Units=1/GPa)
#
#
# Indices 1 2 3 4 5 6 
#
# 1 0.012248 -0.004104 -0.002975 -0.000004 -0.003181 0.000009
# 2 -0.004104 0.021200 -0.004110 0.000010 0.004852 -0.000038
# 3 -0.002975 -0.004110 0.010945 -0.000027 -0.001723 0.000114
# 4 -0.000004 0.000010 -0.000027 0.058848 0.000036 0.028998
# 5 -0.003181 0.004852 -0.001723 0.000036 0.024653 -0.000139
# 6 0.000009 -0.000038 0.000114 0.028998 -0.000139 -0.364882
#
#
# Mechanical properties :
#
#
# Convention : Reuss Voigt Hill
#
# Bulk Modulus (GPa) = 45.42390 50.84053 48.13221
# Shear Modulus (GPa) = -24.12296 23.70941 -0.20677
#
# Velocity S-wave (km/s) = -3.26020 3.23214 -0.30184
# Velocity P-wave (km/s) = 2.41713 6.02744 4.59198
#
# Compressibility (1/GPa) = 0.02201484
#
# Stress axis : x y z
#
# Youngs Moduli (GPa) = 81.64524 47.17089 91.36357
#
# Poissons Ratio (x) = 0.19359 0.27178
# Poissons Ratio (y) = 0.33508 0.37553
# Poissons Ratio (z) = 0.24287 0.19389
#
# Static dielectric constant tensor:
#      x y z
#    x 1.872930 -0.000020 -0.043910 
#    y -0.000020 1.870250 0.000080 
#    z -0.043910 0.000080 1.902490 
# 
# From -- ./inp_files/33299.got.cif
#   From: 2010.05.17/outbox.cif.g08.bks.cpg/sg9_17_cif.got.tgz:33299.got - 2010.06.03 20:04:27.
