data_PCOD9136512
_publ_section_title
;
Structure prediction by ZEFSAII (Michael W. Deem and Ramdas Pophale) SiO2 
 PCOD9136512
Probable space group: C C
;
_chemical_formula_sum "Si O2"
_cell_formula_units_Z 28
_cell_length_a 8.319687
_cell_length_b 17.974829
_cell_length_c 11.140337
_cell_angle_alpha 90.000000
_cell_angle_beta 40.356265
_cell_angle_gamma 90.000000
_cell_volume 1078.786795
_symmetry_space_group_name_H-M "C C"
_symmetry_group_IT_number 9
_symmetry_cell_setting 'monoclinic'
loop_
_space_group_symop_operation_xyz
x,y,z
x,-y,1/2+z
1/2+x,1/2+y,z
1/2+x,1/2-y,1/2+z
loop_
_atom_site_type_symbol
_atom_site_label
_atom_site_fract_x
_atom_site_fract_y
_atom_site_fract_z
Si Si1 0.057570 0.938061 0.256390
Si Si2 0.494942 0.014565 0.323366
Si Si3 0.023604 0.334126 0.721118
Si Si4 0.087822 0.647086 0.663940
Si Si5 0.851298 0.918626 0.810501
Si Si6 0.581082 0.340527 0.479164
Si Si7 0.997182 0.812037 0.113878
O O1 0.116491 0.900199 0.349642
O O2 0.919338 0.871130 0.262099
O O3 0.267781 0.967558 0.043279
O O4 0.927424 0.016653 0.358284
O O5 0.501334 0.077275 0.214418
O O6 0.731459 0.035763 0.268987
O O7 0.513203 0.931733 0.266974
O O8 0.298474 0.313885 0.613292
O O9 0.957250 0.274857 0.658950
O O10 0.794689 0.320794 0.941348
O O11 0.152467 0.632749 0.489023
O O12 0.341410 0.669388 0.585054
O O13 0.847871 0.699797 0.818341
O O14 0.060346 0.871264 0.626187
#
# Coordination Sequence:
#
# PCOD9136512 Si02
#       7
#     4   4   4   4   4   4   4
#     4  11  21  39  71 102 153 193 241 300 377 452
#     4  10  21  41  69 112 147 193 242 311 378 432
#     4  10  24  45  71  97 147 196 246 280 374 456
#     4  12  24  44  76 113 149 181 256 322 361 426
#     4  11  21  39  67 111 149 188 237 310 378 429
#     4  11  24  44  72 105 143 195 244 305 366 438
#     4  11  25  48  72 106 146 204 246 300 372 455
#
# _framework density 25.955079999999999
#
# number of rings (size 3 to 8) (size 9 to 14) (size 15 to 20)
#    0.000    1.143    4.286    2.571    0.000    0.000 
#    7.714    2.857    3.143    0.000    0.000    0.000 
#    0.000    0.000    0.000    0.000    0.000    0.000 
#
# Total GULP energy -78132.946383 kJ/mol
# GULP energy per Si atom -5580.924742 kJ/mol
# Density = 2.589600 g / cm^3
# Si number density = 25.955080 Si / 1000 Ang^3
#
#
#
# Elastic Constant Matrix: (Units=GPa)
#
#
# Indices 1 2 3 4 5 6 
#
# 1 84.9967 18.7331 24.2696 0.0000 -2.8080 0.0000
# 2 18.7331 97.5083 31.0697 0.0000 -0.2934 0.0000
# 3 24.2696 31.0697 146.6700 0.0000 -11.2961 0.0000
# 4 0.0000 0.0000 0.0000 16.4696 0.0000 8.3132
# 5 -2.8080 -0.2934 -11.2961 0.0000 33.9634 0.0000
# 6 0.0000 0.0000 0.0000 8.3132 0.0000 27.5310
#
#
#
# Elastic Compliance Matrix: (Units=1/GPa)
#
#
# Indices 1 2 3 4 5 6 
#
# 1 0.012674 -0.001906 -0.001657 0.000000 0.000480 0.000000
# 2 -0.001906 0.011301 -0.002138 0.000000 -0.000771 0.000000
# 3 -0.001657 -0.002138 0.007731 0.000000 0.002416 0.000000
# 4 0.000000 0.000000 0.000000 0.071636 0.000000 -0.021631
# 5 0.000480 -0.000771 0.002416 0.000000 0.030280 0.000000
# 6 0.000000 0.000000 0.000000 -0.021631 0.000000 0.042854
#
#
# Mechanical properties :
#
#
# Convention : Reuss Voigt Hill
#
# Bulk Modulus (GPa) = 49.24757 53.03554 51.14156
# Shear Modulus (GPa) = 25.68780 32.59964 29.14372
#
# Velocity S-wave (km/s) = 3.14937 3.54786 3.35453
# Velocity P-wave (km/s) = 5.67803 6.10418 5.89496
#
# Compressibility (1/GPa) = 0.02030557
#
# Stress axis : x y z
#
# Youngs Moduli (GPa) = 78.90152 88.49136 129.34816
#
# Poissons Ratio (x) = 0.16863 0.21427
# Poissons Ratio (y) = 0.15036 0.27653
# Poissons Ratio (z) = 0.13070 0.18918
#
# Static dielectric constant tensor:
#      x y z
#    x 2.011830 0.000000 -0.081560 
#    y 0.000000 2.109970 0.000000 
#    z -0.081560 0.000000 2.124260 
# 
# From -- ./inp_files/15445.got.cif
#   From: 2010.05.17/outbox.cif.g08.bks.cpg/sg9_8_cif.got.tgz:15445.got - 2010.06.03 20:04:27.
