data_PCOD9136748
_publ_section_title
;
Structure prediction by ZEFSAII (Michael W. Deem and Ramdas Pophale) SiO2 
 PCOD9136748
Probable space group: C C
;
_chemical_formula_sum "Si O2"
_cell_formula_units_Z 28
_cell_length_a 11.139475
_cell_length_b 15.180859
_cell_length_c 7.579908
_cell_angle_alpha 90.000000
_cell_angle_beta 106.392614
_cell_angle_gamma 90.000000
_cell_volume 1229.708708
_symmetry_space_group_name_H-M "C C"
_symmetry_group_IT_number 9
_symmetry_cell_setting 'monoclinic'
loop_
_space_group_symop_operation_xyz
x,y,z
x,-y,1/2+z
1/2+x,1/2+y,z
1/2+x,1/2-y,1/2+z
loop_
_atom_site_type_symbol
_atom_site_label
_atom_site_fract_x
_atom_site_fract_y
_atom_site_fract_z
Si Si1 0.825210 0.698931 0.090080
Si Si2 0.816690 0.183115 0.920788
Si Si3 0.641158 0.555085 0.315007
Si Si4 0.086852 0.124632 0.911294
Si Si5 0.913396 0.485828 0.501067
Si Si6 0.558593 0.111221 0.758134
Si Si7 0.452691 0.294436 0.829054
O O1 0.795232 0.735590 0.274151
O O2 0.696142 0.694110 0.920416
O O3 0.892634 0.602722 0.112346
O O4 0.910527 0.764674 0.006578
O O5 0.706051 0.112257 0.853735
O O6 0.839574 0.194628 0.140228
O O7 0.950310 0.153781 0.902897
O O8 0.642615 0.587354 0.117008
O O9 0.583851 0.457436 0.282201
O O10 0.781862 0.538056 0.441672
O O11 0.547369 0.622725 0.372759
O O12 0.023244 0.557544 0.570883
O O13 0.957920 0.437743 0.341331
O O14 0.525805 0.213297 0.767492
#
# Coordination Sequence:
#
# PCOD9136748 Si02
#       7
#     4   4   4   4   4   4   4
#     4  10  23  46  67 102 128 179 223 276 340 393
#     4  11  24  44  65  99 142 168 226 275 336 404
#     4  10  21  43  69  97 131 173 229 273 330 406
#     4  10  23  40  67  99 126 181 221 271 341 392
#     4  10  23  44  69  97 130 176 228 270 340 402
#     4  11  25  41  66 100 130 180 221 278 338 391
#     4  10  25  42  71 100 129 177 224 279 335 398
#
# _framework density 22.76962
#
# number of rings (size 3 to 8) (size 9 to 14) (size 15 to 20)
#    0.000    1.714    0.000    3.429    8.000    4.571 
#    2.571    0.000    0.000    0.000    0.000    0.000 
#    0.000    0.000    0.000    0.000    0.000    0.000 
#
# Total GULP energy -77990.206930 kJ/mol
# GULP energy per Si atom -5570.729066 kJ/mol
# Density = 2.271780 g / cm^3
# Si number density = 22.769620 Si / 1000 Ang^3
#
#
#
# Elastic Constant Matrix: (Units=GPa)
#
#
# Indices 1 2 3 4 5 6 
#
# 1 88.4686 35.8780 25.0696 0.0000 17.3684 0.0000
# 2 35.8780 67.4244 45.6540 0.0000 11.8005 0.0000
# 3 25.0696 45.6540 81.1734 0.0000 10.0979 0.0000
# 4 0.0000 0.0000 0.0000 -7.7537 0.0000 -24.6205
# 5 17.3684 11.8005 10.0979 0.0000 28.3358 0.0000
# 6 0.0000 0.0000 0.0000 -24.6205 0.0000 1.1409
#
#
#
# Elastic Compliance Matrix: (Units=1/GPa)
#
#
# Indices 1 2 3 4 5 6 
#
# 1 0.015457 -0.007106 0.000035 0.000000 -0.006527 0.000000
# 2 -0.007106 0.028042 -0.013253 0.000000 -0.002599 0.000000
# 3 0.000035 -0.013253 0.019964 0.000000 -0.001616 0.000000
# 4 0.000000 0.000000 0.000000 -0.001855 0.000000 -0.040032
# 5 -0.006527 -0.002599 -0.001616 0.000000 0.040950 0.000000
# 6 0.000000 0.000000 0.000000 -0.040032 0.000000 0.012607
#
#
# Mechanical properties :
#
#
# Convention : Reuss Voigt Hill
#
# Bulk Modulus (GPa) = 43.83450 50.02995 46.93222
# Shear Modulus (GPa) = 30.59626 13.04225 21.81926
#
# Velocity S-wave (km/s) = 3.66967 2.39590 3.09894
# Velocity P-wave (km/s) = 6.10315 5.44736 5.78456
#
# Compressibility (1/GPa) = 0.02281308
#
# Stress axis : x y z
#
# Youngs Moduli (GPa) = 64.69602 35.66104 50.09113
#
# Poissons Ratio (x) = 0.25342 -0.00176
# Poissons Ratio (y) = 0.45975 0.66388
# Poissons Ratio (z) = -0.00227 0.47263
#
# Static dielectric constant tensor:
#      x y z
#    x 1.886260 0.000000 0.007950 
#    y 0.000000 2.745960 0.000000 
#    z 0.007950 0.000000 1.965050 
# 
# From -- ./inp_files/7304.got.cif
#   From: 2010.05.17/outbox.cif.g08.bks.cpg/sg9_4_cif.got.tgz:7304.got - 2010.06.03 20:04:27.
