data_PCOD9136500
_publ_section_title
;
Structure prediction by ZEFSAII (Michael W. Deem and Ramdas Pophale) SiO2 
 PCOD9136500
Probable space group: C C
;
_chemical_formula_sum "Si O2"
_cell_formula_units_Z 28
_cell_length_a 22.184410
_cell_length_b 8.005984
_cell_length_c 11.615112
_cell_angle_alpha 90.000000
_cell_angle_beta 148.547133
_cell_angle_gamma 90.000000
_cell_volume 1076.434398
_symmetry_space_group_name_H-M "C C"
_symmetry_group_IT_number 9
_symmetry_cell_setting 'monoclinic'
loop_
_space_group_symop_operation_xyz
x,y,z
x,-y,1/2+z
1/2+x,1/2+y,z
1/2+x,1/2-y,1/2+z
loop_
_atom_site_type_symbol
_atom_site_label
_atom_site_fract_x
_atom_site_fract_y
_atom_site_fract_z
Si Si1 0.728610 0.431326 0.697130
Si Si2 0.922784 0.149907 0.467637
Si Si3 0.178366 0.087149 0.868305
Si Si4 0.958697 0.240693 0.080471
Si Si5 0.368761 0.405834 0.643290
Si Si6 0.908011 0.728167 0.189546
Si Si7 0.119972 0.638412 0.643988
O O1 0.703635 0.503798 0.784937
O O2 0.680517 0.504103 0.497896
O O3 0.663964 0.255184 0.610756
O O4 0.862649 0.382558 0.903330
O O5 0.890851 0.259290 0.525026
O O6 0.057250 0.180103 0.661308
O O7 0.918900 0.950061 0.485612
O O8 0.848803 0.175926 0.234260
O O9 0.287299 0.206640 0.055421
O O10 0.950830 0.217929 0.204907
O O11 0.067395 0.282524 0.176875
O O12 0.439515 0.578942 0.770343
O O13 0.242322 0.441397 0.381363
O O14 0.997932 0.591727 0.383589
#
# Coordination Sequence:
#
# PCOD9136500 Si02
#       7
#     4   4   4   4   4   4   4
#     4  11  23  40  67 100 125 179 223 275 337 415
#     4  11  22  42  68  94 131 174 228 274 343 410
#     4  12  24  40  71  95 138 175 227 274 348 409
#     4  10  21  41  68  90 130 174 222 278 343 398
#     4  10  23  39  69 100 125 179 229 273 337 416
#     4  11  23  44  65  97 137 178 220 281 340 403
#     4  11  20  42  70  90 130 175 221 271 342 397
#
# _framework density 26.011804000000001
#
# number of rings (size 3 to 8) (size 9 to 14) (size 15 to 20)
#    0.000    1.143    5.714    0.000    2.000    3.429 
#    2.571    2.857    0.000    0.000    0.000    0.000 
#    0.000    0.000    0.000    0.000    0.000    0.000 
#
# Total GULP energy -77968.751989 kJ/mol
# GULP energy per Si atom -5569.196571 kJ/mol
# Density = 2.595260 g / cm^3
# Si number density = 26.011804 Si / 1000 Ang^3
#
#
#
# Elastic Constant Matrix: (Units=GPa)
#
#
# Indices 1 2 3 4 5 6 
#
# 1 167.8987 18.5990 44.0161 0.0000 -11.3010 0.0000
# 2 18.5990 26.3322 32.4583 0.0000 4.2180 0.0000
# 3 44.0161 32.4583 88.4819 0.0000 -8.6976 0.0000
# 4 0.0000 0.0000 0.0000 20.9429 0.0000 11.6675
# 5 -11.3010 4.2180 -8.6976 0.0000 70.0245 0.0000
# 6 0.0000 0.0000 0.0000 11.6675 0.0000 26.2715
#
#
#
# Elastic Compliance Matrix: (Units=1/GPa)
#
#
# Indices 1 2 3 4 5 6 
#
# 1 0.006918 -0.001624 -0.002760 0.000000 0.000871 0.000000
# 2 -0.001624 0.073739 -0.027035 0.000000 -0.008062 0.000000
# 3 -0.002760 -0.027035 0.022989 0.000000 0.004038 0.000000
# 4 0.000000 0.000000 0.000000 0.063447 0.000000 -0.028178
# 5 0.000871 -0.008062 0.004038 0.000000 0.015409 0.000000
# 6 0.000000 0.000000 0.000000 -0.028178 0.000000 0.050578
#
#
# Mechanical properties :
#
#
# Convention : Reuss Voigt Hill
#
# Bulk Modulus (GPa) = 24.50450 52.53996 38.52223
# Shear Modulus (GPa) = 16.15405 35.95707 26.05556
#
# Velocity S-wave (km/s) = 2.49475 3.72201 3.16837
# Velocity P-wave (km/s) = 4.21181 6.22202 5.31285
#
# Compressibility (1/GPa) = 0.04080883
#
# Stress axis : x y z
#
# Youngs Moduli (GPa) = 144.54845 13.56136 43.49880
#
# Poissons Ratio (x) = 0.02202 0.12007
# Poissons Ratio (y) = 0.23469 1.17598
# Poissons Ratio (z) = 0.39898 0.36663
#
# Static dielectric constant tensor:
#      x y z
#    x 2.099930 0.000000 -0.057340 
#    y 0.000000 2.091570 0.000000 
#    z -0.057340 0.000000 2.198790 
# 
# From -- ./inp_files/16111.got.cif
#   From: 2010.05.17/outbox.cif.g08.bks.cpg/sg9_9_cif.got.tgz:16111.got - 2010.06.03 20:04:27.
