data_PCOD9136320
_publ_section_title
;
Structure prediction by ZEFSAII (Michael W. Deem and Ramdas Pophale) SiO2 
 PCOD9136320
Probable space group: C C
;
_chemical_formula_sum "Si O2"
_cell_formula_units_Z 24
_cell_length_a 19.970793
_cell_length_b 10.593212
_cell_length_c 10.124305
_cell_angle_alpha 90.000000
_cell_angle_beta 26.943335
_cell_angle_gamma 90.000000
_cell_volume 970.489766
_symmetry_space_group_name_H-M "C C"
_symmetry_group_IT_number 9
_symmetry_cell_setting 'monoclinic'
loop_
_space_group_symop_operation_xyz
x,y,z
x,-y,1/2+z
1/2+x,1/2+y,z
1/2+x,1/2-y,1/2+z
loop_
_atom_site_type_symbol
_atom_site_label
_atom_site_fract_x
_atom_site_fract_y
_atom_site_fract_z
Si Si1 0.623490 0.304877 0.449140
Si Si2 0.309097 0.846106 0.886887
Si Si3 0.131183 0.349182 0.301579
Si Si4 0.184328 0.460281 0.932679
Si Si5 0.800190 0.366517 0.377279
Si Si6 0.490390 0.658196 0.928381
O O1 0.765832 0.288480 0.103241
O O2 0.588561 0.160764 0.549551
O O3 0.666380 0.374674 0.506475
O O4 0.522151 0.382447 0.526553
O O5 0.466031 0.796229 0.566160
O O6 0.154346 0.835007 0.079028
O O7 0.334785 0.995148 0.862487
O O8 0.145039 0.418263 0.417152
O O9 0.161415 0.451203 0.130907
O O10 0.244835 0.234487 0.081480
O O11 0.358000 0.425560 0.607118
O O12 0.928150 0.298263 0.067992
#
# Coordination Sequence:
#
# PCOD9136320 Si02
#       6
#     4   4   4   4   4   4
#     4   8  19  39  65  89 131 175 215 272 329 381
#     4  10  21  40  66  94 127 178 221 268 331 394
#     4  10  23  40  69  99 130 178 218 276 335 397
#     4  10  21  44  69  97 140 173 224 276 339 394
#     4  10  21  42  64  93 134 168 224 280 326 394
#     4   8  19  39  65  92 130 176 214 272 330 384
#
# _framework density 24.729783000000001
#
# number of rings (size 3 to 8) (size 9 to 14) (size 15 to 20)
#    1.000    2.000    0.000    1.000    2.333    2.667 
#    6.000    3.333   14.667    0.000    0.000    0.000 
#    0.000    0.000    0.000    0.000    0.000    0.000 
#
# Total GULP energy -66857.254982 kJ/mol
# GULP energy per Si atom -5571.437915 kJ/mol
# Density = 2.467350 g / cm^3
# Si number density = 24.729783 Si / 1000 Ang^3
#
#
#
# Elastic Constant Matrix: (Units=GPa)
#
#
# Indices 1 2 3 4 5 6 
#
# 1 61.9456 -1.3071 -1.8570 0.0000 -8.6040 0.0000
# 2 -1.3071 61.6435 15.5062 0.0000 0.3047 0.0000
# 3 -1.8570 15.5062 123.5904 0.0000 -31.6400 0.0000
# 4 0.0000 0.0000 0.0000 22.6110 0.0000 0.9897
# 5 -8.6040 0.3047 -31.6400 0.0000 45.5547 0.0000
# 6 0.0000 0.0000 0.0000 0.9897 0.0000 25.1727
#
#
#
# Elastic Compliance Matrix: (Units=1/GPa)
#
#
# Indices 1 2 3 4 5 6 
#
# 1 0.016746 0.000011 0.001289 0.000000 0.004058 0.000000
# 2 0.000011 0.016889 -0.002612 0.000000 -0.001925 0.000000
# 3 0.001289 -0.002612 0.010344 0.000000 0.007446 0.000000
# 4 0.000000 0.000000 0.000000 0.044303 0.000000 -0.001742
# 5 0.004058 -0.001925 0.007446 0.000000 0.027902 0.000000
# 6 0.000000 0.000000 0.000000 -0.001742 0.000000 0.039794
#
#
# Mechanical properties :
#
#
# Convention : Reuss Voigt Hill
#
# Bulk Modulus (GPa) = 24.18041 30.20706 27.19373
# Shear Modulus (GPa) = 29.00457 34.32351 31.66404
#
# Velocity S-wave (km/s) = 3.42842 3.72955 3.58215
# Velocity P-wave (km/s) = 5.04690 5.54864 5.30371
#
# Compressibility (1/GPa) = 0.04135580
#
# Stress axis : x y z
#
# Youngs Moduli (GPa) = 59.71675 59.21023 96.67048
#
# Poissons Ratio (x) = -0.00064 -0.12462
# Poissons Ratio (y) = -0.00064 0.25246
# Poissons Ratio (z) = -0.07699 0.15463
#
# Static dielectric constant tensor:
#      x y z
#    x 2.015280 0.000000 -0.092230 
#    y 0.000000 1.907910 0.000000 
#    z -0.092230 0.000000 2.009920 
# 
# From -- ./inp_files/17654.got.cif
#   From: 2010.05.17/outbox.cif.g08.bks.cpg/sg9_9_cif.got.tgz:17654.got - 2010.06.03 20:04:27.
