data_PCOD9136245
_publ_section_title
;
Structure prediction by ZEFSAII (Michael W. Deem and Ramdas Pophale) SiO2 
 PCOD9136245
Probable space group: C C
;
_chemical_formula_sum "Si O2"
_cell_formula_units_Z 28
_cell_length_a 5.884433
_cell_length_b 18.112817
_cell_length_c 11.720513
_cell_angle_alpha 90.000000
_cell_angle_beta 108.458273
_cell_angle_gamma 90.000000
_cell_volume 1184.948637
_symmetry_space_group_name_H-M "C C"
_symmetry_group_IT_number 9
_symmetry_cell_setting 'monoclinic'
loop_
_space_group_symop_operation_xyz
x,y,z
x,-y,1/2+z
1/2+x,1/2+y,z
1/2+x,1/2-y,1/2+z
loop_
_atom_site_type_symbol
_atom_site_label
_atom_site_fract_x
_atom_site_fract_y
_atom_site_fract_z
Si Si1 0.791230 0.544221 0.991840
Si Si2 0.777241 0.232027 0.022272
Si Si3 0.552769 0.599340 0.181146
Si Si4 0.331255 0.459325 0.248303
Si Si5 0.003770 0.368164 0.337246
Si Si6 0.807205 0.387576 0.958626
Si Si7 0.035462 0.842552 0.116680
O O1 0.556938 0.540635 0.872079
O O2 0.926767 0.465968 0.001103
O O3 0.943410 0.607088 0.955452
O O4 0.707081 0.563754 0.104085
O O5 0.546595 0.261996 0.059037
O O6 0.931124 0.173584 0.115909
O O7 0.697665 0.195065 0.890490
O O8 0.914176 0.308619 0.012312
O O9 0.360131 0.537479 0.190448
O O10 0.718749 0.616030 0.315955
O O11 0.102171 0.439622 0.287150
O O12 0.360708 0.388904 0.168653
O O13 0.776247 0.340609 0.232188
O O14 0.581533 0.391903 0.010867
#
# Coordination Sequence:
#
# PCOD9136245 Si02
#       7
#     4   4   4   4   4   4   4
#     4  10  21  41  64  92 124 166 205 260 310 368
#     4  10  21  40  60  96 125 157 214 253 310 376
#     4  11  19  40  68  88 128 167 207 256 317 368
#     4  10  21  41  65  90 125 169 208 258 307 372
#     4  11  22  40  66  92 126 163 216 257 305 377
#     4   9  21  39  63  89 128 166 196 262 316 365
#     4   9  21  41  60  89 128 162 200 258 317 360
#
# _framework density 23.629714
#
# number of rings (size 3 to 8) (size 9 to 14) (size 15 to 20)
#    0.857    1.143    2.857    0.857    0.000    1.143 
#    5.143    0.000    6.286    0.000    0.000    0.000 
#    0.000    0.000    0.000    0.000    0.000    0.000 
#
# Total GULP energy -78089.226027 kJ/mol
# GULP energy per Si atom -5577.801859 kJ/mol
# Density = 2.357593 g / cm^3
# Si number density = 23.629714 Si / 1000 Ang^3
#
#
#
# Elastic Constant Matrix: (Units=GPa)
#
#
# Indices 1 2 3 4 5 6 
#
# 1 14.1771 18.2008 17.0942 0.0000 6.0897 0.0000
# 2 18.2008 166.9998 58.2675 0.0000 3.1777 0.0000
# 3 17.0942 58.2675 146.0775 0.0000 -7.0737 0.0000
# 4 0.0000 0.0000 0.0000 48.7560 0.0000 3.0734
# 5 6.0897 3.1777 -7.0737 0.0000 23.3052 0.0000
# 6 0.0000 0.0000 0.0000 3.0734 0.0000 26.1149
#
#
#
# Elastic Compliance Matrix: (Units=1/GPa)
#
#
# Indices 1 2 3 4 5 6 
#
# 1 0.105842 -0.007127 -0.010997 0.000000 -0.030022 0.000000
# 2 -0.007127 0.007513 -0.002154 0.000000 0.000184 0.000000
# 3 -0.010997 -0.002154 0.009281 0.000000 0.005984 0.000000
# 4 0.000000 0.000000 0.000000 0.020664 0.000000 -0.002432
# 5 -0.030022 0.000184 0.005984 0.000000 0.052545 0.000000
# 6 0.000000 0.000000 0.000000 -0.002432 0.000000 0.038579
#
#
# Mechanical properties :
#
#
# Convention : Reuss Voigt Hill
#
# Bulk Modulus (GPa) = 12.18311 57.15325 34.66818
# Shear Modulus (GPa) = 16.53774 35.21468 25.87621
#
# Velocity S-wave (km/s) = 2.64838 3.86459 3.31278
# Velocity P-wave (km/s) = 3.81037 6.64477 5.41626
#
# Compressibility (1/GPa) = 0.08208082
#
# Stress axis : x y z
#
# Youngs Moduli (GPa) = 9.44804 133.10682 107.74263
#
# Poissons Ratio (x) = 0.94870 1.18480
# Poissons Ratio (y) = 0.06734 0.23205
# Poissons Ratio (z) = 0.10390 0.28668
#
# Static dielectric constant tensor:
#      x y z
#    x 1.927350 0.000000 0.000460 
#    y 0.000000 1.909450 0.000000 
#    z 0.000460 0.000000 1.891510 
# 
# From -- ./inp_files/13329.got.cif
#   From: 2010.05.17/outbox.cif.g08.bks.cpg/sg9_7_cif.got.tgz:13329.got - 2010.06.03 20:04:27.
