data_PCOD9136724
_publ_section_title
;
Structure prediction by ZEFSAII (Michael W. Deem and Ramdas Pophale) SiO2 
 PCOD9136724
Probable space group: C C
;
_chemical_formula_sum "Si O2"
_cell_formula_units_Z 24
_cell_length_a 6.742622
_cell_length_b 20.495798
_cell_length_c 10.051986
_cell_angle_alpha 90.000000
_cell_angle_beta 136.247280
_cell_angle_gamma 90.000000
_cell_volume 960.654985
_symmetry_space_group_name_H-M "C C"
_symmetry_group_IT_number 9
_symmetry_cell_setting 'monoclinic'
loop_
_space_group_symop_operation_xyz
x,y,z
x,-y,1/2+z
1/2+x,1/2+y,z
1/2+x,1/2-y,1/2+z
loop_
_atom_site_type_symbol
_atom_site_label
_atom_site_fract_x
_atom_site_fract_y
_atom_site_fract_z
Si Si1 0.018120 0.954417 0.798950
Si Si2 0.610049 0.965274 0.955439
Si Si3 0.434800 0.333579 0.057921
Si Si4 0.105083 0.299479 0.141577
Si Si5 0.979815 0.815029 0.778383
Si Si6 0.964748 0.589436 0.740369
O O1 0.848714 0.886274 0.692453
O O2 0.799652 0.013962 0.675910
O O3 0.272133 0.963901 0.816640
O O4 0.211758 0.057084 0.524671
O O5 0.639948 0.029335 0.880984
O O6 0.730646 0.897510 0.960642
O O7 0.332173 0.290275 0.134011
O O8 0.756672 0.362987 0.227965
O O9 0.410707 0.299843 0.900356
O O10 0.974254 0.239595 0.162643
O O11 0.180345 0.358242 0.276903
O O12 0.820413 0.328417 0.937567
#
# Coordination Sequence:
#
# PCOD9136724 Si02
#       6
#     4   4   4   4   4   4
#     4  10  24  40  67  99 139 179 230 287 342 423
#     4  12  21  42  68  99 142 184 222 289 360 408
#     4  10  21  43  67  95 137 179 225 290 347 407
#     4  10  22  43  66  90 140 177 230 288 340 410
#     4  10  24  42  65 100 131 177 237 284 334 427
#     4  10  24  40  65 101 135 180 234 282 337 429
#
# _framework density 24.982952999999998
#
# number of rings (size 3 to 8) (size 9 to 14) (size 15 to 20)
#    0.000    2.000    5.000    0.000    7.000    2.667 
#    0.000    0.000    7.333    0.000    0.000    0.000 
#    0.000    0.000    0.000    0.000    0.000    0.000 
#
# Total GULP energy -66831.397897 kJ/mol
# GULP energy per Si atom -5569.283158 kJ/mol
# Density = 2.492609 g / cm^3
# Si number density = 24.982953 Si / 1000 Ang^3
#
#
#
# Elastic Constant Matrix: (Units=GPa)
#
#
# Indices 1 2 3 4 5 6 
#
# 1 168.3965 39.0383 26.8234 0.0000 -24.8997 0.0000
# 2 39.0383 99.4452 28.6945 0.0000 -25.2209 0.0000
# 3 26.8234 28.6945 50.8977 0.0000 -5.2385 0.0000
# 4 0.0000 0.0000 0.0000 42.0198 0.0000 -12.8160
# 5 -24.8997 -25.2209 -5.2385 0.0000 30.9951 0.0000
# 6 0.0000 0.0000 0.0000 -12.8160 0.0000 33.3844
#
#
#
# Elastic Compliance Matrix: (Units=1/GPa)
#
#
# Indices 1 2 3 4 5 6 
#
# 1 0.007285 -0.000841 -0.002883 0.000000 0.004681 0.000000
# 2 -0.000841 0.015025 -0.006960 0.000000 0.010375 0.000000
# 3 -0.002883 -0.006960 0.024699 0.000000 -0.003805 0.000000
# 4 0.000000 0.000000 0.000000 0.026954 0.000000 0.010348
# 5 0.004681 0.010375 -0.003805 0.000000 0.043822 0.000000
# 6 0.000000 0.000000 0.000000 0.010348 0.000000 0.033927
#
#
# Mechanical properties :
#
#
# Convention : Reuss Voigt Hill
#
# Bulk Modulus (GPa) = 39.00013 56.42799 47.71406
# Shear Modulus (GPa) = 27.52901 36.22540 31.87721
#
# Velocity S-wave (km/s) = 3.32311 3.81202 3.57593
# Velocity P-wave (km/s) = 5.51077 6.48159 6.01580
#
# Compressibility (1/GPa) = 0.02564094
#
# Stress axis : x y z
#
# Youngs Moduli (GPa) = 137.27528 66.55496 40.48747
#
# Poissons Ratio (x) = 0.05594 0.11674
# Poissons Ratio (y) = 0.11539 0.28179
# Poissons Ratio (z) = 0.39582 0.46322
#
# Static dielectric constant tensor:
#      x y z
#    x 2.053080 0.000000 -0.145560 
#    y 0.000000 2.195110 0.000000 
#    z -0.145560 0.000000 2.150480 
# 
# From -- ./inp_files/3846.got.cif
#   From: 2010.05.17/outbox.cif.g08.bks.cpg/sg9_2_cif.got.tgz:3846.got - 2010.06.03 20:04:27.
