data_PCOD9136676
_publ_section_title
;
Structure prediction by ZEFSAII (Michael W. Deem and Ramdas Pophale) SiO2 
 PCOD9136676
Probable space group: C C
;
_chemical_formula_sum "Si O2"
_cell_formula_units_Z 28
_cell_length_a 5.279166
_cell_length_b 26.457659
_cell_length_c 7.656203
_cell_angle_alpha 90.000000
_cell_angle_beta 87.784928
_cell_angle_gamma 90.000000
_cell_volume 1068.576305
_symmetry_space_group_name_H-M "C C"
_symmetry_group_IT_number 9
_symmetry_cell_setting 'monoclinic'
loop_
_space_group_symop_operation_xyz
x,y,z
x,-y,1/2+z
1/2+x,1/2+y,z
1/2+x,1/2-y,1/2+z
loop_
_atom_site_type_symbol
_atom_site_label
_atom_site_fract_x
_atom_site_fract_y
_atom_site_fract_z
Si Si1 0.113800 0.105287 0.190470
Si Si2 0.477361 0.349275 0.032148
Si Si3 0.841446 0.996808 0.782560
Si Si4 0.591841 0.937424 0.022838
Si Si5 0.190604 0.912960 0.326395
Si Si6 0.367758 0.758092 0.395864
Si Si7 0.347373 0.303265 0.541197
O O1 0.174801 0.134846 0.370159
O O2 0.025807 0.050760 0.256487
O O3 0.888076 0.140195 0.114046
O O4 0.294095 0.100408 0.016056
O O5 0.228978 0.383637 0.002912
O O6 0.574091 0.366752 0.217940
O O7 0.416788 0.291147 0.014465
O O8 0.797346 0.023602 0.597021
O O9 0.574989 0.968561 0.843989
O O10 0.975296 0.045328 0.867410
O O11 0.383580 0.934390 0.177284
O O12 0.320975 0.733911 0.208385
O O13 0.614187 0.793337 0.417379
O O14 0.117060 0.786103 0.460533
#
# Coordination Sequence:
#
# PCOD9136676 Si02
#       7
#     4   4   4   4   4   4   4
#     4  10  23  46  65  97 141 177 237 291 359 427
#     4   9  24  44  64  98 139 175 233 297 352 429
#     4  10  21  43  59  97 138 169 234 282 348 429
#     4  10  22  38  64  98 126 185 220 287 352 418
#     4  11  23  41  70  94 132 185 227 291 355 430
#     4  11  25  47  75 106 149 189 245 302 371 431
#     4  11  26  47  75 110 143 196 240 308 363 442
#
# _framework density 26.203088999999999
#
# number of rings (size 3 to 8) (size 9 to 14) (size 15 to 20)
#    0.000    1.714    1.429    0.857    8.000    0.000 
#   12.857    0.000    0.000    0.000    0.000    0.000 
#    0.000    0.000    0.000    0.000    0.000    0.000 
#
# Total GULP energy -78200.176503 kJ/mol
# GULP energy per Si atom -5585.726893 kJ/mol
# Density = 2.614345 g / cm^3
# Si number density = 26.203089 Si / 1000 Ang^3
#
#
#
# Elastic Constant Matrix: (Units=GPa)
#
#
# Indices 1 2 3 4 5 6 
#
# 1 85.5157 28.9985 35.4953 0.0000 -14.8176 0.0000
# 2 28.9985 142.9127 36.4278 0.0000 -9.1573 0.0000
# 3 35.4953 36.4278 144.3446 0.0000 -18.0594 0.0000
# 4 0.0000 0.0000 0.0000 41.0096 0.0000 -10.4683
# 5 -14.8176 -9.1573 -18.0594 0.0000 28.2756 0.0000
# 6 0.0000 0.0000 0.0000 -10.4683 0.0000 3.3867
#
#
#
# Elastic Compliance Matrix: (Units=1/GPa)
#
#
# Indices 1 2 3 4 5 6 
#
# 1 0.014254 -0.001953 -0.002344 0.000000 0.005340 0.000000
# 2 -0.001953 0.007792 -0.001411 0.000000 0.000599 0.000000
# 3 -0.002344 -0.001411 0.008314 0.000000 0.003625 0.000000
# 4 0.000000 0.000000 0.000000 0.115576 0.000000 0.357244
# 5 0.005340 0.000599 0.003625 0.000000 0.040674 0.000000
# 6 0.000000 0.000000 0.000000 0.357244 0.000000 1.399512
#
#
# Mechanical properties :
#
#
# Convention : Reuss Voigt Hill
#
# Bulk Modulus (GPa) = 52.78875 63.84624 58.31750
# Shear Modulus (GPa) = 3.11749 32.65780 17.88765
#
# Velocity S-wave (km/s) = 1.09194 3.53418 2.61560
# Velocity P-wave (km/s) = 4.66685 6.40880 5.60590
#
# Compressibility (1/GPa) = 0.01894343
#
# Stress axis : x y z
#
# Youngs Moduli (GPa) = 70.15448 128.34372 120.27935
#
# Poissons Ratio (x) = 0.25061 0.28197
# Poissons Ratio (y) = 0.13698 0.16975
# Poissons Ratio (z) = 0.16446 0.18113
#
# Static dielectric constant tensor:
#      x y z
#    x 2.082360 0.000000 0.004960 
#    y 0.000000 2.125020 0.000000 
#    z 0.004960 0.000000 2.276900 
# 
# From -- ./inp_files/4115.got.cif
#   From: 2010.05.17/outbox.cif.g08.bks.cpg/sg9_3_cif.got.tgz:4115.got - 2010.06.03 20:04:27.
