data_PCOD9136979
_publ_section_title
;
Structure prediction by ZEFSAII (Michael W. Deem and Ramdas Pophale) SiO2 
 PCOD9136979
Probable space group: C C
;
_chemical_formula_sum "Si O2"
_cell_formula_units_Z 28
_cell_length_a 11.338018
_cell_length_b 11.593553
_cell_length_c 11.269875
_cell_angle_alpha 90.000000
_cell_angle_beta 133.292756
_cell_angle_gamma 90.000000
_cell_volume 1078.252129
_symmetry_space_group_name_H-M "C C"
_symmetry_group_IT_number 9
_symmetry_cell_setting 'monoclinic'
loop_
_space_group_symop_operation_xyz
x,y,z
x,-y,1/2+z
1/2+x,1/2+y,z
1/2+x,1/2-y,1/2+z
loop_
_atom_site_type_symbol
_atom_site_label
_atom_site_fract_x
_atom_site_fract_y
_atom_site_fract_z
Si Si1 0.937410 0.343203 0.188710
Si Si2 0.832130 0.967818 0.337106
Si Si3 0.743740 0.858031 0.987139
Si Si4 0.181763 0.653174 0.072253
Si Si5 0.911705 0.300912 0.896252
Si Si6 0.097501 0.817132 0.224727
Si Si7 0.197581 0.014036 0.133871
O O1 0.842177 0.227257 0.159279
O O2 0.074501 0.658477 0.439191
O O3 0.082125 0.351244 0.382513
O O4 0.955130 0.338210 0.060432
O O5 0.845608 0.830432 0.359992
O O6 0.173853 0.065241 0.732635
O O7 0.733548 0.029615 0.162534
O O8 0.085657 0.270427 0.603934
O O9 0.725603 0.743709 0.895204
O O10 0.923794 0.841619 0.164907
O O11 0.766946 0.964040 0.909702
O O12 0.022542 0.004877 0.954042
O O13 0.764605 0.366398 0.728262
O O14 0.326983 0.953711 0.139898
#
# Coordination Sequence:
#
# PCOD9136979 Si02
#       7
#     4   4   4   4   4   4   4
#     4  11  25  47  83 118 165 223 286 349 427 520
#     4  10  25  53  84 119 169 219 287 360 430 505
#     4  10  23  46  78 119 163 217 276 352 425 502
#     4  10  21  48  87 120 158 225 288 351 430 507
#     4  12  29  47  81 126 173 218 284 355 433 514
#     4   9  19  45  82 110 150 214 284 346 415 509
#     4  10  24  50  77 116 156 226 285 353 424 507
#
# _framework density 25.967953000000001
#
# number of rings (size 3 to 8) (size 9 to 14) (size 15 to 20)
#    0.000    1.714    0.000    4.286    4.000    3.429 
#   10.286    0.000    3.143    0.000    0.000    0.000 
#    0.000    0.000    0.000    0.000    0.000    0.000 
#
# Total GULP energy -78374.506411 kJ/mol
# GULP energy per Si atom -5598.179029 kJ/mol
# Density = 2.590885 g / cm^3
# Si number density = 25.967953 Si / 1000 Ang^3
#
#
#
# Elastic Constant Matrix: (Units=GPa)
#
#
# Indices 1 2 3 4 5 6 
#
# 1 127.4578 43.4103 74.0921 0.0000 16.6974 0.0000
# 2 43.4103 168.0804 54.3181 0.0000 17.6432 0.0000
# 3 74.0921 54.3181 136.5866 0.0000 -3.1051 0.0000
# 4 0.0000 0.0000 0.0000 23.4328 0.0000 17.9816
# 5 16.6974 17.6432 -3.1051 0.0000 29.0321 0.0000
# 6 0.0000 0.0000 0.0000 17.9816 0.0000 20.8275
#
#
#
# Elastic Compliance Matrix: (Units=1/GPa)
#
#
# Indices 1 2 3 4 5 6 
#
# 1 0.013233 -0.000194 -0.007289 0.000000 -0.008272 0.000000
# 2 -0.000194 0.007456 -0.002968 0.000000 -0.004737 0.000000
# 3 -0.007289 -0.002968 0.012623 0.000000 0.007346 0.000000
# 4 0.000000 0.000000 0.000000 0.126452 0.000000 -0.109173
# 5 -0.008272 -0.004737 0.007346 0.000000 0.042867 0.000000
# 6 0.000000 0.000000 0.000000 -0.109173 0.000000 0.142269
#
#
# Mechanical properties :
#
#
# Convention : Reuss Voigt Hill
#
# Bulk Modulus (GPa) = 80.57970 86.19620 83.38795
# Shear Modulus (GPa) = 13.51582 32.01211 22.76396
#
# Velocity S-wave (km/s) = 2.28388 3.51487 2.96398
# Velocity P-wave (km/s) = 6.16868 7.05250 6.62534
#
# Compressibility (1/GPa) = 0.01241007
#
# Stress axis : x y z
#
# Youngs Moduli (GPa) = 75.57064 134.12277 79.22291
#
# Poissons Ratio (x) = 0.02597 0.57747
# Poissons Ratio (y) = 0.01463 0.23511
# Poissons Ratio (z) = 0.55085 0.39804
#
# Static dielectric constant tensor:
#      x y z
#    x 2.094210 0.000000 -0.065260 
#    y 0.000000 2.032830 0.000000 
#    z -0.065260 0.000000 2.034070 
# 
# From -- ./inp_files/26807.got.cif
#   From: 2010.05.17/outbox.cif.g08.bks.cpg/sg9_14_cif.got.tgz:26807.got - 2010.06.03 20:04:27.
