data_PCOD9136078
_publ_section_title
;
Structure prediction by ZEFSAII (Michael W. Deem and Ramdas Pophale) SiO2 
 PCOD9136078
Probable space group: C C
;
_chemical_formula_sum "Si O2"
_cell_formula_units_Z 28
_cell_length_a 19.258573
_cell_length_b 8.807154
_cell_length_c 12.257170
_cell_angle_alpha 90.000000
_cell_angle_beta 32.927243
_cell_angle_gamma 90.000000
_cell_volume 1130.077606
_symmetry_space_group_name_H-M "C C"
_symmetry_group_IT_number 9
_symmetry_cell_setting 'monoclinic'
loop_
_space_group_symop_operation_xyz
x,y,z
x,-y,1/2+z
1/2+x,1/2+y,z
1/2+x,1/2-y,1/2+z
loop_
_atom_site_type_symbol
_atom_site_label
_atom_site_fract_x
_atom_site_fract_y
_atom_site_fract_z
Si Si1 0.582460 0.272635 0.848510
Si Si2 0.432759 0.053883 0.205561
Si Si3 0.133165 0.665676 0.420873
Si Si4 0.533878 0.257812 0.225960
Si Si5 0.187491 0.516095 0.125327
Si Si6 0.885130 0.022018 0.041460
Si Si7 0.688572 0.517915 0.375161
O O1 0.461633 0.374296 0.975371
O O2 0.686918 0.385810 0.764299
O O3 0.635889 0.156446 0.687439
O O4 0.533509 0.160070 0.007534
O O5 0.414892 0.158605 0.335796
O O6 0.315800 0.028470 0.279765
O O7 0.504943 0.900175 0.143144
O O8 0.118605 0.605910 0.316118
O O9 0.153486 0.843480 0.403760
O O10 0.267558 0.578596 0.271969
O O11 0.649359 0.135895 0.083382
O O12 0.483756 0.341372 0.399269
O O13 0.583152 0.395259 0.086421
O O14 0.326031 0.501854 0.997477
#
# Coordination Sequence:
#
# PCOD9136078 Si02
#       7
#     4   4   4   4   4   4   4
#     4  10  21  38  68  94 120 166 215 250 318 370
#     4  10  23  42  61  94 126 169 203 264 303 389
#     4   9  23  40  66  91 122 166 218 247 318 364
#     4  11  23  41  63  93 133 161 209 254 337 353
#     4   9  21  40  63  94 126 165 205 266 307 376
#     4  10  22  41  64  98 120 162 209 269 302 382
#     4  11  23  40  65  94 127 169 207 264 311 382
#
# _framework density 24.777059000000001
#
# number of rings (size 3 to 8) (size 9 to 14) (size 15 to 20)
#    0.857    1.143    0.000    2.571    8.000    1.143 
#    0.000    2.857    0.000    0.000    0.000    0.000 
#    0.000    0.000    0.000    0.000    0.000    0.000 
#
# Total GULP energy -78057.366537 kJ/mol
# GULP energy per Si atom -5575.526181 kJ/mol
# Density = 2.472066 g / cm^3
# Si number density = 24.777059 Si / 1000 Ang^3
#
#
#
# Elastic Constant Matrix: (Units=GPa)
#
#
# Indices 1 2 3 4 5 6 
#
# 1 90.8397 73.0715 11.7374 0.0000 -33.6661 0.0000
# 2 73.0715 222.9553 54.9092 0.0000 -30.9268 0.0000
# 3 11.7374 54.9092 53.3888 0.0000 -15.2161 0.0000
# 4 0.0000 0.0000 0.0000 32.2302 0.0000 -14.3892
# 5 -33.6661 -30.9268 -15.2161 0.0000 27.6967 0.0000
# 6 0.0000 0.0000 0.0000 -14.3892 0.0000 40.4037
#
#
#
# Elastic Compliance Matrix: (Units=1/GPa)
#
#
# Indices 1 2 3 4 5 6 
#
# 1 0.026266 -0.006910 0.009761 0.000000 0.029573 0.000000
# 2 -0.006910 0.008208 -0.007949 0.000000 -0.003601 0.000000
# 3 0.009761 -0.007949 0.030366 0.000000 0.019671 0.000000
# 4 0.000000 0.000000 0.000000 0.036893 0.000000 0.013139
# 5 0.029573 -0.003601 0.019671 0.000000 0.078839 0.000000
# 6 0.000000 0.000000 0.000000 0.013139 0.000000 0.029429
#
#
# Mechanical properties :
#
#
# Convention : Reuss Voigt Hill
#
# Bulk Modulus (GPa) = 18.30020 71.84664 45.07342
# Shear Modulus (GPa) = 20.97210 35.23051 28.10131
#
# Velocity S-wave (km/s) = 2.91251 3.77490 3.37139
# Velocity P-wave (km/s) = 4.32577 6.93253 5.77807
#
# Compressibility (1/GPa) = 0.05464420
#
# Stress axis : x y z
#
# Youngs Moduli (GPa) = 38.07218 121.83131 32.93108
#
# Poissons Ratio (x) = 0.84187 -0.32144
# Poissons Ratio (y) = 0.26308 0.26177
# Poissons Ratio (z) = -0.37162 0.96844
#
# Static dielectric constant tensor:
#      x y z
#    x 2.166620 0.000000 0.085170 
#    y 0.000000 1.951620 0.000000 
#    z 0.085170 0.000000 1.983770 
# 
# From -- ./inp_files/27322.got.cif
#   From: 2010.05.17/outbox.cif.g08.bks.cpg/sg9_14_cif.got.tgz:27322.got - 2010.06.03 20:04:27.
