data_PCOD9136222
_publ_section_title
;
Structure prediction by ZEFSAII (Michael W. Deem and Ramdas Pophale) SiO2 
 PCOD9136222
Probable space group: C C
;
_chemical_formula_sum "Si O2"
_cell_formula_units_Z 28
_cell_length_a 15.555176
_cell_length_b 6.842829
_cell_length_c 17.716454
_cell_angle_alpha 90.000000
_cell_angle_beta 31.786059
_cell_angle_gamma 90.000000
_cell_volume 993.324453
_symmetry_space_group_name_H-M "C C"
_symmetry_group_IT_number 9
_symmetry_cell_setting 'monoclinic'
loop_
_space_group_symop_operation_xyz
x,y,z
x,-y,1/2+z
1/2+x,1/2+y,z
1/2+x,1/2-y,1/2+z
loop_
_atom_site_type_symbol
_atom_site_label
_atom_site_fract_x
_atom_site_fract_y
_atom_site_fract_z
Si Si1 0.029400 0.486413 0.403320
Si Si2 0.380229 0.403786 0.704388
Si Si3 0.718985 0.588386 0.432936
Si Si4 0.922721 0.214134 0.340192
Si Si5 0.079266 0.939183 0.279217
Si Si6 0.856645 0.466756 0.681070
Si Si7 0.771473 0.188627 0.040987
O O1 0.216293 0.542748 0.280758
O O2 0.998176 0.339544 0.359276
O O3 0.961591 0.396963 0.532429
O O4 0.915653 0.681996 0.472751
O O5 0.535212 0.519674 0.557420
O O6 0.356878 0.412160 0.811680
O O7 0.425676 0.176141 0.654404
O O8 0.821509 0.405565 0.387592
O O9 0.814665 0.654707 0.286422
O O10 0.716032 0.743314 0.501628
O O11 0.107445 0.101930 0.194063
O O12 0.882525 0.001906 0.435430
O O13 0.181571 0.980173 0.275184
O O14 0.123387 0.733741 0.206916
#
# Coordination Sequence:
#
# PCOD9136222 Si02
#       7
#     4   4   4   4   4   4   4
#     4  10  22  43  72 101 138 188 244 291 370 437
#     4  11  20  43  75 101 138 196 240 306 365 443
#     4  10  22  43  68 101 135 184 244 288 369 434
#     4  10  23  44  71 101 146 189 241 303 361 445
#     4  11  22  44  67  98 138 183 236 295 371 424
#     4  10  21  39  70  98 134 183 237 300 360 448
#     4  10  22  44  67  98 137 183 232 295 358 453
#
# _framework density 28.188172999999999
#
# number of rings (size 3 to 8) (size 9 to 14) (size 15 to 20)
#    0.000    1.714    2.857    1.714    2.000    0.000 
#   15.429    0.000    0.000    0.000    0.000    0.000 
#    0.000    0.000    0.000    0.000    0.000    0.000 
#
# Total GULP energy -77979.290684 kJ/mol
# GULP energy per Si atom -5569.949335 kJ/mol
# Density = 2.812402 g / cm^3
# Si number density = 28.188173 Si / 1000 Ang^3
#
#
#
# Elastic Constant Matrix: (Units=GPa)
#
#
# Indices 1 2 3 4 5 6 
#
# 1 155.5908 43.5638 54.3327 0.0000 13.9067 -0.0001
# 2 43.5638 103.7057 20.2410 0.0000 -0.7109 -0.0001
# 3 54.3327 20.2410 112.0828 0.0000 10.9728 0.0000
# 4 0.0000 0.0000 0.0000 35.0286 0.0000 3.4965
# 5 13.9067 -0.7109 10.9728 0.0000 49.0297 0.0000
# 6 -0.0001 -0.0001 0.0000 3.4965 0.0000 56.6751
#
#
#
# Elastic Compliance Matrix: (Units=1/GPa)
#
#
# Indices 1 2 3 4 5 6 
#
# 1 0.008622 -0.002955 -0.003479 0.000000 -0.001710 0.000000
# 2 -0.002955 0.011023 -0.000671 0.000000 0.001148 0.000000
# 3 -0.003479 -0.000671 0.010872 0.000000 -0.001456 0.000000
# 4 0.000000 0.000000 0.000000 0.028725 0.000000 -0.001772
# 5 -0.001710 0.001148 -0.001456 0.000000 0.021223 0.000000
# 6 0.000000 0.000000 0.000000 -0.001772 0.000000 0.017754
#
#
# Mechanical properties :
#
#
# Convention : Reuss Voigt Hill
#
# Bulk Modulus (GPa) = 61.31694 67.51716 64.41705
# Shear Modulus (GPa) = 42.42232 45.02946 43.72589
#
# Velocity S-wave (km/s) = 3.88360 4.00116 3.94282
# Velocity P-wave (km/s) = 6.47377 6.73424 6.60529
#
# Compressibility (1/GPa) = 0.01630871
#
# Stress axis : x y z
#
# Youngs Moduli (GPa) = 115.98339 90.72273 91.98024
#
# Poissons Ratio (x) = 0.26805 0.31996
# Poissons Ratio (y) = 0.34269 0.06169
# Poissons Ratio (z) = 0.40345 0.06085
#
# Static dielectric constant tensor:
#      x y z
#    x 2.127140 0.000000 -0.058100 
#    y 0.000000 2.411790 0.000000 
#    z -0.058100 0.000000 2.708120 
# 
# From -- ./inp_files/30610.got.cif
#   From: 2010.05.17/outbox.cif.g08.bks.cpg/sg9_16_cif.got.tgz:30610.got - 2010.06.03 20:04:27.
