data_PCOD9136715
_publ_section_title
;
Structure prediction by ZEFSAII (Michael W. Deem and Ramdas Pophale) SiO2 
 PCOD9136715
Probable space group: C C
;
_chemical_formula_sum "Si O2"
_cell_formula_units_Z 32
_cell_length_a 21.284797
_cell_length_b 8.633053
_cell_length_c 13.685670
_cell_angle_alpha 90.000000
_cell_angle_beta 36.001956
_cell_angle_gamma 90.000000
_cell_volume 1478.220002
_symmetry_space_group_name_H-M "C C"
_symmetry_group_IT_number 9
_symmetry_cell_setting 'monoclinic'
loop_
_space_group_symop_operation_xyz
x,y,z
x,-y,1/2+z
1/2+x,1/2+y,z
1/2+x,1/2-y,1/2+z
loop_
_atom_site_type_symbol
_atom_site_label
_atom_site_fract_x
_atom_site_fract_y
_atom_site_fract_z
Si Si1 0.970910 0.713170 0.576120
Si Si2 0.132956 0.061941 0.914948
Si Si3 0.556572 0.460621 0.724020
Si Si4 0.642924 0.260124 0.786951
Si Si5 0.310431 0.497137 0.023826
Si Si6 0.605197 0.805826 0.718869
Si Si7 0.768745 0.841149 0.767833
Si Si8 0.580236 0.952476 0.546911
O O1 0.845880 0.734963 0.731851
O O2 0.013943 0.888569 0.533954
O O3 0.024028 0.649073 0.408928
O O4 0.003982 0.596543 0.619586
O O5 0.129212 0.057290 0.036359
O O6 0.193708 0.217557 0.808325
O O7 0.175087 0.911317 0.809089
O O8 0.574058 0.323837 0.781654
O O9 0.598264 0.620072 0.720269
O O10 0.433772 0.473018 0.838887
O O11 0.742112 0.160374 0.621689
O O12 0.585724 0.154487 0.942684
O O13 0.223036 0.615413 0.084679
O O14 0.329274 0.567037 0.108207
O O15 0.558882 0.863012 0.672945
O O16 0.695495 0.964455 0.913736
#
# Coordination Sequence:
#
# PCOD9136715 Si02
#       8
#     4   4   4   4   4   4   4   4
#     4  11  22  43  71  91 135 178 218 280 334 400
#     4  11  23  41  63  98 133 169 224 272 336 394
#     4  12  26  43  69  99 136 179 220 286 335 392
#     4  11  22  44  62 101 136 168 226 279 325 401
#     4  11  24  44  71  96 132 186 219 278 338 396
#     4  12  22  46  66  96 137 174 229 272 333 407
#     4  10  21  43  66  94 129 179 216 270 345 384
#     4  10  24  40  68  99 134 175 220 279 328 402
#
# _framework density 21.647658
#
# number of rings (size 3 to 8) (size 9 to 14) (size 15 to 20)
#    0.000    1.000    7.500    0.000    5.250    1.000 
#    2.250    0.000    0.000    0.000    0.000    0.000 
#    0.000    0.000    0.000    0.000    0.000    0.000 
#
# Total GULP energy -89173.432884 kJ/mol
# GULP energy per Si atom -5573.339555 kJ/mol
# Density = 2.159839 g / cm^3
# Si number density = 21.647658 Si / 1000 Ang^3
#
#
#
# Elastic Constant Matrix: (Units=GPa)
#
#
# Indices 1 2 3 4 5 6 
#
# 1 100.7773 35.2049 38.0981 -0.0001 6.0897 0.0000
# 2 35.2049 106.4734 34.8632 -0.0005 2.5732 0.0003
# 3 38.0981 34.8632 58.5381 -0.0002 -0.1462 0.0002
# 4 -0.0001 -0.0005 -0.0002 7.7101 0.0001 6.1944
# 5 6.0897 2.5732 -0.1462 0.0001 30.7243 -0.0001
# 6 0.0000 0.0003 0.0002 6.1944 -0.0001 41.0445
#
#
#
# Elastic Compliance Matrix: (Units=1/GPa)
#
#
# Indices 1 2 3 4 5 6 
#
# 1 0.013688 -0.001918 -0.007772 0.000000 -0.002589 0.000000
# 2 -0.001918 0.011968 -0.005881 0.000001 -0.000650 0.000000
# 3 -0.007772 -0.005881 0.025649 0.000000 0.002155 0.000000
# 4 0.000000 0.000001 0.000000 0.147595 -0.000001 -0.022275
# 5 -0.002589 -0.000650 0.002155 -0.000001 0.033125 0.000000
# 6 0.000000 0.000000 0.000000 -0.022275 0.000000 0.027726
#
#
# Mechanical properties :
#
#
# Convention : Reuss Voigt Hill
#
# Bulk Modulus (GPa) = 49.59867 53.56902 51.58385
# Shear Modulus (GPa) = 16.80030 26.40395 21.60212
#
# Velocity S-wave (km/s) = 2.78884 3.49623 3.16238
# Velocity P-wave (km/s) = 5.77336 6.41075 6.10039
#
# Compressibility (1/GPa) = 0.02016183
#
# Stress axis : x y z
#
# Youngs Moduli (GPa) = 73.05821 83.55956 38.98789
#
# Poissons Ratio (x) = 0.16029 0.30303
# Poissons Ratio (y) = 0.14014 0.22927
# Poissons Ratio (z) = 0.56783 0.49138
#
# Static dielectric constant tensor:
#      x y z
#    x 1.889180 0.000000 -0.014430 
#    y 0.000000 1.788020 0.000000 
#    z -0.014430 0.000000 1.805450 
# 
# From -- ./inp_files/27268.got.cif
#   From: 2010.05.17/outbox.cif.g08.bks.cpg/sg9_14_cif.got.tgz:27268.got - 2010.06.03 20:04:27.
