data_PCOD9136947
_publ_section_title
;
Structure prediction by ZEFSAII (Michael W. Deem and Ramdas Pophale) SiO2 
 PCOD9136947
Probable space group: C C
;
_chemical_formula_sum "Si O2"
_cell_formula_units_Z 28
_cell_length_a 9.755940
_cell_length_b 7.244178
_cell_length_c 27.443757
_cell_angle_alpha 90.000000
_cell_angle_beta 142.976395
_cell_angle_gamma 90.000000
_cell_volume 1167.890594
_symmetry_space_group_name_H-M "C C"
_symmetry_group_IT_number 9
_symmetry_cell_setting 'monoclinic'
loop_
_space_group_symop_operation_xyz
x,y,z
x,-y,1/2+z
1/2+x,1/2+y,z
1/2+x,1/2-y,1/2+z
loop_
_atom_site_type_symbol
_atom_site_label
_atom_site_fract_x
_atom_site_fract_y
_atom_site_fract_z
Si Si1 0.718930 0.713594 0.613580
Si Si2 0.870363 0.471458 0.462598
Si Si3 0.899375 0.132251 0.848549
Si Si4 0.428867 0.115585 0.769350
Si Si5 0.523722 0.684332 0.047580
Si Si6 0.682480 0.230643 0.693259
Si Si7 0.004376 0.561258 0.896789
O O1 0.509793 0.828237 0.534359
O O2 0.775746 0.727173 0.687105
O O3 0.675619 0.498698 0.586694
O O4 0.943626 0.783318 0.650314
O O5 0.624088 0.489362 0.417398
O O6 0.000419 0.667754 0.497968
O O7 0.857793 0.401498 0.403540
O O8 0.690970 0.116041 0.826573
O O9 0.798591 0.098073 0.765592
O O10 0.982453 0.344527 0.877133
O O11 0.416394 0.160337 0.822786
O O12 0.340121 0.909066 0.736773
O O13 0.618966 0.806659 0.119596
O O14 0.266201 0.611142 0.982773
#
# Coordination Sequence:
#
# PCOD9136947 Si02
#       7
#     4   4   4   4   4   4   4
#     4  10  21  46  71  98 145 185 229 294 349 414
#     4  12  25  41  76 104 135 189 236 286 358 412
#     4  10  22  44  70 100 143 186 232 289 352 414
#     4   9  21  42  75  97 144 189 227 289 354 413
#     4  11  23  41  67 103 139 182 233 290 347 418
#     4   9  20  43  70  97 141 187 227 294 348 408
#     4  11  22  43  67 105 141 180 234 290 346 413
#
# _framework density 23.97485
#
# number of rings (size 3 to 8) (size 9 to 14) (size 15 to 20)
#    0.000    1.714    2.857    0.857    0.000    4.571 
#   10.286    0.000    3.143    0.000    0.000    0.000 
#    0.000    0.000    0.000    0.000    0.000    0.000 
#
# Total GULP energy -78240.087905 kJ/mol
# GULP energy per Si atom -5588.577708 kJ/mol
# Density = 2.392028 g / cm^3
# Si number density = 23.974850 Si / 1000 Ang^3
#
#
#
# Elastic Constant Matrix: (Units=GPa)
#
#
# Indices 1 2 3 4 5 6 
#
# 1 76.9300 27.6174 60.2928 0.0000 -19.7531 0.0000
# 2 27.6174 82.0202 35.0448 0.0000 -8.3425 0.0000
# 3 60.2928 35.0448 137.9504 0.0000 -16.3897 0.0000
# 4 0.0000 0.0000 0.0000 28.7327 0.0000 -3.3571
# 5 -19.7531 -8.3425 -16.3897 0.0000 44.4391 0.0000
# 6 0.0000 0.0000 0.0000 -3.3571 0.0000 18.5108
#
#
#
# Elastic Compliance Matrix: (Units=1/GPa)
#
#
# Indices 1 2 3 4 5 6 
#
# 1 0.022141 -0.003369 -0.008081 0.000000 0.006229 0.000000
# 2 -0.003369 0.014267 -0.002104 0.000000 0.000405 0.000000
# 3 -0.008081 -0.002104 0.011339 0.000000 0.000195 0.000000
# 4 0.000000 0.000000 0.000000 0.035557 0.000000 0.006449
# 5 0.006229 0.000405 0.000195 0.000000 0.025419 0.000000
# 6 0.000000 0.000000 0.000000 0.006449 0.000000 0.055192
#
#
# Mechanical properties :
#
#
# Convention : Reuss Voigt Hill
#
# Bulk Modulus (GPa) = 48.45287 60.31228 54.38257
# Shear Modulus (GPa) = 25.26512 29.93291 27.59901
#
# Velocity S-wave (km/s) = 3.24978 3.53726 3.39656
# Velocity P-wave (km/s) = 5.85962 6.47256 6.17370
#
# Compressibility (1/GPa) = 0.02063861
#
# Stress axis : x y z
#
# Youngs Moduli (GPa) = 45.16489 70.09418 88.19487
#
# Poissons Ratio (x) = 0.23614 0.71272
# Poissons Ratio (y) = 0.15215 0.18554
# Poissons Ratio (z) = 0.36498 0.14746
#
# Static dielectric constant tensor:
#      x y z
#    x 1.881790 0.000000 -0.041600 
#    y 0.000000 1.908180 0.000000 
#    z -0.041600 0.000000 1.926140 
# 
# From -- ./inp_files/28977.got.cif
#   From: 2010.05.17/outbox.cif.g08.bks.cpg/sg9_15_cif.got.tgz:28977.got - 2010.06.03 20:04:27.
