data_PCOD9136823
_publ_section_title
;
Structure prediction by ZEFSAII (Michael W. Deem and Ramdas Pophale) SiO2 
 PCOD9136823
Probable space group: C C
;
_chemical_formula_sum "Si O2"
_cell_formula_units_Z 32
_cell_length_a 15.243714
_cell_length_b 11.694940
_cell_length_c 9.240282
_cell_angle_alpha 90.000000
_cell_angle_beta 67.116324
_cell_angle_gamma 90.000000
_cell_volume 1517.655886
_symmetry_space_group_name_H-M "C C"
_symmetry_group_IT_number 9
_symmetry_cell_setting 'monoclinic'
loop_
_space_group_symop_operation_xyz
x,y,z
x,-y,1/2+z
1/2+x,1/2+y,z
1/2+x,1/2-y,1/2+z
loop_
_atom_site_type_symbol
_atom_site_label
_atom_site_fract_x
_atom_site_fract_y
_atom_site_fract_z
Si Si1 0.481300 0.420913 0.505310
Si Si2 0.874487 0.327298 0.360930
Si Si3 0.690050 0.454730 0.383363
Si Si4 0.874222 0.068662 0.370100
Si Si5 0.185704 0.583727 0.018478
Si Si6 0.559327 0.964316 0.335861
Si Si7 0.937650 0.322601 0.986487
Si Si8 0.228955 0.846325 0.042786
O O1 0.586785 0.413939 0.500042
O O2 0.461921 0.524164 0.409663
O O3 0.405876 0.431815 0.682787
O O4 0.467769 0.304253 0.425621
O O5 0.777376 0.399426 0.416412
O O6 0.852752 0.199151 0.426770
O O7 0.906718 0.318343 0.173190
O O8 0.964966 0.386508 0.378693
O O9 0.700496 0.413975 0.209256
O O10 0.691273 0.588323 0.425206
O O11 0.786112 0.982701 0.447153
O O12 0.115317 0.503824 0.157284
O O13 0.199951 0.712635 0.069874
O O14 0.135219 0.590617 0.895338
O O15 0.518751 0.084632 0.419643
O O16 0.843342 0.353011 0.959325
#
# Coordination Sequence:
#
# PCOD9136823 Si02
#       8
#     4   4   4   4   4   4   4   4
#     4  11  23  43  67  93 135 180 225 280 346 402
#     4  10  24  43  66 100 138 176 225 282 340 410
#     4  11  24  44  71 100 136 181 225 286 349 412
#     4  11  25  45  63  98 138 179 231 281 338 409
#     4  12  27  45  71 101 141 187 234 285 345 413
#     4  12  24  45  70 102 137 184 236 281 344 412
#     4  10  21  44  68  94 137 180 223 283 341 405
#     4  11  24  47  68 102 142 177 233 286 347 411
#
# _framework density 21.085149000000001
#
# number of rings (size 3 to 8) (size 9 to 14) (size 15 to 20)
#    0.000    1.000    3.750    2.250    7.000    0.000 
#    4.500    0.000    0.000    0.000    0.000    0.000 
#    0.000    0.000    0.000    0.000    0.000    0.000 
#
# Total GULP energy -89329.367663 kJ/mol
# GULP energy per Si atom -5583.085479 kJ/mol
# Density = 2.103716 g / cm^3
# Si number density = 21.085149 Si / 1000 Ang^3
#
#
#
# Elastic Constant Matrix: (Units=GPa)
#
#
# Indices 1 2 3 4 5 6 
#
# 1 96.0611 42.8712 22.9317 0.0000 -9.0084 0.0000
# 2 42.8712 122.2949 36.2305 0.0000 1.6055 0.0000
# 3 22.9317 36.2305 42.2308 0.0000 1.7491 0.0000
# 4 0.0000 0.0000 0.0000 22.7665 0.0000 3.4473
# 5 -9.0084 1.6055 1.7491 0.0000 26.8875 0.0000
# 6 0.0000 0.0000 0.0000 3.4473 0.0000 30.4092
#
#
#
# Elastic Compliance Matrix: (Units=1/GPa)
#
#
# Indices 1 2 3 4 5 6 
#
# 1 0.013515 -0.003443 -0.004593 0.000000 0.005033 0.000000
# 2 -0.003443 0.011841 -0.008234 0.000000 -0.001325 0.000000
# 3 -0.004593 -0.008234 0.033371 0.000000 -0.003218 0.000000
# 4 0.000000 0.000000 0.000000 0.044691 0.000000 -0.005066
# 5 0.005033 -0.001325 -0.003218 0.000000 0.039167 0.000000
# 6 0.000000 0.000000 0.000000 -0.005066 0.000000 0.033459
#
#
# Mechanical properties :
#
#
# Convention : Reuss Voigt Hill
#
# Bulk Modulus (GPa) = 38.18820 51.62819 44.90820
# Shear Modulus (GPa) = 23.00829 26.58286 24.79557
#
# Velocity S-wave (km/s) = 3.30693 3.55454 3.43297
# Velocity P-wave (km/s) = 5.72117 6.43312 6.08756
#
# Compressibility (1/GPa) = 0.02618610
#
# Stress axis : x y z
#
# Youngs Moduli (GPa) = 73.99112 84.45487 29.96622
#
# Poissons Ratio (x) = 0.29078 0.13765
# Poissons Ratio (y) = 0.25476 0.24674
# Poissons Ratio (z) = 0.33987 0.69538
#
# Static dielectric constant tensor:
#      x y z
#    x 1.784600 0.000000 -0.001140 
#    y 0.000000 1.783150 0.000000 
#    z -0.001140 0.000000 1.752900 
# 
# From -- ./inp_files/9083.got.cif
#   From: 2010.05.17/outbox.cif.g08.bks.cpg/sg9_5_cif.got.tgz:9083.got - 2010.06.03 20:04:27.
