data_PCOD9136425
_publ_section_title
;
Structure prediction by ZEFSAII (Michael W. Deem and Ramdas Pophale) SiO2 
 PCOD9136425
Probable space group: C C
;
_chemical_formula_sum "Si O2"
_cell_formula_units_Z 32
_cell_length_a 15.199520
_cell_length_b 10.843333
_cell_length_c 14.178341
_cell_angle_alpha 90.000000
_cell_angle_beta 148.820635
_cell_angle_gamma 90.000000
_cell_volume 1209.795933
_symmetry_space_group_name_H-M "C C"
_symmetry_group_IT_number 9
_symmetry_cell_setting 'monoclinic'
loop_
_space_group_symop_operation_xyz
x,y,z
x,-y,1/2+z
1/2+x,1/2+y,z
1/2+x,1/2-y,1/2+z
loop_
_atom_site_type_symbol
_atom_site_label
_atom_site_fract_x
_atom_site_fract_y
_atom_site_fract_z
Si Si1 0.765380 0.929475 0.706720
Si Si2 0.984903 0.976990 0.729646
Si Si3 0.484282 0.070526 0.252660
Si Si4 0.264758 0.976991 0.729732
Si Si5 0.676004 0.286028 0.385887
Si Si6 0.343018 0.881968 0.997986
Si Si7 0.073657 0.786027 0.073491
Si Si8 0.906644 0.881967 0.461393
O O1 0.851181 0.933072 0.683515
O O2 0.595574 0.849795 0.551426
O O3 0.771139 0.061717 0.763569
O O4 0.891246 0.843519 0.884608
O O5 0.914429 0.971075 0.559339
O O6 0.158277 0.894306 0.878809
O O7 0.052186 0.111922 0.818443
O O8 0.358415 0.156481 0.074771
O O9 0.478522 0.938284 0.195810
O O10 0.398481 0.066928 0.275866
O O11 0.654088 0.150206 0.407953
O O12 0.335231 0.971077 0.900039
O O13 0.091384 0.894307 0.580569
O O14 0.197475 0.111923 0.640934
O O15 0.624831 0.285412 0.229690
O O16 0.374832 0.750001 0.979690
#
# Coordination Sequence:
#
# PCOD9136425 Si02
#       8
#     4   4   4   4   4   4   4   4
#     4  11  24  40  68  96 125 168 215 264 317 378
#     4  10  22  40  63  90 125 175 207 259 324 372
#     4  11  24  40  68  96 125 168 215 264 317 378
#     4  10  22  40  63  90 125 175 207 259 324 372
#     4  11  21  43  64  90 128 165 210 264 318 375
#     4  10  21  41  63  90 130 168 213 260 321 380
#     4  11  21  43  64  90 128 165 210 264 318 375
#     4  10  21  41  63  90 130 168 213 260 321 380
#
# _framework density 26.450741000000001
#
# number of rings (size 3 to 8) (size 9 to 14) (size 15 to 20)
#    0.000    1.500    5.000    3.750    7.000    0.000 
#    4.500    1.250    0.000    0.000    0.000    0.000 
#    0.000    0.000    0.000    0.000    0.000    0.000 
#
# Total GULP energy -89635.898148 kJ/mol
# GULP energy per Si atom -5602.243634 kJ/mol
# Density = 2.639054 g / cm^3
# Si number density = 26.450741 Si / 1000 Ang^3
#
#
#
# Elastic Constant Matrix: (Units=GPa)
#
#
# Indices 1 2 3 4 5 6 
#
# 1 130.3832 64.1099 22.6264 0.0000 -26.1627 0.0000
# 2 64.1099 153.7519 13.9739 0.0000 16.8400 0.0000
# 3 22.6264 13.9739 59.8167 -0.0001 -6.5529 0.0000
# 4 0.0000 0.0000 -0.0001 25.8328 0.0000 15.8214
# 5 -26.1627 16.8400 -6.5529 0.0000 30.6567 0.0000
# 6 0.0000 0.0000 0.0000 15.8214 0.0000 37.1385
#
#
#
# Elastic Compliance Matrix: (Units=1/GPa)
#
#
# Indices 1 2 3 4 5 6 
#
# 1 0.015520 -0.008178 -0.002065 0.000000 0.017295 0.000000
# 2 -0.008178 0.011492 -0.001073 0.000000 -0.013521 0.000000
# 3 -0.002065 -0.001073 0.018044 0.000000 0.002683 0.000000
# 4 0.000000 0.000000 0.000000 0.052376 0.000000 -0.022313
# 5 0.017295 -0.013521 0.002683 0.000000 0.055380 0.000000
# 6 0.000000 0.000000 0.000000 -0.022313 0.000000 0.036432
#
#
# Mechanical properties :
#
#
# Convention : Reuss Voigt Hill
#
# Bulk Modulus (GPa) = 44.59529 60.59691 52.59610
# Shear Modulus (GPa) = 22.79468 34.94171 28.86819
#
# Velocity S-wave (km/s) = 2.93879 3.63851 3.30721
# Velocity P-wave (km/s) = 5.33026 6.37266 5.87463
#
# Compressibility (1/GPa) = 0.02242389
#
# Stress axis : x y z
#
# Youngs Moduli (GPa) = 64.43435 87.01479 55.42146
#
# Poissons Ratio (x) = 0.71159 0.11447
# Poissons Ratio (y) = 0.52693 0.05945
# Poissons Ratio (z) = 0.13308 0.09333
#
# Static dielectric constant tensor:
#      x y z
#    x 2.010180 0.000000 0.084070 
#    y 0.000000 2.152920 0.000000 
#    z 0.084070 0.000000 2.188260 
# 
# From -- ./inp_files/25906.got.cif
#   From: 2010.05.17/outbox.cif.g08.bks.cpg/sg9_13_cif.got.tgz:25906.got - 2010.06.03 20:04:27.
