data_PCOD9136377
_publ_section_title
;
Structure prediction by ZEFSAII (Michael W. Deem and Ramdas Pophale) SiO2 
 PCOD9136377
Probable space group: C C
;
_chemical_formula_sum "Si O2"
_cell_formula_units_Z 32
_cell_length_a 14.288637
_cell_length_b 10.479589
_cell_length_c 19.735338
_cell_angle_alpha 90.000000
_cell_angle_beta 25.528950
_cell_angle_gamma 90.000000
_cell_volume 1273.572677
_symmetry_space_group_name_H-M "C C"
_symmetry_group_IT_number 9
_symmetry_cell_setting 'monoclinic'
loop_
_space_group_symop_operation_xyz
x,y,z
x,-y,1/2+z
1/2+x,1/2+y,z
1/2+x,1/2-y,1/2+z
loop_
_atom_site_type_symbol
_atom_site_label
_atom_site_fract_x
_atom_site_fract_y
_atom_site_fract_z
Si Si1 0.375000 0.787670 0.540980
Si Si2 0.212894 0.181706 0.579137
Si Si3 0.902809 0.625393 0.596354
Si Si4 0.355058 0.589081 0.151407
Si Si5 0.429619 0.098223 0.294911
Si Si6 0.640743 0.458253 0.862545
Si Si7 0.777150 0.042564 0.837839
Si Si8 0.013784 0.617811 0.821594
O O1 0.460798 0.646721 0.467305
O O2 0.575456 0.862981 0.446750
O O3 0.159503 0.744785 0.720971
O O4 0.336207 0.858888 0.495501
O O5 0.156210 0.328952 0.633661
O O6 0.370299 0.135760 0.536641
O O7 0.304874 0.157605 0.442938
O O8 0.974652 0.115458 0.744295
O O9 0.833123 0.760498 0.672585
O O10 0.742359 0.519369 0.730485
O O11 0.143104 0.574670 0.458105
O O12 0.395017 0.518634 0.195735
O O13 0.158015 0.502089 0.252994
O O14 0.540330 0.566880 0.975369
O O15 0.311136 0.112788 0.300331
O O16 0.436157 0.945593 0.303413
#
# Coordination Sequence:
#
# PCOD9136377 Si02
#       8
#     4   4   4   4   4   4   4   4
#     4  10  21  40  70 101 139 187 239 292 368 422
#     4  12  27  46  76 108 141 192 255 301 363 444
#     4  12  26  44  73 108 143 196 246 298 377 438
#     4  10  21  44  66 100 148 190 236 303 365 425
#     4  12  26  47  72 109 147 187 254 310 357 438
#     4  11  24  43  69 102 146 190 242 303 367 435
#     4  11  23  45  74 102 147 193 241 304 361 437
#     4  10  22  43  70 104 145 189 235 303 356 435
#
# _framework density 25.126168
#
# number of rings (size 3 to 8) (size 9 to 14) (size 15 to 20)
#    0.000    1.000    3.750    3.000    3.500    0.000 
#    2.250    2.500    0.000    0.000    0.000    0.000 
#    0.000    0.000    0.000    0.000    0.000    0.000 
#
# Total GULP energy -89351.085287 kJ/mol
# GULP energy per Si atom -5584.442830 kJ/mol
# Density = 2.506898 g / cm^3
# Si number density = 25.126168 Si / 1000 Ang^3
#
#
#
# Elastic Constant Matrix: (Units=GPa)
#
#
# Indices 1 2 3 4 5 6 
#
# 1 39.8578 16.0920 -5.1527 -0.0053 -7.1877 0.0011
# 2 16.0920 112.6709 29.4963 -0.0170 6.6668 0.0045
# 3 -5.1527 29.4963 84.9371 -0.0243 5.8244 0.0096
# 4 -0.0053 -0.0170 -0.0243 49.6533 0.0091 1.4412
# 5 -7.1877 6.6668 5.8244 0.0091 25.0576 -0.0032
# 6 0.0011 0.0045 0.0096 1.4412 -0.0032 33.9346
#
#
#
# Elastic Compliance Matrix: (Units=1/GPa)
#
#
# Indices 1 2 3 4 5 6 
#
# 1 0.029383 -0.005546 0.003079 0.000001 0.009189 0.000000
# 2 -0.005546 0.010894 -0.003874 0.000002 -0.003589 -0.000001
# 3 0.003079 -0.003874 0.013388 0.000006 -0.001198 -0.000004
# 4 0.000001 0.000002 0.000006 0.020164 -0.000009 -0.000856
# 5 0.009189 -0.003589 -0.001198 -0.000009 0.043777 0.000005
# 6 0.000000 -0.000001 -0.000004 -0.000856 0.000005 0.029505
#
#
# Mechanical properties :
#
#
# Convention : Reuss Voigt Hill
#
# Bulk Modulus (GPa) = 24.40076 35.37077 29.88576
# Shear Modulus (GPa) = 28.82596 34.86445 31.84521
#
# Velocity S-wave (km/s) = 3.39078 3.72906 3.56394
# Velocity P-wave (km/s) = 5.00622 5.71393 5.37174
#
# Compressibility (1/GPa) = 0.04098234
#
# Stress axis : x y z
#
# Youngs Moduli (GPa) = 34.03282 91.79399 74.69648
#
# Poissons Ratio (x) = 0.50911 -0.22995
# Poissons Ratio (y) = 0.18875 0.28934
# Poissons Ratio (z) = -0.10477 0.35557
#
# Static dielectric constant tensor:
#      x y z
#    x 2.121110 0.000000 -0.024980 
#    y 0.000000 2.022110 0.000000 
#    z -0.024980 0.000000 1.994400 
# 
# From -- ./inp_files/30685.got.cif
#   From: 2010.05.17/outbox.cif.g08.bks.cpg/sg9_16_cif.got.tgz:30685.got - 2010.06.03 20:04:27.
