data_PCOD9136582
_publ_section_title
;
Structure prediction by ZEFSAII (Michael W. Deem and Ramdas Pophale) SiO2 
 PCOD9136582
Probable space group: C C
;
_chemical_formula_sum "Si O2"
_cell_formula_units_Z 24
_cell_length_a 6.687745
_cell_length_b 12.450285
_cell_length_c 11.763808
_cell_angle_alpha 90.000000
_cell_angle_beta 97.067179
_cell_angle_gamma 90.000000
_cell_volume 972.063889
_symmetry_space_group_name_H-M "C C"
_symmetry_group_IT_number 9
_symmetry_cell_setting 'monoclinic'
loop_
_space_group_symop_operation_xyz
x,y,z
x,-y,1/2+z
1/2+x,1/2+y,z
1/2+x,1/2-y,1/2+z
loop_
_atom_site_type_symbol
_atom_site_label
_atom_site_fract_x
_atom_site_fract_y
_atom_site_fract_z
Si Si1 0.448140 0.567924 0.288360
Si Si2 0.740915 0.727334 0.726445
Si Si3 0.894883 0.486177 0.274543
Si Si4 0.099925 0.228779 0.486137
Si Si5 0.453957 0.357593 0.393786
Si Si6 0.867714 0.558646 0.020947
O O1 0.320110 0.653435 0.207918
O O2 0.662094 0.529739 0.255998
O O3 0.494480 0.644026 0.398541
O O4 0.345715 0.457069 0.320208
O O5 0.910457 0.643585 0.777323
O O6 0.665233 0.672796 0.606471
O O7 0.570268 0.717296 0.810305
O O8 0.942167 0.509628 0.413566
O O9 0.949561 0.519608 0.149210
O O10 0.296009 0.284104 0.446147
O O11 0.953109 0.321735 0.516489
O O12 0.627130 0.417924 0.481361
#
# Coordination Sequence:
#
# PCOD9136582 Si02
#       6
#     4   4   4   4   4   4
#     4  10  21  44  68  92 139 174 222 282 333 399
#     4  10  21  42  65  96 132 176 230 268 342 402
#     4  10  21  42  68  95 136 177 217 286 329 393
#     4  12  23  41  69  97 132 186 222 275 343 398
#     4  10  24  44  64  98 135 173 224 283 331 399
#     4  10  22  43  66 100 138 172 231 274 334 405
#
# _framework density 24.689733
#
# number of rings (size 3 to 8) (size 9 to 14) (size 15 to 20)
#    0.000    2.000    3.333    3.000    2.333    2.667 
#    6.000    0.000    0.000    0.000    0.000    0.000 
#    0.000    0.000    0.000    0.000    0.000    0.000 
#
# Total GULP energy -66875.169795 kJ/mol
# GULP energy per Si atom -5572.930816 kJ/mol
# Density = 2.463354 g / cm^3
# Si number density = 24.689733 Si / 1000 Ang^3
#
#
#
# Elastic Constant Matrix: (Units=GPa)
#
#
# Indices 1 2 3 4 5 6 
#
# 1 36.2740 17.7488 3.2615 0.0000 -5.8567 0.0000
# 2 17.7488 103.6170 -4.3876 0.0000 -16.7805 0.0000
# 3 3.2615 -4.3876 132.8008 0.0000 -6.8433 0.0000
# 4 0.0000 0.0000 0.0000 45.1418 0.0000 5.1250
# 5 -5.8567 -16.7805 -6.8433 0.0000 25.4603 0.0000
# 6 0.0000 0.0000 0.0000 5.1250 0.0000 28.8733
#
#
#
# Elastic Compliance Matrix: (Units=1/GPa)
#
#
# Indices 1 2 3 4 5 6 
#
# 1 0.030513 -0.004647 -0.000709 0.000000 0.003766 0.000000
# 2 -0.004647 0.011583 0.000847 0.000000 0.006793 0.000000
# 3 -0.000709 0.000847 0.007703 0.000000 0.002465 0.000000
# 4 0.000000 0.000000 0.000000 0.022608 0.000000 -0.004013
# 5 0.003766 0.006793 0.002465 0.000000 0.045283 0.000000
# 6 0.000000 0.000000 0.000000 -0.004013 0.000000 0.035346
#
#
# Mechanical properties :
#
#
# Convention : Reuss Voigt Hill
#
# Bulk Modulus (GPa) = 24.52121 33.99300 29.25711
# Shear Modulus (GPa) = 28.46617 36.96637 32.71627
#
# Velocity S-wave (km/s) = 3.39920 3.87361 3.64414
# Velocity P-wave (km/s) = 5.03581 5.81416 5.43893
#
# Compressibility (1/GPa) = 0.04078102
#
# Stress axis : x y z
#
# Youngs Moduli (GPa) = 32.77249 86.33479 129.82788
#
# Poissons Ratio (x) = 0.40118 0.09203
# Poissons Ratio (y) = 0.15229 -0.10994
# Poissons Ratio (z) = 0.02323 -0.07311
#
# Static dielectric constant tensor:
#      x y z
#    x 2.067120 0.000000 0.074080 
#    y 0.000000 1.969380 0.000000 
#    z 0.074080 0.000000 2.064590 
# 
# From -- ./inp_files/14191.got.cif
#   From: 2010.05.17/outbox.cif.g08.bks.cpg/sg9_8_cif.got.tgz:14191.got - 2010.06.03 20:04:27.
