data_PCOD9136199
_publ_section_title
;
Structure prediction by ZEFSAII (Michael W. Deem and Ramdas Pophale) SiO2 
 PCOD9136199
Probable space group: C C
;
_chemical_formula_sum "Si O2"
_cell_formula_units_Z 28
_cell_length_a 8.150076
_cell_length_b 20.353882
_cell_length_c 9.019291
_cell_angle_alpha 90.000000
_cell_angle_beta 52.199623
_cell_angle_gamma 90.000000
_cell_volume 1182.201193
_symmetry_space_group_name_H-M "C C"
_symmetry_group_IT_number 9
_symmetry_cell_setting 'monoclinic'
loop_
_space_group_symop_operation_xyz
x,y,z
x,-y,1/2+z
1/2+x,1/2+y,z
1/2+x,1/2-y,1/2+z
loop_
_atom_site_type_symbol
_atom_site_label
_atom_site_fract_x
_atom_site_fract_y
_atom_site_fract_z
Si Si1 0.055500 0.090445 0.662400
Si Si2 0.075056 0.486257 0.144542
Si Si3 0.651353 0.141894 0.787231
Si Si4 0.771680 0.205823 0.412474
Si Si5 0.055857 0.403309 0.869350
Si Si6 0.201744 0.838525 0.572083
Si Si7 0.105553 0.967736 0.441451
O O1 0.303962 0.105848 0.518003
O O2 0.006945 0.059380 0.847909
O O3 0.878585 0.144581 0.733456
O O4 0.018276 0.032802 0.563174
O O5 0.106376 0.432118 0.255922
O O6 0.120025 0.557577 0.187032
O O7 0.829027 0.490232 0.259720
O O8 0.140929 0.450673 0.956416
O O9 0.671046 0.182026 0.622793
O O10 0.441830 0.159868 0.993740
O O11 0.667207 0.165324 0.337759
O O12 0.720872 0.282875 0.433345
O O13 0.014636 0.185237 0.280147
O O14 0.137811 0.908738 0.540140
#
# Coordination Sequence:
#
# PCOD9136199 Si02
#       7
#     4   4   4   4   4   4   4
#     4  10  21  39  67  99 143 169 216 283 350 397
#     4   8  17  35  59  88 134 162 213 263 332 391
#     4  10  22  40  63  95 134 169 223 285 325 397
#     4  11  23  42  74  91 129 184 235 272 335 403
#     4   9  19  38  63  99 128 174 216 276 338 401
#     4  11  23  44  70  95 128 187 236 268 332 410
#     4   9  21  38  64  99 134 175 217 273 340 409
#
# _framework density 23.684633000000002
#
# number of rings (size 3 to 8) (size 9 to 14) (size 15 to 20)
#    0.000    2.286    1.429    0.857    4.000    1.143 
#    2.571    2.857    0.000    0.000    0.000    0.000 
#    0.000    0.000    0.000    0.000    0.000    0.000 
#
# Total GULP energy -78084.732906 kJ/mol
# GULP energy per Si atom -5577.480922 kJ/mol
# Density = 2.363073 g / cm^3
# Si number density = 23.684633 Si / 1000 Ang^3
#
#
#
# Elastic Constant Matrix: (Units=GPa)
#
#
# Indices 1 2 3 4 5 6 
#
# 1 61.0419 5.8491 13.4431 0.0000 -30.2435 0.0000
# 2 5.8491 58.2817 -8.5926 0.0000 -14.4886 0.0000
# 3 13.4431 -8.5926 64.8208 0.0000 -46.5710 0.0000
# 4 0.0000 0.0000 0.0000 36.0485 0.0000 -49.1955
# 5 -30.2435 -14.4886 -46.5710 0.0000 38.6167 0.0000
# 6 0.0000 0.0000 0.0000 -49.1955 0.0000 189.8248
#
#
#
# Elastic Compliance Matrix: (Units=1/GPa)
#
#
# Indices 1 2 3 4 5 6 
#
# 1 0.005140 -0.015004 -0.031503 0.000000 -0.039596 0.000000
# 2 -0.015004 0.004794 -0.025481 0.000000 -0.040682 0.000000
# 3 -0.031503 -0.025481 -0.045016 0.000000 -0.088522 0.000000
# 4 0.000000 0.000000 0.000000 0.042921 0.000000 0.011123
# 5 -0.039596 -0.040682 -0.088522 0.000000 -0.127134 0.000000
# 6 0.000000 0.000000 0.000000 0.011123 0.000000 0.008151
#
#
# Mechanical properties :
#
#
# Convention : Reuss Voigt Hill
#
# Bulk Modulus (GPa) = -5.58474 22.83817 8.62672
# Shear Modulus (GPa) = -186.17830 64.46098 -60.85866
#
# Velocity S-wave (km/s) = -8.87569 5.22259 -5.07456
# Velocity P-wave (km/s) = 10.36341 6.78460 5.53938
#
# Compressibility (1/GPa) = -0.17905948
#
# Stress axis : x y z
#
# Youngs Moduli (GPa) = 194.56428 208.61420 -22.21412
#
# Poissons Ratio (x) = 3.13001 -0.69981
# Poissons Ratio (y) = 2.91920 -0.56605
# Poissons Ratio (z) = 6.12933 5.31580
#
# Static dielectric constant tensor:
#      x y z
#    x 1.994420 0.000000 -0.046250 
#    y 0.000000 1.526220 0.000000 
#    z -0.046250 0.000000 1.898940 
# 
# From -- ./inp_files/5511.got.cif
#   From: 2010.05.17/outbox.cif.g08.bks.cpg/sg9_3_cif.got.tgz:5511.got - 2010.06.03 20:04:27.
