data_PCOD9136714
_publ_section_title
;
Structure prediction by ZEFSAII (Michael W. Deem and Ramdas Pophale) SiO2 
 PCOD9136714
Probable space group: C C
;
_chemical_formula_sum "Si O2"
_cell_formula_units_Z 28
_cell_length_a 11.912906
_cell_length_b 7.774687
_cell_length_c 23.461281
_cell_angle_alpha 90.000000
_cell_angle_beta 145.232772
_cell_angle_gamma 90.000000
_cell_volume 1239.118718
_symmetry_space_group_name_H-M "C C"
_symmetry_group_IT_number 9
_symmetry_cell_setting 'monoclinic'
loop_
_space_group_symop_operation_xyz
x,y,z
x,-y,1/2+z
1/2+x,1/2+y,z
1/2+x,1/2-y,1/2+z
loop_
_atom_site_type_symbol
_atom_site_label
_atom_site_fract_x
_atom_site_fract_y
_atom_site_fract_z
Si Si1 0.004300 0.896304 0.940840
Si Si2 0.925511 0.406371 0.288334
Si Si3 0.409286 0.004841 0.899437
Si Si4 0.419154 0.998909 0.654355
Si Si5 0.236551 0.346621 0.107898
Si Si6 0.810107 0.034155 0.249053
Si Si7 0.337403 0.702874 0.946629
O O1 0.895540 0.711468 0.900515
O O2 0.979356 0.975940 0.867257
O O3 0.896632 0.034624 0.935786
O O4 0.231842 0.894317 0.053830
O O5 0.945265 0.471433 0.232729
O O6 0.789365 0.238531 0.229137
O O7 0.866367 0.530845 0.315010
O O8 0.143580 0.344782 0.399550
O O9 0.285933 0.868460 0.885371
O O10 0.627557 0.960637 0.014709
O O11 0.359122 0.798197 0.627195
O O12 0.613478 0.028502 0.698949
O O13 0.346041 0.444248 0.203860
O O14 0.046442 0.257602 0.059987
#
# Coordination Sequence:
#
# PCOD9136714 Si02
#       7
#     4   4   4   4   4   4   4
#     4  10  21  43  66  93 137 171 221 276 329 392
#     4  11  23  42  67  98 131 175 226 271 334 400
#     4   9  22  42  66  99 126 175 226 266 335 397
#     4  11  24  42  65  99 135 172 222 277 329 398
#     4   9  23  44  62  98 132 173 221 268 335 387
#     4  11  24  41  67  98 128 179 220 269 338 388
#     4   9  21  44  63  97 131 171 226 271 330 390
#
# _framework density 22.596706999999999
#
# number of rings (size 3 to 8) (size 9 to 14) (size 15 to 20)
#    0.857    1.143    1.429    0.857    6.000    2.286 
#    7.714    1.429    0.000    0.000    0.000    0.000 
#    0.000    0.000    0.000    0.000    0.000    0.000 
#
# Total GULP energy -78021.411827 kJ/mol
# GULP energy per Si atom -5572.957988 kJ/mol
# Density = 2.254528 g / cm^3
# Si number density = 22.596707 Si / 1000 Ang^3
#
#
#
# Elastic Constant Matrix: (Units=GPa)
#
#
# Indices 1 2 3 4 5 6 
#
# 1 34.9445 7.4022 0.9527 0.0000 -5.7583 0.0000
# 2 7.4022 76.5123 2.8355 0.0000 -11.4763 0.0000
# 3 0.9527 2.8355 68.6805 0.0000 -6.7836 0.0000
# 4 0.0000 0.0000 0.0000 12.9419 0.0000 -19.3785
# 5 -5.7583 -11.4763 -6.7836 0.0000 31.4572 0.0000
# 6 0.0000 0.0000 0.0000 -19.3785 0.0000 17.4863
#
#
#
# Elastic Compliance Matrix: (Units=1/GPa)
#
#
# Indices 1 2 3 4 5 6 
#
# 1 0.029850 -0.002189 0.000140 0.000000 0.004696 0.000000
# 2 -0.002189 0.013987 -0.000084 0.000000 0.004684 0.000000
# 3 0.000140 -0.000084 0.014878 0.000000 0.003203 0.000000
# 4 0.000000 0.000000 0.000000 -0.117186 0.000000 -0.129866
# 5 0.004696 0.004684 0.003203 0.000000 0.035048 0.000000
# 6 0.000000 0.000000 0.000000 -0.129866 0.000000 -0.086731
#
#
# Mechanical properties :
#
#
# Convention : Reuss Voigt Hill
#
# Bulk Modulus (GPa) = 18.36559 22.50199 20.43379
# Shear Modulus (GPa) = -56.98865 23.64022 -16.67422
#
# Velocity S-wave (km/s) = -5.02739 3.23798 -2.71939
# Velocity P-wave (km/s) = 5.05513 4.89480 0.89311
#
# Compressibility (1/GPa) = 0.05444966
#
# Stress axis : x y z
#
# Youngs Moduli (GPa) = 33.50037 71.49377 67.21283
#
# Poissons Ratio (x) = 0.15648 -0.00942
# Poissons Ratio (y) = 0.07332 0.00568
# Poissons Ratio (z) = -0.00469 0.00604
#
# Static dielectric constant tensor:
#      x y z
#    x 1.836800 0.000000 -0.002170 
#    y 0.000000 1.878330 0.000000 
#    z -0.002170 0.000000 1.855790 
# 
# From -- ./inp_files/35271.got.cif
#   From: 2010.05.17/outbox.cif.g08.bks.cpg/sg9_18_cif.got.tgz:35271.got - 2010.06.03 20:04:27.
