data_PCOD9136216
_publ_section_title
;
Structure prediction by ZEFSAII (Michael W. Deem and Ramdas Pophale) SiO2 
 PCOD9136216
Probable space group: C C
;
_chemical_formula_sum "Si O2"
_cell_formula_units_Z 32
_cell_length_a 13.680200
_cell_length_b 11.567649
_cell_length_c 12.605199
_cell_angle_alpha 90.000000
_cell_angle_beta 41.932803
_cell_angle_gamma 90.000000
_cell_volume 1333.005061
_symmetry_space_group_name_H-M "C C"
_symmetry_group_IT_number 9
_symmetry_cell_setting 'monoclinic'
loop_
_space_group_symop_operation_xyz
x,y,z
x,-y,1/2+z
1/2+x,1/2+y,z
1/2+x,1/2-y,1/2+z
loop_
_atom_site_type_symbol
_atom_site_label
_atom_site_fract_x
_atom_site_fract_y
_atom_site_fract_z
Si Si1 0.803750 0.576207 0.900030
Si Si2 0.098261 0.798965 0.314523
Si Si3 0.232670 0.399816 0.443588
Si Si4 0.060135 0.375742 0.045570
Si Si5 0.321456 0.818592 0.950922
Si Si6 0.367496 0.526721 0.047233
Si Si7 0.461106 0.563316 0.185695
Si Si8 0.817828 0.196558 0.488965
O O1 0.833576 0.666550 0.971818
O O2 0.895312 0.618635 0.723925
O O3 0.847098 0.447595 0.893703
O O4 0.630071 0.567881 0.023679
O O5 0.088248 0.715509 0.427303
O O6 0.244029 0.813910 0.128585
O O7 0.978364 0.738881 0.336326
O O8 0.028476 0.927868 0.384653
O O9 0.117192 0.490306 0.486263
O O10 0.225698 0.261898 0.448418
O O11 0.250948 0.430623 0.554698
O O12 0.391556 0.440414 0.272159
O O13 0.161096 0.330998 0.061787
O O14 0.346649 0.388127 0.064499
O O15 0.360855 0.590331 0.164826
O O16 0.426748 0.644241 0.312158
#
# Coordination Sequence:
#
# PCOD9136216 Si02
#       8
#     4   4   4   4   4   4   4   4
#     4  12  22  39  62  98 133 171 217 286 335 394
#     4  11  23  38  67 100 127 167 230 274 330 404
#     4   9  22  42  64  90 126 178 214 268 344 402
#     4  10  23  38  64  98 130 163 224 283 333 388
#     4  11  24  41  64  95 137 174 220 277 340 404
#     4   9  19  37  63  89 119 168 218 262 321 393
#     4  10  21  39  69  87 126 169 226 264 328 408
#     4  10  22  40  63  93 130 178 217 268 341 411
#
# _framework density 24.005911000000001
#
# number of rings (size 3 to 8) (size 9 to 14) (size 15 to 20)
#    0.000    2.000    0.000    5.250   10.500    0.000 
#    0.000    2.500    0.000    0.000    0.000    0.000 
#    0.000    0.000    0.000    0.000    0.000    0.000 
#
# Total GULP energy -89176.131336 kJ/mol
# GULP energy per Si atom -5573.508208 kJ/mol
# Density = 2.395127 g / cm^3
# Si number density = 24.005911 Si / 1000 Ang^3
#
#
#
# Elastic Constant Matrix: (Units=GPa)
#
#
# Indices 1 2 3 4 5 6 
#
# 1 44.4338 5.7569 9.1217 0.0000 -0.0585 0.0000
# 2 5.7569 162.2378 1.1116 0.0000 4.3835 0.0000
# 3 9.1217 1.1116 121.0642 0.0000 -23.5512 0.0000
# 4 0.0000 0.0000 0.0000 26.9517 0.0000 -4.7563
# 5 -0.0585 4.3835 -23.5512 0.0000 22.1865 0.0000
# 6 0.0000 0.0000 0.0000 -4.7563 0.0000 27.9064
#
#
#
# Elastic Compliance Matrix: (Units=1/GPa)
#
#
# Indices 1 2 3 4 5 6 
#
# 1 0.023036 -0.000747 -0.002128 0.000000 -0.002050 0.000000
# 2 -0.000747 0.006234 -0.000304 0.000000 -0.001556 0.000000
# 3 -0.002128 -0.000304 0.010629 0.000000 0.011337 0.000000
# 4 0.000000 0.000000 0.000000 0.038254 0.000000 0.006520
# 5 -0.002050 -0.001556 0.011337 0.000000 0.057409 0.000000
# 6 0.000000 0.000000 0.000000 0.006520 0.000000 0.036945
#
#
# Mechanical properties :
#
#
# Convention : Reuss Voigt Hill
#
# Bulk Modulus (GPa) = 29.81352 39.96848 34.89100
# Shear Modulus (GPa) = 26.30951 36.19195 31.25073
#
# Velocity S-wave (km/s) = 3.31412 3.88703 3.61195
# Velocity P-wave (km/s) = 5.20488 6.06885 5.65339
#
# Compressibility (1/GPa) = 0.03354182
#
# Stress axis : x y z
#
# Youngs Moduli (GPa) = 43.40974 160.39936 94.08612
#
# Poissons Ratio (x) = 0.11989 0.20018
# Poissons Ratio (y) = 0.03245 0.02857
# Poissons Ratio (z) = 0.09236 0.04870
#
# Static dielectric constant tensor:
#      x y z
#    x 1.959840 0.000000 0.052240 
#    y 0.000000 2.033120 0.000000 
#    z 0.052240 0.000000 2.009440 
# 
# From -- ./inp_files/25913.got.cif
#   From: 2010.05.17/outbox.cif.g08.bks.cpg/sg9_13_cif.got.tgz:25913.got - 2010.06.03 20:04:27.
