data_PCOD9136185
_publ_section_title
;
Structure prediction by ZEFSAII (Michael W. Deem and Ramdas Pophale) SiO2 
 PCOD9136185
Probable space group: C C
;
_chemical_formula_sum "Si O2"
_cell_formula_units_Z 28
_cell_length_a 18.868143
_cell_length_b 7.160701
_cell_length_c 18.959765
_cell_angle_alpha 90.000000
_cell_angle_beta 153.670527
_cell_angle_gamma 90.000000
_cell_volume 1136.168874
_symmetry_space_group_name_H-M "C C"
_symmetry_group_IT_number 9
_symmetry_cell_setting 'monoclinic'
loop_
_space_group_symop_operation_xyz
x,y,z
x,-y,1/2+z
1/2+x,1/2+y,z
1/2+x,1/2-y,1/2+z
loop_
_atom_site_type_symbol
_atom_site_label
_atom_site_fract_x
_atom_site_fract_y
_atom_site_fract_z
Si Si1 0.413000 0.083077 0.246300
Si Si2 0.916800 0.136967 0.866558
Si Si3 0.721280 0.631933 0.455775
Si Si4 0.534042 0.256562 0.916894
Si Si5 0.203177 0.455472 0.907369
Si Si6 0.408701 0.879964 0.540986
Si Si7 0.598317 0.005214 0.585489
O O1 0.309482 0.007292 0.089343
O O2 0.404214 0.908315 0.292121
O O3 0.367015 0.268354 0.246862
O O4 0.594762 0.104540 0.378724
O O5 0.759597 0.071490 0.767053
O O6 0.012071 0.949161 0.936800
O O7 0.013699 0.301854 0.988976
O O8 0.567238 0.684167 0.365152
O O9 0.755528 0.516973 0.415403
O O10 0.777097 0.841591 0.488137
O O11 0.653936 0.125989 0.069727
O O12 0.063491 0.452771 0.723215
O O13 0.343490 0.315686 0.011281
O O14 0.475176 0.885267 0.521527
#
# Coordination Sequence:
#
# PCOD9136185 Si02
#       7
#     4   4   4   4   4   4   4
#     4   9  20  39  68 103 131 169 225 273 348 407
#     4  11  23  44  69  98 139 178 222 291 339 410
#     4  10  21  41  68 101 133 171 226 284 343 407
#     4  10  21  39  67 100 135 174 219 283 342 412
#     4  10  24  43  67  98 136 177 222 285 340 406
#     4  11  26  44  65  97 136 185 232 278 343 416
#     4  11  27  42  66  99 136 184 236 276 351 410
#
# _framework density 24.644224999999999
#
# number of rings (size 3 to 8) (size 9 to 14) (size 15 to 20)
#    0.000    1.714    0.000    2.571    4.000   12.571 
#    0.000    0.000    0.000    0.000    0.000    0.000 
#    0.000    0.000    0.000    0.000    0.000    0.000 
#
# Total GULP energy -78001.930851 kJ/mol
# GULP energy per Si atom -5571.566489 kJ/mol
# Density = 2.458813 g / cm^3
# Si number density = 24.644225 Si / 1000 Ang^3
#
#
#
# Elastic Constant Matrix: (Units=GPa)
#
#
# Indices 1 2 3 4 5 6 
#
# 1 74.3926 35.8980 3.9566 0.0000 19.4176 0.0000
# 2 35.8980 168.7793 20.4569 0.0000 19.1607 0.0000
# 3 3.9566 20.4569 43.5281 0.0000 8.6482 0.0000
# 4 0.0000 0.0000 0.0000 38.7711 0.0000 12.5173
# 5 19.4176 19.1607 8.6482 0.0000 28.4066 0.0000
# 6 0.0000 0.0000 0.0000 12.5173 0.0000 33.1579
#
#
#
# Elastic Compliance Matrix: (Units=1/GPa)
#
#
# Indices 1 2 3 4 5 6 
#
# 1 0.017434 -0.002720 0.001806 0.000000 -0.010632 0.000000
# 2 -0.002720 0.007063 -0.002656 0.000000 -0.002097 0.000000
# 3 0.001806 -0.002656 0.025489 0.000000 -0.007203 0.000000
# 4 0.000000 0.000000 0.000000 0.029372 0.000000 -0.011088
# 5 -0.010632 -0.002097 -0.007203 0.000000 0.046078 0.000000
# 6 0.000000 0.000000 0.000000 -0.011088 0.000000 0.034345
#
#
# Mechanical properties :
#
#
# Convention : Reuss Voigt Hill
#
# Bulk Modulus (GPa) = 23.33913 45.25811 34.29862
# Shear Modulus (GPa) = 27.59352 35.15970 31.37661
#
# Velocity S-wave (km/s) = 3.34978 3.78125 3.57204
# Velocity P-wave (km/s) = 4.94494 6.12114 5.56420
#
# Compressibility (1/GPa) = 0.04284650
#
# Stress axis : x y z
#
# Youngs Moduli (GPa) = 57.35985 141.57681 39.23302
#
# Poissons Ratio (x) = 0.38507 -0.07085
# Poissons Ratio (y) = 0.15601 0.10419
# Poissons Ratio (z) = -0.10359 0.37599
#
# Static dielectric constant tensor:
#      x y z
#    x 2.115750 0.000000 -0.070550 
#    y 0.000000 1.873450 0.000000 
#    z -0.070550 0.000000 2.121400 
# 
# From -- ./inp_files/18839.got.cif
#   From: 2010.05.17/outbox.cif.g08.bks.cpg/sg9_10_cif.got.tgz:18839.got - 2010.06.03 20:04:27.
