data_PCOD9136496
_publ_section_title
;
Structure prediction by ZEFSAII (Michael W. Deem and Ramdas Pophale) SiO2 
 PCOD9136496
Probable space group: C C
;
_chemical_formula_sum "Si O2"
_cell_formula_units_Z 32
_cell_length_a 4.921954
_cell_length_b 12.971826
_cell_length_c 22.929827
_cell_angle_alpha 90.000000
_cell_angle_beta 108.576552
_cell_angle_gamma 90.000000
_cell_volume 1387.718716
_symmetry_space_group_name_H-M "C C"
_symmetry_group_IT_number 9
_symmetry_cell_setting 'monoclinic'
loop_
_space_group_symop_operation_xyz
x,y,z
x,-y,1/2+z
1/2+x,1/2+y,z
1/2+x,1/2-y,1/2+z
loop_
_atom_site_type_symbol
_atom_site_label
_atom_site_fract_x
_atom_site_fract_y
_atom_site_fract_z
Si Si1 0.056960 0.190110 0.663820
Si Si2 0.916170 0.573859 0.530492
Si Si3 0.977078 0.077521 0.278568
Si Si4 0.177583 0.291066 0.247629
Si Si5 0.356092 0.473851 0.471302
Si Si6 0.077152 0.525769 0.830080
Si Si7 0.059398 0.803788 0.571279
Si Si8 0.279689 0.467918 0.638331
O O1 0.397213 0.194687 0.687595
O O2 0.944627 0.211937 0.722068
O O3 0.883299 0.269972 0.611066
O O4 0.956028 0.074616 0.642521
O O5 0.170767 0.538317 0.505261
O O6 0.918066 0.691471 0.551160
O O7 0.973245 0.499568 0.590350
O O8 0.628210 0.545205 0.477681
O O9 0.126743 0.186565 0.278922
O O10 0.241666 0.998122 0.301466
O O11 0.766845 0.069282 0.318781
O O12 0.791121 0.056133 0.207477
O O13 0.170790 0.383665 0.292783
O O14 0.168591 0.451465 0.401998
O O15 0.487324 0.370501 0.508987
O O16 0.930757 0.876251 0.613293
#
# Coordination Sequence:
#
# PCOD9136496 Si02
#       8
#     4   4   4   4   4   4   4   4
#     4  11  23  39  68 101 139 167 221 271 343 410
#     4  10  25  44  69 102 129 176 228 279 334 401
#     4  12  25  42  69  99 137 178 219 279 346 399
#     4  12  24  42  65 101 132 179 218 275 337 403
#     4  11  26  46  69  94 135 186 233 272 332 399
#     4  12  26  46  66  97 138 182 231 278 326 407
#     4  10  24  44  70 102 136 178 216 289 340 398
#     4  10  21  41  68 102 138 168 216 277 348 403
#
# _framework density 23.059429999999999
#
# number of rings (size 3 to 8) (size 9 to 14) (size 15 to 20)
#    0.000    1.000    3.750    1.500    1.750   11.000 
#    0.000    0.000    0.000    0.000    0.000    0.000 
#    0.000    0.000    0.000    0.000    0.000    0.000 
#
# Total GULP energy -89586.879498 kJ/mol
# GULP energy per Si atom -5599.179969 kJ/mol
# Density = 2.300695 g / cm^3
# Si number density = 23.059430 Si / 1000 Ang^3
#
#
#
# Elastic Constant Matrix: (Units=GPa)
#
#
# Indices 1 2 3 4 5 6 
#
# 1 58.4523 5.5205 -9.4998 0.0000 3.5106 0.0000
# 2 5.5205 133.6441 30.2514 0.0000 -1.7010 0.0000
# 3 -9.4998 30.2514 110.2926 0.0000 10.4125 0.0000
# 4 0.0000 0.0000 0.0000 29.8134 0.0000 -4.1794
# 5 3.5106 -1.7010 10.4125 0.0000 26.1746 0.0000
# 6 0.0000 0.0000 0.0000 -4.1794 0.0000 28.2835
#
#
#
# Elastic Compliance Matrix: (Units=1/GPa)
#
#
# Indices 1 2 3 4 5 6 
#
# 1 0.017786 -0.001275 0.002197 0.000000 -0.003342 0.000000
# 2 -0.001275 0.008122 -0.002497 0.000000 0.001692 0.000000
# 3 0.002197 -0.002497 0.010374 0.000000 -0.004584 0.000000
# 4 0.000000 0.000000 0.000000 0.034251 0.000000 0.005061
# 5 -0.003342 0.001692 -0.004584 0.000000 0.040587 0.000000
# 6 0.000000 0.000000 0.000000 0.005061 0.000000 0.036104
#
#
# Mechanical properties :
#
#
# Convention : Reuss Voigt Hill
#
# Bulk Modulus (GPa) = 30.18190 39.43703 34.80947
# Shear Modulus (GPa) = 30.97549 35.26208 33.11879
#
# Velocity S-wave (km/s) = 3.66907 3.91472 3.79388
# Velocity P-wave (km/s) = 5.57374 6.12967 5.85830
#
# Compressibility (1/GPa) = 0.03313244
#
# Stress axis : x y z
#
# Youngs Moduli (GPa) = 56.22346 123.12203 96.39738
#
# Poissons Ratio (x) = 0.15693 -0.21180
# Poissons Ratio (y) = 0.07166 0.24073
# Poissons Ratio (z) = -0.12353 0.30747
#
# Static dielectric constant tensor:
#      x y z
#    x 1.858680 0.000000 -0.004800 
#    y 0.000000 1.905870 0.000000 
#    z -0.004800 0.000000 1.844350 
# 
# From -- ./inp_files/32010.got.cif
#   From: 2010.05.17/outbox.cif.g08.bks.cpg/sg9_17_cif.got.tgz:32010.got - 2010.06.03 20:04:27.
