data_PCOD9136814
_publ_section_title
;
Structure prediction by ZEFSAII (Michael W. Deem and Ramdas Pophale) SiO2 
 PCOD9136814
Probable space group: C C
;
_chemical_formula_sum "Si O2"
_cell_formula_units_Z 32
_cell_length_a 5.459234
_cell_length_b 28.668277
_cell_length_c 8.812038
_cell_angle_alpha 90.000000
_cell_angle_beta 117.385453
_cell_angle_gamma 90.000000
_cell_volume 1224.586501
_symmetry_space_group_name_H-M "C C"
_symmetry_group_IT_number 9
_symmetry_cell_setting 'monoclinic'
loop_
_space_group_symop_operation_xyz
x,y,z
x,-y,1/2+z
1/2+x,1/2+y,z
1/2+x,1/2-y,1/2+z
loop_
_atom_site_type_symbol
_atom_site_label
_atom_site_fract_x
_atom_site_fract_y
_atom_site_fract_z
Si Si1 0.182290 0.311850 0.542720
Si Si2 0.544949 0.897295 0.373175
Si Si3 0.455348 0.376645 0.850305
Si Si4 0.747384 0.179741 0.539307
Si Si5 0.976242 0.416211 0.021501
Si Si6 0.805071 0.272109 0.687441
Si Si7 0.092529 0.056258 0.930650
Si Si8 0.390411 0.467195 0.035633
O O1 0.249028 0.354990 0.674183
O O2 0.483980 0.288753 0.602408
O O3 0.028930 0.341079 0.368851
O O4 0.961252 0.281675 0.571706
O O5 0.406747 0.918864 0.180075
O O6 0.866642 0.910251 0.445390
O O7 0.380001 0.920316 0.466737
O O8 0.478882 0.334480 0.979922
O O9 0.737567 0.392506 0.855224
O O10 0.381355 0.424854 0.911999
O O11 0.683227 0.128243 0.582761
O O12 0.814740 0.216006 0.690234
O O13 0.493046 0.203239 0.370448
O O14 0.058602 0.465998 0.975263
O O15 0.973231 0.043470 0.731026
O O16 0.057693 0.009903 0.019520
#
# Coordination Sequence:
#
# PCOD9136814 Si02
#       8
#     4   4   4   4   4   4   4   4
#     4  11  25  44  65 101 135 179 227 284 342 410
#     4  11  25  44  68  98 136 176 225 282 344 408
#     4  10  21  44  67  92 137 179 224 270 352 408
#     4  10  24  41  65 100 133 181 226 287 336 412
#     4  10  21  44  70  93 137 185 225 274 353 413
#     4  11  25  42  66  99 136 172 236 278 341 402
#     4  11  25  44  67 103 133 171 233 279 342 410
#     4  10  24  43  68 100 133 179 226 284 340 417
#
# _framework density 26.131269
#
# number of rings (size 3 to 8) (size 9 to 14) (size 15 to 20)
#    0.000    1.500    2.500    0.750    7.000    1.000 
#    0.000    0.000    0.000    0.000    0.000    0.000 
#    0.000    0.000    0.000    0.000    0.000    0.000 
#
# Total GULP energy -89159.645500 kJ/mol
# GULP energy per Si atom -5572.477844 kJ/mol
# Density = 2.607179 g / cm^3
# Si number density = 26.131269 Si / 1000 Ang^3
#
#
#
# Elastic Constant Matrix: (Units=GPa)
#
#
# Indices 1 2 3 4 5 6 
#
# 1 153.1758 55.6122 21.4253 0.0000 -19.4741 0.0000
# 2 55.6122 91.9795 18.3380 0.0000 -11.5328 0.0000
# 3 21.4253 18.3380 51.5503 0.0000 -3.1948 0.0000
# 4 0.0000 0.0000 0.0000 43.8281 0.0000 -14.1067
# 5 -19.4741 -11.5328 -3.1948 0.0000 23.9564 0.0000
# 6 0.0000 0.0000 0.0000 -14.1067 0.0000 50.3682
#
#
#
# Elastic Compliance Matrix: (Units=1/GPa)
#
#
# Indices 1 2 3 4 5 6 
#
# 1 0.009043 -0.004476 -0.001859 0.000000 0.004948 0.000000
# 2 -0.004476 0.014576 -0.003141 0.000000 0.002959 0.000000
# 3 -0.001859 -0.003141 0.021277 0.000000 -0.000186 0.000000
# 4 0.000000 0.000000 0.000000 0.025077 0.000000 0.007023
# 5 0.004948 0.002959 -0.000186 0.000000 0.047164 0.000000
# 6 0.000000 0.000000 0.000000 0.007023 0.000000 0.021821
#
#
# Mechanical properties :
#
#
# Convention : Reuss Voigt Hill
#
# Bulk Modulus (GPa) = 38.54758 54.16186 46.35472
# Shear Modulus (GPa) = 30.01942 37.05255 33.53599
#
# Velocity S-wave (km/s) = 3.39306 3.76964 3.58630
# Velocity P-wave (km/s) = 5.48945 6.30228 5.90985
#
# Compressibility (1/GPa) = 0.02594197
#
# Stress axis : x y z
#
# Youngs Moduli (GPa) = 110.58580 68.60724 46.99871
#
# Poissons Ratio (x) = 0.30711 0.08739
# Poissons Ratio (y) = 0.49501 0.14763
# Poissons Ratio (z) = 0.20562 0.21551
#
# Static dielectric constant tensor:
#      x y z
#    x 2.463630 0.000000 -0.056920 
#    y 0.000000 2.046480 0.000000 
#    z -0.056920 0.000000 2.150790 
# 
# From -- ./inp_files/4516.got.cif
#   From: 2010.05.17/outbox.cif.g08.bks.cpg/sg9_3_cif.got.tgz:4516.got - 2010.06.03 20:04:27.
