data_PCOD9136957
_publ_section_title
;
Structure prediction by ZEFSAII (Michael W. Deem and Ramdas Pophale) SiO2 
 PCOD9136957
Probable space group: C C
;
_chemical_formula_sum "Si O2"
_cell_formula_units_Z 24
_cell_length_a 8.833184
_cell_length_b 12.021323
_cell_length_c 9.457235
_cell_angle_alpha 90.000000
_cell_angle_beta 109.043740
_cell_angle_gamma 90.000000
_cell_volume 949.269415
_symmetry_space_group_name_H-M "C C"
_symmetry_group_IT_number 9
_symmetry_cell_setting 'monoclinic'
loop_
_space_group_symop_operation_xyz
x,y,z
x,-y,1/2+z
1/2+x,1/2+y,z
1/2+x,1/2-y,1/2+z
loop_
_atom_site_type_symbol
_atom_site_label
_atom_site_fract_x
_atom_site_fract_y
_atom_site_fract_z
Si Si1 0.996820 0.454181 0.197160
Si Si2 0.541816 0.533254 0.147180
Si Si3 0.205632 0.802280 0.184647
Si Si4 0.676565 0.077156 0.023680
Si Si5 0.124448 0.218655 0.973615
Si Si6 0.817348 0.666505 0.277036
O O1 0.872188 0.353746 0.179641
O O2 0.907206 0.565611 0.224433
O O3 0.142508 0.431448 0.348016
O O4 0.059765 0.489364 0.063976
O O5 0.585702 0.405735 0.153326
O O6 0.659981 0.603220 0.288541
O O7 0.357833 0.552150 0.119807
O O8 0.585403 0.592196 0.010060
O O9 0.211940 0.766354 0.351335
O O10 0.145520 0.700287 0.073366
O O11 0.950621 0.274510 0.909964
O O12 0.241566 0.250967 0.138192
#
# Coordination Sequence:
#
# PCOD9136957 Si02
#       6
#     4   4   4   4   4   4
#     4  11  26  49  78 112 161 205 270 327 399 480
#     4   9  26  46  73 114 153 202 266 326 385 482
#     4  11  25  49  76 107 159 206 264 326 403 465
#     4  12  27  50  77 118 154 214 258 334 401 478
#     4  10  21  46  79 111 153 212 259 330 398 467
#     4   9  21  46  77 110 154 205 259 327 394 466
#
# _framework density 25.282603000000002
#
# number of rings (size 3 to 8) (size 9 to 14) (size 15 to 20)
#    1.000    0.667    1.667    1.000    2.333    5.333 
#    3.000    0.000    0.000    0.000    0.000    0.000 
#    0.000    0.000    0.000    0.000    0.000    0.000 
#
# Total GULP energy -67154.723014 kJ/mol
# GULP energy per Si atom -5596.226918 kJ/mol
# Density = 2.522506 g / cm^3
# Si number density = 25.282603 Si / 1000 Ang^3
#
#
#
# Elastic Constant Matrix: (Units=GPa)
#
#
# Indices 1 2 3 4 5 6 
#
# 1 88.7456 33.8566 32.6652 0.0000 16.8219 0.0000
# 2 33.8566 104.1144 58.6782 0.0000 25.1980 0.0000
# 3 32.6652 58.6782 108.2293 0.0000 9.7024 0.0000
# 4 0.0000 0.0000 0.0000 38.2397 0.0000 3.0998
# 5 16.8219 25.1980 9.7024 0.0000 44.0220 0.0000
# 6 0.0000 0.0000 0.0000 3.0998 0.0000 32.4789
#
#
#
# Elastic Compliance Matrix: (Units=1/GPa)
#
#
# Indices 1 2 3 4 5 6 
#
# 1 0.013715 -0.002115 -0.002685 0.000000 -0.003439 0.000000
# 2 -0.002115 0.016177 -0.007523 0.000000 -0.006793 0.000000
# 3 -0.002685 -0.007523 0.013926 0.000000 0.002263 0.000000
# 4 0.000000 0.000000 0.000000 0.026355 0.000000 -0.002515
# 5 -0.003439 -0.006793 0.002263 0.000000 0.027420 0.000000
# 6 0.000000 0.000000 0.000000 -0.002515 0.000000 0.031029
#
#
# Mechanical properties :
#
#
# Convention : Reuss Voigt Hill
#
# Bulk Modulus (GPa) = 52.15807 61.27660 56.71733
# Shear Modulus (GPa) = 31.31722 34.67406 32.99564
#
# Velocity S-wave (km/s) = 3.52332 3.70734 3.61650
# Velocity P-wave (km/s) = 6.10135 6.52802 6.31829
#
# Compressibility (1/GPa) = 0.01917249
#
# Stress axis : x y z
#
# Youngs Moduli (GPa) = 72.91369 61.81775 71.80900
#
# Poissons Ratio (x) = 0.13072 0.19278
# Poissons Ratio (y) = 0.15419 0.54023
# Poissons Ratio (z) = 0.19574 0.46506
#
# Static dielectric constant tensor:
#      x y z
#    x 1.983270 0.000000 0.005820 
#    y 0.000000 1.971440 0.000000 
#    z 0.005820 0.000000 2.007310 
# 
# From -- ./inp_files/14268.got.cif
#   From: 2010.05.17/outbox.cif.g08.bks.cpg/sg9_8_cif.got.tgz:14268.got - 2010.06.03 20:04:27.
