data_PCOD9136711
_publ_section_title
;
Structure prediction by ZEFSAII (Michael W. Deem and Ramdas Pophale) SiO2 
 PCOD9136711
Probable space group: C C
;
_chemical_formula_sum "Si O2"
_cell_formula_units_Z 32
_cell_length_a 21.793895
_cell_length_b 6.118262
_cell_length_c 18.701924
_cell_angle_alpha 90.000000
_cell_angle_beta 146.052745
_cell_angle_gamma 90.000000
_cell_volume 1392.571641
_symmetry_space_group_name_H-M "C C"
_symmetry_group_IT_number 9
_symmetry_cell_setting 'monoclinic'
loop_
_space_group_symop_operation_xyz
x,y,z
x,-y,1/2+z
1/2+x,1/2+y,z
1/2+x,1/2-y,1/2+z
loop_
_atom_site_type_symbol
_atom_site_label
_atom_site_fract_x
_atom_site_fract_y
_atom_site_fract_z
Si Si1 0.515420 0.888125 0.820170
Si Si2 0.832360 0.691003 0.702994
Si Si3 0.501089 0.581110 0.132842
Si Si4 0.161356 0.719301 0.335494
Si Si5 0.652797 0.340235 0.571456
Si Si6 0.846842 0.037237 0.606040
Si Si7 0.471684 0.336558 0.961894
Si Si8 0.617196 0.043990 0.659021
O O1 0.571364 0.910266 0.796711
O O2 0.432714 0.683210 0.732601
O O3 0.444955 0.091233 0.779283
O O4 0.606405 0.813841 0.964768
O O5 0.747367 0.497357 0.634447
O O6 0.790713 0.868851 0.606062
O O7 0.866050 0.796643 0.811106
O O8 0.607542 0.454505 0.268189
O O9 0.412586 0.599012 0.109566
O O10 0.453687 0.424888 0.024441
O O11 0.539972 0.797833 0.131264
O O12 0.268647 0.702776 0.487528
O O13 0.179088 0.604038 0.276605
O O14 0.552198 0.490981 0.501349
O O15 0.686495 0.195467 0.672641
O O16 0.539767 0.112529 0.037199
#
# Coordination Sequence:
#
# PCOD9136711 Si02
#       8
#     4   4   4   4   4   4   4   4
#     4  11  23  44  63  95 136 171 223 285 334 408
#     4  12  25  39  70  99 128 186 221 274 353 401
#     4   9  22  42  65  92 132 177 220 283 331 403
#     4  10  23  40  66  95 131 176 224 276 340 402
#     4  11  24  41  65  98 135 170 225 282 338 400
#     4  11  24  41  65  99 135 176 225 278 339 410
#     4  10  22  42  64  96 133 172 225 281 337 399
#     4  10  21  43  66  90 136 174 219 287 334 395
#
# _framework density 22.979071000000001
#
# number of rings (size 3 to 8) (size 9 to 14) (size 15 to 20)
#    0.000    1.500    2.500    1.500    1.750    8.000 
#    0.000    0.000    0.000    0.000    0.000    0.000 
#    0.000    0.000    0.000    0.000    0.000    0.000 
#
# Total GULP energy -89537.917624 kJ/mol
# GULP energy per Si atom -5596.119851 kJ/mol
# Density = 2.292677 g / cm^3
# Si number density = 22.979071 Si / 1000 Ang^3
#
#
#
# Elastic Constant Matrix: (Units=GPa)
#
#
# Indices 1 2 3 4 5 6 
#
# 1 96.8419 36.1499 41.0000 0.0000 -18.4871 0.0000
# 2 36.1499 62.0964 24.2296 0.0001 -10.0186 0.0001
# 3 41.0000 24.2296 72.8183 0.0001 -13.1559 0.0001
# 4 0.0000 0.0001 0.0001 26.0343 0.0000 -0.3463
# 5 -18.4871 -10.0186 -13.1559 0.0000 30.0903 0.0000
# 6 0.0000 0.0001 0.0001 -0.3463 0.0000 54.0815
#
#
#
# Elastic Compliance Matrix: (Units=1/GPa)
#
#
# Indices 1 2 3 4 5 6 
#
# 1 0.016241 -0.006219 -0.006131 0.000000 0.005227 0.000000
# 2 -0.006219 0.021290 -0.003249 0.000000 0.001847 0.000000
# 3 -0.006131 -0.003249 0.018881 0.000000 0.003407 0.000000
# 4 0.000000 0.000000 0.000000 0.038414 0.000000 0.000246
# 5 0.005227 0.001847 0.003407 0.000000 0.038549 0.000000
# 6 0.000000 0.000000 0.000000 0.000246 0.000000 0.018492
#
#
# Mechanical properties :
#
#
# Convention : Reuss Voigt Hill
#
# Bulk Modulus (GPa) = 39.65869 48.27951 43.96910
# Shear Modulus (GPa) = 26.11366 30.73303 28.42335
#
# Velocity S-wave (km/s) = 3.37473 3.66106 3.52081
# Velocity P-wave (km/s) = 5.69922 6.23915 5.97529
#
# Compressibility (1/GPa) = 0.02521515
#
# Stress axis : x y z
#
# Youngs Moduli (GPa) = 61.57198 46.96981 52.96302
#
# Poissons Ratio (x) = 0.29213 0.32470
# Poissons Ratio (y) = 0.38294 0.17206
# Poissons Ratio (z) = 0.37748 0.15259
#
# Static dielectric constant tensor:
#      x y z
#    x 1.861080 0.000000 0.007150 
#    y 0.000000 1.826630 0.000000 
#    z 0.007150 0.000000 1.828860 
# 
# From -- ./inp_files/34457.got.cif
#   From: 2010.05.17/outbox.cif.g08.bks.cpg/sg9_18_cif.got.tgz:34457.got - 2010.06.03 20:04:27.
