data_PCOD9136847
_publ_section_title
;
Structure prediction by ZEFSAII (Michael W. Deem and Ramdas Pophale) SiO2 
 PCOD9136847
Probable space group: C C
;
_chemical_formula_sum "Si O2"
_cell_formula_units_Z 32
_cell_length_a 12.002194
_cell_length_b 9.159079
_cell_length_c 19.437279
_cell_angle_alpha 90.000000
_cell_angle_beta 144.035977
_cell_angle_gamma 90.000000
_cell_volume 1254.847681
_symmetry_space_group_name_H-M "C C"
_symmetry_group_IT_number 9
_symmetry_cell_setting 'monoclinic'
loop_
_space_group_symop_operation_xyz
x,y,z
x,-y,1/2+z
1/2+x,1/2+y,z
1/2+x,1/2-y,1/2+z
loop_
_atom_site_type_symbol
_atom_site_label
_atom_site_fract_x
_atom_site_fract_y
_atom_site_fract_z
Si Si1 0.540130 0.725388 0.244370
Si Si2 0.668848 0.512348 0.696296
Si Si3 0.882565 0.498505 0.087726
Si Si4 0.632612 0.788959 0.768206
Si Si5 0.212706 0.541118 0.144486
Si Si6 0.543710 0.365347 0.361487
Si Si7 0.582864 0.938426 0.932194
Si Si8 0.342229 0.461539 0.439862
O O1 0.606804 0.594224 0.228158
O O2 0.436108 0.843742 0.144620
O O3 0.378106 0.663048 0.215078
O O4 0.724373 0.812705 0.366278
O O5 0.634232 0.676545 0.706188
O O6 0.560045 0.464557 0.572480
O O7 0.893703 0.500275 0.803660
O O8 0.935419 0.622432 0.169793
O O9 0.030386 0.548647 0.102236
O O10 0.671809 0.506129 0.954711
O O11 0.642178 0.692861 0.841451
O O12 0.789697 0.918017 0.854941
O O13 0.333714 0.408014 0.236317
O O14 0.131376 0.506759 0.028923
O O15 0.551778 0.234639 0.419714
O O16 0.750211 0.974069 0.963616
#
# Coordination Sequence:
#
# PCOD9136847 Si02
#       8
#     4   4   4   4   4   4   4   4
#     4  11  26  46  69 108 148 185 241 309 359 451
#     4  12  23  44  73 101 144 187 235 309 364 443
#     4  11  26  46  71 103 149 187 244 306 374 443
#     4  10  21  44  69  99 138 187 230 291 364 436
#     4  12  25  44  72 109 142 196 248 301 385 445
#     4  11  22  45  72  99 143 192 236 312 365 448
#     4  11  25  43  72 104 137 190 247 297 380 443
#     4  10  24  46  66 103 147 182 239 297 365 437
#
# _framework density 25.501101999999999
#
# number of rings (size 3 to 8) (size 9 to 14) (size 15 to 20)
#    0.000    1.000    2.500    3.750    3.500    1.000 
#    2.250    6.250    0.000    0.000    0.000    0.000 
#    0.000    0.000    0.000    0.000    0.000    0.000 
#
# Total GULP energy -89593.230523 kJ/mol
# GULP energy per Si atom -5599.576908 kJ/mol
# Density = 2.544306 g / cm^3
# Si number density = 25.501102 Si / 1000 Ang^3
#
#
#
# Elastic Constant Matrix: (Units=GPa)
#
#
# Indices 1 2 3 4 5 6 
#
# 1 59.4389 24.4096 12.4736 0.0000 -0.2315 0.0000
# 2 24.4096 100.9518 43.8057 0.0000 -7.5762 0.0000
# 3 12.4736 43.8057 177.6705 0.0000 14.3787 0.0000
# 4 0.0000 0.0000 0.0000 21.5445 0.0000 -1.5246
# 5 -0.2315 -7.5762 14.3787 0.0000 35.1261 0.0000
# 6 0.0000 0.0000 0.0000 -1.5246 0.0000 -5.4931
#
#
#
# Elastic Compliance Matrix: (Units=1/GPa)
#
#
# Indices 1 2 3 4 5 6 
#
# 1 0.018707 -0.004526 -0.000133 0.000000 -0.000798 0.000000
# 2 -0.004526 0.012654 -0.003124 0.000000 0.003978 0.000000
# 3 -0.000133 -0.003124 0.006684 0.000000 -0.003411 0.000000
# 4 0.000000 0.000000 0.000000 0.045521 0.000000 -0.012635
# 5 -0.000798 0.003978 -0.003411 0.000000 0.030718 0.000000
# 6 0.000000 0.000000 0.000000 -0.012635 0.000000 -0.178541
#
#
# Mechanical properties :
#
#
# Convention : Reuss Voigt Hill
#
# Bulk Modulus (GPa) = 44.48373 55.49324 49.98848
# Shear Modulus (GPa) = -121.36794 27.39367 -46.98713
#
# Velocity S-wave (km/s) = -6.90627 3.28108 -4.29715
# Velocity P-wave (km/s) = 6.79070 6.01351 2.23062
#
# Compressibility (1/GPa) = 0.02248013
#
# Stress axis : x y z
#
# Youngs Moduli (GPa) = 53.45510 79.02503 149.60966
#
# Poissons Ratio (x) = 0.35763 0.01989
# Poissons Ratio (y) = 0.24191 0.46741
# Poissons Ratio (z) = 0.00711 0.24689
#
# Static dielectric constant tensor:
#      x y z
#    x 2.038020 0.000000 -0.020780 
#    y 0.000000 2.048630 0.000000 
#    z -0.020780 0.000000 2.004010 
# 
# From -- ./inp_files/33727.got.cif
#   From: 2010.05.17/outbox.cif.g08.bks.cpg/sg9_17_cif.got.tgz:33727.got - 2010.06.03 20:04:27.
