data_PCOD9136594
_publ_section_title
;
Structure prediction by ZEFSAII (Michael W. Deem and Ramdas Pophale) SiO2 
 PCOD9136594
Probable space group: C C
;
_chemical_formula_sum "Si O2"
_cell_formula_units_Z 32
_cell_length_a 9.532873
_cell_length_b 18.110910
_cell_length_c 8.807327
_cell_angle_alpha 90.000000
_cell_angle_beta 64.476270
_cell_angle_gamma 90.000000
_cell_volume 1372.178499
_symmetry_space_group_name_H-M "C C"
_symmetry_group_IT_number 9
_symmetry_cell_setting 'monoclinic'
loop_
_space_group_symop_operation_xyz
x,y,z
x,-y,1/2+z
1/2+x,1/2+y,z
1/2+x,1/2-y,1/2+z
loop_
_atom_site_type_symbol
_atom_site_label
_atom_site_fract_x
_atom_site_fract_y
_atom_site_fract_z
Si Si1 0.023820 0.315515 0.192390
Si Si2 0.884800 0.804482 0.975684
Si Si3 0.967453 0.384512 0.899540
Si Si4 0.438597 0.540044 0.540303
Si Si5 0.048658 0.910903 0.325812
Si Si6 0.677889 0.308698 0.048706
Si Si7 0.232361 0.644036 0.038711
Si Si8 0.604294 0.042326 0.826766
O O1 0.009344 0.395616 0.279769
O O2 0.930197 0.251646 0.321886
O O3 0.207621 0.295256 0.110648
O O4 0.982169 0.332952 0.039654
O O5 0.910314 0.892103 0.936011
O O6 0.008453 0.795079 0.054197
O O7 0.104435 0.359195 0.726896
O O8 0.003484 0.470632 0.915079
O O9 0.795685 0.367215 0.915890
O O10 0.568571 0.486581 0.407698
O O11 0.496761 0.564269 0.679896
O O12 0.258225 0.516692 0.660104
O O13 0.906292 0.880139 0.490218
O O14 0.157539 0.842830 0.228161
O O15 0.750461 0.229179 0.988788
O O16 0.169845 0.589642 0.936792
#
# Coordination Sequence:
#
# PCOD9136594 Si02
#       8
#     4   4   4   4   4   4   4   4
#     4  11  25  47  70 103 137 182 240 292 351 421
#     4  10  24  46  71  97 136 186 235 280 359 433
#     4  12  26  41  71 109 140 171 245 298 351 404
#     4   9  20  39  68  95 124 179 227 270 334 416
#     4  10  21  42  66  96 130 175 229 275 338 416
#     4  11  25  45  65 107 138 184 227 290 360 421
#     4  11  22  42  74  93 136 191 232 275 348 438
#     4  10  21  44  73  98 133 190 237 276 347 439
#
# _framework density 23.320581000000001
#
# number of rings (size 3 to 8) (size 9 to 14) (size 15 to 20)
#    0.000    1.500    2.500    2.250    8.750    0.000 
#   13.500    0.000    0.000    0.000    0.000    0.000 
#    0.000    0.000    0.000    0.000    0.000    0.000 
#
# Total GULP energy -89215.094441 kJ/mol
# GULP energy per Si atom -5575.943403 kJ/mol
# Density = 2.326750 g / cm^3
# Si number density = 23.320581 Si / 1000 Ang^3
#
#
#
# Elastic Constant Matrix: (Units=GPa)
#
#
# Indices 1 2 3 4 5 6 
#
# 1 46.7111 35.5475 22.4856 0.0000 -13.5813 0.0000
# 2 35.5475 131.8123 49.3384 0.0000 -11.3868 0.0000
# 3 22.4856 49.3384 108.4435 0.0000 -10.3860 0.0000
# 4 0.0000 0.0000 0.0000 45.4232 0.0000 -7.7795
# 5 -13.5813 -11.3868 -10.3860 0.0000 30.8372 0.0000
# 6 0.0000 0.0000 0.0000 -7.7795 0.0000 16.4271
#
#
#
# Elastic Compliance Matrix: (Units=1/GPa)
#
#
# Indices 1 2 3 4 5 6 
#
# 1 0.030425 -0.006421 -0.002409 0.000000 0.010217 0.000000
# 2 -0.006421 0.010625 -0.003511 0.000000 -0.000087 0.000000
# 3 -0.002409 -0.003511 0.011462 0.000000 0.001503 0.000000
# 4 0.000000 0.000000 0.000000 0.023958 0.000000 0.011346
# 5 0.010217 -0.000087 0.001503 0.000000 0.037402 0.000000
# 6 0.000000 0.000000 0.000000 0.011346 0.000000 0.066248
#
#
# Mechanical properties :
#
#
# Convention : Reuss Voigt Hill
#
# Bulk Modulus (GPa) = 35.93145 55.74553 45.83849
# Shear Modulus (GPa) = 23.35596 30.51054 26.93325
#
# Velocity S-wave (km/s) = 3.16811 3.62098 3.40209
# Velocity P-wave (km/s) = 5.36876 6.43723 5.92712
#
# Compressibility (1/GPa) = 0.02783077
#
# Stress axis : x y z
#
# Youngs Moduli (GPa) = 32.86813 94.11983 87.24360
#
# Poissons Ratio (x) = 0.60432 0.21014
# Poissons Ratio (y) = 0.21104 0.30631
# Poissons Ratio (z) = 0.07917 0.33045
#
# Static dielectric constant tensor:
#      x y z
#    x 1.964530 0.000000 0.004240 
#    y 0.000000 2.024240 0.000000 
#    z 0.004240 0.000000 1.871400 
# 
# From -- ./inp_files/8027.got.cif
#   From: 2010.05.17/outbox.cif.g08.bks.cpg/sg9_5_cif.got.tgz:8027.got - 2010.06.03 20:04:27.
