data_PCOD9136411
_publ_section_title
;
Structure prediction by ZEFSAII (Michael W. Deem and Ramdas Pophale) SiO2 
 PCOD9136411
Probable space group: C C
;
_chemical_formula_sum "Si O2"
_cell_formula_units_Z 32
_cell_length_a 6.635117
_cell_length_b 18.556078
_cell_length_c 12.382469
_cell_angle_alpha 90.000000
_cell_angle_beta 77.334285
_cell_angle_gamma 90.000000
_cell_volume 1487.452687
_symmetry_space_group_name_H-M "C C"
_symmetry_group_IT_number 9
_symmetry_cell_setting 'monoclinic'
loop_
_space_group_symop_operation_xyz
x,y,z
x,-y,1/2+z
1/2+x,1/2+y,z
1/2+x,1/2-y,1/2+z
loop_
_atom_site_type_symbol
_atom_site_label
_atom_site_fract_x
_atom_site_fract_y
_atom_site_fract_z
Si Si1 0.646480 0.708618 0.321750
Si Si2 0.685895 0.020773 0.374348
Si Si3 0.321914 0.016342 0.775426
Si Si4 0.537092 0.579343 0.179012
Si Si5 0.784610 0.837294 0.980393
Si Si6 0.581703 0.742250 0.816864
Si Si7 0.945771 0.906118 0.438268
Si Si8 0.481756 0.172540 0.708091
O O1 0.573233 0.655003 0.235506
O O2 0.529804 0.678430 0.442102
O O3 0.563658 0.788732 0.306368
O O4 0.892094 0.712842 0.292477
O O5 0.733880 0.079987 0.459832
O O6 0.845584 0.039598 0.259394
O O7 0.463881 0.025004 0.344736
O O8 0.736175 0.943363 0.420869
O O9 0.123274 0.045000 0.863000
O O10 0.442850 0.087796 0.724059
O O11 0.237645 0.968692 0.686247
O O12 0.483065 0.590478 0.061315
O O13 0.690877 0.792022 0.892339
O O14 0.660425 0.814555 0.100249
O O15 0.482598 0.673517 0.888832
O O16 0.758495 0.710911 0.716374
#
# Coordination Sequence:
#
# PCOD9136411 Si02
#       8
#     4   4   4   4   4   4   4   4
#     4  10  21  41  61  88 125 165 210 269 320 381
#     4  10  22  39  59  90 126 164 209 265 314 384
#     4  10  22  39  59  90 126 164 209 265 314 384
#     4  10  22  39  61  90 126 165 215 264 319 387
#     4  10  22  38  60  90 122 159 212 262 313 387
#     4  10  21  41  61  88 125 165 210 269 320 381
#     4  10  22  39  61  90 126 165 215 264 319 387
#     4  10  22  38  60  90 122 159 212 262 313 387
#
# _framework density 21.513289
#
# number of rings (size 3 to 8) (size 9 to 14) (size 15 to 20)
#    0.000    2.000    0.000    2.250    3.500    1.000 
#    0.000    2.500    0.000    0.000    0.000    0.000 
#    0.000    0.000    0.000    0.000    0.000    0.000 
#
# Total GULP energy -89325.398935 kJ/mol
# GULP energy per Si atom -5582.837433 kJ/mol
# Density = 2.146432 g / cm^3
# Si number density = 21.513289 Si / 1000 Ang^3
#
#
#
# Elastic Constant Matrix: (Units=GPa)
#
#
# Indices 1 2 3 4 5 6 
#
# 1 46.0142 -5.7451 7.5931 0.0000 1.9735 0.0000
# 2 -5.7451 79.4555 1.1206 0.0000 0.6714 0.0000
# 3 7.5931 1.1206 80.5101 0.0000 -12.1052 0.0000
# 4 0.0000 0.0000 0.0000 6.3448 0.0000 3.5114
# 5 1.9735 0.6714 -12.1052 0.0000 26.0080 0.0000
# 6 0.0000 0.0000 0.0000 3.5114 0.0000 33.6288
#
#
#
# Elastic Compliance Matrix: (Units=1/GPa)
#
#
# Indices 1 2 3 4 5 6 
#
# 1 0.022497 0.001688 -0.002590 0.000000 -0.002956 0.000000
# 2 0.001688 0.012719 -0.000435 0.000000 -0.000659 0.000000
# 3 -0.002590 -0.000435 0.013658 0.000000 0.006565 0.000000
# 4 0.000000 0.000000 0.000000 0.167275 0.000000 -0.017466
# 5 -0.002956 -0.000659 0.006565 0.000000 0.041747 0.000000
# 6 0.000000 0.000000 0.000000 -0.017466 0.000000 0.031560
#
#
# Mechanical properties :
#
#
# Convention : Reuss Voigt Hill
#
# Bulk Modulus (GPa) = 21.64451 23.54635 22.59543
# Shear Modulus (GPa) = 16.25853 26.73041 21.49447
#
# Velocity S-wave (km/s) = 2.75206 3.52875 3.16432
# Velocity P-wave (km/s) = 4.49236 5.25086 4.88635
#
# Compressibility (1/GPa) = 0.04620110
#
# Stress axis : x y z
#
# Youngs Moduli (GPa) = 44.44972 78.61989 73.21631
#
# Poissons Ratio (x) = -0.13272 0.18961
# Poissons Ratio (y) = -0.07504 0.03187
# Poissons Ratio (z) = 0.11511 0.03423
#
# Static dielectric constant tensor:
#      x y z
#    x 1.838400 0.000000 -0.029570 
#    y 0.000000 1.802530 0.000000 
#    z -0.029570 0.000000 1.749650 
# 
# From -- ./inp_files/13340.got.cif
#   From: 2010.05.17/outbox.cif.g08.bks.cpg/sg9_7_cif.got.tgz:13340.got - 2010.06.03 20:04:27.
