data_PCOD9136025
_publ_section_title
;
Structure prediction by ZEFSAII (Michael W. Deem and Ramdas Pophale) SiO2 
 PCOD9136025
Probable space group: C C
;
_chemical_formula_sum "Si O2"
_cell_formula_units_Z 28
_cell_length_a 5.990269
_cell_length_b 31.856776
_cell_length_c 7.336748
_cell_angle_alpha 90.000000
_cell_angle_beta 120.181208
_cell_angle_gamma 90.000000
_cell_volume 1210.281715
_symmetry_space_group_name_H-M "C C"
_symmetry_group_IT_number 9
_symmetry_cell_setting 'monoclinic'
loop_
_space_group_symop_operation_xyz
x,y,z
x,-y,1/2+z
1/2+x,1/2+y,z
1/2+x,1/2-y,1/2+z
loop_
_atom_site_type_symbol
_atom_site_label
_atom_site_fract_x
_atom_site_fract_y
_atom_site_fract_z
Si Si1 0.462410 0.555522 0.198160
Si Si2 0.460130 0.900622 0.979813
Si Si3 0.916875 0.310120 0.418455
Si Si4 0.469036 0.751469 0.744173
Si Si5 0.415936 0.904231 0.384110
Si Si6 0.511162 0.193524 0.526005
Si Si7 0.946878 0.957311 0.122110
O O1 0.719554 0.582533 0.263594
O O2 0.470804 0.507255 0.141460
O O3 0.454728 0.553572 0.413142
O O4 0.195594 0.575478 0.023833
O O5 0.374793 0.895047 0.153440
O O6 0.553539 0.853592 0.972805
O O7 0.679576 0.936232 0.074284
O O8 0.628638 0.292300 0.320728
O O9 0.075970 0.281681 0.625106
O O10 0.917708 0.358727 0.474769
O O11 0.996661 0.305860 0.237985
O O12 0.214890 0.728350 0.536307
O O13 0.300452 0.781966 0.817807
O O14 0.181962 0.935950 0.329029
#
# Coordination Sequence:
#
# PCOD9136025 Si02
#       7
#     4   4   4   4   4   4   4
#     4  11  24  41  63  94 124 164 207 255 320 375
#     4  10  23  42  63  93 127 163 208 262 309 375
#     4  10  21  40  60  90 126 162 207 267 308 372
#     4  10  21  38  63  89 121 169 213 251 321 371
#     4  10  23  42  63  94 125 165 208 258 316 370
#     4  10  21  40  59  92 124 162 211 261 311 375
#     4  11  23  41  65  90 127 163 208 258 309 380
#
# _framework density 23.135110000000001
#
# number of rings (size 3 to 8) (size 9 to 14) (size 15 to 20)
#    0.000    1.714    0.000    3.429    2.000    4.571 
#   18.000    0.000    0.000    0.000    0.000    0.000 
#    0.000    0.000    0.000    0.000    0.000    0.000 
#
# Total GULP energy -77979.866348 kJ/mol
# GULP energy per Si atom -5569.990453 kJ/mol
# Density = 2.308245 g / cm^3
# Si number density = 23.135110 Si / 1000 Ang^3
#
#
#
# Elastic Constant Matrix: (Units=GPa)
#
#
# Indices 1 2 3 4 5 6 
#
# 1 21.3031 20.9528 -1.1326 0.0000 8.7071 0.0000
# 2 20.9528 179.1889 29.1367 0.0000 20.2282 0.0000
# 3 -1.1326 29.1367 78.9182 0.0000 -14.0420 0.0000
# 4 0.0000 0.0000 0.0000 34.2110 0.0000 -4.2014
# 5 8.7071 20.2282 -14.0420 0.0000 46.9947 0.0000
# 6 0.0000 0.0000 0.0000 -4.2014 0.0000 33.6632
#
#
#
# Elastic Compliance Matrix: (Units=1/GPa)
#
#
# Indices 1 2 3 4 5 6 
#
# 1 0.055899 -0.005997 0.001725 0.000000 -0.007260 0.000000
# 2 -0.005997 0.007140 -0.003244 0.000000 -0.002932 0.000000
# 3 0.001725 -0.003244 0.014876 0.000000 0.005522 0.000000
# 4 0.000000 0.000000 0.000000 0.029685 0.000000 0.003705
# 5 -0.007260 -0.002932 0.005522 0.000000 0.025536 0.000000
# 6 0.000000 0.000000 0.000000 0.003705 0.000000 0.030168
#
#
# Mechanical properties :
#
#
# Convention : Reuss Voigt Hill
#
# Bulk Modulus (GPa) = 15.90260 41.92490 28.91375
# Shear Modulus (GPa) = 25.08785 38.33733 31.71259
#
# Velocity S-wave (km/s) = 3.29660 4.07517 3.70639
# Velocity P-wave (km/s) = 4.62373 6.34853 5.55350
#
# Compressibility (1/GPa) = 0.06288281
#
# Stress axis : x y z
#
# Youngs Moduli (GPa) = 17.88933 140.04847 67.22123
#
# Poissons Ratio (x) = 0.83990 -0.11593
# Poissons Ratio (y) = 0.10729 0.21806
# Poissons Ratio (z) = -0.03085 0.45431
#
# Static dielectric constant tensor:
#      x y z
#    x 1.922220 0.000000 0.045740 
#    y 0.000000 1.785480 0.000000 
#    z 0.045740 0.000000 2.302780 
# 
# From -- ./inp_files/4424.got.cif
#   From: 2010.05.17/outbox.cif.g08.bks.cpg/sg9_3_cif.got.tgz:4424.got - 2010.06.03 20:04:27.
