data_PCOD9136545
_publ_section_title
;
Structure prediction by ZEFSAII (Michael W. Deem and Ramdas Pophale) SiO2 
 PCOD9136545
Probable space group: C C
;
_chemical_formula_sum "Si O2"
_cell_formula_units_Z 32
_cell_length_a 5.346527
_cell_length_b 18.271007
_cell_length_c 15.130598
_cell_angle_alpha 90.000000
_cell_angle_beta 103.162342
_cell_angle_gamma 90.000000
_cell_volume 1439.223847
_symmetry_space_group_name_H-M "C C"
_symmetry_group_IT_number 9
_symmetry_cell_setting 'monoclinic'
loop_
_space_group_symop_operation_xyz
x,y,z
x,-y,1/2+z
1/2+x,1/2+y,z
1/2+x,1/2-y,1/2+z
loop_
_atom_site_type_symbol
_atom_site_label
_atom_site_fract_x
_atom_site_fract_y
_atom_site_fract_z
Si Si1 0.720860 0.898512 0.019570
Si Si2 0.637505 0.799560 0.469641
Si Si3 0.766295 0.654993 0.399223
Si Si4 0.043698 0.698030 0.258542
Si Si5 0.385525 0.836370 0.271841
Si Si6 0.836585 0.083092 0.717118
Si Si7 0.220731 0.226434 0.069828
Si Si8 0.837965 0.938274 0.826086
O O1 0.813945 0.941363 0.112918
O O2 0.760193 0.812506 0.048960
O O3 0.415665 0.895863 0.979646
O O4 0.815848 0.927418 0.931306
O O5 0.603176 0.714675 0.437190
O O6 0.545247 0.842887 0.375917
O O7 0.436948 0.815303 0.530487
O O8 0.934244 0.800992 0.524014
O O9 0.606545 0.600896 0.325850
O O10 0.954970 0.704341 0.353602
O O11 0.274789 0.753590 0.253852
O O12 0.133033 0.614576 0.263173
O O13 0.806125 0.714924 0.176938
O O14 0.589879 0.864504 0.216366
O O15 0.116782 0.880350 0.250871
O O16 0.817678 0.018073 0.785956
#
# Coordination Sequence:
#
# PCOD9136545 Si02
#       8
#     4   4   4   4   4   4   4   4
#     4  10  23  44  69 102 141 198 239 289 364 448
#     4  11  22  41  66 103 142 178 230 296 354 420
#     4  10  21  41  74  99 138 190 237 292 359 430
#     4  11  24  42  75 105 141 186 248 303 359 444
#     4  12  25  47  71 109 141 191 240 310 361 431
#     4  12  29  45  75 105 150 190 249 299 368 437
#     4  11  23  38  70 110 135 184 237 298 359 427
#     4  11  25  48  72 103 148 199 240 303 370 441
#
# _framework density 22.234206
#
# number of rings (size 3 to 8) (size 9 to 14) (size 15 to 20)
#    0.000    1.000    3.750    3.000   10.500    0.000 
#    2.250    2.500    0.000    0.000    0.000    0.000 
#    0.000    0.000    0.000    0.000    0.000    0.000 
#
# Total GULP energy -89258.804473 kJ/mol
# GULP energy per Si atom -5578.675280 kJ/mol
# Density = 2.218360 g / cm^3
# Si number density = 22.234206 Si / 1000 Ang^3
#
#
#
# Elastic Constant Matrix: (Units=GPa)
#
#
# Indices 1 2 3 4 5 6 
#
# 1 128.0120 53.5457 54.2983 0.0000 9.2024 0.0000
# 2 53.5457 51.8238 45.3123 0.0000 -5.6326 0.0000
# 3 54.2983 45.3123 143.3881 0.0000 15.6776 0.0000
# 4 0.0000 0.0000 0.0000 31.2909 0.0000 -0.2972
# 5 9.2024 -5.6326 15.6776 0.0000 34.8406 0.0000
# 6 0.0000 0.0000 0.0000 -0.2972 0.0000 20.7853
#
#
#
# Elastic Compliance Matrix: (Units=1/GPa)
#
#
# Indices 1 2 3 4 5 6 
#
# 1 0.015136 -0.016604 0.000259 0.000000 -0.006799 0.000000
# 2 -0.016604 0.047522 -0.010569 0.000000 0.016824 0.000000
# 3 0.000259 -0.010569 0.010949 0.000000 -0.006704 0.000000
# 4 0.000000 0.000000 0.000000 0.031962 0.000000 0.000457
# 5 -0.006799 0.016824 -0.006704 0.000000 0.036234 0.000000
# 6 0.000000 0.000000 0.000000 0.000457 0.000000 0.048118
#
#
# Mechanical properties :
#
#
# Convention : Reuss Voigt Hill
#
# Bulk Modulus (GPa) = 50.56225 69.94849 60.25537
# Shear Modulus (GPa) = 19.97258 28.72121 24.34690
#
# Velocity S-wave (km/s) = 3.00039 3.59800 3.31270
# Velocity P-wave (km/s) = 5.89858 6.98491 6.46460
#
# Compressibility (1/GPa) = 0.01977760
#
# Stress axis : x y z
#
# Youngs Moduli (GPa) = 66.06759 21.04298 91.33141
#
# Poissons Ratio (x) = 0.34940 -0.02363
# Poissons Ratio (y) = 1.09699 0.96531
# Poissons Ratio (z) = -0.01709 0.22241
#
# Static dielectric constant tensor:
#      x y z
#    x 1.896290 0.000000 -0.014990 
#    y 0.000000 1.798590 0.000000 
#    z -0.014990 0.000000 1.870760 
# 
# From -- ./inp_files/22098.got.cif
#   From: 2010.05.17/outbox.cif.g08.bks.cpg/sg9_12_cif.got.tgz:22098.got - 2010.06.03 20:04:27.
