data_PCOD9136489
_publ_section_title
;
Structure prediction by ZEFSAII (Michael W. Deem and Ramdas Pophale) SiO2 
 PCOD9136489
Probable space group: C C
;
_chemical_formula_sum "Si O2"
_cell_formula_units_Z 32
_cell_length_a 10.054420
_cell_length_b 10.854635
_cell_length_c 12.685111
_cell_angle_alpha 90.000000
_cell_angle_beta 106.302675
_cell_angle_gamma 90.000000
_cell_volume 1328.751383
_symmetry_space_group_name_H-M "C C"
_symmetry_group_IT_number 9
_symmetry_cell_setting 'monoclinic'
loop_
_space_group_symop_operation_xyz
x,y,z
x,-y,1/2+z
1/2+x,1/2+y,z
1/2+x,1/2-y,1/2+z
loop_
_atom_site_type_symbol
_atom_site_label
_atom_site_fract_x
_atom_site_fract_y
_atom_site_fract_z
Si Si1 0.401160 0.585557 0.855910
Si Si2 0.178064 0.938806 0.184570
Si Si3 0.883926 0.349254 0.530694
Si Si4 0.069602 0.846330 0.950488
Si Si5 0.545158 0.775068 0.762639
Si Si6 0.430201 0.017680 0.351118
Si Si7 0.614307 0.834947 0.279041
Si Si8 0.081178 0.167235 0.075291
O O1 0.496872 0.466095 0.884294
O O2 0.430094 0.671754 0.762365
O O3 0.238775 0.567517 0.816450
O O4 0.453894 0.666178 0.966568
O O5 0.284915 0.035157 0.260079
O O6 0.167127 0.819316 0.258498
O O7 0.056991 0.038745 0.134678
O O8 0.179422 0.880286 0.067220
O O9 0.945588 0.232824 0.478543
O O10 0.991446 0.352173 0.651660
O O11 0.904783 0.468549 0.462097
O O12 0.726067 0.339660 0.539138
O O13 0.139247 0.769476 0.872926
O O14 0.536891 0.870983 0.856638
O O15 0.481085 0.903087 0.292336
O O16 0.592797 0.776812 0.160483
#
# Coordination Sequence:
#
# PCOD9136489 Si02
#       8
#     4   4   4   4   4   4   4   4
#     4  11  23  39  67  94 132 181 226 285 350 407
#     4  10  21  41  67  96 129 181 230 276 352 408
#     4  10  21  43  66  96 136 179 232 291 343 418
#     4   9  23  42  66  94 141 176 226 290 345 412
#     4  11  22  42  67  97 135 180 229 286 341 417
#     4  11  24  40  66  99 140 176 233 289 348 416
#     4  11  24  41  62 101 137 173 232 288 341 422
#     4  11  22  42  69  97 130 182 240 283 348 422
#
# _framework density 24.082758999999999
#
# number of rings (size 3 to 8) (size 9 to 14) (size 15 to 20)
#    0.000    1.500    2.500    1.500    1.750    7.000 
#    0.000    2.500    0.000    0.000    0.000    0.000 
#    0.000    0.000    0.000    0.000    0.000    0.000 
#
# Total GULP energy -89199.925847 kJ/mol
# GULP energy per Si atom -5574.995365 kJ/mol
# Density = 2.402795 g / cm^3
# Si number density = 24.082759 Si / 1000 Ang^3
#
#
#
# Elastic Constant Matrix: (Units=GPa)
#
#
# Indices 1 2 3 4 5 6 
#
# 1 55.5982 4.7257 6.6509 0.0000 -17.2734 0.0000
# 2 4.7257 81.2982 21.8169 0.0000 -18.1621 0.0000
# 3 6.6509 21.8169 63.4259 0.0000 -12.0388 0.0000
# 4 0.0000 0.0000 0.0000 44.0756 0.0000 -13.5474
# 5 -17.2734 -18.1621 -12.0388 0.0000 30.9262 0.0000
# 6 0.0000 0.0000 0.0000 -13.5474 0.0000 37.1238
#
#
#
# Elastic Compliance Matrix: (Units=1/GPa)
#
#
# Indices 1 2 3 4 5 6 
#
# 1 0.021971 0.001773 -0.000418 0.000000 0.013150 0.000000
# 2 0.001773 0.015084 -0.003785 0.000000 0.008375 0.000000
# 3 -0.000418 -0.003785 0.017974 0.000000 0.004541 0.000000
# 4 0.000000 0.000000 0.000000 0.025555 0.000000 0.009326
# 5 0.013150 0.008375 0.004541 0.000000 0.046366 0.000000
# 6 0.000000 0.000000 0.000000 0.009326 0.000000 0.030340
#
#
# Mechanical properties :
#
#
# Convention : Reuss Voigt Hill
#
# Bulk Modulus (GPa) = 19.93239 29.63437 24.78338
# Shear Modulus (GPa) = 27.95289 33.56703 30.75996
#
# Velocity S-wave (km/s) = 3.41060 3.73744 3.57776
# Velocity P-wave (km/s) = 4.87896 5.56386 5.23263
#
# Compressibility (1/GPa) = 0.05016959
#
# Stress axis : x y z
#
# Youngs Moduli (GPa) = 45.51465 66.29513 55.63597
#
# Poissons Ratio (x) = -0.11752 0.02324
# Poissons Ratio (y) = -0.08068 0.21057
# Poissons Ratio (z) = 0.01901 0.25091
#
# Static dielectric constant tensor:
#      x y z
#    x 1.981600 0.000000 -0.049680 
#    y 0.000000 1.942950 0.000000 
#    z -0.049680 0.000000 1.958690 
# 
# From -- ./inp_files/16275.got.cif
#   From: 2010.05.17/outbox.cif.g08.bks.cpg/sg9_9_cif.got.tgz:16275.got - 2010.06.03 20:04:27.
