data_PCOD9136163
_publ_section_title
;
Structure prediction by ZEFSAII (Michael W. Deem and Ramdas Pophale) SiO2 
 PCOD9136163
Probable space group: C C
;
_chemical_formula_sum "Si O2"
_cell_formula_units_Z 28
_cell_length_a 12.224211
_cell_length_b 15.879391
_cell_length_c 8.733293
_cell_angle_alpha 90.000000
_cell_angle_beta 140.674628
_cell_angle_gamma 90.000000
_cell_volume 1074.317162
_symmetry_space_group_name_H-M "C C"
_symmetry_group_IT_number 9
_symmetry_cell_setting 'monoclinic'
loop_
_space_group_symop_operation_xyz
x,y,z
x,-y,1/2+z
1/2+x,1/2+y,z
1/2+x,1/2-y,1/2+z
loop_
_atom_site_type_symbol
_atom_site_label
_atom_site_fract_x
_atom_site_fract_y
_atom_site_fract_z
Si Si1 0.008300 0.172071 0.623630
Si Si2 0.355433 0.175920 0.137126
Si Si3 0.298390 0.476695 0.733881
Si Si4 0.699033 0.658460 0.541053
Si Si5 0.357489 0.616267 0.001483
Si Si6 0.970765 0.656898 0.596597
Si Si7 0.930566 0.461947 0.484142
O O1 0.113078 0.208352 0.588741
O O2 0.892113 0.241338 0.577742
O O3 0.907968 0.093617 0.443348
O O4 0.156309 0.150225 0.905994
O O5 0.411459 0.193693 0.370091
O O6 0.451750 0.099410 0.153830
O O7 0.327401 0.459983 0.588436
O O8 0.101206 0.460494 0.565976
O O9 0.350790 0.571282 0.831751
O O10 0.545031 0.648278 0.251638
O O11 0.865632 0.689030 0.628780
O O12 0.772099 0.575195 0.711534
O O13 0.177295 0.665458 0.829223
O O14 0.915576 0.558175 0.521131
#
# Coordination Sequence:
#
# PCOD9136163 Si02
#       7
#     4   4   4   4   4   4   4
#     4  10  24  45  68  97 135 195 229 282 348 424
#     4  11  24  44  69  97 137 186 234 281 342 422
#     4  10  21  39  65 100 138 176 230 276 347 403
#     4  10  22  41  67  99 137 183 229 280 347 410
#     4  10  23  37  64 106 139 178 222 293 335 409
#     4  11  23  41  68 105 138 176 233 293 342 395
#     4  10  21  39  69 100 138 178 225 283 347 409
#
# _framework density 26.063065999999999
#
# number of rings (size 3 to 8) (size 9 to 14) (size 15 to 20)
#    0.000    1.714    1.429    1.714   14.000    0.000 
#    2.571    2.857    3.143    0.000    0.000    0.000 
#    0.000    0.000    0.000    0.000    0.000    0.000 
#
# Total GULP energy -78397.298581 kJ/mol
# GULP energy per Si atom -5599.807042 kJ/mol
# Density = 2.600375 g / cm^3
# Si number density = 26.063066 Si / 1000 Ang^3
#
#
#
# Elastic Constant Matrix: (Units=GPa)
#
#
# Indices 1 2 3 4 5 6 
#
# 1 94.4932 23.9488 30.4559 0.0000 5.9238 0.0000
# 2 23.9488 70.9588 18.6908 0.0000 5.4790 0.0000
# 3 30.4559 18.6908 162.3623 0.0000 17.4250 0.0000
# 4 0.0000 0.0000 0.0000 40.0606 0.0000 4.4701
# 5 5.9238 5.4790 17.4250 0.0000 28.7628 0.0000
# 6 0.0000 0.0000 0.0000 4.4701 0.0000 21.1602
#
#
#
# Elastic Compliance Matrix: (Units=1/GPa)
#
#
# Indices 1 2 3 4 5 6 
#
# 1 0.012105 -0.003559 -0.001782 0.000000 -0.000736 0.000000
# 2 -0.003559 0.015675 -0.000957 0.000000 -0.001673 0.000000
# 3 -0.001782 -0.000957 0.007000 0.000000 -0.003691 0.000000
# 4 0.000000 0.000000 0.000000 0.025565 0.000000 -0.005401
# 5 -0.000736 -0.001673 -0.003691 0.000000 0.037474 0.000000
# 6 0.000000 0.000000 0.000000 -0.005401 0.000000 0.048399
#
#
# Mechanical properties :
#
#
# Convention : Reuss Voigt Hill
#
# Bulk Modulus (GPa) = 45.07975 52.66724 48.87350
# Shear Modulus (GPa) = 30.08246 34.97797 32.53022
#
# Velocity S-wave (km/s) = 3.40106 3.66738 3.53673
# Velocity P-wave (km/s) = 5.72337 6.17935 5.95572
#
# Compressibility (1/GPa) = 0.02218291
#
# Stress axis : x y z
#
# Youngs Moduli (GPa) = 82.60801 63.79454 142.86365
#
# Poissons Ratio (x) = 0.22707 0.25459
# Poissons Ratio (y) = 0.29404 0.13676
# Poissons Ratio (z) = 0.14721 0.06107
#
# Static dielectric constant tensor:
#      x y z
#    x 2.029980 0.000000 -0.005530 
#    y 0.000000 2.089690 0.000000 
#    z -0.005530 0.000000 2.020830 
# 
# From -- ./inp_files/8238.got.cif
#   From: 2010.05.17/outbox.cif.g08.bks.cpg/sg9_5_cif.got.tgz:8238.got - 2010.06.03 20:04:27.
