data_PCOD9136149
_publ_section_title
;
Structure prediction by ZEFSAII (Michael W. Deem and Ramdas Pophale) SiO2 
 PCOD9136149
Probable space group: C C
;
_chemical_formula_sum "Si O2"
_cell_formula_units_Z 20
_cell_length_a 19.407318
_cell_length_b 7.421856
_cell_length_c 10.132040
_cell_angle_alpha 90.000000
_cell_angle_beta 146.246273
_cell_angle_gamma 90.000000
_cell_volume 810.879249
_symmetry_space_group_name_H-M "C C"
_symmetry_group_IT_number 9
_symmetry_cell_setting 'monoclinic'
loop_
_space_group_symop_operation_xyz
x,y,z
x,-y,1/2+z
1/2+x,1/2+y,z
1/2+x,1/2-y,1/2+z
loop_
_atom_site_type_symbol
_atom_site_label
_atom_site_fract_x
_atom_site_fract_y
_atom_site_fract_z
Si Si1 0.765230 0.166698 0.673890
Si Si2 0.633753 0.625034 0.312536
Si Si3 0.286706 0.032459 0.812006
Si Si4 0.182393 0.519227 0.291204
Si Si5 0.014726 0.781344 0.149851
O O1 0.745663 0.020948 0.754831
O O2 0.574593 0.169644 0.121670
O O3 0.784398 0.082691 0.561259
O O4 0.838101 0.342747 0.835134
O O5 0.722255 0.523717 0.346390
O O6 0.627628 0.830536 0.257822
O O7 0.513468 0.494900 0.121912
O O8 0.696232 0.612885 0.555806
O O9 0.394545 0.175922 0.001759
O O10 0.123543 0.252874 0.930020
#
# Coordination Sequence:
#
# PCOD9136149 Si02
#       5
#     4   4   4   4   4
#     4   8  19  36  60  88 120 164 196 258 305 372
#     4  10  22  40  60  94 122 161 210 261 306 382
#     4  10  21  39  64  90 124 162 210 254 321 370
#     4   9  19  37  60  81 128 153 201 255 307 362
#     4   9  21  38  62  85 126 160 205 258 311 366
#
# _framework density 24.664583
#
# number of rings (size 3 to 8) (size 9 to 14) (size 15 to 20)
#    1.200    1.600    0.000    0.000    5.600    0.000 
#    3.600    0.000    0.000    0.000    0.000    0.000 
#    0.000    0.000    0.000    0.000    0.000    0.000 
#
# Total GULP energy -55841.617372 kJ/mol
# GULP energy per Si atom -5584.161737 kJ/mol
# Density = 2.460844 g / cm^3
# Si number density = 24.664583 Si / 1000 Ang^3
#
#
#
# Elastic Constant Matrix: (Units=GPa)
#
#
# Indices 1 2 3 4 5 6 
#
# 1 68.8612 26.8920 35.4490 0.0000 -8.6924 0.0000
# 2 26.8920 174.0960 9.9231 0.0000 6.0240 0.0000
# 3 35.4490 9.9231 46.1328 0.0000 -9.6418 0.0000
# 4 0.0000 0.0000 0.0000 7.8999 0.0000 7.5564
# 5 -8.6924 6.0240 -9.6418 0.0000 37.2386 0.0000
# 6 0.0000 0.0000 0.0000 7.5564 0.0000 41.8428
#
#
#
# Elastic Compliance Matrix: (Units=1/GPa)
#
#
# Indices 1 2 3 4 5 6 
#
# 1 0.025429 -0.002924 -0.018577 0.000000 0.001599 0.000000
# 2 -0.002924 0.006215 0.000589 0.000000 -0.001535 0.000000
# 3 -0.018577 0.000589 0.036895 0.000000 0.005121 0.000000
# 4 0.000000 0.000000 0.000000 0.153015 0.000000 -0.027633
# 5 0.001599 -0.001535 0.005121 0.000000 0.028801 0.000000
# 6 0.000000 0.000000 0.000000 -0.027633 0.000000 0.028889
#
#
# Mechanical properties :
#
#
# Convention : Reuss Voigt Hill
#
# Bulk Modulus (GPa) = 37.43171 48.17982 42.80577
# Shear Modulus (GPa) = 15.15276 31.85133 23.50204
#
# Velocity S-wave (km/s) = 2.48130 3.59747 3.09020
# Velocity P-wave (km/s) = 4.83926 6.06895 5.48865
#
# Compressibility (1/GPa) = 0.02671532
#
# Stress axis : x y z
#
# Youngs Moduli (GPa) = 39.32528 160.89540 27.10420
#
# Poissons Ratio (x) = 0.47052 0.50351
# Poissons Ratio (y) = 0.11500 -0.01597
# Poissons Ratio (z) = 0.73053 -0.09482
#
# Static dielectric constant tensor:
#      x y z
#    x 1.942450 0.000000 0.046930 
#    y 0.000000 2.004910 0.000000 
#    z 0.046930 0.000000 1.973770 
# 
# From -- ./inp_files/11392.got.cif
#   From: 2010.05.17/outbox.cif.g08.bks.cpg/sg9_6_cif.got.tgz:11392.got - 2010.06.03 20:04:27.
