data_PCOD9136269
_publ_section_title
;
Structure prediction by ZEFSAII (Michael W. Deem and Ramdas Pophale) SiO2 
 PCOD9136269
Probable space group: C C
;
_chemical_formula_sum "Si O2"
_cell_formula_units_Z 32
_cell_length_a 7.281210
_cell_length_b 8.286452
_cell_length_c 21.810726
_cell_angle_alpha 90.000000
_cell_angle_beta 66.078182
_cell_angle_gamma 90.000000
_cell_volume 1202.917444
_symmetry_space_group_name_H-M "C C"
_symmetry_group_IT_number 9
_symmetry_cell_setting 'monoclinic'
loop_
_space_group_symop_operation_xyz
x,y,z
x,-y,1/2+z
1/2+x,1/2+y,z
1/2+x,1/2-y,1/2+z
loop_
_atom_site_type_symbol
_atom_site_label
_atom_site_fract_x
_atom_site_fract_y
_atom_site_fract_z
Si Si1 0.754670 0.889962 0.744770
Si Si2 0.274269 0.136697 0.492467
Si Si3 0.090261 0.853744 0.159792
Si Si4 0.997237 0.479541 0.617836
Si Si5 0.991254 0.056045 0.362485
Si Si6 0.099100 0.373324 0.408271
Si Si7 0.918317 0.952347 0.510526
Si Si8 0.404515 0.920498 0.265770
O O1 0.670831 0.761025 0.705179
O O2 0.555115 0.986635 0.790241
O O3 0.862327 0.768699 0.777120
O O4 0.914029 0.021984 0.700555
O O5 0.176862 0.261987 0.455355
O O6 0.387380 0.262110 0.521307
O O7 0.442004 0.011066 0.447700
O O8 0.081871 0.026099 0.533619
O O9 0.005876 0.714248 0.126155
O O10 0.286033 0.963493 0.119512
O O11 0.003372 0.554498 0.685352
O O12 0.198295 0.525404 0.553692
O O13 0.993578 0.244161 0.378743
O O14 0.192990 0.010797 0.299664
O O15 0.802749 0.961880 0.359781
O O16 0.998658 0.980656 0.430943
#
# Coordination Sequence:
#
# PCOD9136269 Si02
#       8
#     4   4   4   4   4   4   4   4
#     4  10  21  40  63  90 124 161 204 253 306 366
#     4  10  22  40  63  90 122 161 204 253 308 366
#     4  10  22  40  63  90 122 161 204 253 308 366
#     4  10  23  41  63  92 125 164 208 258 312 372
#     4  10  21  41  65  94 127 166 209 258 312 372
#     4  10  21  40  63  90 124 161 204 253 306 366
#     4  10  23  41  63  92 125 164 208 258 312 372
#     4  10  21  41  65  94 127 166 209 258 312 372
#
# _framework density 26.601989
#
# number of rings (size 3 to 8) (size 9 to 14) (size 15 to 20)
#    0.000    2.000    0.000    2.250    0.000    8.000 
#    0.000   31.250    0.000    0.000    0.000    0.000 
#    0.000    0.000    0.000    0.000    0.000    0.000 
#
# Total GULP energy -89534.196292 kJ/mol
# GULP energy per Si atom -5595.887268 kJ/mol
# Density = 2.654144 g / cm^3
# Si number density = 26.601989 Si / 1000 Ang^3
#
#
#
# Elastic Constant Matrix: (Units=GPa)
#
#
# Indices 1 2 3 4 5 6 
#
# 1 176.4566 83.7986 35.0239 0.0000 -28.4236 0.0000
# 2 83.7986 204.9941 31.4663 0.0000 -23.8701 0.0000
# 3 35.0239 31.4663 60.7234 0.0000 -18.7046 0.0000
# 4 0.0000 0.0000 0.0000 56.7442 0.0000 -8.9494
# 5 -28.4236 -23.8701 -18.7046 0.0000 60.5521 0.0000
# 6 0.0000 0.0000 0.0000 -8.9494 0.0000 76.0559
#
#
#
# Elastic Compliance Matrix: (Units=1/GPa)
#
#
# Indices 1 2 3 4 5 6 
#
# 1 0.007668 -0.002532 -0.002552 0.000000 0.001813 0.000000
# 2 -0.002532 0.006241 -0.001527 0.000000 0.000800 0.000000
# 3 -0.002552 -0.001527 0.020089 0.000000 0.004405 0.000000
# 4 0.000000 0.000000 0.000000 0.017956 0.000000 0.002113
# 5 0.001813 0.000800 0.004405 0.000000 0.019042 0.000000
# 6 0.000000 0.000000 0.000000 0.002113 0.000000 0.013397
#
#
# Mechanical properties :
#
#
# Convention : Reuss Voigt Hill
#
# Bulk Modulus (GPa) = 48.13543 82.52796 65.33170
# Shear Modulus (GPa) = 47.82868 58.12948 52.97908
#
# Velocity S-wave (km/s) = 4.24481 4.67964 4.46752
# Velocity P-wave (km/s) = 6.49296 7.76461 7.15708
#
# Compressibility (1/GPa) = 0.02077472
#
# Stress axis : x y z
#
# Youngs Moduli (GPa) = 130.41110 160.23883 49.77941
#
# Poissons Ratio (x) = 0.40568 0.12706
# Poissons Ratio (y) = 0.33016 0.07602
# Poissons Ratio (z) = 0.33286 0.24472
#
# Static dielectric constant tensor:
#      x y z
#    x 2.198850 0.000000 0.167050 
#    y 0.000000 2.050550 0.000000 
#    z 0.167050 0.000000 2.167390 
# 
# From -- ./inp_files/34897.got.cif
#   From: 2010.05.17/outbox.cif.g08.bks.cpg/sg9_18_cif.got.tgz:34897.got - 2010.06.03 20:04:27.
