data_PCOD9136473
_publ_section_title
;
Structure prediction by ZEFSAII (Michael W. Deem and Ramdas Pophale) SiO2 
 PCOD9136473
Probable space group: C C
;
_chemical_formula_sum "Si O2"
_cell_formula_units_Z 32
_cell_length_a 14.752810
_cell_length_b 8.463632
_cell_length_c 12.297736
_cell_angle_alpha 90.000000
_cell_angle_beta 85.951169
_cell_angle_gamma 90.000000
_cell_volume 1531.691971
_symmetry_space_group_name_H-M "C C"
_symmetry_group_IT_number 9
_symmetry_cell_setting 'monoclinic'
loop_
_space_group_symop_operation_xyz
x,y,z
x,-y,1/2+z
1/2+x,1/2+y,z
1/2+x,1/2-y,1/2+z
loop_
_atom_site_type_symbol
_atom_site_label
_atom_site_fract_x
_atom_site_fract_y
_atom_site_fract_z
Si Si1 0.601420 0.376720 0.797070
Si Si2 0.673722 0.459348 0.578580
Si Si3 0.840681 0.684702 0.937587
Si Si4 0.997717 0.523869 0.524257
Si Si5 0.533612 0.658454 0.926625
Si Si6 0.659723 0.200965 0.012630
Si Si7 0.349750 0.538060 0.017288
Si Si8 0.914119 0.759364 0.707899
O O1 0.673985 0.374563 0.694288
O O2 0.583025 0.559702 0.829736
O O3 0.505198 0.311543 0.763365
O O4 0.632425 0.278785 0.899164
O O5 0.749379 0.393111 0.491161
O O6 0.576650 0.418018 0.532427
O O7 0.680771 0.647439 0.585425
O O8 0.844201 0.708948 0.807771
O O9 0.923577 0.572663 0.963980
O O10 0.854783 0.852189 0.996244
O O11 0.043479 0.655411 0.441706
O O12 0.075984 0.406461 0.558352
O O13 0.945703 0.619503 0.623750
O O14 0.427068 0.618123 0.935540
O O15 0.750041 0.098214 0.996180
O O16 0.373916 0.601589 0.135744
#
# Coordination Sequence:
#
# PCOD9136473 Si02
#       8
#     4   4   4   4   4   4   4   4
#     4  11  22  45  71  97 135 186 225 279 351 400
#     4  11  23  42  69  97 138 175 230 281 337 404
#     4  12  25  46  69 103 140 182 228 287 335 411
#     4  11  23  43  68 102 141 177 231 283 338 408
#     4  10  21  41  66  97 134 176 218 285 333 401
#     4  11  25  44  67 103 142 177 230 287 334 409
#     4  11  23  43  68  99 138 175 228 284 335 404
#     4  11  24  46  72  98 138 184 228 278 351 403
#
# _framework density 20.891929000000001
#
# number of rings (size 3 to 8) (size 9 to 14) (size 15 to 20)
#    0.000    1.000    5.000    3.000    0.000    6.000 
#    0.000    0.000    0.000    0.000    0.000    0.000 
#    0.000    0.000    0.000    0.000    0.000    0.000 
#
# Total GULP energy -89404.056717 kJ/mol
# GULP energy per Si atom -5587.753545 kJ/mol
# Density = 2.084438 g / cm^3
# Si number density = 20.891929 Si / 1000 Ang^3
#
#
#
# Elastic Constant Matrix: (Units=GPa)
#
#
# Indices 1 2 3 4 5 6 
#
# 1 63.6470 13.5512 22.3524 0.0000 -10.2962 0.0000
# 2 13.5512 119.9067 32.5648 0.0000 -5.3979 0.0000
# 3 22.3524 32.5648 93.4425 0.0000 -12.2965 0.0000
# 4 0.0000 0.0000 0.0000 28.6775 0.0000 2.7026
# 5 -10.2962 -5.3979 -12.2965 0.0000 31.5796 0.0000
# 6 0.0000 0.0000 0.0000 2.7026 0.0000 35.3166
#
#
#
# Elastic Compliance Matrix: (Units=1/GPa)
#
#
# Indices 1 2 3 4 5 6 
#
# 1 0.017788 -0.000900 -0.003371 0.000000 0.004333 0.000000
# 2 -0.000900 0.009261 -0.002996 0.000000 0.000123 0.000000
# 3 -0.003371 -0.002996 0.013007 0.000000 0.003453 0.000000
# 4 0.000000 0.000000 0.000000 0.035124 0.000000 -0.002688
# 5 0.004333 0.000123 0.003453 0.000000 0.034444 0.000000
# 6 0.000000 0.000000 0.000000 -0.002688 0.000000 0.028521
#
#
# Mechanical properties :
#
#
# Convention : Reuss Voigt Hill
#
# Bulk Modulus (GPa) = 39.18238 45.99255 42.58747
# Shear Modulus (GPa) = 31.02005 33.01660 32.01833
#
# Velocity S-wave (km/s) = 3.85747 3.97968 3.91905
# Velocity P-wave (km/s) = 6.21576 6.57110 6.39590
#
# Compressibility (1/GPa) = 0.02552167
#
# Stress axis : x y z
#
# Youngs Moduli (GPa) = 56.21707 107.98332 76.88309
#
# Poissons Ratio (x) = 0.09715 0.25920
# Poissons Ratio (y) = 0.05058 0.23034
# Poissons Ratio (z) = 0.18953 0.32351
#
# Static dielectric constant tensor:
#      x y z
#    x 1.749730 0.000000 -0.021260 
#    y 0.000000 1.750080 0.000000 
#    z -0.021260 0.000000 1.782050 
# 
# From -- ./inp_files/17781.got.cif
#   From: 2010.05.17/outbox.cif.g08.bks.cpg/sg9_9_cif.got.tgz:17781.got - 2010.06.03 20:04:27.
