data_PCOD9136062
_publ_section_title
;
Structure prediction by ZEFSAII (Michael W. Deem and Ramdas Pophale) SiO2 
 PCOD9136062
Probable space group: C C
;
_chemical_formula_sum "Si O2"
_cell_formula_units_Z 28
_cell_length_a 12.007387
_cell_length_b 8.018788
_cell_length_c 14.559083
_cell_angle_alpha 90.000000
_cell_angle_beta 118.363533
_cell_angle_gamma 90.000000
_cell_volume 1233.530260
_symmetry_space_group_name_H-M "C C"
_symmetry_group_IT_number 9
_symmetry_cell_setting 'monoclinic'
loop_
_space_group_symop_operation_xyz
x,y,z
x,-y,1/2+z
1/2+x,1/2+y,z
1/2+x,1/2-y,1/2+z
loop_
_atom_site_type_symbol
_atom_site_label
_atom_site_fract_x
_atom_site_fract_y
_atom_site_fract_z
Si Si1 0.895250 0.785790 0.099690
Si Si2 0.117332 0.652761 0.270475
Si Si3 0.242226 0.935380 0.687560
Si Si4 0.734759 0.648543 0.511497
Si Si5 0.651035 0.987104 0.976427
Si Si6 0.537809 0.158759 0.617236
Si Si7 0.308103 0.103845 0.893854
O O1 0.828095 0.676355 0.153071
O O2 0.033463 0.801522 0.195435
O O3 0.901949 0.679869 0.007681
O O4 0.799109 0.935640 0.046174
O O5 0.097714 0.609740 0.368403
O O6 0.087105 0.484355 0.205257
O O7 0.256692 0.727749 0.325756
O O8 0.119410 0.825520 0.663896
O O9 0.207591 0.083953 0.603581
O O10 0.319238 0.987212 0.808929
O O11 0.654092 0.814849 0.463345
O O12 0.716559 0.503189 0.427505
O O13 0.886931 0.682678 0.565383
O O14 0.576147 0.913856 0.032997
#
# Coordination Sequence:
#
# PCOD9136062 Si02
#       7
#     4   4   4   4   4   4   4
#     4   9  21  40  62  92 125 165 212 261 313 383
#     4  11  21  41  66  92 128 171 211 261 325 375
#     4  10  21  40  64  94 126 164 213 261 312 386
#     4  11  23  44  64  97 129 164 218 265 315 386
#     4  10  24  42  64  94 131 165 215 266 315 386
#     4  11  23  41  70  92 125 177 205 261 332 369
#     4  10  21  38  66  89 128 164 208 267 312 379
#
# _framework density 22.699079000000001
#
# number of rings (size 3 to 8) (size 9 to 14) (size 15 to 20)
#    0.000    1.714    2.857    2.571    4.000    0.000 
#    0.000    0.000    3.143    0.000    0.000    0.000 
#    0.000    0.000    0.000    0.000    0.000    0.000 
#
# Total GULP energy -78059.778340 kJ/mol
# GULP energy per Si atom -5575.698453 kJ/mol
# Density = 2.264741 g / cm^3
# Si number density = 22.699079 Si / 1000 Ang^3
#
#
#
# Elastic Constant Matrix: (Units=GPa)
#
#
# Indices 1 2 3 4 5 6 
#
# 1 66.6261 22.9167 20.8228 0.0000 -2.9293 0.0000
# 2 22.9167 72.0409 10.6881 0.0000 -0.1343 0.0000
# 3 20.8228 10.6881 107.8109 0.0000 -14.3448 0.0000
# 4 0.0000 0.0000 0.0000 33.2659 0.0000 -1.3978
# 5 -2.9293 -0.1343 -14.3448 0.0000 29.7244 0.0000
# 6 0.0000 0.0000 0.0000 -1.3978 0.0000 24.8925
#
#
#
# Elastic Compliance Matrix: (Units=1/GPa)
#
#
# Indices 1 2 3 4 5 6 
#
# 1 0.017709 -0.005209 -0.002858 0.000000 0.000342 0.000000
# 2 -0.005209 0.015632 -0.000644 0.000000 -0.000753 0.000000
# 3 -0.002858 -0.000644 0.010530 0.000000 0.004797 0.000000
# 4 0.000000 0.000000 0.000000 0.030132 0.000000 0.001692
# 5 0.000342 -0.000753 0.004797 0.000000 0.035988 0.000000
# 6 0.000000 0.000000 0.000000 0.001692 0.000000 0.040268
#
#
# Mechanical properties :
#
#
# Convention : Reuss Voigt Hill
#
# Bulk Modulus (GPa) = 37.80909 39.48146 38.64528
# Shear Modulus (GPa) = 28.32916 30.37991 29.35453
#
# Velocity S-wave (km/s) = 3.53658 3.66235 3.60002
# Velocity P-wave (km/s) = 5.77662 5.94264 5.86022
#
# Compressibility (1/GPa) = 0.02644866
#
# Stress axis : x y z
#
# Youngs Moduli (GPa) = 56.46814 63.97116 94.96957
#
# Poissons Ratio (x) = 0.33320 0.27147
# Poissons Ratio (y) = 0.29412 0.06116
# Poissons Ratio (z) = 0.16141 0.04119
#
# Static dielectric constant tensor:
#      x y z
#    x 1.908470 0.000000 0.068060 
#    y 0.000000 1.861260 0.000000 
#    z 0.068060 0.000000 1.861960 
# 
# From -- ./inp_files/17694.got.cif
#   From: 2010.05.17/outbox.cif.g08.bks.cpg/sg9_9_cif.got.tgz:17694.got - 2010.06.03 20:04:27.
