data_PCOD9136762
_publ_section_title
;
Structure prediction by ZEFSAII (Michael W. Deem and Ramdas Pophale) SiO2 
 PCOD9136762
Probable space group: C C
;
_chemical_formula_sum "Si O2"
_cell_formula_units_Z 32
_cell_length_a 25.829496
_cell_length_b 7.810158
_cell_length_c 19.722362
_cell_angle_alpha 90.000000
_cell_angle_beta 16.820203
_cell_angle_gamma 90.000000
_cell_volume 1151.296512
_symmetry_space_group_name_H-M "C C"
_symmetry_group_IT_number 9
_symmetry_cell_setting 'monoclinic'
loop_
_space_group_symop_operation_xyz
x,y,z
x,-y,1/2+z
1/2+x,1/2+y,z
1/2+x,1/2-y,1/2+z
loop_
_atom_site_type_symbol
_atom_site_label
_atom_site_fract_x
_atom_site_fract_y
_atom_site_fract_z
Si Si1 0.475700 0.232604 0.798270
Si Si2 0.313666 0.762942 0.647562
Si Si3 0.290118 0.917917 0.956897
Si Si4 0.223341 0.438501 0.823556
Si Si5 0.284388 0.528345 0.443008
Si Si6 0.326368 0.715335 0.780800
Si Si7 0.958239 0.736208 0.369029
Si Si8 0.618703 0.374887 0.382725
O O1 0.431509 0.227321 0.933239
O O2 0.403122 0.401557 0.854080
O O3 0.683992 0.186735 0.530744
O O4 0.362615 0.088134 0.900124
O O5 0.226582 0.572617 0.757122
O O6 0.401635 0.766986 0.612983
O O7 0.191183 0.932025 0.801817
O O8 0.296685 0.875036 0.868066
O O9 0.391180 0.774515 0.876002
O O10 0.079218 0.896186 0.237963
O O11 0.171336 0.583358 0.945701
O O12 0.427202 0.383355 0.585786
O O13 0.111906 0.267035 0.951497
O O14 0.398756 0.421352 0.245240
O O15 0.110673 0.413906 0.681858
O O16 0.782496 0.704224 0.633012
#
# Coordination Sequence:
#
# PCOD9136762 Si02
#       8
#     4   4   4   4   4   4   4   4
#     4  11  24  41  73 107 139 191 256 308 370 450
#     4  10  25  47  68 109 149 199 245 317 376 446
#     4  10  21  43  71 100 141 190 246 299 379 447
#     4  10  28  43  72 107 148 199 247 305 385 443
#     4  10  23  43  69 102 141 186 243 307 371 447
#     4   9  24  49  65 106 147 199 241 310 382 451
#     4  10  22  40  67 102 138 178 246 301 371 432
#     4  12  23  46  73 107 147 194 250 311 376 448
#
# _framework density 27.794751999999999
#
# number of rings (size 3 to 8) (size 9 to 14) (size 15 to 20)
#    0.750    1.000    2.500    0.750    1.750   11.000 
#    0.000    0.000    0.000    0.000    0.000    0.000 
#    0.000    0.000    0.000    0.000    0.000    0.000 
#
# Total GULP energy -89287.977204 kJ/mol
# GULP energy per Si atom -5580.498575 kJ/mol
# Density = 2.773149 g / cm^3
# Si number density = 27.794752 Si / 1000 Ang^3
#
#
#
# Elastic Constant Matrix: (Units=GPa)
#
#
# Indices 1 2 3 4 5 6 
#
# 1 170.6158 73.4869 69.1871 -0.0004 10.9018 0.0001
# 2 73.4869 163.8728 40.1464 -0.0008 -23.0693 -0.0001
# 3 69.1871 40.1464 136.1352 -0.0004 -2.7209 -0.0001
# 4 -0.0004 -0.0008 -0.0004 41.0392 -0.0002 -12.9470
# 5 10.9018 -23.0693 -2.7209 -0.0002 57.5349 0.0002
# 6 0.0001 -0.0001 -0.0001 -12.9470 0.0002 67.3726
#
#
#
# Elastic Compliance Matrix: (Units=1/GPa)
#
#
# Indices 1 2 3 4 5 6 
#
# 1 0.009133 -0.003684 -0.003623 0.000000 -0.003379 0.000000
# 2 -0.003684 0.008459 -0.000541 0.000000 0.004064 0.000000
# 3 -0.003623 -0.000541 0.009365 0.000000 0.000912 0.000000
# 4 0.000000 0.000000 0.000000 0.025940 0.000000 0.004985
# 5 -0.003379 0.004064 0.000912 0.000000 0.019694 0.000000
# 6 0.000000 0.000000 0.000000 0.004985 0.000000 0.015801
#
#
# Mechanical properties :
#
#
# Convention : Reuss Voigt Hill
#
# Bulk Modulus (GPa) = 88.80059 92.91828 90.85943
# Shear Modulus (GPa) = 46.36557 52.37622 49.37089
#
# Velocity S-wave (km/s) = 4.08872 4.34567 4.21915
# Velocity P-wave (km/s) = 7.36941 7.66045 7.51634
#
# Compressibility (1/GPa) = 0.01126119
#
# Stress axis : x y z
#
# Youngs Moduli (GPa) = 109.49759 118.21922 106.78517
#
# Poissons Ratio (x) = 0.43547 0.38685
# Poissons Ratio (y) = 0.40334 0.05779
# Poissons Ratio (z) = 0.39667 0.06398
#
# Static dielectric constant tensor:
#      x y z
#    x 2.187660 0.000000 0.070940 
#    y 0.000000 2.328480 0.000000 
#    z 0.070940 0.000000 2.234050 
# 
# From -- ./inp_files/34597.got.cif
#   From: 2010.05.17/outbox.cif.g08.bks.cpg/sg9_18_cif.got.tgz:34597.got - 2010.06.03 20:04:27.
