data_PCOD9136543
_publ_section_title
;
Structure prediction by ZEFSAII (Michael W. Deem and Ramdas Pophale) SiO2 
 PCOD9136543
Probable space group: C C
;
_chemical_formula_sum "Si O2"
_cell_formula_units_Z 24
_cell_length_a 15.285824
_cell_length_b 8.404088
_cell_length_c 23.180952
_cell_angle_alpha 90.000000
_cell_angle_beta 160.738983
_cell_angle_gamma 90.000000
_cell_volume 982.327705
_symmetry_space_group_name_H-M "C C"
_symmetry_group_IT_number 9
_symmetry_cell_setting 'monoclinic'
loop_
_space_group_symop_operation_xyz
x,y,z
x,-y,1/2+z
1/2+x,1/2+y,z
1/2+x,1/2-y,1/2+z
loop_
_atom_site_type_symbol
_atom_site_label
_atom_site_fract_x
_atom_site_fract_y
_atom_site_fract_z
Si Si1 0.331470 0.055352 0.527280
Si Si2 0.681288 0.669285 0.214141
Si Si3 0.023307 0.019113 0.227494
Si Si4 0.768899 0.303453 0.573024
Si Si5 0.117474 0.956618 0.076781
Si Si6 0.997332 0.261659 0.400258
O O1 0.573289 0.175957 0.680806
O O2 0.089161 0.121501 0.414222
O O3 0.251476 0.070910 0.411994
O O4 0.368844 0.882389 0.576111
O O5 0.641364 0.533689 0.237391
O O6 0.520006 0.599516 0.058734
O O7 0.978521 0.723117 0.383698
O O8 0.953345 0.842395 0.203216
O O9 0.756354 0.124191 0.067855
O O10 0.772471 0.438822 0.624725
O O11 0.290491 0.856787 0.231004
O O12 0.959516 0.829063 0.938364
#
# Coordination Sequence:
#
# PCOD9136543 Si02
#       6
#     4   4   4   4   4   4
#     4  10  23  44  71 102 140 190 239 298 364 430
#     4  11  24  45  70 107 143 191 242 304 363 441
#     4  11  22  42  68 104 141 185 241 299 363 432
#     4  11  24  45  73 101 148 192 241 303 365 433
#     4  11  22  45  69 104 142 195 239 296 371 426
#     4  10  21  41  73  98 142 189 238 296 360 430
#
# _framework density 24.431764000000001
#
# number of rings (size 3 to 8) (size 9 to 14) (size 15 to 20)
#    0.000    1.333    3.333    2.000    0.000    0.000 
#    9.000    0.000    0.000    0.000    0.000    0.000 
#    0.000    0.000    0.000    0.000    0.000    0.000 
#
# Total GULP energy -66925.331553 kJ/mol
# GULP energy per Si atom -5577.110963 kJ/mol
# Density = 2.437616 g / cm^3
# Si number density = 24.431764 Si / 1000 Ang^3
#
#
#
# Elastic Constant Matrix: (Units=GPa)
#
#
# Indices 1 2 3 4 5 6 
#
# 1 103.4590 26.7766 46.6648 -0.0032 -31.8627 -0.0028
# 2 26.7766 114.3265 38.8707 -0.0082 -1.5621 -0.0006
# 3 46.6648 38.8707 73.2774 -0.0185 -20.6374 -0.0040
# 4 -0.0032 -0.0082 -0.0185 33.4394 0.0034 -13.6761
# 5 -31.8627 -1.5621 -20.6374 0.0034 38.0059 -0.0006
# 6 -0.0028 -0.0006 -0.0040 -13.6761 -0.0006 44.3395
#
#
#
# Elastic Compliance Matrix: (Units=1/GPa)
#
#
# Indices 1 2 3 4 5 6 
#
# 1 0.016067 -0.001321 -0.006791 -0.000004 0.009728 -0.000001
# 2 -0.001321 0.011101 -0.006175 -0.000001 -0.004004 -0.000001
# 3 -0.006791 -0.006175 0.023106 0.000012 0.006599 0.000005
# 4 -0.000004 -0.000001 0.000012 0.034222 0.000000 0.010555
# 5 0.009728 -0.004004 0.006599 0.000000 0.037886 0.000002
# 6 -0.000001 -0.000001 0.000005 0.010555 0.000002 0.025809
#
#
# Mechanical properties :
#
#
# Convention : Reuss Voigt Hill
#
# Bulk Modulus (GPa) = 46.08578 57.29858 51.69218
# Shear Modulus (GPa) = 27.17424 35.07369 31.12396
#
# Velocity S-wave (km/s) = 3.33866 3.79301 3.57307
# Velocity P-wave (km/s) = 5.81087 6.53345 6.18273
#
# Compressibility (1/GPa) = 0.02169867
#
# Stress axis : x y z
#
# Youngs Moduli (GPa) = 62.24098 90.08102 43.27915
#
# Poissons Ratio (x) = 0.11900 0.29392
# Poissons Ratio (y) = 0.08223 0.26726
# Poissons Ratio (z) = 0.42269 0.55627
#
# Static dielectric constant tensor:
#      x y z
#    x 1.922030 0.000000 0.017300 
#    y 0.000000 1.987610 0.000000 
#    z 0.017300 0.000000 1.897620 
# 
# From -- ./inp_files/10404.got.cif
#   From: 2010.05.17/outbox.cif.g08.bks.cpg/sg9_6_cif.got.tgz:10404.got - 2010.06.03 20:04:27.
