data_PCOD9136264
_publ_section_title
;
Structure prediction by ZEFSAII (Michael W. Deem and Ramdas Pophale) SiO2 
 PCOD9136264
Probable space group: C C
;
_chemical_formula_sum "Si O2"
_cell_formula_units_Z 32
_cell_length_a 17.082164
_cell_length_b 8.373792
_cell_length_c 23.225207
_cell_angle_alpha 90.000000
_cell_angle_beta 158.206485
_cell_angle_gamma 90.000000
_cell_volume 1233.405891
_symmetry_space_group_name_H-M "C C"
_symmetry_group_IT_number 9
_symmetry_cell_setting 'monoclinic'
loop_
_space_group_symop_operation_xyz
x,y,z
x,-y,1/2+z
1/2+x,1/2+y,z
1/2+x,1/2-y,1/2+z
loop_
_atom_site_type_symbol
_atom_site_label
_atom_site_fract_x
_atom_site_fract_y
_atom_site_fract_z
Si Si1 0.568770 0.559039 0.669650
Si Si2 0.149915 0.600006 0.017676
Si Si3 0.476228 0.625337 0.789000
Si Si4 0.899137 0.276428 0.459361
Si Si5 0.090664 0.464861 0.863717
Si Si6 0.110100 0.248519 0.125491
Si Si7 0.318602 0.442294 0.353859
Si Si8 0.699224 0.555854 0.530497
O O1 0.708673 0.598631 0.820957
O O2 0.539809 0.720066 0.609982
O O3 0.335658 0.500266 0.525556
O O4 0.660888 0.417532 0.693123
O O5 0.371182 0.519480 0.183807
O O6 0.142876 0.763677 0.977023
O O7 0.047998 0.475748 0.903045
O O8 0.047255 0.655313 0.008330
O O9 0.552112 0.787676 0.812674
O O10 0.281983 0.690159 0.696608
O O11 0.674179 0.559497 0.959737
O O12 0.796676 0.104310 0.373563
O O13 0.922259 0.566135 0.714015
O O14 0.122596 0.386341 0.182000
O O15 0.896036 0.204102 0.946455
O O16 0.523275 0.483518 0.453865
#
# Coordination Sequence:
#
# PCOD9136264 Si02
#       8
#     4   4   4   4   4   4   4   4
#     4  11  27  44  65  98 141 180 220 285 348 411
#     4  11  25  43  73 101 129 180 234 285 341 408
#     4  11  23  39  74  99 130 177 232 288 334 410
#     4  10  25  44  67  96 134 177 229 278 339 414
#     4  12  25  44  66 100 140 178 227 283 351 412
#     4  10  21  40  62  99 123 169 221 273 327 396
#     4   9  20  37  65  94 122 164 222 277 324 384
#     4  10  22  41  66  97 135 169 227 285 338 405
#
# _framework density 25.944419
#
# number of rings (size 3 to 8) (size 9 to 14) (size 15 to 20)
#    0.000    1.500    1.250    2.250   15.750    0.000 
#    4.500    1.250    0.000    0.000    0.000    0.000 
#    0.000    0.000    0.000    0.000    0.000    0.000 
#
# Total GULP energy -89388.999264 kJ/mol
# GULP energy per Si atom -5586.812454 kJ/mol
# Density = 2.588537 g / cm^3
# Si number density = 25.944419 Si / 1000 Ang^3
#
#
#
# Elastic Constant Matrix: (Units=GPa)
#
#
# Indices 1 2 3 4 5 6 
#
# 1 70.5826 22.8635 14.5507 0.0013 4.4690 -0.0014
# 2 22.8635 75.1632 26.6513 0.0056 -4.8787 0.0004
# 3 14.5507 26.6513 77.9803 0.0100 -9.9939 -0.0035
# 4 0.0013 0.0056 0.0100 49.3394 0.0007 -16.3188
# 5 4.4690 -4.8787 -9.9939 0.0007 36.3785 0.0001
# 6 -0.0014 0.0004 -0.0035 -16.3188 0.0001 33.7181
#
#
#
# Elastic Compliance Matrix: (Units=1/GPa)
#
#
# Indices 1 2 3 4 5 6 
#
# 1 0.016199 -0.004456 -0.001898 0.000001 -0.003109 0.000001
# 2 -0.004456 0.016379 -0.004576 -0.000001 0.001487 -0.000002
# 3 -0.001898 -0.004576 0.015229 -0.000002 0.003803 0.000000
# 4 0.000001 -0.000001 -0.000002 0.024130 -0.000001 0.011679
# 5 -0.003109 0.001487 0.003803 -0.000001 0.029115 -0.000001
# 6 0.000001 -0.000002 0.000000 0.011679 -0.000001 0.035310
#
#
# Mechanical properties :
#
#
# Convention : Reuss Voigt Hill
#
# Bulk Modulus (GPa) = 38.53993 39.09523 38.81758
# Shear Modulus (GPa) = 29.96301 34.53124 32.24713
#
# Velocity S-wave (km/s) = 3.40206 3.65220 3.52935
# Velocity P-wave (km/s) = 5.50627 5.73466 5.62163
#
# Compressibility (1/GPa) = 0.02594711
#
# Stress axis : x y z
#
# Youngs Moduli (GPa) = 61.73032 61.05405 65.66334
#
# Poissons Ratio (x) = 0.27208 0.12464
# Poissons Ratio (y) = 0.27510 0.30046
# Poissons Ratio (z) = 0.11717 0.27937
#
# Static dielectric constant tensor:
#      x y z
#    x 2.213600 0.000000 0.066550 
#    y 0.000000 1.938240 0.000000 
#    z 0.066550 0.000000 2.017370 
# 
# From -- ./inp_files/36959.got.cif
#   From: 2010.05.17/outbox.cif.g08.bks.cpg/sg9_19_cif.got.tgz:36959.got - 2010.06.03 20:04:27.
