data_PCOD9136843
_publ_section_title
;
Structure prediction by ZEFSAII (Michael W. Deem and Ramdas Pophale) SiO2 
 PCOD9136843
Probable space group: C C
;
_chemical_formula_sum "Si O2"
_cell_formula_units_Z 28
_cell_length_a 11.962437
_cell_length_b 9.238316
_cell_length_c 10.624658
_cell_angle_alpha 90.000000
_cell_angle_beta 67.344416
_cell_angle_gamma 90.000000
_cell_volume 1083.558642
_symmetry_space_group_name_H-M "C C"
_symmetry_group_IT_number 9
_symmetry_cell_setting 'monoclinic'
loop_
_space_group_symop_operation_xyz
x,y,z
x,-y,1/2+z
1/2+x,1/2+y,z
1/2+x,1/2-y,1/2+z
loop_
_atom_site_type_symbol
_atom_site_label
_atom_site_fract_x
_atom_site_fract_y
_atom_site_fract_z
Si Si1 0.876990 0.917347 0.323940
Si Si2 0.652522 0.246697 0.790102
Si Si3 0.784837 0.243735 0.067413
Si Si4 0.757939 0.563143 0.035026
Si Si5 0.011615 0.512249 0.309600
Si Si6 0.038026 0.733172 0.103348
Si Si7 0.223353 0.311718 0.862751
O O1 0.769367 0.838462 0.292967
O O2 0.891680 0.833220 0.449171
O O3 0.993287 0.880764 0.190490
O O4 0.823236 0.075228 0.371880
O O5 0.704709 0.381324 0.690703
O O6 0.584055 0.129570 0.732675
O O7 0.560920 0.268841 0.947335
O O8 0.738974 0.393260 0.029715
O O9 0.664228 0.154146 0.088575
O O10 0.792332 0.252792 0.210985
O O11 0.702154 0.677140 0.962165
O O12 0.902489 0.552503 0.943093
O O13 0.960344 0.611173 0.216790
O O14 0.103268 0.603699 0.363368
#
# Coordination Sequence:
#
# PCOD9136843 Si02
#       7
#     4   4   4   4   4   4   4
#     4  10  21  45  70  95 142 193 242 306 374 443
#     4  10  24  38  69 104 137 185 253 298 367 457
#     4  10  24  44  67 105 142 185 250 311 362 462
#     4  12  25  45  73 106 147 195 252 306 389 450
#     4  10  23  46  71 101 147 196 240 310 384 447
#     4  10  21  44  69  96 142 193 234 309 377 433
#     4  10  26  44  73 107 145 189 255 306 371 456
#
# _framework density 25.840779999999999
#
# number of rings (size 3 to 8) (size 9 to 14) (size 15 to 20)
#    0.000    1.714    1.429    0.857   14.000    2.286 
#    5.143    0.000    0.000    0.000    0.000    0.000 
#    0.000    0.000    0.000    0.000    0.000    0.000 
#
# Total GULP energy -77975.822156 kJ/mol
# GULP energy per Si atom -5569.701583 kJ/mol
# Density = 2.578196 g / cm^3
# Si number density = 25.840780 Si / 1000 Ang^3
#
#
#
# Elastic Constant Matrix: (Units=GPa)
#
#
# Indices 1 2 3 4 5 6 
#
# 1 57.8970 21.4003 22.4721 0.0000 -14.1112 0.0000
# 2 21.4003 118.0337 44.1592 0.0000 8.6543 0.0000
# 3 22.4721 44.1592 151.5834 0.0000 2.9114 0.0000
# 4 0.0000 0.0000 0.0000 43.3776 0.0000 4.9149
# 5 -14.1112 8.6543 2.9114 0.0000 32.4737 0.0000
# 6 0.0000 0.0000 0.0000 4.9149 0.0000 35.3965
#
#
#
# Elastic Compliance Matrix: (Units=1/GPa)
#
#
# Indices 1 2 3 4 5 6 
#
# 1 0.022332 -0.003969 -0.002365 0.000000 0.010974 0.000000
# 2 -0.003969 0.010387 -0.002355 0.000000 -0.004281 0.000000
# 3 -0.002365 -0.002355 0.007655 0.000000 -0.001086 0.000000
# 4 0.000000 0.000000 0.000000 0.023422 0.000000 -0.003252
# 5 0.010974 -0.004281 -0.001086 0.000000 0.036801 0.000000
# 6 0.000000 0.000000 0.000000 -0.003252 0.000000 0.028703
#
#
# Mechanical properties :
#
#
# Convention : Reuss Voigt Hill
#
# Bulk Modulus (GPa) = 43.48811 55.95302 49.72057
# Shear Modulus (GPa) = 32.39553 38.21506 35.30530
#
# Velocity S-wave (km/s) = 3.54455 3.84978 3.70031
# Velocity P-wave (km/s) = 5.79806 6.43902 6.12693
#
# Compressibility (1/GPa) = 0.02299479
#
# Stress axis : x y z
#
# Youngs Moduli (GPa) = 44.77954 96.27617 130.63881
#
# Poissons Ratio (x) = 0.38208 0.30900
# Poissons Ratio (y) = 0.17771 0.30769
# Poissons Ratio (z) = 0.10592 0.22676
#
# Static dielectric constant tensor:
#      x y z
#    x 2.366490 0.000000 -0.130560 
#    y 0.000000 2.127650 0.000000 
#    z -0.130560 0.000000 2.197860 
# 
# From -- ./inp_files/17883.got.cif
#   From: 2010.05.17/outbox.cif.g08.bks.cpg/sg9_9_cif.got.tgz:17883.got - 2010.06.03 20:04:27.
