data_PCOD9136997
_publ_section_title
;
Structure prediction by ZEFSAII (Michael W. Deem and Ramdas Pophale) SiO2 
 PCOD9136997
Probable space group: C C
;
_chemical_formula_sum "Si O2"
_cell_formula_units_Z 24
_cell_length_a 18.719865
_cell_length_b 11.216632
_cell_length_c 8.641801
_cell_angle_alpha 90.000000
_cell_angle_beta 31.866753
_cell_angle_gamma 90.000000
_cell_volume 957.984828
_symmetry_space_group_name_H-M "C C"
_symmetry_group_IT_number 9
_symmetry_cell_setting 'monoclinic'
loop_
_space_group_symop_operation_xyz
x,y,z
x,-y,1/2+z
1/2+x,1/2+y,z
1/2+x,1/2-y,1/2+z
loop_
_atom_site_type_symbol
_atom_site_label
_atom_site_fract_x
_atom_site_fract_y
_atom_site_fract_z
Si Si1 0.721920 0.411119 0.091160
Si Si2 0.273542 0.367423 0.191087
Si Si3 0.169781 0.350672 0.707814
Si Si4 0.656542 0.858687 0.075669
Si Si5 0.578185 0.410918 0.653055
Si Si6 0.902154 0.618019 0.879775
O O1 0.752792 0.272748 0.030682
O O2 0.593019 0.412003 0.442568
O O3 0.664700 0.477447 0.048630
O O4 0.835071 0.495681 0.953971
O O5 0.177613 0.392970 0.514554
O O6 0.219274 0.405272 0.120164
O O7 0.420386 0.412971 0.975753
O O8 0.302130 0.226303 0.102324
O O9 0.010395 0.342280 0.047743
O O10 0.221889 0.389384 0.786253
O O11 0.644261 0.712584 0.093818
O O12 0.499630 0.896608 0.348710
#
# Coordination Sequence:
#
# PCOD9136997 Si02
#       6
#     4   4   4   4   4   4
#     4  11  19  41  65  98 133 164 234 280 325 417
#     4  11  18  43  64  94 141 172 224 277 341 408
#     4   9  22  39  68 103 123 184 217 281 350 376
#     4   8  19  39  59 100 129 175 226 267 340 405
#     4  10  22  35  65 100 123 179 221 274 340 398
#     4   9  20  39  63 103 133 172 232 273 336 414
#
# _framework density 25.052588
#
# number of rings (size 3 to 8) (size 9 to 14) (size 15 to 20)
#    1.000    1.333    3.333    1.000    0.000    0.000 
#    9.000    1.667    0.000   18.000    0.000    0.000 
#    0.000    0.000    0.000    0.000    0.000    0.000 
#
# Total GULP energy -66874.010252 kJ/mol
# GULP energy per Si atom -5572.834188 kJ/mol
# Density = 2.499557 g / cm^3
# Si number density = 25.052588 Si / 1000 Ang^3
#
#
#
# Elastic Constant Matrix: (Units=GPa)
#
#
# Indices 1 2 3 4 5 6 
#
# 1 159.1468 53.1370 43.3568 0.0000 37.7210 0.0000
# 2 53.1370 73.6301 15.9943 0.0000 8.6099 0.0000
# 3 43.3568 15.9943 111.0017 0.0000 44.6755 0.0000
# 4 0.0000 0.0000 0.0000 33.3797 0.0000 10.8454
# 5 37.7210 8.6099 44.6755 0.0000 45.5963 0.0000
# 6 0.0000 0.0000 0.0000 10.8454 0.0000 30.8399
#
#
#
# Elastic Compliance Matrix: (Units=1/GPa)
#
#
# Indices 1 2 3 4 5 6 
#
# 1 0.010152 -0.006463 -0.000240 0.000000 -0.006944 0.000000
# 2 -0.006463 0.018168 -0.001428 0.000000 0.003315 0.000000
# 3 -0.000240 -0.001428 0.015058 0.000000 -0.014286 0.000000
# 4 0.000000 0.000000 0.000000 0.033823 0.000000 -0.011894
# 5 -0.006944 0.003315 -0.014286 0.000000 0.041048 0.000000
# 6 0.000000 0.000000 0.000000 -0.011894 0.000000 0.036608
#
#
# Mechanical properties :
#
#
# Convention : Reuss Voigt Hill
#
# Bulk Modulus (GPa) = 36.87503 63.19499 50.03501
# Shear Modulus (GPa) = 27.75363 37.38257 32.56810
#
# Velocity S-wave (km/s) = 3.33200 3.86704 3.60945
# Velocity P-wave (km/s) = 5.43635 6.72446 6.11442
#
# Compressibility (1/GPa) = 0.02711862
#
# Stress axis : x y z
#
# Youngs Moduli (GPa) = 98.49866 55.04212 66.41006
#
# Poissons Ratio (x) = 0.35572 0.01591
# Poissons Ratio (y) = 0.63657 0.09480
# Poissons Ratio (z) = 0.02359 0.07858
#
# Static dielectric constant tensor:
#      x y z
#    x 1.964050 0.000000 0.056240 
#    y 0.000000 2.148630 0.000000 
#    z 0.056240 0.000000 1.951590 
# 
# From -- ./inp_files/10598.got.cif
#   From: 2010.05.17/outbox.cif.g08.bks.cpg/sg9_6_cif.got.tgz:10598.got - 2010.06.03 20:04:27.
