data_PCOD9136022
_publ_section_title
;
Structure prediction by ZEFSAII (Michael W. Deem and Ramdas Pophale) SiO2 
 PCOD9136022
Probable space group: C C
;
_chemical_formula_sum "Si O2"
_cell_formula_units_Z 32
_cell_length_a 20.036226
_cell_length_b 9.344739
_cell_length_c 18.416680
_cell_angle_alpha 90.000000
_cell_angle_beta 27.250701
_cell_angle_gamma 90.000000
_cell_volume 1578.885582
_symmetry_space_group_name_H-M "C C"
_symmetry_group_IT_number 9
_symmetry_cell_setting 'monoclinic'
loop_
_space_group_symop_operation_xyz
x,y,z
x,-y,1/2+z
1/2+x,1/2+y,z
1/2+x,1/2-y,1/2+z
loop_
_atom_site_type_symbol
_atom_site_label
_atom_site_fract_x
_atom_site_fract_y
_atom_site_fract_z
Si Si1 0.099070 0.800033 0.640180
Si Si2 0.470427 0.495193 0.150478
Si Si3 0.671901 0.995193 0.847510
Si Si4 0.043258 0.300034 0.357808
Si Si5 0.203577 0.829367 0.330222
Si Si6 0.885590 0.603884 0.788907
Si Si7 0.256738 0.896116 0.709080
Si Si8 0.938751 0.670633 0.167766
O O1 0.071165 0.750000 0.748994
O O2 0.264709 0.844127 0.463445
O O3 0.047133 0.660069 0.646581
O O4 0.994974 0.922818 0.704092
O O5 0.321164 0.500000 0.248994
O O6 0.494393 0.325229 0.136482
O O7 0.585629 0.576113 0.987761
O O8 0.647935 0.825229 0.861507
O O9 0.647354 0.077182 0.793896
O O10 0.556700 0.076113 0.010227
O O11 0.095195 0.160069 0.351407
O O12 0.877619 0.344128 0.534542
O O13 0.332863 0.825426 0.264429
O O14 0.257581 0.933256 0.214332
O O15 0.884746 0.433255 0.783657
O O16 0.309465 0.825426 0.733558
#
# Coordination Sequence:
#
# PCOD9136022 Si02
#       8
#     4   4   4   4   4   4   4   4
#     4  11  23  40  62  92 126 176 212 259 327 397
#     4  11  22  37  66  97 131 161 219 274 323 391
#     4  11  22  37  66  97 131 161 219 274 323 391
#     4  11  23  40  62  92 126 176 212 259 327 397
#     4  10  21  38  62  99 123 165 215 278 329 364
#     4  10  21  38  63  89 132 163 216 267 319 391
#     4  10  21  38  63  89 132 163 216 267 319 391
#     4  10  21  38  62  99 123 165 215 278 329 364
#
# _framework density 20.267458000000001
#
# number of rings (size 3 to 8) (size 9 to 14) (size 15 to 20)
#    0.000    1.500    2.500    3.750    7.000    0.000 
#    0.000    1.250    0.000    3.000    0.000    0.000 
#    0.000    0.000    0.000    0.000    0.000    0.000 
#
# Total GULP energy -89189.625938 kJ/mol
# GULP energy per Si atom -5574.351621 kJ/mol
# Density = 2.022133 g / cm^3
# Si number density = 20.267458 Si / 1000 Ang^3
#
#
#
# Elastic Constant Matrix: (Units=GPa)
#
#
# Indices 1 2 3 4 5 6 
#
# 1 77.9488 46.4199 30.0711 0.0000 5.7456 0.0000
# 2 46.4199 164.4676 39.5732 0.0000 23.5030 0.0000
# 3 30.0711 39.5732 93.1996 0.0000 7.5032 0.0000
# 4 0.0000 0.0000 0.0000 34.0956 0.0000 -1.9571
# 5 5.7456 23.5030 7.5032 0.0000 28.7228 0.0000
# 6 0.0000 0.0000 0.0000 -1.9571 0.0000 25.6543
#
#
#
# Elastic Compliance Matrix: (Units=1/GPa)
#
#
# Indices 1 2 3 4 5 6 
#
# 1 0.016526 -0.003883 -0.003752 0.000000 0.000852 0.000000
# 2 -0.003883 0.008432 -0.001874 0.000000 -0.005634 0.000000
# 3 -0.003752 -0.001874 0.012822 0.000000 -0.001066 0.000000
# 4 0.000000 0.000000 0.000000 0.029458 0.000000 0.002247
# 5 0.000852 -0.005634 -0.001066 0.000000 0.039533 0.000000
# 6 0.000000 0.000000 0.000000 0.002247 0.000000 0.039151
#
#
# Mechanical properties :
#
#
# Convention : Reuss Voigt Hill
#
# Bulk Modulus (GPa) = 53.29989 63.08272 58.19131
# Shear Modulus (GPa) = 29.20646 32.33132 30.76889
#
# Velocity S-wave (km/s) = 3.80024 3.99837 3.90056
# Velocity P-wave (km/s) = 6.75360 7.24629 7.00428
#
# Compressibility (1/GPa) = 0.01876176
#
# Stress axis : x y z
#
# Youngs Moduli (GPa) = 60.51004 118.59287 77.99309
#
# Poissons Ratio (x) = 0.46054 0.29262
# Poissons Ratio (y) = 0.23498 0.14615
# Poissons Ratio (z) = 0.22703 0.22223
#
# Static dielectric constant tensor:
#      x y z
#    x 1.817870 0.000000 -0.004920 
#    y 0.000000 1.785570 0.000000 
#    z -0.004920 0.000000 1.796950 
# 
# From -- ./inp_files/31226.got.cif
#   From: 2010.05.17/outbox.cif.g08.bks.cpg/sg9_16_cif.got.tgz:31226.got - 2010.06.03 20:04:27.
