data_PCOD9136959
_publ_section_title
;
Structure prediction by ZEFSAII (Michael W. Deem and Ramdas Pophale) SiO2 
 PCOD9136959
Probable space group: C C
;
_chemical_formula_sum "Si O2"
_cell_formula_units_Z 28
_cell_length_a 11.981504
_cell_length_b 8.042347
_cell_length_c 21.112127
_cell_angle_alpha 90.000000
_cell_angle_beta 148.413001
_cell_angle_gamma 90.000000
_cell_volume 1065.578662
_symmetry_space_group_name_H-M "C C"
_symmetry_group_IT_number 9
_symmetry_cell_setting 'monoclinic'
loop_
_space_group_symop_operation_xyz
x,y,z
x,-y,1/2+z
1/2+x,1/2+y,z
1/2+x,1/2-y,1/2+z
loop_
_atom_site_type_symbol
_atom_site_label
_atom_site_fract_x
_atom_site_fract_y
_atom_site_fract_z
Si Si1 0.911380 0.965522 0.464420
Si Si2 0.190693 0.056374 0.487786
Si Si3 0.652527 0.145623 0.134597
Si Si4 0.347793 0.675491 0.557987
Si Si5 0.700214 0.444426 0.359655
Si Si6 0.026625 0.750296 0.726019
Si Si7 0.767890 0.811399 0.153719
O O1 0.714782 0.868254 0.339468
O O2 0.009927 0.072578 0.453656
O O3 0.108952 0.842120 0.579837
O O4 0.832928 0.057313 0.490200
O O5 0.235833 0.857134 0.508151
O O6 0.157043 0.075250 0.396901
O O7 0.391027 0.168818 0.603852
O O8 0.835616 0.234645 0.184573
O O9 0.719777 0.956330 0.180011
O O10 0.588728 0.254085 0.164476
O O11 0.436403 0.118855 0.987835
O O12 0.252035 0.602172 0.576106
O O13 0.640732 0.568076 0.272898
O O14 0.525079 0.296331 0.279366
#
# Coordination Sequence:
#
# PCOD9136959 Si02
#       7
#     4   4   4   4   4   4   4
#     4  11  23  48  71 111 150 196 255 310 380 461
#     4  10  24  45  71 106 152 196 255 312 381 444
#     4  10  21  47  65 107 147 190 249 300 379 442
#     4  10  23  45  71 106 148 192 248 310 369 448
#     4  10  23  46  74 106 150 198 252 318 378 455
#     4  11  23  43  75 106 151 202 243 316 383 452
#     4  10  23  46  71 108 148 190 256 308 374 448
#
# _framework density 26.276800000000001
#
# number of rings (size 3 to 8) (size 9 to 14) (size 15 to 20)
#    0.000    1.714    2.857    0.000    0.000   11.429 
#   12.857    0.000    0.000    0.000    0.000    0.000 
#    0.000    0.000    0.000    0.000    0.000    0.000 
#
# Total GULP energy -78014.087445 kJ/mol
# GULP energy per Si atom -5572.434818 kJ/mol
# Density = 2.621699 g / cm^3
# Si number density = 26.276800 Si / 1000 Ang^3
#
#
#
# Elastic Constant Matrix: (Units=GPa)
#
#
# Indices 1 2 3 4 5 6 
#
# 1 139.1404 33.2643 17.0521 0.0001 8.1596 0.0001
# 2 33.2643 82.1461 39.6097 0.0002 -3.0265 0.0000
# 3 17.0521 39.6097 150.7292 0.0009 29.5763 0.0002
# 4 0.0001 0.0002 0.0009 35.5566 0.0001 4.6582
# 5 8.1596 -3.0265 29.5763 0.0001 35.5951 0.0001
# 6 0.0001 0.0000 0.0002 4.6582 0.0001 40.8852
#
#
#
# Elastic Compliance Matrix: (Units=1/GPa)
#
#
# Indices 1 2 3 4 5 6 
#
# 1 0.008150 -0.003669 0.000561 0.000000 -0.002647 0.000000
# 2 -0.003669 0.016396 -0.005176 0.000000 0.006536 0.000000
# 3 0.000561 -0.005176 0.009609 0.000000 -0.008553 0.000000
# 4 0.000000 0.000000 0.000000 0.028550 0.000000 -0.003253
# 5 -0.002647 0.006536 -0.008553 0.000000 0.036363 0.000000
# 6 0.000000 0.000000 0.000000 -0.003253 0.000000 0.024829
#
#
# Mechanical properties :
#
#
# Convention : Reuss Voigt Hill
#
# Bulk Modulus (GPa) = 56.85384 61.31864 59.08624
# Shear Modulus (GPa) = 34.16983 41.21334 37.69159
#
# Velocity S-wave (km/s) = 3.60999 3.96464 3.79146
# Velocity P-wave (km/s) = 6.24976 6.65914 6.45770
#
# Compressibility (1/GPa) = 0.01758896
#
# Stress axis : x y z
#
# Youngs Moduli (GPa) = 122.69247 60.99201 104.06442
#
# Poissons Ratio (x) = 0.22376 -0.05842
# Poissons Ratio (y) = 0.45011 0.53863
# Poissons Ratio (z) = -0.06887 0.31569
#
# Static dielectric constant tensor:
#      x y z
#    x 2.168210 0.000000 -0.078110 
#    y 0.000000 2.157410 0.000000 
#    z -0.078110 0.000000 2.147880 
# 
# From -- ./inp_files/36676.got.cif
#   From: 2010.05.17/outbox.cif.g08.bks.cpg/sg9_19_cif.got.tgz:36676.got - 2010.06.03 20:04:27.
