data_PCOD9136836
_publ_section_title
;
Structure prediction by ZEFSAII (Michael W. Deem and Ramdas Pophale) SiO2 
 PCOD9136836
Probable space group: C C
;
_chemical_formula_sum "Si O2"
_cell_formula_units_Z 28
_cell_length_a 12.129673
_cell_length_b 9.237499
_cell_length_c 13.143951
_cell_angle_alpha 90.000000
_cell_angle_beta 115.764815
_cell_angle_gamma 90.000000
_cell_volume 1326.339060
_symmetry_space_group_name_H-M "C C"
_symmetry_group_IT_number 9
_symmetry_cell_setting 'monoclinic'
loop_
_space_group_symop_operation_xyz
x,y,z
x,-y,1/2+z
1/2+x,1/2+y,z
1/2+x,1/2-y,1/2+z
loop_
_atom_site_type_symbol
_atom_site_label
_atom_site_fract_x
_atom_site_fract_y
_atom_site_fract_z
Si Si1 0.079300 0.552198 0.282440
Si Si2 0.113392 0.088419 0.117451
Si Si3 0.855641 0.242021 0.712461
Si Si4 0.490844 0.494349 0.886646
Si Si5 0.720604 0.286669 0.231000
Si Si6 0.308620 0.331411 0.961480
Si Si7 0.972980 0.762986 0.719054
O O1 0.135498 0.644130 0.209833
O O2 0.187193 0.568518 0.408496
O O3 0.039762 0.390579 0.243819
O O4 0.959745 0.637931 0.270225
O O5 0.225625 0.192649 0.191183
O O6 0.993305 0.155686 0.121159
O O7 0.147086 0.928782 0.171100
O O8 0.095592 0.079447 0.988866
O O9 0.846315 0.209641 0.588730
O O10 0.900727 0.101118 0.790320
O O11 0.533160 0.371384 0.825867
O O12 0.415035 0.415178 0.944746
O O13 0.774368 0.297590 0.368012
O O14 0.833429 0.259474 0.200151
#
# Coordination Sequence:
#
# PCOD9136836 Si02
#       7
#     4   4   4   4   4   4   4
#     4  10  21  44  69 104 136 181 238 286 353 417
#     4  12  25  44  71 104 142 192 233 296 359 422
#     4  12  23  44  73 101 145 186 242 294 355 431
#     4  11  24  45  68 102 143 190 234 298 358 421
#     4   9  22  46  69 101 138 180 236 285 352 420
#     4   9  22  43  70  97 142 183 233 294 352 410
#     4  11  23  46  70 101 140 178 242 285 355 429
#
# _framework density 21.110741999999998
#
# number of rings (size 3 to 8) (size 9 to 14) (size 15 to 20)
#    0.857    0.571    1.429    4.286    2.000    0.000 
#   12.857    2.857    0.000    0.000    0.000    0.000 
#    0.000    0.000    0.000    0.000    0.000    0.000 
#
# Total GULP energy -78158.563771 kJ/mol
# GULP energy per Si atom -5582.754555 kJ/mol
# Density = 2.106269 g / cm^3
# Si number density = 21.110742 Si / 1000 Ang^3
#
#
#
# Elastic Constant Matrix: (Units=GPa)
#
#
# Indices 1 2 3 4 5 6 
#
# 1 77.7550 29.9380 1.0065 0.0000 -2.2760 0.0000
# 2 29.9380 121.4625 30.7084 0.0000 -8.1802 0.0000
# 3 1.0065 30.7084 60.6668 0.0000 -5.1532 0.0000
# 4 0.0000 0.0000 0.0000 22.5764 0.0000 4.7367
# 5 -2.2760 -8.1802 -5.1532 0.0000 24.9292 0.0000
# 6 0.0000 0.0000 0.0000 4.7367 0.0000 27.9687
#
#
#
# Elastic Compliance Matrix: (Units=1/GPa)
#
#
# Indices 1 2 3 4 5 6 
#
# 1 0.014379 -0.003975 0.001806 0.000000 0.000382 0.000000
# 2 -0.003975 0.010654 -0.005151 0.000000 0.002068 0.000000
# 3 0.001806 -0.005151 0.019270 0.000000 0.002458 0.000000
# 4 0.000000 0.000000 0.000000 0.045926 0.000000 -0.007778
# 5 0.000382 0.002068 0.002458 0.000000 0.041335 0.000000
# 6 0.000000 0.000000 0.000000 -0.007778 0.000000 0.037071
#
#
# Mechanical properties :
#
#
# Convention : Reuss Voigt Hill
#
# Bulk Modulus (GPa) = 33.71267 42.57670 38.14468
# Shear Modulus (GPa) = 25.88463 28.31029 27.09746
#
# Velocity S-wave (km/s) = 3.50542 3.66599 3.58660
# Velocity P-wave (km/s) = 5.69105 6.17506 5.93799
#
# Compressibility (1/GPa) = 0.02966244
#
# Stress axis : x y z
#
# Youngs Moduli (GPa) = 69.54481 93.85743 51.89457
#
# Poissons Ratio (x) = 0.37309 -0.09372
# Poissons Ratio (y) = 0.27644 0.26733
# Poissons Ratio (z) = -0.12559 0.48350
#
# Static dielectric constant tensor:
#      x y z
#    x 1.789130 0.000000 0.015950 
#    y 0.000000 1.757700 0.000000 
#    z 0.015950 0.000000 1.777610 
# 
# From -- ./inp_files/24305.got.cif
#   From: 2010.05.17/outbox.cif.g08.bks.cpg/sg9_13_cif.got.tgz:24305.got - 2010.06.03 20:04:27.
