data_PCOD9136766
_publ_section_title
;
Structure prediction by ZEFSAII (Michael W. Deem and Ramdas Pophale) SiO2 
 PCOD9136766
Probable space group: C C
;
_chemical_formula_sum "Si O2"
_cell_formula_units_Z 32
_cell_length_a 19.271880
_cell_length_b 13.664533
_cell_length_c 7.981519
_cell_angle_alpha 90.000000
_cell_angle_beta 139.149716
_cell_angle_gamma 90.000000
_cell_volume 1374.796519
_symmetry_space_group_name_H-M "C C"
_symmetry_group_IT_number 9
_symmetry_cell_setting 'monoclinic'
loop_
_space_group_symop_operation_xyz
x,y,z
x,-y,1/2+z
1/2+x,1/2+y,z
1/2+x,1/2-y,1/2+z
loop_
_atom_site_type_symbol
_atom_site_label
_atom_site_fract_x
_atom_site_fract_y
_atom_site_fract_z
Si Si1 0.279810 0.534187 0.810270
Si Si2 0.567537 0.662975 0.854462
Si Si3 0.358437 0.367995 0.792714
Si Si4 0.351535 0.999240 0.940488
Si Si5 0.783389 0.635938 0.046139
Si Si6 0.434068 0.684883 0.919820
Si Si7 0.562725 0.113215 0.269729
Si Si8 0.935038 0.311778 0.248123
O O1 0.296458 0.417377 0.833324
O O2 0.367397 0.592545 0.861930
O O3 0.169106 0.562080 0.523639
O O4 0.302881 0.577618 0.035448
O O5 0.480835 0.615776 0.570729
O O6 0.526285 0.643323 0.967415
O O7 0.561160 0.780288 0.847237
O O8 0.680101 0.644617 0.973511
O O9 0.368349 0.255736 0.755137
O O10 0.356551 0.894984 0.041914
O O11 0.268183 0.084777 0.837074
O O12 0.464981 0.050792 0.156258
O O13 0.343262 0.956653 0.737865
O O14 0.854258 0.734687 0.184505
O O15 0.468755 0.744563 0.151391
O O16 0.534614 0.139075 0.024901
#
# Coordination Sequence:
#
# PCOD9136766 Si02
#       8
#     4   4   4   4   4   4   4   4
#     4  11  23  42  69 101 138 189 237 297 363 428
#     4  11  23  45  70  98 139 187 232 294 365 424
#     4  10  24  43  66  97 147 181 240 296 356 431
#     4  11  22  41  66 101 145 181 238 297 348 426
#     4  11  23  41  68 103 137 186 234 290 358 425
#     4  10  21  43  71  97 143 178 231 304 351 423
#     4  11  22  40  71 100 137 183 244 289 359 425
#     4   9  22  43  65 103 142 185 234 299 356 424
#
# _framework density 23.27617
#
# number of rings (size 3 to 8) (size 9 to 14) (size 15 to 20)
#    0.000    1.500    3.750    0.750    1.750    2.000 
#    0.000    2.500    0.000    0.000    0.000    0.000 
#    0.000    0.000    0.000    0.000    0.000    0.000 
#
# Total GULP energy -89113.107795 kJ/mol
# GULP energy per Si atom -5569.569237 kJ/mol
# Density = 2.322319 g / cm^3
# Si number density = 23.276170 Si / 1000 Ang^3
#
#
#
# Elastic Constant Matrix: (Units=GPa)
#
#
# Indices 1 2 3 4 5 6 
#
# 1 96.4424 36.7760 31.3363 0.0000 11.4024 0.0000
# 2 36.7760 74.9272 26.7203 0.0000 2.3527 0.0000
# 3 31.3363 26.7203 91.1347 0.0000 9.7688 0.0000
# 4 0.0000 0.0000 0.0000 24.9281 0.0000 -10.5251
# 5 11.4024 2.3527 9.7688 0.0000 32.4115 0.0000
# 6 0.0000 0.0000 0.0000 -10.5251 0.0000 55.3076
#
#
#
# Elastic Compliance Matrix: (Units=1/GPa)
#
#
# Indices 1 2 3 4 5 6 
#
# 1 0.013860 -0.005727 -0.002696 0.000000 -0.003648 0.000000
# 2 -0.005727 0.017273 -0.003283 0.000000 0.001750 0.000000
# 3 -0.002696 -0.003283 0.013160 0.000000 -0.002780 0.000000
# 4 0.000000 0.000000 0.000000 0.043620 0.000000 0.008301
# 5 -0.003648 0.001750 -0.002780 0.000000 0.032847 0.000000
# 6 0.000000 0.000000 0.000000 0.008301 0.000000 0.019660
#
#
# Mechanical properties :
#
#
# Convention : Reuss Voigt Hill
#
# Bulk Modulus (GPa) = 47.88728 50.24105 49.06417
# Shear Modulus (GPa) = 29.27538 33.70757 31.49147
#
# Velocity S-wave (km/s) = 3.55031 3.80960 3.68224
# Velocity P-wave (km/s) = 6.11755 6.40174 6.26126
#
# Compressibility (1/GPa) = 0.02088237
#
# Stress axis : x y z
#
# Youngs Moduli (GPa) = 72.15105 57.89410 75.98738
#
# Poissons Ratio (x) = 0.33155 0.20483
# Poissons Ratio (y) = 0.41320 0.24945
# Poissons Ratio (z) = 0.19448 0.19005
#
# Static dielectric constant tensor:
#      x y z
#    x 2.118300 0.000000 -0.142760 
#    y 0.000000 1.868060 0.000000 
#    z -0.142760 0.000000 1.959140 
# 
# From -- ./inp_files/10917.got.cif
#   From: 2010.05.17/outbox.cif.g08.bks.cpg/sg9_6_cif.got.tgz:10917.got - 2010.06.03 20:04:27.
