data_PCOD9136567
_publ_section_title
;
Structure prediction by ZEFSAII (Michael W. Deem and Ramdas Pophale) SiO2 
 PCOD9136567
Probable space group: C C
;
_chemical_formula_sum "Si O2"
_cell_formula_units_Z 28
_cell_length_a 6.930086
_cell_length_b 15.074983
_cell_length_c 13.863756
_cell_angle_alpha 90.000000
_cell_angle_beta 124.305987
_cell_angle_gamma 90.000000
_cell_volume 1196.401990
_symmetry_space_group_name_H-M "C C"
_symmetry_group_IT_number 9
_symmetry_cell_setting 'monoclinic'
loop_
_space_group_symop_operation_xyz
x,y,z
x,-y,1/2+z
1/2+x,1/2+y,z
1/2+x,1/2-y,1/2+z
loop_
_atom_site_type_symbol
_atom_site_label
_atom_site_fract_x
_atom_site_fract_y
_atom_site_fract_z
Si Si1 0.161860 0.157917 0.656170
Si Si2 0.963307 0.397075 0.940735
Si Si3 0.442502 0.622110 0.069967
Si Si4 0.534132 0.501372 0.271550
Si Si5 0.776975 0.790601 0.164705
Si Si6 0.901574 0.048573 0.437512
Si Si7 0.686167 0.784910 0.340914
O O1 0.421481 0.195036 0.735339
O O2 0.982693 0.229667 0.647879
O O3 0.081791 0.123907 0.528114
O O4 0.098299 0.080322 0.717295
O O5 0.787091 0.478043 0.890927
O O6 0.789274 0.313673 0.878897
O O7 0.153770 0.417969 0.911264
O O8 0.120186 0.369626 0.075785
O O9 0.432603 0.575742 0.169938
O O10 0.628018 0.700918 0.127128
O O11 0.497109 0.539551 0.016440
O O12 0.225396 0.666521 0.953486
O O13 0.374329 0.518321 0.320239
O O14 0.838889 0.817635 0.291413
#
# Coordination Sequence:
#
# PCOD9136567 Si02
#       7
#     4   4   4   4   4   4   4
#     4  10  23  39  68  97 133 176 232 270 350 402
#     4  10  22  39  66  94 133 173 225 274 340 398
#     4  10  22  41  66  98 133 172 229 268 345 402
#     4  11  21  42  65  98 134 176 224 281 335 401
#     4  10  21  42  64  95 133 175 220 287 332 406
#     4  10  22  42  66  96 131 176 226 286 332 405
#     4  11  21  41  65  94 137 174 218 284 328 408
#
# _framework density 23.403504999999999
#
# number of rings (size 3 to 8) (size 9 to 14) (size 15 to 20)
#    0.000    1.714    1.429    2.571    0.000    1.143 
#    0.000   20.000    0.000    0.000    0.000    0.000 
#    0.000    0.000    0.000    0.000    0.000    0.000 
#
# Total GULP energy -77984.073343 kJ/mol
# GULP energy per Si atom -5570.290953 kJ/mol
# Density = 2.335024 g / cm^3
# Si number density = 23.403505 Si / 1000 Ang^3
#
#
#
# Elastic Constant Matrix: (Units=GPa)
#
#
# Indices 1 2 3 4 5 6 
#
# 1 67.3636 32.8596 10.7372 0.0000 -15.9027 0.0000
# 2 32.8596 72.3219 24.9466 0.0000 -12.5870 0.0000
# 3 10.7372 24.9466 62.1308 0.0000 -26.2306 0.0000
# 4 0.0000 0.0000 0.0000 39.4577 0.0000 -4.8990
# 5 -15.9027 -12.5870 -26.2306 0.0000 53.2152 0.0000
# 6 0.0000 0.0000 0.0000 -4.8990 0.0000 6.2736
#
#
#
# Elastic Compliance Matrix: (Units=1/GPa)
#
#
# Indices 1 2 3 4 5 6 
#
# 1 0.020063 -0.009029 0.002257 0.000000 0.004973 0.000000
# 2 -0.009029 0.020139 -0.007140 0.000000 -0.001454 0.000000
# 3 0.002257 -0.007140 0.022911 0.000000 0.010279 0.000000
# 4 0.000000 0.000000 0.000000 0.028065 0.000000 0.021916
# 5 0.004973 -0.001454 0.010279 0.000000 0.025001 0.000000
# 6 0.000000 0.000000 0.000000 0.021916 0.000000 0.176511
#
#
# Mechanical properties :
#
#
# Convention : Reuss Voigt Hill
#
# Bulk Modulus (GPa) = 28.33553 37.65587 32.99570
# Shear Modulus (GPa) = 15.04773 28.67416 21.86094
#
# Velocity S-wave (km/s) = 2.53843 3.50409 3.05960
# Velocity P-wave (km/s) = 4.55249 5.70056 5.15856
#
# Compressibility (1/GPa) = 0.03529138
#
# Stress axis : x y z
#
# Youngs Moduli (GPa) = 49.84243 49.65463 43.64635
#
# Poissons Ratio (x) = 0.44833 -0.09853
# Poissons Ratio (y) = 0.45003 0.31162
# Poissons Ratio (z) = -0.11252 0.35452
#
# Static dielectric constant tensor:
#      x y z
#    x 1.939620 0.000000 -0.008380 
#    y 0.000000 2.081870 0.000000 
#    z -0.008380 0.000000 1.911650 
# 
# From -- ./inp_files/22026.got.cif
#   From: 2010.05.17/outbox.cif.g08.bks.cpg/sg9_12_cif.got.tgz:22026.got - 2010.06.03 20:04:27.
