data_PCOD9136541
_publ_section_title
;
Structure prediction by ZEFSAII (Michael W. Deem and Ramdas Pophale) SiO2 
 PCOD9136541
Probable space group: C C
;
_chemical_formula_sum "Si O2"
_cell_formula_units_Z 28
_cell_length_a 15.943475
_cell_length_b 19.690036
_cell_length_c 10.275420
_cell_angle_alpha 90.000000
_cell_angle_beta 155.671205
_cell_angle_gamma 90.000000
_cell_volume 1328.914820
_symmetry_space_group_name_H-M "C C"
_symmetry_group_IT_number 9
_symmetry_cell_setting 'monoclinic'
loop_
_space_group_symop_operation_xyz
x,y,z
x,-y,1/2+z
1/2+x,1/2+y,z
1/2+x,1/2-y,1/2+z
loop_
_atom_site_type_symbol
_atom_site_label
_atom_site_fract_x
_atom_site_fract_y
_atom_site_fract_z
Si Si1 0.030680 0.403164 0.101240
Si Si2 0.682760 0.178773 0.049725
Si Si3 0.638114 0.719673 0.675445
Si Si4 0.447159 0.892850 0.691099
Si Si5 0.177015 0.983002 0.739311
Si Si6 0.926079 0.006363 0.133974
Si Si7 0.736215 0.129807 0.375241
O O1 0.128864 0.347634 0.334418
O O2 0.198791 0.463148 0.324728
O O3 0.989460 0.375640 0.899446
O O4 0.822471 0.428335 0.874881
O O5 0.596248 0.251267 0.971506
O O6 0.612037 0.125612 0.062285
O O7 0.923778 0.189305 0.416356
O O8 0.724671 0.787473 0.871037
O O9 0.806072 0.663068 0.923689
O O10 0.642718 0.896794 0.876418
O O11 0.330665 0.963548 0.520599
O O12 0.031086 0.962833 0.653172
O O13 0.047980 0.018236 0.440461
O O14 0.917170 0.923892 0.107431
#
# Coordination Sequence:
#
# PCOD9136541 Si02
#       7
#     4   4   4   4   4   4   4
#     4  12  27  44  68 106 138 173 232 289 332 415
#     4  10  23  44  69  96 132 178 229 280 342 405
#     4  10  21  44  70  95 126 188 224 274 344 406
#     4  12  23  44  69  96 137 179 225 282 341 398
#     4  12  27  42  69 101 139 183 223 280 349 406
#     4  12  24  43  68 102 140 179 224 278 347 407
#     4  10  21  41  73  94 132 178 229 273 333 409
#
# _framework density 21.069823
#
# number of rings (size 3 to 8) (size 9 to 14) (size 15 to 20)
#    0.857    0.000    4.286    3.429    4.000    0.000 
#    5.143    0.000    0.000    0.000    0.000    0.000 
#    0.000    0.000    0.000    0.000    0.000    0.000 
#
# Total GULP energy -77967.448675 kJ/mol
# GULP energy per Si atom -5569.103477 kJ/mol
# Density = 2.102187 g / cm^3
# Si number density = 21.069823 Si / 1000 Ang^3
#
#
#
# Elastic Constant Matrix: (Units=GPa)
#
#
# Indices 1 2 3 4 5 6 
#
# 1 133.5754 15.3376 32.7108 0.0000 -15.6146 0.0000
# 2 15.3376 55.9862 6.8741 0.0000 -3.6305 0.0000
# 3 32.7108 6.8741 51.5282 0.0000 -19.2522 0.0000
# 4 0.0000 0.0000 0.0000 20.3606 0.0000 -7.4755
# 5 -15.6146 -3.6305 -19.2522 0.0000 43.5577 0.0000
# 6 0.0000 0.0000 0.0000 -7.4755 0.0000 25.9372
#
#
#
# Elastic Compliance Matrix: (Units=1/GPa)
#
#
# Indices 1 2 3 4 5 6 
#
# 1 0.009063 -0.001791 -0.005218 0.000000 0.000793 0.000000
# 2 -0.001791 0.018523 -0.001195 0.000000 0.000374 0.000000
# 3 -0.005218 -0.001195 0.026522 0.000000 0.009753 0.000000
# 4 0.000000 0.000000 0.000000 0.054927 0.000000 0.015831
# 5 0.000793 0.000374 0.009753 0.000000 0.027584 0.000000
# 6 0.000000 0.000000 0.000000 0.015831 0.000000 0.043117
#
#
# Mechanical properties :
#
#
# Convention : Reuss Voigt Hill
#
# Bulk Modulus (GPa) = 26.52383 38.99274 32.75828
# Shear Modulus (GPa) = 23.95676 30.38225 27.16950
#
# Velocity S-wave (km/s) = 3.37563 3.80146 3.59485
# Velocity P-wave (km/s) = 5.27342 6.14937 5.72817
#
# Compressibility (1/GPa) = 0.03770195
#
# Stress axis : x y z
#
# Youngs Moduli (GPa) = 110.34482 53.98685 37.70405
#
# Poissons Ratio (x) = 0.09667 0.19673
# Poissons Ratio (y) = 0.19759 0.04504
# Poissons Ratio (z) = 0.57575 0.06449
#
# Static dielectric constant tensor:
#      x y z
#    x 1.895670 0.000000 0.047770 
#    y 0.000000 1.804070 0.000000 
#    z 0.047770 0.000000 1.757540 
# 
# From -- ./inp_files/5587.got.cif
#   From: 2010.05.17/outbox.cif.g08.bks.cpg/sg9_3_cif.got.tgz:5587.got - 2010.06.03 20:04:27.
