data_PCOD9136110
_publ_section_title
;
Structure prediction by ZEFSAII (Michael W. Deem and Ramdas Pophale) SiO2 
 PCOD9136110
Probable space group: C C
;
_chemical_formula_sum "Si O2"
_cell_formula_units_Z 28
_cell_length_a 5.201772
_cell_length_b 34.795644
_cell_length_c 8.186130
_cell_angle_alpha 90.000000
_cell_angle_beta 55.542506
_cell_angle_gamma 90.000000
_cell_volume 1221.714710
_symmetry_space_group_name_H-M "C C"
_symmetry_group_IT_number 9
_symmetry_cell_setting 'monoclinic'
loop_
_space_group_symop_operation_xyz
x,y,z
x,-y,1/2+z
1/2+x,1/2+y,z
1/2+x,1/2-y,1/2+z
loop_
_atom_site_type_symbol
_atom_site_label
_atom_site_fract_x
_atom_site_fract_y
_atom_site_fract_z
Si Si1 0.490070 0.784578 0.647330
Si Si2 0.558565 0.456329 0.162933
Si Si3 0.004288 0.893485 0.780260
Si Si4 0.526224 0.683073 0.113209
Si Si5 0.525853 0.299450 0.251365
Si Si6 0.281806 0.528488 0.414183
Si Si7 0.780435 0.378067 0.031693
O O1 0.137481 0.793503 0.732027
O O2 0.585562 0.740717 0.641282
O O3 0.654581 0.809572 0.727402
O O4 0.657712 0.799724 0.422491
O O5 0.415269 0.486236 0.340180
O O6 0.345736 0.460245 0.078536
O O7 0.590633 0.411604 0.195105
O O8 0.918194 0.468747 0.999872
O O9 0.100313 0.861611 0.613382
O O10 0.975470 0.938487 0.746645
O O11 0.643138 0.882154 0.948435
O O12 0.219784 0.887889 0.862208
O O13 0.642234 0.699476 0.897589
O O14 0.639363 0.337081 0.123064
#
# Coordination Sequence:
#
# PCOD9136110 Si02
#       7
#     4   4   4   4   4   4   4
#     4  10  25  38  59  85 117 146 201 240 298 348
#     4  10  21  40  60  93 123 160 203 240 305 348
#     4  10  22  39  63  85 122 154 198 236 302 342
#     4  10  24  40  58  88 111 155 195 239 295 350
#     4  10  26  39  62  85 117 152 200 242 300 343
#     4  10  21  39  61  93 121 164 195 250 291 364
#     4  10  23  39  63  87 119 157 194 247 291 353
#
# _framework density 22.918606
#
# number of rings (size 3 to 8) (size 9 to 14) (size 15 to 20)
#    0.857    1.143    0.000    1.714    8.000    1.143 
#    2.571    0.000    0.000    0.000    0.000    0.000 
#    0.000    0.000    0.000    0.000    0.000    0.000 
#
# Total GULP energy -78061.023137 kJ/mol
# GULP energy per Si atom -5575.787367 kJ/mol
# Density = 2.286644 g / cm^3
# Si number density = 22.918606 Si / 1000 Ang^3
#
#
#
# Elastic Constant Matrix: (Units=GPa)
#
#
# Indices 1 2 3 4 5 6 
#
# 1 122.3451 -0.9789 4.3268 0.0000 15.2533 0.0000
# 2 -0.9789 48.0799 23.7015 0.0000 -4.9626 0.0000
# 3 4.3268 23.7015 21.6842 0.0000 -0.6146 0.0000
# 4 0.0000 0.0000 0.0000 34.2831 0.0000 4.1720
# 5 15.2533 -4.9626 -0.6146 0.0000 14.5593 0.0000
# 6 0.0000 0.0000 0.0000 4.1720 0.0000 22.6910
#
#
#
# Elastic Compliance Matrix: (Units=1/GPa)
#
#
# Indices 1 2 3 4 5 6 
#
# 1 0.009509 0.000533 -0.002760 0.000000 -0.009898 0.000000
# 2 0.000533 0.047860 -0.052034 0.000000 0.013559 0.000000
# 3 -0.002760 -0.052034 0.103245 0.000000 -0.010486 0.000000
# 4 0.000000 0.000000 0.000000 0.029836 0.000000 -0.005486
# 5 -0.009898 0.013559 -0.010486 0.000000 0.083233 0.000000
# 6 0.000000 0.000000 0.000000 -0.005486 0.000000 0.045079
#
#
# Mechanical properties :
#
#
# Convention : Reuss Voigt Hill
#
# Bulk Modulus (GPa) = 19.19727 27.35646 23.27686
# Shear Modulus (GPa) = 11.24478 25.31069 18.27773
#
# Velocity S-wave (km/s) = 2.21744 3.32682 2.82708
# Velocity P-wave (km/s) = 3.86659 5.16906 4.56452
#
# Compressibility (1/GPa) = 0.05209075
#
# Stress axis : x y z
#
# Youngs Moduli (GPa) = 105.15837 20.89429 9.68566
#
# Poissons Ratio (x) = -0.01113 0.02674
# Poissons Ratio (y) = -0.05602 0.50399
# Poissons Ratio (z) = 0.29027 1.08722
#
# Static dielectric constant tensor:
#      x y z
#    x 1.868240 0.000000 -0.035650 
#    y 0.000000 1.888390 0.000000 
#    z -0.035650 0.000000 1.918680 
# 
# From -- ./inp_files/4085.got.cif
#   From: 2010.05.17/outbox.cif.g08.bks.cpg/sg9_3_cif.got.tgz:4085.got - 2010.06.03 20:04:27.
