data_PCOD9136104
_publ_section_title
;
Structure prediction by ZEFSAII (Michael W. Deem and Ramdas Pophale) SiO2 
 PCOD9136104
Probable space group: C C
;
_chemical_formula_sum "Si O2"
_cell_formula_units_Z 32
_cell_length_a 21.635051
_cell_length_b 10.851293
_cell_length_c 9.682216
_cell_angle_alpha 90.000000
_cell_angle_beta 149.625236
_cell_angle_gamma 90.000000
_cell_volume 1149.390155
_symmetry_space_group_name_H-M "C C"
_symmetry_group_IT_number 9
_symmetry_cell_setting 'monoclinic'
loop_
_space_group_symop_operation_xyz
x,y,z
x,-y,1/2+z
1/2+x,1/2+y,z
1/2+x,1/2-y,1/2+z
loop_
_atom_site_type_symbol
_atom_site_label
_atom_site_fract_x
_atom_site_fract_y
_atom_site_fract_z
Si Si1 0.942570 0.972438 0.393740
Si Si2 0.184624 0.709587 0.234633
Si Si3 0.406246 0.724590 0.465693
Si Si4 0.349178 0.229138 0.318189
Si Si5 0.147028 0.028334 0.592781
Si Si6 0.632141 0.162450 0.555358
Si Si7 0.811771 0.476265 0.160664
Si Si8 0.157648 0.495796 0.342378
O O1 0.962790 0.104726 0.503788
O O2 0.034950 0.957965 0.445512
O O3 0.937848 0.847047 0.474749
O O4 0.801115 0.989987 0.078364
O O5 0.283968 0.680871 0.308948
O O6 0.260778 0.756592 0.514127
O O7 0.114720 0.828146 0.047173
O O8 0.100742 0.602451 0.133851
O O9 0.506443 0.778809 0.762750
O O10 0.362837 0.840848 0.289907
O O11 0.393670 0.088242 0.383498
O O12 0.252853 0.256253 0.255752
O O13 0.189359 0.010077 0.518667
O O14 0.267100 0.000184 0.919221
O O15 0.645207 0.044716 0.474048
O O16 0.625660 0.129750 0.703926
#
# Coordination Sequence:
#
# PCOD9136104 Si02
#       8
#     4   4   4   4   4   4   4   4
#     4  10  21  39  66  92 120 165 213 257 309 373
#     4   8  17  36  58  82 121 162 198 244 305 367
#     4  11  21  38  64  91 125 166 204 256 319 373
#     4   9  20  38  59  87 120 156 205 256 301 365
#     4  10  21  39  63  89 123 166 205 254 316 374
#     4  10  22  38  63  89 124 166 208 256 315 373
#     4  10  23  41  59  89 128 163 204 255 314 375
#     4  10  21  39  60  93 125 158 209 264 307 368
#
# _framework density 27.840852000000002
#
# number of rings (size 3 to 8) (size 9 to 14) (size 15 to 20)
#    0.000    2.500    0.000    3.750    0.000   10.000 
#    0.000    6.250    0.000    0.000    0.000    0.000 
#    0.000    0.000    0.000    0.000    0.000    0.000 
#
# Total GULP energy -89504.207816 kJ/mol
# GULP energy per Si atom -5594.012989 kJ/mol
# Density = 2.777749 g / cm^3
# Si number density = 27.840852 Si / 1000 Ang^3
#
#
#
# Elastic Constant Matrix: (Units=GPa)
#
#
# Indices 1 2 3 4 5 6 
#
# 1 113.1003 17.9682 22.8566 0.0000 11.2211 0.0000
# 2 17.9682 151.7777 27.9835 0.0000 -15.2630 0.0000
# 3 22.8566 27.9835 69.9229 0.0000 4.0228 0.0000
# 4 0.0000 0.0000 0.0000 28.5054 0.0000 -15.3695
# 5 11.2211 -15.2630 4.0228 0.0000 43.0945 0.0000
# 6 0.0000 0.0000 0.0000 -15.3695 0.0000 44.1815
#
#
#
# Elastic Compliance Matrix: (Units=1/GPa)
#
#
# Indices 1 2 3 4 5 6 
#
# 1 0.009791 -0.000930 -0.002677 0.000000 -0.002629 0.000000
# 2 -0.000930 0.007555 -0.002903 0.000000 0.003189 0.000000
# 3 -0.002677 -0.002903 0.016446 0.000000 -0.001866 0.000000
# 4 0.000000 0.000000 0.000000 0.043180 0.000000 0.015021
# 5 -0.002629 0.003189 -0.001866 0.000000 0.025193 0.000000
# 6 0.000000 0.000000 0.000000 0.015021 0.000000 0.027859
#
#
# Mechanical properties :
#
#
# Convention : Reuss Voigt Hill
#
# Bulk Modulus (GPa) = 48.14261 52.49084 50.31673
# Shear Modulus (GPa) = 33.34048 40.88911 37.11480
#
# Velocity S-wave (km/s) = 3.46430 3.83648 3.65513
# Velocity P-wave (km/s) = 5.77334 6.20642 5.99379
#
# Compressibility (1/GPa) = 0.02077162
#
# Stress axis : x y z
#
# Youngs Moduli (GPa) = 102.13139 132.37077 60.80614
#
# Poissons Ratio (x) = 0.12309 0.16279
# Poissons Ratio (y) = 0.09497 0.17651
# Poissons Ratio (z) = 0.27343 0.38425
#
# Static dielectric constant tensor:
#      x y z
#    x 2.140930 0.000000 0.015070 
#    y 0.000000 2.302330 0.000000 
#    z 0.015070 0.000000 2.187930 
# 
# From -- ./inp_files/20925.got.cif
#   From: 2010.05.17/outbox.cif.g08.bks.cpg/sg9_11_cif.got.tgz:20925.got - 2010.06.03 20:04:27.
