data_PCOD9136083
_publ_section_title
;
Structure prediction by ZEFSAII (Michael W. Deem and Ramdas Pophale) SiO2 
 PCOD9136083
Probable space group: C C
;
_chemical_formula_sum "Si O2"
_cell_formula_units_Z 24
_cell_length_a 12.663933
_cell_length_b 7.721311
_cell_length_c 9.339644
_cell_angle_alpha 90.000000
_cell_angle_beta 111.984264
_cell_angle_gamma 90.000000
_cell_volume 846.845150
_symmetry_space_group_name_H-M "C C"
_symmetry_group_IT_number 9
_symmetry_cell_setting 'monoclinic'
loop_
_space_group_symop_operation_xyz
x,y,z
x,-y,1/2+z
1/2+x,1/2+y,z
1/2+x,1/2-y,1/2+z
loop_
_atom_site_type_symbol
_atom_site_label
_atom_site_fract_x
_atom_site_fract_y
_atom_site_fract_z
Si Si1 0.145060 0.571712 0.170850
Si Si2 0.434451 0.079069 0.895522
Si Si3 0.107006 0.777590 0.789227
Si Si4 0.933431 0.795007 0.143485
Si Si5 0.785501 0.638106 0.584645
Si Si6 0.945278 0.136546 0.981560
O O1 0.168645 0.405394 0.281277
O O2 0.061403 0.713406 0.201091
O O3 0.242092 0.687329 0.148652
O O4 0.054525 0.495135 0.006226
O O5 0.495133 0.229738 0.827239
O O6 0.340776 0.017095 0.734980
O O7 0.375733 0.151938 0.008630
O O8 0.070152 0.857141 0.619703
O O9 0.177852 0.899969 0.929518
O O10 0.924365 0.848297 0.303163
O O11 0.904141 0.961276 0.033877
O O12 0.878194 0.701570 0.515987
#
# Coordination Sequence:
#
# PCOD9136083 Si02
#       6
#     4   4   4   4   4   4
#     4   9  22  39  66  94 126 160 211 264 318 364
#     4   8  20  41  60  87 132 160 201 260 322 361
#     4  10  21  38  69  93 123 163 211 268 314 374
#     4  10  23  41  63  87 128 171 203 261 321 380
#     4  10  21  40  66  94 125 163 219 256 308 384
#     4  11  23  41  64  89 130 167 213 251 329 373
#
# _framework density 28.340482000000002
#
# number of rings (size 3 to 8) (size 9 to 14) (size 15 to 20)
#    1.000    1.333    0.000    2.000    9.333    0.000 
#    3.000    3.333    0.000    0.000    0.000    0.000 
#    0.000    0.000    0.000    0.000    0.000    0.000 
#
# Total GULP energy -66926.172569 kJ/mol
# GULP energy per Si atom -5577.181047 kJ/mol
# Density = 2.827598 g / cm^3
# Si number density = 28.340482 Si / 1000 Ang^3
#
#
#
# Elastic Constant Matrix: (Units=GPa)
#
#
# Indices 1 2 3 4 5 6 
#
# 1 69.7449 -17.7575 35.7639 0.0000 -11.0225 0.0000
# 2 -17.7575 82.1101 51.6648 0.0000 -6.5137 0.0000
# 3 35.7639 51.6648 289.6845 0.0000 -27.2661 0.0000
# 4 0.0000 0.0000 0.0000 60.5141 0.0000 -2.8237
# 5 -11.0225 -6.5137 -27.2661 0.0000 57.5649 0.0000
# 6 0.0000 0.0000 0.0000 -2.8237 0.0000 27.8775
#
#
#
# Elastic Compliance Matrix: (Units=1/GPa)
#
#
# Indices 1 2 3 4 5 6 
#
# 1 0.017821 0.005961 -0.003013 0.000000 0.002660 0.000000
# 2 0.005961 0.015721 -0.003417 0.000000 0.001302 0.000000
# 3 -0.003013 -0.003417 0.004545 0.000000 0.001189 0.000000
# 4 0.000000 0.000000 0.000000 0.016604 0.000000 0.001682
# 5 0.002660 0.001302 0.001189 0.000000 0.018592 0.000000
# 6 0.000000 0.000000 0.000000 0.001682 0.000000 0.036042
#
#
# Mechanical properties :
#
#
# Convention : Reuss Voigt Hill
#
# Bulk Modulus (GPa) = 26.91870 64.54245 45.73058
# Shear Modulus (GPa) = 40.76771 53.98252 47.37511
#
# Velocity S-wave (km/s) = 3.79687 4.36912 4.09301
# Velocity P-wave (km/s) = 5.36102 6.94807 6.20549
#
# Compressibility (1/GPa) = 0.03714889
#
# Stress axis : x y z
#
# Youngs Moduli (GPa) = 56.11381 63.60790 220.00206
#
# Poissons Ratio (x) = -0.37915 0.66284
# Poissons Ratio (y) = -0.33448 0.75181
# Poissons Ratio (z) = 0.16906 0.21737
#
# Static dielectric constant tensor:
#      x y z
#    x 2.291750 0.000000 0.001320 
#    y 0.000000 2.383220 0.000000 
#    z 0.001320 0.000000 2.229390 
# 
# From -- ./inp_files/8863.got.cif
#   From: 2010.05.17/outbox.cif.g08.bks.cpg/sg9_5_cif.got.tgz:8863.got - 2010.06.03 20:04:27.
