data_PCOD9136345
_publ_section_title
;
Structure prediction by ZEFSAII (Michael W. Deem and Ramdas Pophale) SiO2 
 PCOD9136345
Probable space group: C C
;
_chemical_formula_sum "Si O2"
_cell_formula_units_Z 32
_cell_length_a 19.285891
_cell_length_b 5.171882
_cell_length_c 13.486816
_cell_angle_alpha 90.000000
_cell_angle_beta 86.294477
_cell_angle_gamma 90.000000
_cell_volume 1342.421374
_symmetry_space_group_name_H-M "C C"
_symmetry_group_IT_number 9
_symmetry_cell_setting 'monoclinic'
loop_
_space_group_symop_operation_xyz
x,y,z
x,-y,1/2+z
1/2+x,1/2+y,z
1/2+x,1/2-y,1/2+z
loop_
_atom_site_type_symbol
_atom_site_label
_atom_site_fract_x
_atom_site_fract_y
_atom_site_fract_z
Si Si1 0.801330 0.607953 0.184620
Si Si2 0.199202 0.819054 0.053329
Si Si3 0.475437 0.416185 0.020918
Si Si4 0.046376 0.175740 0.310722
Si Si5 0.735774 0.569254 0.873981
Si Si6 0.128764 0.334889 0.745298
Si Si7 0.953053 0.596973 0.651803
Si Si8 0.320649 0.566144 0.505830
O O1 0.734819 0.512625 0.128100
O O2 0.776650 0.627628 0.298950
O O3 0.868900 0.423603 0.167418
O O4 0.821754 0.861364 0.122785
O O5 0.145961 0.663679 0.126051
O O6 0.263283 0.652684 0.006190
O O7 0.177763 0.965825 0.956115
O O8 0.525813 0.347589 0.926835
O O9 0.485352 0.684252 0.077332
O O10 0.400663 0.468818 0.975127
O O11 0.472513 0.179636 0.100279
O O12 0.105866 0.385396 0.283658
O O13 0.983498 0.310697 0.254365
O O14 0.072798 0.894580 0.270488
O O15 0.696682 0.760435 0.802719
O O16 0.791729 0.709443 0.938107
#
# Coordination Sequence:
#
# PCOD9136345 Si02
#       8
#     4   4   4   4   4   4   4   4
#     4   9  20  40  63 100 136 162 219 278 353 401
#     4  10  22  41  67  96 132 173 220 283 343 405
#     4  11  24  45  73 101 136 173 233 284 348 412
#     4  12  27  48  67 101 135 192 234 280 330 415
#     4  10  23  40  66 100 128 185 219 282 342 407
#     4  11  28  45  67  94 144 178 235 279 326 406
#     4  11  23  45  71 100 137 181 220 293 344 399
#     4  10  21  40  68 100 132 168 218 291 344 407
#
# _framework density 23.837522
#
# number of rings (size 3 to 8) (size 9 to 14) (size 15 to 20)
#    0.000    1.500    1.250    2.250    7.000    4.000 
#    6.750    0.000    0.000    0.000    0.000    0.000 
#    0.000    0.000    0.000    0.000    0.000    0.000 
#
# Total GULP energy -89350.313854 kJ/mol
# GULP energy per Si atom -5584.394616 kJ/mol
# Density = 2.378327 g / cm^3
# Si number density = 23.837522 Si / 1000 Ang^3
#
#
#
# Elastic Constant Matrix: (Units=GPa)
#
#
# Indices 1 2 3 4 5 6 
#
# 1 41.0531 -4.1361 -0.4560 0.0000 -1.7736 0.0000
# 2 -4.1361 83.3360 23.4267 0.0000 -7.3150 0.0000
# 3 -0.4560 23.4267 140.1976 0.0000 -15.7778 0.0000
# 4 0.0000 0.0000 0.0000 19.8761 0.0000 0.0779
# 5 -1.7736 -7.3150 -15.7778 0.0000 31.5900 0.0000
# 6 0.0000 0.0000 0.0000 0.0779 0.0000 32.9537
#
#
#
# Elastic Compliance Matrix: (Units=1/GPa)
#
#
# Indices 1 2 3 4 5 6 
#
# 1 0.024570 0.001357 0.000046 0.000000 0.001717 0.000000
# 2 0.001357 0.012783 -0.001897 0.000000 0.002089 0.000000
# 3 0.000046 -0.001897 0.007841 0.000000 0.003480 0.000000
# 4 0.000000 0.000000 0.000000 0.050312 0.000000 -0.000119
# 5 0.001717 0.002089 0.003480 0.000000 0.033974 0.000000
# 6 0.000000 0.000000 0.000000 -0.000119 0.000000 0.030346
#
#
# Mechanical properties :
#
#
# Convention : Reuss Voigt Hill
#
# Bulk Modulus (GPa) = 22.61985 33.58396 28.10191
# Shear Modulus (GPa) = 28.48203 33.26745 30.87474
#
# Velocity S-wave (km/s) = 3.46040 3.73981 3.60282
# Velocity P-wave (km/s) = 5.04733 5.72430 5.39644
#
# Compressibility (1/GPa) = 0.04420895
#
# Stress axis : x y z
#
# Youngs Moduli (GPa) = 40.69985 78.22585 127.52691
#
# Poissons Ratio (x) = -0.10616 -0.00591
# Poissons Ratio (y) = -0.05524 0.24186
# Poissons Ratio (z) = -0.00189 0.14836
#
# Static dielectric constant tensor:
#      x y z
#    x 2.010420 0.000000 -0.002940 
#    y 0.000000 1.937030 0.000000 
#    z -0.002940 0.000000 1.907530 
# 
# From -- ./inp_files/20578.got.cif
#   From: 2010.05.17/outbox.cif.g08.bks.cpg/sg9_11_cif.got.tgz:20578.got - 2010.06.03 20:04:27.
