data_PCOD9136630
_publ_section_title
;
Structure prediction by ZEFSAII (Michael W. Deem and Ramdas Pophale) SiO2 
 PCOD9136630
Probable space group: C C
;
_chemical_formula_sum "Si O2"
_cell_formula_units_Z 32
_cell_length_a 11.419991
_cell_length_b 11.385678
_cell_length_c 11.115458
_cell_angle_alpha 90.000000
_cell_angle_beta 123.607248
_cell_angle_gamma 90.000000
_cell_volume 1203.703302
_symmetry_space_group_name_H-M "C C"
_symmetry_group_IT_number 9
_symmetry_cell_setting 'monoclinic'
loop_
_space_group_symop_operation_xyz
x,y,z
x,-y,1/2+z
1/2+x,1/2+y,z
1/2+x,1/2-y,1/2+z
loop_
_atom_site_type_symbol
_atom_site_label
_atom_site_fract_x
_atom_site_fract_y
_atom_site_fract_z
Si Si1 0.552410 0.544880 0.342050
Si Si2 0.694189 0.074026 0.690480
Si Si3 0.889936 0.782862 0.907687
Si Si4 0.707815 0.293950 0.085131
Si Si5 0.616564 0.291802 0.392497
Si Si6 0.200532 0.560212 0.957933
Si Si7 0.456408 0.068393 0.385369
Si Si8 0.167338 0.161116 0.191851
O O1 0.433426 0.593449 0.365410
O O2 0.688077 0.586693 0.499220
O O3 0.553443 0.630534 0.227005
O O4 0.254340 0.481042 0.100729
O O5 0.721115 0.018238 0.834780
O O6 0.528267 0.078787 0.558293
O O7 0.732706 0.208781 0.734091
O O8 0.063937 0.088102 0.800610
O O9 0.814189 0.715456 0.754179
O O10 0.771360 0.755034 0.941536
O O11 0.049724 0.754568 0.042473
O O12 0.742008 0.192403 0.008166
O O13 0.517104 0.178047 0.341803
O O14 0.612530 0.342094 0.526334
O O15 0.032806 0.545118 0.877085
O O16 0.292042 0.070944 0.288346
#
# Coordination Sequence:
#
# PCOD9136630 Si02
#       8
#     4   4   4   4   4   4   4   4
#     4  10  26  46  76 109 152 210 257 335 406 491
#     4   9  21  42  64 103 138 192 249 325 391 478
#     4  10  26  48  75 114 151 214 262 336 408 498
#     4  10  24  45  74 109 152 204 272 320 407 489
#     4  11  26  46  72 111 161 203 265 333 415 488
#     4  10  21  42  69 101 142 191 259 315 392 475
#     4   9  25  39  70 103 148 199 258 327 401 484
#     4  11  23  46  68 110 148 203 266 329 406 493
#
# _framework density 26.584624000000002
#
# number of rings (size 3 to 8) (size 9 to 14) (size 15 to 20)
#    1.500    0.500    1.250    0.000    7.000    5.000 
#    0.000    0.000    0.000    0.000    0.000    0.000 
#    0.000    0.000    0.000    0.000    0.000    0.000 
#
# Total GULP energy -89164.236131 kJ/mol
# GULP energy per Si atom -5572.764758 kJ/mol
# Density = 2.652412 g / cm^3
# Si number density = 26.584624 Si / 1000 Ang^3
#
#
#
# Elastic Constant Matrix: (Units=GPa)
#
#
# Indices 1 2 3 4 5 6 
#
# 1 109.4524 31.0676 31.9871 0.0000 7.0469 0.0000
# 2 31.0676 121.8663 15.2625 0.0000 -6.4580 0.0000
# 3 31.9871 15.2625 85.3724 0.0000 -11.5106 0.0000
# 4 0.0000 0.0000 0.0000 21.2932 0.0000 4.8438
# 5 7.0469 -6.4580 -11.5106 0.0000 53.0210 0.0000
# 6 0.0000 0.0000 0.0000 4.8438 0.0000 27.0335
#
#
#
# Elastic Compliance Matrix: (Units=1/GPa)
#
#
# Indices 1 2 3 4 5 6 
#
# 1 0.011220 -0.002487 -0.004122 0.000000 -0.002689 0.000000
# 2 -0.002487 0.008971 -0.000495 0.000000 0.001316 0.000000
# 3 -0.004122 -0.000495 0.013816 0.000000 0.003487 0.000000
# 4 0.000000 0.000000 0.000000 0.048959 0.000000 -0.008772
# 5 -0.002689 0.001316 0.003487 0.000000 0.020135 0.000000
# 6 0.000000 0.000000 0.000000 -0.008772 0.000000 0.038563
#
#
# Mechanical properties :
#
#
# Convention : Reuss Voigt Hill
#
# Bulk Modulus (GPa) = 50.50208 52.59170 51.54689
# Shear Modulus (GPa) = 30.77463 36.16113 33.46788
#
# Velocity S-wave (km/s) = 3.40606 3.69213 3.55197
# Velocity P-wave (km/s) = 5.87420 6.16453 6.02112
#
# Compressibility (1/GPa) = 0.01980116
#
# Stress axis : x y z
#
# Youngs Moduli (GPa) = 89.12724 111.46633 72.37798
#
# Poissons Ratio (x) = 0.27717 0.29833
# Poissons Ratio (y) = 0.22162 0.03581
# Poissons Ratio (z) = 0.36737 0.05515
#
# Static dielectric constant tensor:
#      x y z
#    x 2.146620 0.000000 -0.002900 
#    y 0.000000 2.177470 0.000000 
#    z -0.002900 0.000000 2.137400 
# 
# From -- ./inp_files/16895.got.cif
#   From: 2010.05.17/outbox.cif.g08.bks.cpg/sg9_9_cif.got.tgz:16895.got - 2010.06.03 20:04:27.
