data_PCOD9136566
_publ_section_title
;
Structure prediction by ZEFSAII (Michael W. Deem and Ramdas Pophale) SiO2 
 PCOD9136566
Probable space group: C C
;
_chemical_formula_sum "Si O2"
_cell_formula_units_Z 32
_cell_length_a 14.393652
_cell_length_b 11.680380
_cell_length_c 9.159857
_cell_angle_alpha 90.000000
_cell_angle_beta 65.443137
_cell_angle_gamma 90.000000
_cell_volume 1400.692779
_symmetry_space_group_name_H-M "C C"
_symmetry_group_IT_number 9
_symmetry_cell_setting 'monoclinic'
loop_
_space_group_symop_operation_xyz
x,y,z
x,-y,1/2+z
1/2+x,1/2+y,z
1/2+x,1/2-y,1/2+z
loop_
_atom_site_type_symbol
_atom_site_label
_atom_site_fract_x
_atom_site_fract_y
_atom_site_fract_z
Si Si1 0.851720 0.948055 0.473280
Si Si2 0.494260 0.077536 0.020817
Si Si3 0.336602 0.900768 0.026059
Si Si4 0.360637 0.244559 0.236871
Si Si5 0.967979 0.783986 0.599906
Si Si6 0.175934 0.230580 0.823970
Si Si7 0.621243 0.034064 0.205379
Si Si8 0.849765 0.196574 0.433136
O O1 0.863702 0.856725 0.335266
O O2 0.897546 0.888680 0.587127
O O3 0.733398 0.981524 0.568556
O O4 0.898613 0.070731 0.415685
O O5 0.468391 0.203636 0.096724
O O6 0.533695 0.018441 0.142884
O O7 0.388967 0.023467 0.022959
O O8 0.587872 0.052288 0.853229
O O9 0.427266 0.819134 0.025891
O O10 0.237353 0.861794 0.184424
O O11 0.322758 0.858406 0.867758
O O12 0.306300 0.268899 0.119358
O O13 0.941962 0.744511 0.780948
O O14 0.082420 0.814420 0.481464
O O15 0.131195 0.334927 0.756679
O O16 0.257506 0.285529 0.880743
#
# Coordination Sequence:
#
# PCOD9136566 Si02
#       8
#     4   4   4   4   4   4   4   4
#     4  11  23  45  65 103 141 184 236 307 368 432
#     4  12  25  41  71 110 145 191 245 309 367 439
#     4  10  22  43  66  98 147 191 239 295 374 434
#     4  11  24  43  66 103 151 189 234 315 372 438
#     4  10  21  42  64  94 139 182 231 292 361 432
#     4  11  22  44  70 101 137 195 240 296 367 447
#     4  12  23  39  73 105 138 183 243 301 363 424
#     4  11  24  39  69  98 140 181 246 301 360 434
#
# _framework density 22.845838000000001
#
# number of rings (size 3 to 8) (size 9 to 14) (size 15 to 20)
#    0.000    1.000    6.250    2.250    5.250    0.000 
#    0.000    2.500    0.000    0.000    0.000    0.000 
#    0.000    0.000    0.000    0.000    0.000    0.000 
#
# Total GULP energy -89166.686221 kJ/mol
# GULP energy per Si atom -5572.917889 kJ/mol
# Density = 2.279384 g / cm^3
# Si number density = 22.845838 Si / 1000 Ang^3
#
#
#
# Elastic Constant Matrix: (Units=GPa)
#
#
# Indices 1 2 3 4 5 6 
#
# 1 62.6511 19.2670 49.6404 0.0000 -14.0392 0.0000
# 2 19.2670 68.6880 30.7968 0.0000 -5.5336 0.0000
# 3 49.6404 30.7968 162.1270 0.0000 1.3548 0.0000
# 4 0.0000 0.0000 0.0000 36.6101 0.0000 -1.0475
# 5 -14.0392 -5.5336 1.3548 0.0000 47.0739 0.0000
# 6 0.0000 0.0000 0.0000 -1.0475 0.0000 23.2946
#
#
#
# Elastic Compliance Matrix: (Units=1/GPa)
#
#
# Indices 1 2 3 4 5 6 
#
# 1 0.023828 -0.003091 -0.006767 0.000000 0.006938 0.000000
# 2 -0.003091 0.016497 -0.002196 0.000000 0.001081 0.000000
# 3 -0.006767 -0.002196 0.008678 0.000000 -0.002526 0.000000
# 4 0.000000 0.000000 0.000000 0.027350 0.000000 0.001230
# 5 0.006938 0.001081 -0.002526 0.000000 0.023512 0.000000
# 6 0.000000 0.000000 0.000000 0.001230 0.000000 0.042984
#
#
# Mechanical properties :
#
#
# Convention : Reuss Voigt Hill
#
# Bulk Modulus (GPa) = 40.16762 54.76384 47.46573
# Shear Modulus (GPa) = 28.52974 34.31318 31.42146
#
# Velocity S-wave (km/s) = 3.53766 3.87970 3.71262
# Velocity P-wave (km/s) = 5.85721 6.64022 6.26097
#
# Compressibility (1/GPa) = 0.02489568
#
# Stress axis : x y z
#
# Youngs Moduli (GPa) = 41.96752 60.61549 115.23237
#
# Poissons Ratio (x) = 0.18736 0.77972
# Poissons Ratio (y) = 0.12972 0.25309
# Poissons Ratio (z) = 0.28397 0.13313
#
# Static dielectric constant tensor:
#      x y z
#    x 1.909080 0.000000 0.002420 
#    y 0.000000 2.037380 0.000000 
#    z 0.002420 0.000000 1.941460 
# 
# From -- ./inp_files/9106.got.cif
#   From: 2010.05.17/outbox.cif.g08.bks.cpg/sg9_5_cif.got.tgz:9106.got - 2010.06.03 20:04:27.
