data_PCOD9136554
_publ_section_title
;
Structure prediction by ZEFSAII (Michael W. Deem and Ramdas Pophale) SiO2 
 PCOD9136554
Probable space group: C C
;
_chemical_formula_sum "Si O2"
_cell_formula_units_Z 32
_cell_length_a 12.192090
_cell_length_b 11.146456
_cell_length_c 15.823186
_cell_angle_alpha 90.000000
_cell_angle_beta 34.513331
_cell_angle_gamma 90.000000
_cell_volume 1218.383234
_symmetry_space_group_name_H-M "C C"
_symmetry_group_IT_number 9
_symmetry_cell_setting 'monoclinic'
loop_
_space_group_symop_operation_xyz
x,y,z
x,-y,1/2+z
1/2+x,1/2+y,z
1/2+x,1/2-y,1/2+z
loop_
_atom_site_type_symbol
_atom_site_label
_atom_site_fract_x
_atom_site_fract_y
_atom_site_fract_z
Si Si1 0.781980 0.559117 0.979390
Si Si2 0.340017 0.235678 0.669182
Si Si3 0.616951 0.588800 0.260743
Si Si4 0.673166 0.759371 0.382906
Si Si5 0.927175 0.084222 0.979917
Si Si6 0.918242 0.088356 0.638909
Si Si7 0.539487 0.147314 0.242736
Si Si8 0.740710 0.181350 0.416372
O O1 0.778829 0.686760 0.934741
O O2 0.954440 0.470842 0.842099
O O3 0.764620 0.585587 0.090077
O O4 0.591742 0.482206 0.074056
O O5 0.469801 0.308698 0.516854
O O6 0.135632 0.260273 0.749080
O O7 0.516494 0.141678 0.574872
O O8 0.311326 0.306894 0.774655
O O9 0.636448 0.691280 0.317614
O O10 0.614983 0.463325 0.313097
O O11 0.399943 0.598536 0.361469
O O12 0.505444 0.715897 0.551519
O O13 0.735686 0.891780 0.315195
O O14 0.865405 0.707397 0.304921
O O15 0.872832 0.979603 0.081136
O O16 0.724645 0.118143 0.065785
#
# Coordination Sequence:
#
# PCOD9136554 Si02
#       8
#     4   4   4   4   4   4   4   4
#     4  11  23  43  66 101 135 174 232 283 347 412
#     4  10  24  44  68  97 135 183 230 291 347 406
#     4  11  25  40  67 107 131 183 222 289 347 406
#     4  10  24  40  64  94 130 170 222 268 344 403
#     4   9  21  45  63  95 135 178 225 273 347 401
#     4  10  21  42  62  93 129 172 215 280 327 406
#     4   9  23  46  63  95 135 182 222 279 345 412
#     4  12  23  44  69 102 134 178 242 285 354 404
#
# _framework density 26.264315
#
# number of rings (size 3 to 8) (size 9 to 14) (size 15 to 20)
#    0.750    1.000    2.500    0.000    7.000    3.000 
#    6.750    0.000    0.000    0.000    0.000    0.000 
#    0.000    0.000    0.000    0.000    0.000    0.000 
#
# Total GULP energy -89276.780549 kJ/mol
# GULP energy per Si atom -5579.798784 kJ/mol
# Density = 2.620454 g / cm^3
# Si number density = 26.264315 Si / 1000 Ang^3
#
#
#
# Elastic Constant Matrix: (Units=GPa)
#
#
# Indices 1 2 3 4 5 6 
#
# 1 113.2015 -31.2921 37.6047 -0.0001 -9.5970 0.0000
# 2 -31.2921 25.1638 4.6092 -0.0002 5.3168 0.0001
# 3 37.6047 4.6092 96.9727 -0.0004 -8.5469 0.0002
# 4 -0.0001 -0.0002 -0.0004 24.8513 0.0002 16.3315
# 5 -9.5970 5.3168 -8.5469 0.0002 46.4084 -0.0001
# 6 0.0000 0.0001 0.0002 16.3315 -0.0001 21.8517
#
#
#
# Elastic Compliance Matrix: (Units=1/GPa)
#
#
# Indices 1 2 3 4 5 6 
#
# 1 0.018277 0.024361 -0.008293 0.000000 -0.000539 0.000000
# 2 0.024361 0.073746 -0.013471 0.000001 -0.005892 -0.000001
# 3 -0.008293 -0.013471 0.014387 0.000000 0.002478 0.000000
# 4 0.000000 0.000001 0.000000 0.079080 -0.000001 -0.059103
# 5 -0.000539 -0.005892 0.002478 -0.000001 0.022568 0.000001
# 6 0.000000 -0.000001 0.000000 -0.059103 0.000001 0.089935
#
#
# Mechanical properties :
#
#
# Convention : Reuss Voigt Hill
#
# Bulk Modulus (GPa) = 8.96033 28.57571 18.76802
# Shear Modulus (GPa) = 15.15151 33.58334 24.36743
#
# Velocity S-wave (km/s) = 2.40445 3.57973 3.04925
# Velocity P-wave (km/s) = 3.33579 5.29052 4.42251
#
# Compressibility (1/GPa) = 0.11160308
#
# Stress axis : x y z
#
# Youngs Moduli (GPa) = 54.71325 13.56009 69.50814
#
# Poissons Ratio (x) = -0.33034 0.57643
# Poissons Ratio (y) = -1.33287 0.93637
# Poissons Ratio (z) = 0.45374 0.18267
#
# Static dielectric constant tensor:
#      x y z
#    x 2.053500 0.000000 -0.069610 
#    y 0.000000 2.134510 0.000000 
#    z -0.069610 0.000000 2.093110 
# 
# From -- ./inp_files/24911.got.cif
#   From: 2010.05.17/outbox.cif.g08.bks.cpg/sg9_13_cif.got.tgz:24911.got - 2010.06.03 20:04:27.
