data_PCOD9136756
_publ_section_title
;
Structure prediction by ZEFSAII (Michael W. Deem and Ramdas Pophale) SiO2 
 PCOD9136756
Probable space group: C C
;
_chemical_formula_sum "Si O2"
_cell_formula_units_Z 24
_cell_length_a 5.299971
_cell_length_b 16.356593
_cell_length_c 15.107858
_cell_angle_alpha 90.000000
_cell_angle_beta 124.732138
_cell_angle_gamma 90.000000
_cell_volume 1076.337246
_symmetry_space_group_name_H-M "C C"
_symmetry_group_IT_number 9
_symmetry_cell_setting 'monoclinic'
loop_
_space_group_symop_operation_xyz
x,y,z
x,-y,1/2+z
1/2+x,1/2+y,z
1/2+x,1/2-y,1/2+z
loop_
_atom_site_type_symbol
_atom_site_label
_atom_site_fract_x
_atom_site_fract_y
_atom_site_fract_z
Si Si1 0.360900 0.317900 0.893250
Si Si2 0.239588 0.426928 0.450650
Si Si3 0.362250 0.190464 0.753771
Si Si4 0.744427 0.532723 0.451357
Si Si5 0.748840 0.851699 0.059283
Si Si6 0.426966 0.719560 0.091101
O O1 0.223320 0.251924 0.799844
O O2 0.522140 0.393260 0.874826
O O3 0.181808 0.354827 0.940913
O O4 0.618664 0.265707 0.997067
O O5 0.518146 0.479639 0.466987
O O6 0.371179 0.374521 0.559354
O O7 0.122020 0.363585 0.352282
O O8 0.938321 0.476387 0.423100
O O9 0.486317 0.249288 0.701361
O O10 0.095916 0.134197 0.658686
O O11 0.015413 0.583513 0.555484
O O12 0.673989 0.760091 0.075397
#
# Coordination Sequence:
#
# PCOD9136756 Si02
#       6
#     4   4   4   4   4   4
#     4   9  20  43  65  92 134 176 218 280 334 392
#     4  11  25  43  71  95 141 180 219 279 350 397
#     4  10  23  42  68 102 128 182 237 275 322 410
#     4  11  23  45  66  97 139 185 212 281 353 395
#     4  10  21  43  70  94 136 179 226 282 332 400
#     4   9  22  40  66  94 128 176 226 275 327 402
#
# _framework density 22.297846
#
# number of rings (size 3 to 8) (size 9 to 14) (size 15 to 20)
#    0.000    2.000    1.667    0.000    9.333    2.667 
#    3.000    0.000    0.000    0.000    0.000    0.000 
#    0.000    0.000    0.000    0.000    0.000    0.000 
#
# Total GULP energy -66875.271222 kJ/mol
# GULP energy per Si atom -5572.939269 kJ/mol
# Density = 2.224709 g / cm^3
# Si number density = 22.297846 Si / 1000 Ang^3
#
#
#
# Elastic Constant Matrix: (Units=GPa)
#
#
# Indices 1 2 3 4 5 6 
#
# 1 122.5534 47.9103 34.8073 0.0000 -10.5679 0.0000
# 2 47.9103 110.8988 37.5905 0.0000 -5.3367 0.0000
# 3 34.8073 37.5905 70.1378 0.0000 -12.6327 0.0000
# 4 0.0000 0.0000 0.0000 13.2053 0.0000 -4.6829
# 5 -10.5679 -5.3367 -12.6327 0.0000 21.3977 0.0000
# 6 0.0000 0.0000 0.0000 -4.6829 0.0000 39.5261
#
#
#
# Elastic Compliance Matrix: (Units=1/GPa)
#
#
# Indices 1 2 3 4 5 6 
#
# 1 0.010564 -0.003447 -0.002921 0.000000 0.002633 0.000000
# 2 -0.003447 0.012157 -0.005109 0.000000 -0.001686 0.000000
# 3 -0.002921 -0.005109 0.020092 0.000000 0.009145 0.000000
# 4 0.000000 0.000000 0.000000 0.079049 0.000000 0.009365
# 5 0.002633 -0.001686 0.009145 0.000000 0.053013 0.000000
# 6 0.000000 0.000000 0.000000 0.009365 0.000000 0.026409
#
#
# Mechanical properties :
#
#
# Convention : Reuss Voigt Hill
#
# Bulk Modulus (GPa) = 50.35197 60.46736 55.40966
# Shear Modulus (GPa) = 21.65843 27.04460 24.35152
#
# Velocity S-wave (km/s) = 3.11999 3.48642 3.30828
# Velocity P-wave (km/s) = 5.96738 6.58663 6.28464
#
# Compressibility (1/GPa) = 0.01986020
#
# Stress axis : x y z
#
# Youngs Moduli (GPa) = 94.66202 82.25801 49.77027
#
# Poissons Ratio (x) = 0.28355 0.14537
# Poissons Ratio (y) = 0.32630 0.25426
# Poissons Ratio (z) = 0.27649 0.42022
#
# Static dielectric constant tensor:
#      x y z
#    x 1.921270 0.000000 -0.021890 
#    y 0.000000 1.868800 0.000000 
#    z -0.021890 0.000000 1.840750 
# 
# From -- ./inp_files/12918.got.cif
#   From: 2010.05.17/outbox.cif.g08.bks.cpg/sg9_7_cif.got.tgz:12918.got - 2010.06.03 20:04:27.
