data_PCOD9136740
_publ_section_title
;
Structure prediction by ZEFSAII (Michael W. Deem and Ramdas Pophale) SiO2 
 PCOD9136740
Probable space group: C C
;
_chemical_formula_sum "Si O2"
_cell_formula_units_Z 32
_cell_length_a 13.980887
_cell_length_b 18.184260
_cell_length_c 5.669496
_cell_angle_alpha 90.000000
_cell_angle_beta 75.348762
_cell_angle_gamma 90.000000
_cell_volume 1394.499355
_symmetry_space_group_name_H-M "C C"
_symmetry_group_IT_number 9
_symmetry_cell_setting 'monoclinic'
loop_
_space_group_symop_operation_xyz
x,y,z
x,-y,1/2+z
1/2+x,1/2+y,z
1/2+x,1/2-y,1/2+z
loop_
_atom_site_type_symbol
_atom_site_label
_atom_site_fract_x
_atom_site_fract_y
_atom_site_fract_z
Si Si1 0.840220 0.770617 0.948940
Si Si2 0.349602 0.860388 0.134985
Si Si3 0.136409 0.315064 0.254141
Si Si4 0.498893 0.489634 0.627621
Si Si5 0.026690 0.175013 0.086568
Si Si6 0.511874 0.043880 0.709746
Si Si7 0.501299 0.779014 0.718363
Si Si8 0.709653 0.538898 0.473161
O O1 0.799628 0.704487 0.813303
O O2 0.912494 0.820487 0.745976
O O3 0.752194 0.810692 0.135947
O O4 0.917276 0.732977 0.077497
O O5 0.400989 0.921514 0.268003
O O6 0.445607 0.826336 0.948255
O O7 0.274759 0.890230 0.987993
O O8 0.089360 0.238064 0.182813
O O9 0.088978 0.388332 0.173577
O O10 0.097540 0.315355 0.546696
O O11 0.444892 0.497934 0.409972
O O12 0.551924 0.409669 0.596073
O O13 0.591023 0.545847 0.558844
O O14 0.028612 0.201935 0.817505
O O15 0.521904 0.000208 0.453069
O O16 0.731681 0.491332 0.698202
#
# Coordination Sequence:
#
# PCOD9136740 Si02
#       8
#     4   4   4   4   4   4   4   4
#     4  10  24  41  70 104 134 182 250 297 348 422
#     4  11  22  41  66 104 143 185 222 299 366 432
#     4  11  24  44  72 100 139 190 249 290 358 430
#     4  10  24  42  66 102 143 186 230 283 363 427
#     4  10  23  45  70  97 146 185 237 295 357 430
#     4  12  25  44  72 100 146 191 234 297 363 432
#     4  10  21  43  69 101 138 186 239 292 365 410
#     4  10  23  38  59 100 147 175 223 269 360 441
#
# _framework density 22.947303999999999
#
# number of rings (size 3 to 8) (size 9 to 14) (size 15 to 20)
#    0.000    1.500    3.750    1.500    8.750    3.000 
#    0.000    1.250    0.000    0.000    0.000    0.000 
#    0.000    0.000    0.000    0.000    0.000    0.000 
#
# Total GULP energy -89291.057871 kJ/mol
# GULP energy per Si atom -5580.691117 kJ/mol
# Density = 2.289507 g / cm^3
# Si number density = 22.947304 Si / 1000 Ang^3
#
#
#
# Elastic Constant Matrix: (Units=GPa)
#
#
# Indices 1 2 3 4 5 6 
#
# 1 44.8658 -1.7582 34.4037 0.0000 -24.0377 0.0000
# 2 -1.7582 63.3294 42.3939 0.0000 2.7006 0.0000
# 3 34.4037 42.3939 146.2888 0.0000 9.7000 0.0000
# 4 0.0000 0.0000 0.0000 25.9721 0.0000 11.0901
# 5 -24.0377 2.7006 9.7000 0.0000 38.4913 0.0000
# 6 0.0000 0.0000 0.0000 11.0901 0.0000 23.6760
#
#
#
# Elastic Compliance Matrix: (Units=1/GPa)
#
#
# Indices 1 2 3 4 5 6 
#
# 1 0.063521 0.014691 -0.022128 0.000000 0.044214 0.000000
# 2 0.014691 0.022989 -0.010799 0.000000 0.010283 0.000000
# 3 -0.022128 -0.010799 0.016308 0.000000 -0.017171 0.000000
# 4 0.000000 0.000000 0.000000 0.048129 0.000000 -0.022544
# 5 0.044214 0.010283 -0.017171 0.000000 0.057197 0.000000
# 6 0.000000 0.000000 0.000000 -0.022544 0.000000 0.052797
#
#
# Mechanical properties :
#
#
# Convention : Reuss Voigt Hill
#
# Bulk Modulus (GPa) = 15.07253 44.95143 30.01198
# Shear Modulus (GPa) = 15.64809 29.59085 22.61947
#
# Velocity S-wave (km/s) = 2.61418 3.59487 3.14301
# Velocity P-wave (km/s) = 3.96163 6.07144 5.12625
#
# Compressibility (1/GPa) = 0.06634588
#
# Stress axis : x y z
#
# Youngs Moduli (GPa) = 15.74283 43.49958 61.32065
#
# Poissons Ratio (x) = -0.63904 1.35689
# Poissons Ratio (y) = -0.23127 0.66219
# Poissons Ratio (z) = 0.34835 0.46974
#
# Static dielectric constant tensor:
#      x y z
#    x 1.825430 0.000000 0.031910 
#    y 0.000000 1.906070 0.000000 
#    z 0.031910 0.000000 1.932000 
# 
# From -- ./inp_files/2513.got.cif
#   From: 2010.05.17/outbox.cif.g08.bks.cpg/sg9_2_cif.got.tgz:2513.got - 2010.06.03 20:04:27.
