data_PCOD9136173
_publ_section_title
;
Structure prediction by ZEFSAII (Michael W. Deem and Ramdas Pophale) SiO2 
 PCOD9136173
Probable space group: C C
;
_chemical_formula_sum "Si O2"
_cell_formula_units_Z 32
_cell_length_a 5.666190
_cell_length_b 23.890625
_cell_length_c 11.049674
_cell_angle_alpha 90.000000
_cell_angle_beta 68.456037
_cell_angle_gamma 90.000000
_cell_volume 1391.280185
_symmetry_space_group_name_H-M "C C"
_symmetry_group_IT_number 9
_symmetry_cell_setting 'monoclinic'
loop_
_space_group_symop_operation_xyz
x,y,z
x,-y,1/2+z
1/2+x,1/2+y,z
1/2+x,1/2-y,1/2+z
loop_
_atom_site_type_symbol
_atom_site_label
_atom_site_fract_x
_atom_site_fract_y
_atom_site_fract_z
Si Si1 0.096320 0.068748 0.109940
Si Si2 0.957801 0.817074 0.278192
Si Si3 0.044219 0.539140 0.182944
Si Si4 0.437583 0.981104 0.961816
Si Si5 0.349074 0.850973 0.008546
Si Si6 0.256914 0.265046 0.900893
Si Si7 0.972799 0.337891 0.495364
Si Si8 0.256085 0.799199 0.762920
O O1 0.258232 0.063605 0.206607
O O2 0.253970 0.116914 0.010260
O O3 0.796167 0.075674 0.162843
O O4 0.163709 0.009380 0.035437
O O5 0.113487 0.779880 0.344945
O O6 0.742120 0.852551 0.387180
O O7 0.818401 0.766221 0.236577
O O8 0.135458 0.848911 0.151602
O O9 0.089683 0.507171 0.046826
O O10 0.022749 0.503799 0.310300
O O11 0.433465 0.914369 0.972218
O O12 0.573877 0.808346 0.001830
O O13 0.266992 0.823925 0.895726
O O14 0.402311 0.223993 0.963728
O O15 0.458642 0.301398 0.785157
O O16 0.957832 0.330354 0.641836
#
# Coordination Sequence:
#
# PCOD9136173 Si02
#       8
#     4   4   4   4   4   4   4   4
#     4  10  26  44  74 104 141 189 245 303 370 441
#     4  10  22  39  62 100 139 179 235 288 365 430
#     4  10  25  47  75 107 142 187 250 302 379 438
#     4  10  26  45  73 105 147 192 248 308 374 445
#     4  11  23  43  68  99 139 188 237 301 364 442
#     4  10  22  36  66 100 139 181 239 291 370 432
#     4  11  23  41  67  96 139 184 235 303 361 442
#     4  10  21  39  65  97 138 180 237 288 363 438
#
# _framework density 23.000399000000002
#
# number of rings (size 3 to 8) (size 9 to 14) (size 15 to 20)
#    0.750    1.000    0.000    3.750    5.250    5.000 
#    0.000    0.000    0.000    0.000    0.000    0.000 
#    0.000    0.000    0.000    0.000    0.000    0.000 
#
# Total GULP energy -89103.128025 kJ/mol
# GULP energy per Si atom -5568.945502 kJ/mol
# Density = 2.294805 g / cm^3
# Si number density = 23.000399 Si / 1000 Ang^3
#
#
#
# Elastic Constant Matrix: (Units=GPa)
#
#
# Indices 1 2 3 4 5 6 
#
# 1 113.8018 18.5705 48.2094 0.0000 -10.5445 0.0000
# 2 18.5705 56.7714 4.1148 0.0000 9.6279 0.0000
# 3 48.2094 4.1148 127.9437 0.0000 -5.8104 0.0000
# 4 0.0000 0.0000 0.0000 10.5123 0.0000 -1.9953
# 5 -10.5445 9.6279 -5.8104 0.0000 25.5333 0.0000
# 6 0.0000 0.0000 0.0000 -1.9953 0.0000 35.4736
#
#
#
# Elastic Compliance Matrix: (Units=1/GPa)
#
#
# Indices 1 2 3 4 5 6 
#
# 1 0.011751 -0.004508 -0.004027 0.000000 0.005636 0.000000
# 2 -0.004508 0.020659 0.000602 0.000000 -0.009514 0.000000
# 3 -0.004027 0.000602 0.009324 0.000000 0.000232 0.000000
# 4 0.000000 0.000000 0.000000 0.096153 0.000000 0.005408
# 5 0.005636 -0.009514 0.000232 0.000000 0.045133 0.000000
# 6 0.000000 0.000000 0.000000 0.005408 0.000000 0.028494
#
#
# Mechanical properties :
#
#
# Convention : Reuss Voigt Hill
#
# Bulk Modulus (GPa) = 38.65610 48.92291 43.78950
# Shear Modulus (GPa) = 21.18624 29.47867 25.33245
#
# Velocity S-wave (km/s) = 3.03830 3.58391 3.32232
# Velocity P-wave (km/s) = 5.39921 6.20020 5.81352
#
# Compressibility (1/GPa) = 0.02586914
#
# Stress axis : x y z
#
# Youngs Moduli (GPa) = 85.09984 48.40511 107.24519
#
# Poissons Ratio (x) = 0.21820 0.43186
# Poissons Ratio (y) = 0.38361 -0.06457
# Poissons Ratio (z) = 0.34268 -0.02914
#
# Static dielectric constant tensor:
#      x y z
#    x 1.945220 0.000000 0.016730 
#    y 0.000000 1.870650 0.000000 
#    z 0.016730 0.000000 1.946190 
# 
# From -- ./inp_files/13877.got.cif
#   From: 2010.05.17/outbox.cif.g08.bks.cpg/sg9_7_cif.got.tgz:13877.got - 2010.06.03 20:04:27.
