data_PCOD9136574
_publ_section_title
;
Structure prediction by ZEFSAII (Michael W. Deem and Ramdas Pophale) SiO2 
 PCOD9136574
Probable space group: C C
;
_chemical_formula_sum "Si O2"
_cell_formula_units_Z 24
_cell_length_a 8.884584
_cell_length_b 8.515133
_cell_length_c 14.229969
_cell_angle_alpha 90.000000
_cell_angle_beta 85.423119
_cell_angle_gamma 90.000000
_cell_volume 1073.112807
_symmetry_space_group_name_H-M "C C"
_symmetry_group_IT_number 9
_symmetry_cell_setting 'monoclinic'
loop_
_space_group_symop_operation_xyz
x,y,z
x,-y,1/2+z
1/2+x,1/2+y,z
1/2+x,1/2-y,1/2+z
loop_
_atom_site_type_symbol
_atom_site_label
_atom_site_fract_x
_atom_site_fract_y
_atom_site_fract_z
Si Si1 0.397820 0.075445 0.885200
Si Si2 0.201985 0.253050 0.161317
Si Si3 0.715445 0.564572 0.555128
Si Si4 0.343322 0.753953 0.209079
Si Si5 0.882134 0.090736 0.495345
Si Si6 0.748246 0.052476 0.827464
O O1 0.317491 0.112947 0.790307
O O2 0.396453 0.244199 0.938548
O O3 0.571354 0.032446 0.859227
O O4 0.313316 0.953138 0.956115
O O5 0.266424 0.295473 0.260764
O O6 0.021447 0.256272 0.178658
O O7 0.251753 0.086676 0.117684
O O8 0.258359 0.379659 0.081886
O O9 0.753791 0.711365 0.618522
O O10 0.541427 0.557537 0.535257
O O11 0.299657 0.591399 0.259453
O O12 0.837273 0.961405 0.420496
#
# Coordination Sequence:
#
# PCOD9136574 Si02
#       6
#     4   4   4   4   4   4
#     4   9  22  40  59  88 125 161 204 250 301 363
#     4  10  22  41  62  90 126 160 205 251 298 362
#     4  11  23  40  64  93 122 159 205 253 304 360
#     4  10  22  40  62  91 124 161 204 251 302 358
#     4  10  22  39  62  92 124 161 204 251 303 359
#     4  10  21  42  65  88 123 164 202 250 306 360
#
# _framework density 22.364844000000002
#
# number of rings (size 3 to 8) (size 9 to 14) (size 15 to 20)
#    0.000    2.000    0.000    2.000    0.000   13.333 
#    0.000    8.333    0.000    0.000    0.000    0.000 
#    0.000    0.000    0.000    0.000    0.000    0.000 
#
# Total GULP energy -67119.294967 kJ/mol
# GULP energy per Si atom -5593.274581 kJ/mol
# Density = 2.231394 g / cm^3
# Si number density = 22.364844 Si / 1000 Ang^3
#
#
#
# Elastic Constant Matrix: (Units=GPa)
#
#
# Indices 1 2 3 4 5 6 
#
# 1 66.2609 10.4810 41.2045 0.0000 -10.9705 0.0000
# 2 10.4810 40.9651 33.3918 0.0000 -1.4759 0.0000
# 3 41.2045 33.3918 127.2078 0.0000 -15.4272 0.0000
# 4 0.0000 0.0000 0.0000 52.2796 0.0000 2.2109
# 5 -10.9705 -1.4759 -15.4272 0.0000 44.7265 0.0000
# 6 0.0000 0.0000 0.0000 2.2109 0.0000 21.4621
#
#
#
# Elastic Compliance Matrix: (Units=1/GPa)
#
#
# Indices 1 2 3 4 5 6 
#
# 1 0.019201 -0.000014 -0.005891 0.000000 0.002677 0.000000
# 2 -0.000014 0.031206 -0.008414 0.000000 -0.001876 0.000000
# 3 -0.005891 -0.008414 0.012283 0.000000 0.002514 0.000000
# 4 0.000000 0.000000 0.000000 0.019212 0.000000 -0.001979
# 5 0.002677 -0.001876 0.002514 0.000000 0.023820 0.000000
# 6 0.000000 0.000000 0.000000 -0.001979 0.000000 0.046798
#
#
# Mechanical properties :
#
#
# Convention : Reuss Voigt Hill
#
# Bulk Modulus (GPa) = 29.36820 44.95426 37.16123
# Shear Modulus (GPa) = 25.97293 33.65074 29.81184
#
# Velocity S-wave (km/s) = 3.41152 3.88316 3.65496
# Velocity P-wave (km/s) = 5.35518 6.34423 5.87057
#
# Compressibility (1/GPa) = 0.03405043
#
# Stress axis : x y z
#
# Youngs Moduli (GPa) = 52.08156 32.04520 81.41330
#
# Poissons Ratio (x) = 0.00045 0.47961
# Poissons Ratio (y) = 0.00074 0.68505
# Poissons Ratio (z) = 0.30681 0.26964
#
# Static dielectric constant tensor:
#      x y z
#    x 1.751260 0.000000 0.012090 
#    y 0.000000 1.849580 0.000000 
#    z 0.012090 0.000000 1.837280 
# 
# From -- ./inp_files/14019.got.cif
#   From: 2010.05.17/outbox.cif.g08.bks.cpg/sg9_8_cif.got.tgz:14019.got - 2010.06.03 20:04:27.
