data_PCOD9136813
_publ_section_title
;
Structure prediction by ZEFSAII (Michael W. Deem and Ramdas Pophale) SiO2 
 PCOD9136813
Probable space group: C C
;
_chemical_formula_sum "Si O2"
_cell_formula_units_Z 32
_cell_length_a 16.553365
_cell_length_b 9.546352
_cell_length_c 11.048575
_cell_angle_alpha 90.000000
_cell_angle_beta 55.330583
_cell_angle_gamma 90.000000
_cell_volume 1435.946772
_symmetry_space_group_name_H-M "C C"
_symmetry_group_IT_number 9
_symmetry_cell_setting 'monoclinic'
loop_
_space_group_symop_operation_xyz
x,y,z
x,-y,1/2+z
1/2+x,1/2+y,z
1/2+x,1/2-y,1/2+z
loop_
_atom_site_type_symbol
_atom_site_label
_atom_site_fract_x
_atom_site_fract_y
_atom_site_fract_z
Si Si1 0.092610 0.739042 0.635730
Si Si2 0.907791 0.701792 0.526348
Si Si3 0.766442 0.671566 0.868585
Si Si4 0.459614 0.511469 0.554099
Si Si5 0.839930 0.377492 0.832231
Si Si6 0.146601 0.786042 0.855545
Si Si7 0.894155 0.906736 0.852979
Si Si8 0.532071 0.023539 0.041688
O O1 0.150305 0.823582 0.482200
O O2 0.153284 0.769254 0.705708
O O3 0.986592 0.802374 0.756380
O O4 0.074304 0.581538 0.607132
O O5 0.816950 0.669346 0.694217
O O6 0.958852 0.845163 0.524516
O O7 0.864408 0.709112 0.430326
O O8 0.986970 0.577764 0.476579
O O9 0.811137 0.536441 0.896357
O O10 0.799999 0.818791 0.895769
O O11 0.560806 0.599224 0.457782
O O12 0.415133 0.520748 0.728357
O O13 0.393788 0.559997 0.495240
O O14 0.747951 0.326932 0.832365
O O15 0.938720 0.391389 0.671044
O O16 0.110424 0.635357 0.932597
#
# Coordination Sequence:
#
# PCOD9136813 Si02
#       8
#     4   4   4   4   4   4   4   4
#     4  11  22  46  70  96 141 180 230 276 355 412
#     4  10  23  46  72 101 141 183 229 285 355 410
#     4  10  23  43  71  96 137 189 222 286 351 419
#     4  10  22  43  69 103 140 176 236 288 346 415
#     4  11  24  45  70 103 139 180 235 281 348 418
#     4  11  27  43  73 107 134 183 235 287 347 413
#     4  10  21  44  67 103 139 184 228 289 353 406
#     4  11  24  48  70 101 143 185 229 286 351 411
#
# _framework density 22.284948
#
# number of rings (size 3 to 8) (size 9 to 14) (size 15 to 20)
#    0.000    1.500    3.750    1.500    7.000    1.000 
#   13.500    0.000    0.000    0.000    0.000    0.000 
#    0.000    0.000    0.000    0.000    0.000    0.000 
#
# Total GULP energy -89359.234117 kJ/mol
# GULP energy per Si atom -5584.952132 kJ/mol
# Density = 2.223423 g / cm^3
# Si number density = 22.284948 Si / 1000 Ang^3
#
#
#
# Elastic Constant Matrix: (Units=GPa)
#
#
# Indices 1 2 3 4 5 6 
#
# 1 117.0961 20.7077 31.1650 0.0000 31.4624 0.0000
# 2 20.7077 74.5699 34.0180 0.0000 9.9223 0.0000
# 3 31.1650 34.0180 56.8131 0.0000 7.2057 0.0000
# 4 0.0000 0.0000 0.0000 33.7213 0.0000 1.3427
# 5 31.4624 9.9223 7.2057 0.0000 38.0283 0.0000
# 6 0.0000 0.0000 0.0000 1.3427 0.0000 34.7618
#
#
#
# Elastic Compliance Matrix: (Units=1/GPa)
#
#
# Indices 1 2 3 4 5 6 
#
# 1 0.012574 0.000497 -0.006004 0.000000 -0.009395 0.000000
# 2 0.000497 0.018763 -0.011101 0.000000 -0.003203 0.000000
# 3 -0.006004 -0.011101 0.027198 0.000000 0.002710 0.000000
# 4 0.000000 0.000000 0.000000 0.029701 0.000000 -0.001147
# 5 -0.009395 -0.003203 0.002710 0.000000 0.034392 0.000000
# 6 0.000000 0.000000 0.000000 -0.001147 0.000000 0.028812
#
#
# Mechanical properties :
#
#
# Convention : Reuss Voigt Hill
#
# Bulk Modulus (GPa) = 39.49435 46.69561 43.09498
# Shear Modulus (GPa) = 25.89412 32.14152 29.01782
#
# Velocity S-wave (km/s) = 3.41245 3.80188 3.61241
# Velocity P-wave (km/s) = 5.76951 6.34600 6.06461
#
# Compressibility (1/GPa) = 0.02532008
#
# Stress axis : x y z
#
# Youngs Moduli (GPa) = 79.52648 53.29766 36.76718
#
# Poissons Ratio (x) = -0.02650 0.22074
# Poissons Ratio (y) = -0.03954 0.40815
# Poissons Ratio (z) = 0.47746 0.59165
#
# Static dielectric constant tensor:
#      x y z
#    x 1.829270 0.000000 0.039780 
#    y 0.000000 1.861790 0.000000 
#    z 0.039780 0.000000 1.820480 
# 
# From -- ./inp_files/17904.got.cif
#   From: 2010.05.17/outbox.cif.g08.bks.cpg/sg9_9_cif.got.tgz:17904.got - 2010.06.03 20:04:27.
