data_PCOD9136250
_publ_section_title
;
Structure prediction by ZEFSAII (Michael W. Deem and Ramdas Pophale) SiO2 
 PCOD9136250
Probable space group: C C
;
_chemical_formula_sum "Si O2"
_cell_formula_units_Z 28
_cell_length_a 5.257219
_cell_length_b 13.479502
_cell_length_c 21.527396
_cell_angle_alpha 90.000000
_cell_angle_beta 48.708691
_cell_angle_gamma 90.000000
_cell_volume 1146.230438
_symmetry_space_group_name_H-M "C C"
_symmetry_group_IT_number 9
_symmetry_cell_setting 'monoclinic'
loop_
_space_group_symop_operation_xyz
x,y,z
x,-y,1/2+z
1/2+x,1/2+y,z
1/2+x,1/2-y,1/2+z
loop_
_atom_site_type_symbol
_atom_site_label
_atom_site_fract_x
_atom_site_fract_y
_atom_site_fract_z
Si Si1 0.696180 0.015219 0.836460
Si Si2 0.977579 0.180967 0.654465
Si Si3 0.977408 0.612121 0.477428
Si Si4 0.383471 0.374466 0.607891
Si Si5 0.325400 0.073806 0.791567
Si Si6 0.892855 0.503745 0.107596
Si Si7 0.275102 0.815451 0.419205
O O1 0.571052 0.996994 0.788027
O O2 0.640062 0.133515 0.857249
O O3 0.078925 0.004223 0.792925
O O4 0.452969 0.955101 0.921260
O O5 0.580835 0.155346 0.721164
O O6 0.136050 0.164489 0.559355
O O7 0.123510 0.282850 0.658503
O O8 0.169356 0.092416 0.660023
O O9 0.087239 0.539928 0.515695
O O10 0.239433 0.698789 0.420340
O O11 0.644612 0.410560 0.619138
O O12 0.604696 0.342982 0.511877
O O13 0.151766 0.463032 0.618299
O O14 0.132471 0.129607 0.880303
#
# Coordination Sequence:
#
# PCOD9136250 Si02
#       7
#     4   4   4   4   4   4   4
#     4  10  21  40  62  85 127 160 206 257 310 371
#     4   9  23  43  62  96 125 167 209 265 307 378
#     4   9  19  42  62  96 115 171 215 248 307 384
#     4  11  21  41  65  89 124 160 208 258 299 377
#     4  10  22  43  59  87 133 157 202 265 318 350
#     4  10  22  38  62  93 119 157 212 249 311 356
#     4   9  20  39  60  88 119 164 202 254 310 366
#
# _framework density 24.427899
#
# number of rings (size 3 to 8) (size 9 to 14) (size 15 to 20)
#    1.714    0.571    1.429    0.857    0.000    3.429 
#   10.286    0.000    0.000    0.000    0.000    0.000 
#    0.000    0.000    0.000    0.000    0.000    0.000 
#
# Total GULP energy -77969.181433 kJ/mol
# GULP energy per Si atom -5569.227245 kJ/mol
# Density = 2.437230 g / cm^3
# Si number density = 24.427899 Si / 1000 Ang^3
#
#
#
# Elastic Constant Matrix: (Units=GPa)
#
#
# Indices 1 2 3 4 5 6 
#
# 1 100.2924 -4.5320 -2.4556 0.0025 -8.3976 0.0034
# 2 -4.5320 81.9547 -0.3979 0.0012 -7.1322 0.0025
# 3 -2.4556 -0.3979 61.7415 0.0023 1.2535 0.0037
# 4 0.0025 0.0012 0.0023 21.2651 -0.0038 -11.8286
# 5 -8.3976 -7.1322 1.2535 -0.0038 17.9073 -0.0025
# 6 0.0034 0.0025 0.0037 -11.8286 -0.0025 21.0384
#
#
#
# Elastic Compliance Matrix: (Units=1/GPa)
#
#
# Indices 1 2 3 4 5 6 
#
# 1 0.010470 0.001042 0.000315 -0.000002 0.005303 -0.000002
# 2 0.001042 0.012744 0.000011 -0.000001 0.005563 -0.000001
# 3 0.000315 0.000011 0.016229 -0.000005 -0.000984 -0.000006
# 4 -0.000002 -0.000001 -0.000005 0.068425 0.000019 0.038471
# 5 0.005303 0.005563 -0.000984 0.000019 0.060615 0.000017
# 6 -0.000002 -0.000001 -0.000006 0.038471 0.000017 0.069162
#
#
# Mechanical properties :
#
#
# Convention : Reuss Voigt Hill
#
# Bulk Modulus (GPa) = 23.70870 25.46860 24.58865
# Shear Modulus (GPa) = 20.08295 28.80041 24.44168
#
# Velocity S-wave (km/s) = 2.87039 3.43738 3.16660
# Velocity P-wave (km/s) = 4.55107 5.11886 4.84329
#
# Compressibility (1/GPa) = 0.04217861
#
# Stress axis : x y z
#
# Youngs Moduli (GPa) = 95.51412 78.47016 61.61747
#
# Poissons Ratio (x) = -0.08176 -0.01944
# Poissons Ratio (y) = -0.09952 -0.00065
# Poissons Ratio (z) = -0.03013 -0.00083
#
# Static dielectric constant tensor:
#      x y z
#    x 2.043290 0.000000 -0.007560 
#    y 0.000000 1.936290 0.000000 
#    z -0.007560 0.000000 2.082070 
# 
# From -- ./inp_files/36270.got.cif
#   From: 2010.05.17/outbox.cif.g08.bks.cpg/sg9_19_cif.got.tgz:36270.got - 2010.06.03 20:04:27.
