data_PCOD9136293
_publ_section_title
;
Structure prediction by ZEFSAII (Michael W. Deem and Ramdas Pophale) SiO2 
 PCOD9136293
Probable space group: C C
;
_chemical_formula_sum "Si O2"
_cell_formula_units_Z 32
_cell_length_a 11.073410
_cell_length_b 16.909260
_cell_length_c 12.624629
_cell_angle_alpha 90.000000
_cell_angle_beta 141.539663
_cell_angle_gamma 90.000000
_cell_volume 1470.266115
_symmetry_space_group_name_H-M "C C"
_symmetry_group_IT_number 9
_symmetry_cell_setting 'monoclinic'
loop_
_space_group_symop_operation_xyz
x,y,z
x,-y,1/2+z
1/2+x,1/2+y,z
1/2+x,1/2-y,1/2+z
loop_
_atom_site_type_symbol
_atom_site_label
_atom_site_fract_x
_atom_site_fract_y
_atom_site_fract_z
Si Si1 0.952750 0.298698 0.691820
Si Si2 0.670908 0.926817 0.723041
Si Si3 0.758599 0.902474 0.291586
Si Si4 0.559265 0.636942 0.826742
Si Si5 0.418260 0.853835 0.905906
Si Si6 0.773631 0.777644 0.472975
Si Si7 0.252686 0.008923 0.384808
Si Si8 0.517755 0.644197 0.323065
O O1 0.764962 0.327311 0.500995
O O2 0.936964 0.316672 0.805088
O O3 0.124703 0.353017 0.765838
O O4 0.963463 0.204837 0.691379
O O5 0.829012 0.893418 0.748759
O O6 0.761600 0.007279 0.831589
O O7 0.457732 0.962126 0.540482
O O8 0.692061 0.846845 0.341997
O O9 0.956278 0.879686 0.368385
O O10 0.610763 0.888782 0.092143
O O11 0.590206 0.557681 0.780799
O O12 0.356219 0.785350 0.944936
O O13 0.278431 0.930878 0.805085
O O14 0.625778 0.723562 0.440660
O O15 0.934104 0.820266 0.654987
O O16 0.179507 0.074569 0.421350
#
# Coordination Sequence:
#
# PCOD9136293 Si02
#       8
#     4   4   4   4   4   4   4   4
#     4  11  24  39  65  94 132 167 219 263 331 390
#     4  10  24  45  65  95 138 175 213 281 334 393
#     4  11  21  39  65  93 128 167 217 270 323 389
#     4  11  22  40  62  94 129 171 210 271 320 392
#     4  10  21  40  64  97 128 167 215 277 321 389
#     4  11  23  38  69  99 128 175 224 274 335 399
#     4   9  22  41  67  89 135 174 213 273 333 383
#     4  11  23  44  69 101 136 176 225 279 337 399
#
# _framework density 21.764766999999999
#
# number of rings (size 3 to 8) (size 9 to 14) (size 15 to 20)
#    0.000    1.500    3.750    0.750    3.500    4.000 
#    2.250    0.000    2.750    0.000    0.000    0.000 
#    0.000    0.000    0.000    0.000    0.000    0.000 
#
# Total GULP energy -89109.912694 kJ/mol
# GULP energy per Si atom -5569.369543 kJ/mol
# Density = 2.171523 g / cm^3
# Si number density = 21.764767 Si / 1000 Ang^3
#
#
#
# Elastic Constant Matrix: (Units=GPa)
#
#
# Indices 1 2 3 4 5 6 
#
# 1 52.7243 -44.9812 -30.7494 0.0000 32.1565 0.0000
# 2 -44.9812 -205.1410 -130.7167 -0.0001 40.9812 0.0000
# 3 -30.7494 -130.7167 -7.3377 -0.0001 16.9737 0.0000
# 4 0.0000 -0.0001 -0.0001 21.3572 0.0000 16.7568
# 5 32.1565 40.9812 16.9737 0.0000 17.7078 0.0000
# 6 0.0000 0.0000 0.0000 16.7568 0.0000 31.5170
#
#
#
# Elastic Compliance Matrix: (Units=1/GPa)
#
#
# Indices 1 2 3 4 5 6 
#
# 1 0.024187 -0.008479 -0.002026 0.000000 -0.022358 0.000000
# 2 -0.008479 0.004055 -0.007082 0.000000 0.012803 0.000000
# 3 -0.002026 -0.007082 0.013919 0.000000 0.006725 0.000000
# 4 0.000000 0.000000 0.000000 0.080334 0.000000 -0.042711
# 5 -0.022358 0.012803 0.006725 0.000000 0.060998 0.000000
# 6 0.000000 0.000000 0.000000 -0.042711 0.000000 0.054438
#
#
# Mechanical properties :
#
#
# Convention : Reuss Voigt Hill
#
# Bulk Modulus (GPa) = 143.10252 -63.62766 39.73743
# Shear Modulus (GPa) = 18.15326 17.22924 17.69125
#
# Velocity S-wave (km/s) = 2.89115 2.81661 2.85413
# Velocity P-wave (km/s) = 8.77709 4.32666 5.39988
#
# Compressibility (1/GPa) = 0.00698800
#
# Stress axis : x y z
#
# Youngs Moduli (GPa) = 41.34402 246.63458 71.84323
#
# Poissons Ratio (x) = 2.09127 0.14553
# Poissons Ratio (y) = 0.35057 0.50877
# Poissons Ratio (z) = 0.08375 1.74659
#
# Static dielectric constant tensor:
#      x y z
#    x 1.918150 0.000000 0.159110 
#    y 0.000000 1.834290 0.000000 
#    z 0.159110 0.000000 1.893420 
# 
# From -- ./inp_files/7463.got.cif
#   From: 2010.05.17/outbox.cif.g08.bks.cpg/sg9_4_cif.got.tgz:7463.got - 2010.06.03 20:04:27.
