data_PCOD9136085
_publ_section_title
;
Structure prediction by ZEFSAII (Michael W. Deem and Ramdas Pophale) SiO2 
 PCOD9136085
Probable space group: C C
;
_chemical_formula_sum "Si O2"
_cell_formula_units_Z 32
_cell_length_a 15.631504
_cell_length_b 16.360616
_cell_length_c 10.841555
_cell_angle_alpha 90.000000
_cell_angle_beta 146.226112
_cell_angle_gamma 90.000000
_cell_volume 1541.351994
_symmetry_space_group_name_H-M "C C"
_symmetry_group_IT_number 9
_symmetry_cell_setting 'monoclinic'
loop_
_space_group_symop_operation_xyz
x,y,z
x,-y,1/2+z
1/2+x,1/2+y,z
1/2+x,1/2-y,1/2+z
loop_
_atom_site_type_symbol
_atom_site_label
_atom_site_fract_x
_atom_site_fract_y
_atom_site_fract_z
Si Si1 0.159450 0.526275 0.380230
Si Si2 0.082258 0.223966 0.226637
Si Si3 0.306925 0.854995 0.147284
Si Si4 0.966068 0.486235 0.903556
Si Si5 0.902063 0.696802 0.295146
Si Si6 0.818179 0.139986 0.078208
Si Si7 0.540956 0.278750 0.998491
Si Si8 0.133624 0.709231 0.366832
O O1 0.047495 0.512510 0.128606
O O2 0.079667 0.514599 0.419644
O O3 0.285880 0.454896 0.520875
O O4 0.209811 0.620826 0.433324
O O5 0.227505 0.162838 0.419947
O O6 0.161461 0.308555 0.370575
O O7 0.942391 0.180572 0.133383
O O8 0.009686 0.248334 0.010812
O O9 0.336811 0.948030 0.213918
O O10 0.465147 0.805402 0.356118
O O11 0.184573 0.814629 0.094941
O O12 0.901967 0.395277 0.843179
O O13 0.974828 0.692044 0.246198
O O14 0.740371 0.739550 0.085292
O O15 0.898808 0.158712 0.306274
O O16 0.596600 0.259443 0.200781
#
# Coordination Sequence:
#
# PCOD9136085 Si02
#       8
#     4   4   4   4   4   4   4   4
#     4  11  25  43  69  97 134 178 226 272 334 403
#     4  10  21  38  69  93 131 168 226 270 326 396
#     4  10  22  40  69 101 125 175 227 279 322 396
#     4  11  25  43  69  97 134 178 226 272 334 403
#     4  11  24  43  66  96 133 179 215 273 344 401
#     4  10  22  40  69 101 125 175 227 279 322 396
#     4  10  21  38  69  93 131 168 226 270 326 396
#     4  11  24  43  66  96 133 179 215 273 344 401
#
# _framework density 20.760995999999999
#
# number of rings (size 3 to 8) (size 9 to 14) (size 15 to 20)
#    0.000    1.500    2.500    1.500   10.500    2.000 
#    4.500    1.250    0.000    0.000    0.000    0.000 
#    0.000    0.000    0.000    0.000    0.000    0.000 
#
# Total GULP energy -89240.359469 kJ/mol
# GULP energy per Si atom -5577.522467 kJ/mol
# Density = 2.071374 g / cm^3
# Si number density = 20.760996 Si / 1000 Ang^3
#
#
#
# Elastic Constant Matrix: (Units=GPa)
#
#
# Indices 1 2 3 4 5 6 
#
# 1 59.6786 20.8080 24.2706 0.0000 -2.1398 0.0000
# 2 20.8080 111.0730 43.9766 0.0000 -5.0863 0.0000
# 3 24.2706 43.9766 111.7908 0.0000 -14.7792 0.0000
# 4 0.0000 0.0000 0.0000 39.0631 0.0000 -0.1197
# 5 -2.1398 -5.0863 -14.7792 0.0000 31.0937 0.0000
# 6 0.0000 0.0000 0.0000 -0.1197 0.0000 14.5059
#
#
#
# Elastic Compliance Matrix: (Units=1/GPa)
#
#
# Indices 1 2 3 4 5 6 
#
# 1 0.018859 -0.002260 -0.003290 0.000000 -0.000635 0.000000
# 2 -0.002260 0.010937 -0.003837 0.000000 -0.000190 0.000000
# 3 -0.003290 -0.003837 0.011797 0.000000 0.004753 0.000000
# 4 0.000000 0.000000 0.000000 0.025600 0.000000 0.000211
# 5 -0.000635 -0.000190 0.004753 0.000000 0.034345 0.000000
# 6 0.000000 0.000000 0.000000 0.000211 0.000000 0.068939
#
#
# Mechanical properties :
#
#
# Convention : Reuss Voigt Hill
#
# Bulk Modulus (GPa) = 43.81913 51.18362 47.50137
# Shear Modulus (GPa) = 25.39905 29.83168 27.61537
#
# Velocity S-wave (km/s) = 3.50151 3.79477 3.65109
# Velocity P-wave (km/s) = 6.12370 6.62628 6.37994
#
# Compressibility (1/GPa) = 0.02282108
#
# Stress axis : x y z
#
# Youngs Moduli (GPa) = 53.02405 91.43420 84.76546
#
# Poissons Ratio (x) = 0.20661 0.27884
# Poissons Ratio (y) = 0.11982 0.32524
# Poissons Ratio (z) = 0.17443 0.35082
#
# Static dielectric constant tensor:
#      x y z
#    x 1.814320 0.000000 -0.014660 
#    y 0.000000 1.742840 0.000000 
#    z -0.014660 0.000000 1.743320 
# 
# From -- ./inp_files/7655.got.cif
#   From: 2010.05.17/outbox.cif.g08.bks.cpg/sg9_4_cif.got.tgz:7655.got - 2010.06.03 20:04:27.
