data_PCOD9136303
_publ_section_title
;
Structure prediction by ZEFSAII (Michael W. Deem and Ramdas Pophale) SiO2 
 PCOD9136303
Probable space group: C C
;
_chemical_formula_sum "Si O2"
_cell_formula_units_Z 24
_cell_length_a 11.243632
_cell_length_b 12.487217
_cell_length_c 8.289977
_cell_angle_alpha 90.000000
_cell_angle_beta 47.715499
_cell_angle_gamma 90.000000
_cell_volume 861.088201
_symmetry_space_group_name_H-M "C C"
_symmetry_group_IT_number 9
_symmetry_cell_setting 'monoclinic'
loop_
_space_group_symop_operation_xyz
x,y,z
x,-y,1/2+z
1/2+x,1/2+y,z
1/2+x,1/2-y,1/2+z
loop_
_atom_site_type_symbol
_atom_site_label
_atom_site_fract_x
_atom_site_fract_y
_atom_site_fract_z
Si Si1 0.231110 0.562245 0.150430
Si Si2 0.876601 0.667253 0.691641
Si Si3 0.394892 0.389553 0.799702
Si Si4 0.138963 0.824107 0.844393
Si Si5 0.981797 0.400738 0.429218
Si Si6 0.609979 0.712426 0.724522
O O1 0.386566 0.569736 0.124134
O O2 0.070092 0.513675 0.381134
O O3 0.207602 0.677521 0.091099
O O4 0.274159 0.470989 0.989159
O O5 0.819340 0.771476 0.850245
O O6 0.728869 0.634337 0.714143
O O7 0.928994 0.593626 0.790268
O O8 0.997957 0.728875 0.459583
O O9 0.546320 0.378560 0.778186
O O10 0.106208 0.697529 0.841267
O O11 0.322713 0.865801 0.674216
O O12 0.066079 0.839178 0.092680
#
# Coordination Sequence:
#
# PCOD9136303 Si02
#       6
#     4   4   4   4   4   4
#     4  11  23  43  70 102 137 176 229 296 351 400
#     4  10  21  40  65  96 134 180 227 274 341 420
#     4  10  23  42  67  99 137 180 228 285 348 412
#     4  11  23  41  69 102 139 190 237 278 344 430
#     4  11  21  41  70 103 139 184 232 289 348 412
#     4  11  23  41  67  98 134 180 233 286 340 410
#
# _framework density 27.871711999999999
#
# number of rings (size 3 to 8) (size 9 to 14) (size 15 to 20)
#    0.000    1.333    0.000    8.000    0.000    2.667 
#    0.000   10.000    0.000    0.000    0.000    0.000 
#    0.000    0.000    0.000    0.000    0.000    0.000 
#
# Total GULP energy -67035.618890 kJ/mol
# GULP energy per Si atom -5586.301574 kJ/mol
# Density = 2.780827 g / cm^3
# Si number density = 27.871712 Si / 1000 Ang^3
#
#
#
# Elastic Constant Matrix: (Units=GPa)
#
#
# Indices 1 2 3 4 5 6 
#
# 1 181.1775 35.7851 41.5829 0.0000 20.7773 0.0000
# 2 35.7851 72.8601 -5.2735 0.0000 -0.2736 0.0000
# 3 41.5829 -5.2735 111.7620 0.0000 7.7153 0.0000
# 4 0.0000 0.0000 0.0000 30.1791 0.0000 -6.4728
# 5 20.7773 -0.2736 7.7153 0.0000 49.7918 0.0000
# 6 0.0000 0.0000 0.0000 -6.4728 0.0000 49.1735
#
#
#
# Elastic Compliance Matrix: (Units=1/GPa)
#
#
# Indices 1 2 3 4 5 6 
#
# 1 0.007163 -0.003720 -0.002661 0.000000 -0.002597 0.000000
# 2 -0.003720 0.015704 0.002034 0.000000 0.001324 0.000000
# 3 -0.002661 0.002034 0.010064 0.000000 -0.000438 0.000000
# 4 0.000000 0.000000 0.000000 0.034098 0.000000 0.004488
# 5 -0.002597 0.001324 -0.000438 0.000000 0.021242 0.000000
# 6 0.000000 0.000000 0.000000 0.004488 0.000000 0.020927
#
#
# Mechanical properties :
#
#
# Convention : Reuss Voigt Hill
#
# Bulk Modulus (GPa) = 41.26177 56.66538 48.96358
# Shear Modulus (GPa) = 39.69097 45.40922 42.55009
#
# Velocity S-wave (km/s) = 3.77777 4.04074 3.91146
# Velocity P-wave (km/s) = 5.81936 6.49192 6.16482
#
# Compressibility (1/GPa) = 0.02423551
#
# Stress axis : x y z
#
# Youngs Moduli (GPa) = 139.60770 63.67641 99.36434
#
# Poissons Ratio (x) = 0.23690 0.26444
# Poissons Ratio (y) = 0.51940 -0.20210
# Poissons Ratio (z) = 0.37155 -0.12951
#
# Static dielectric constant tensor:
#      x y z
#    x 2.200260 0.000000 -0.125790 
#    y 0.000000 2.168860 0.000000 
#    z -0.125790 0.000000 2.453790 
# 
# From -- ./inp_files/7150.got.cif
#   From: 2010.05.17/outbox.cif.g08.bks.cpg/sg9_4_cif.got.tgz:7150.got - 2010.06.03 20:04:27.
