data_PCOD9136461
_publ_section_title
;
Structure prediction by ZEFSAII (Michael W. Deem and Ramdas Pophale) SiO2 
 PCOD9136461
Probable space group: C C
;
_chemical_formula_sum "Si O2"
_cell_formula_units_Z 32
_cell_length_a 12.219921
_cell_length_b 7.487384
_cell_length_c 30.487692
_cell_angle_alpha 90.000000
_cell_angle_beta 150.127327
_cell_angle_gamma 90.000000
_cell_volume 1389.367441
_symmetry_space_group_name_H-M "C C"
_symmetry_group_IT_number 9
_symmetry_cell_setting 'monoclinic'
loop_
_space_group_symop_operation_xyz
x,y,z
x,-y,1/2+z
1/2+x,1/2+y,z
1/2+x,1/2-y,1/2+z
loop_
_atom_site_type_symbol
_atom_site_label
_atom_site_fract_x
_atom_site_fract_y
_atom_site_fract_z
Si Si1 0.479980 0.985251 0.257230
Si Si2 0.085224 0.527290 0.594100
Si Si3 0.788725 0.578444 0.563368
Si Si4 0.124876 0.613370 0.394835
Si Si5 0.066493 0.902023 0.266402
Si Si6 0.041194 0.056136 0.065531
Si Si7 0.456190 0.135899 0.958713
Si Si8 0.144988 0.783478 0.743142
O O1 0.554033 0.972299 0.332906
O O2 0.547164 0.185366 0.261804
O O3 0.218021 0.977490 0.160709
O O4 0.582020 0.829455 0.264157
O O5 0.893740 0.461671 0.560729
O O6 0.031088 0.734097 0.567703
O O7 0.084477 0.447449 0.544692
O O8 0.329180 0.524786 0.700026
O O9 0.657136 0.484425 0.558025
O O10 0.614513 0.728587 0.488064
O O11 0.999431 0.684763 0.656080
O O12 0.299312 0.524296 0.487644
O O13 0.276776 0.750591 0.422251
O O14 0.905692 0.718195 0.329830
O O15 0.291356 0.965190 0.368673
O O16 0.085424 0.006875 0.227098
#
# Coordination Sequence:
#
# PCOD9136461 Si02
#       8
#     4   4   4   4   4   4   4   4
#     4   9  21  42  63  85 134 165 202 274 312 367
#     4  11  22  43  65  90 131 167 209 271 318 375
#     4  10  21  41  66  88 128 171 205 264 325 365
#     4  10  22  40  60  92 126 162 216 259 315 382
#     4  10  22  41  65  95 128 166 220 263 314 392
#     4   9  21  39  62  94 122 162 214 258 310 383
#     4  10  22  40  60  92 127 163 215 263 313 387
#     4  11  21  40  67  92 126 174 209 262 327 377
#
# _framework density 23.032063999999998
#
# number of rings (size 3 to 8) (size 9 to 14) (size 15 to 20)
#    0.000    2.000    1.250    2.250    3.500    3.000 
#    0.000    5.000    0.000    0.000    0.000    0.000 
#    0.000    0.000    0.000    0.000    0.000    0.000 
#
# Total GULP energy -89137.465831 kJ/mol
# GULP energy per Si atom -5571.091614 kJ/mol
# Density = 2.297964 g / cm^3
# Si number density = 23.032064 Si / 1000 Ang^3
#
#
#
# Elastic Constant Matrix: (Units=GPa)
#
#
# Indices 1 2 3 4 5 6 
#
# 1 36.2040 14.5349 8.1260 0.0000 15.6124 -0.0001
# 2 14.5349 34.7764 8.9805 0.0002 1.6194 -0.0002
# 3 8.1260 8.9805 133.1194 0.0000 14.2366 -0.0001
# 4 0.0000 0.0002 0.0000 25.0541 -0.0001 -0.3746
# 5 15.6124 1.6194 14.2366 -0.0001 38.0876 0.0003
# 6 -0.0001 -0.0002 -0.0001 -0.3746 0.0003 21.1187
#
#
#
# Elastic Compliance Matrix: (Units=1/GPa)
#
#
# Indices 1 2 3 4 5 6 
#
# 1 0.041234 -0.016563 0.000346 0.000000 -0.016327 0.000000
# 2 -0.016563 0.035928 -0.002058 0.000000 0.006031 0.000000
# 3 0.000346 -0.002058 0.007953 0.000000 -0.003027 0.000000
# 4 0.000000 0.000000 0.000000 0.039924 0.000000 0.000708
# 5 -0.016327 0.006031 -0.003027 0.000000 0.033823 -0.000001
# 6 0.000000 0.000000 0.000000 0.000708 -0.000001 0.047364
#
#
# Mechanical properties :
#
#
# Convention : Reuss Voigt Hill
#
# Bulk Modulus (GPa) = 20.59000 29.70917 25.14959
# Shear Modulus (GPa) = 19.30764 28.34929 23.82846
#
# Velocity S-wave (km/s) = 2.89847 3.51217 3.21998
# Velocity P-wave (km/s) = 4.49006 5.41979 4.97669
#
# Compressibility (1/GPa) = 0.04856727
#
# Stress axis : x y z
#
# Youngs Moduli (GPa) = 24.25180 27.83324 125.73089
#
# Poissons Ratio (x) = 0.46100 -0.04356
# Poissons Ratio (y) = 0.40168 0.25872
# Poissons Ratio (z) = -0.00840 0.05727
#
# Static dielectric constant tensor:
#      x y z
#    x 1.968000 0.000000 -0.086950 
#    y 0.000000 1.888970 0.000000 
#    z -0.086950 0.000000 2.046340 
# 
# From -- ./inp_files/24293.got.cif
#   From: 2010.05.17/outbox.cif.g08.bks.cpg/sg9_13_cif.got.tgz:24293.got - 2010.06.03 20:04:27.
