data_PCOD9136745
_publ_section_title
;
Structure prediction by ZEFSAII (Michael W. Deem and Ramdas Pophale) SiO2 
 PCOD9136745
Probable space group: C C
;
_chemical_formula_sum "Si O2"
_cell_formula_units_Z 32
_cell_length_a 9.195467
_cell_length_b 25.079185
_cell_length_c 9.181630
_cell_angle_alpha 90.000000
_cell_angle_beta 138.205219
_cell_angle_gamma 90.000000
_cell_volume 1411.185350
_symmetry_space_group_name_H-M "C C"
_symmetry_group_IT_number 9
_symmetry_cell_setting 'monoclinic'
loop_
_space_group_symop_operation_xyz
x,y,z
x,-y,1/2+z
1/2+x,1/2+y,z
1/2+x,1/2-y,1/2+z
loop_
_atom_site_type_symbol
_atom_site_label
_atom_site_fract_x
_atom_site_fract_y
_atom_site_fract_z
Si Si1 0.628770 0.606804 0.245820
Si Si2 0.430424 0.090725 0.218197
Si Si3 0.932409 0.070477 0.588347
Si Si4 0.900702 0.531708 0.639109
Si Si5 0.452523 0.653603 0.382405
Si Si6 0.480566 0.759273 0.311973
Si Si7 0.362324 0.535173 0.856064
Si Si8 0.973289 0.622765 0.931385
O O1 0.809183 0.619151 0.259709
O O2 0.707325 0.557303 0.402849
O O3 0.585935 0.652155 0.330553
O O4 0.425259 0.585409 0.003125
O O5 0.688854 0.093918 0.425700
O O6 0.369820 0.112324 0.013890
O O7 0.379420 0.027563 0.184095
O O8 0.046809 0.118018 0.582721
O O9 0.959591 0.047648 0.770831
O O10 0.945088 0.019549 0.490816
O O11 0.102628 0.529683 0.675881
O O12 0.950425 0.572397 0.807091
O O13 0.423433 0.715508 0.392783
O O14 0.230031 0.625554 0.167279
O O15 0.437593 0.820261 0.325932
O O16 0.764708 0.754622 0.534448
#
# Coordination Sequence:
#
# PCOD9136745 Si02
#       8
#     4   4   4   4   4   4   4   4
#     4  12  23  36  59  94 124 165 220 267 331 397
#     4  10  23  37  62  95 130 173 215 274 330 413
#     4  10  22  41  59  87 135 171 215 267 345 393
#     4  11  22  39  59  91 130 171 213 266 335 399
#     4  10  22  40  68  96 125 175 223 284 340 411
#     4  10  22  43  72 101 131 181 244 288 349 414
#     4  11  23  37  58  89 129 170 209 273 323 410
#     4  10  21  43  69  91 134 178 223 281 341 415
#
# _framework density 22.675972000000002
#
# number of rings (size 3 to 8) (size 9 to 14) (size 15 to 20)
#    0.000    1.500    2.500    2.250   10.500    2.000 
#    0.000    0.000    2.750    3.000    0.000    0.000 
#    0.000    0.000    0.000    0.000    0.000    0.000 
#
# Total GULP energy -89107.429594 kJ/mol
# GULP energy per Si atom -5569.214350 kJ/mol
# Density = 2.262436 g / cm^3
# Si number density = 22.675972 Si / 1000 Ang^3
#
#
#
# Elastic Constant Matrix: (Units=GPa)
#
#
# Indices 1 2 3 4 5 6 
#
# 1 126.8746 24.6150 32.1684 0.0000 -25.0233 0.0000
# 2 24.6150 82.3950 22.4565 0.0000 -13.8942 0.0000
# 3 32.1684 22.4565 101.3696 0.0000 -14.2382 0.0000
# 4 0.0000 0.0000 0.0000 33.8438 0.0000 9.0241
# 5 -25.0233 -13.8942 -14.2382 0.0000 38.3149 0.0000
# 6 0.0000 0.0000 0.0000 9.0241 0.0000 13.1201
#
#
#
# Elastic Compliance Matrix: (Units=1/GPa)
#
#
# Indices 1 2 3 4 5 6 
#
# 1 0.009678 -0.001489 -0.002036 0.000000 0.005024 0.000000
# 2 -0.001489 0.013698 -0.002111 0.000000 0.003210 0.000000
# 3 -0.002036 -0.002111 0.011273 0.000000 0.002094 0.000000
# 4 0.000000 0.000000 0.000000 0.036183 0.000000 -0.024887
# 5 0.005024 0.003210 0.002094 0.000000 0.031323 0.000000
# 6 0.000000 0.000000 0.000000 -0.024887 0.000000 0.093336
#
#
# Mechanical properties :
#
#
# Convention : Reuss Voigt Hill
#
# Bulk Modulus (GPa) = 42.77710 52.12433 47.45071
# Shear Modulus (GPa) = 23.30403 32.48239 27.89321
#
# Velocity S-wave (km/s) = 3.20925 3.78889 3.51105
# Velocity P-wave (km/s) = 5.71295 6.49441 6.11618
#
# Compressibility (1/GPa) = 0.02337700
#
# Stress axis : x y z
#
# Youngs Moduli (GPa) = 103.33046 73.00195 88.71028
#
# Poissons Ratio (x) = 0.10871 0.18057
# Poissons Ratio (y) = 0.15388 0.18728
# Poissons Ratio (z) = 0.21033 0.15411
#
# Static dielectric constant tensor:
#      x y z
#    x 1.957070 0.000000 0.140950 
#    y 0.000000 1.818650 0.000000 
#    z 0.140950 0.000000 2.048620 
# 
# From -- ./inp_files/6388.got.cif
#   From: 2010.05.17/outbox.cif.g08.bks.cpg/sg9_4_cif.got.tgz:6388.got - 2010.06.03 20:04:27.
