data_PCOD9136035
_publ_section_title
;
Structure prediction by ZEFSAII (Michael W. Deem and Ramdas Pophale) SiO2 
 PCOD9136035
Probable space group: C C
;
_chemical_formula_sum "Si O2"
_cell_formula_units_Z 28
_cell_length_a 5.629910
_cell_length_b 13.619869
_cell_length_c 13.710168
_cell_angle_alpha 90.000000
_cell_angle_beta 102.552683
_cell_angle_gamma 90.000000
_cell_volume 1026.147875
_symmetry_space_group_name_H-M "C C"
_symmetry_group_IT_number 9
_symmetry_cell_setting 'monoclinic'
loop_
_space_group_symop_operation_xyz
x,y,z
x,-y,1/2+z
1/2+x,1/2+y,z
1/2+x,1/2-y,1/2+z
loop_
_atom_site_type_symbol
_atom_site_label
_atom_site_fract_x
_atom_site_fract_y
_atom_site_fract_z
Si Si1 0.060980 0.790901 0.299300
Si Si2 0.886140 0.221627 0.982044
Si Si3 0.506467 0.520943 0.106351
Si Si4 0.434798 0.756721 0.571768
Si Si5 0.675182 0.490683 0.841669
Si Si6 0.178689 0.426892 0.847759
Si Si7 0.013063 0.489548 0.623894
O O1 0.848723 0.788319 0.362381
O O2 0.977418 0.791562 0.180760
O O3 0.200468 0.891368 0.336602
O O4 0.196992 0.687196 0.321041
O O5 0.940880 0.118810 0.041577
O O6 0.159421 0.265926 0.014834
O O7 0.650262 0.264176 0.014279
O O8 0.586290 0.547410 0.226226
O O9 0.246200 0.469877 0.089727
O O10 0.746932 0.465974 0.092189
O O11 0.463070 0.875284 0.591193
O O12 0.448379 0.465874 0.891838
O O13 0.935858 0.444882 0.890063
O O14 0.096079 0.487493 0.743754
#
# Coordination Sequence:
#
# PCOD9136035 Si02
#       7
#     4   4   4   4   4   4   4
#     4  11  24  42  74  99 132 191 233 272 353 421
#     4  10  21  38  63  96 134 176 224 281 341 402
#     4   8  14  30  50  77 116 152 194 258 313 366
#     4   9  20  37  58  92 130 167 220 279 330 395
#     4  10  21  38  64  94 128 174 225 277 341 405
#     4   9  20  37  57  92 132 163 217 285 325 390
#     4   7  12  26  50  70 104 155 187 234 315 359
#
# _framework density 27.286515000000001
#
# number of rings (size 3 to 8) (size 9 to 14) (size 15 to 20)
#    0.000    2.857    0.000    1.714    0.000    5.714 
#    0.000    2.857    0.000    6.857    0.000    0.000 
#    0.000    0.000    0.000    0.000    0.000    0.000 
#
# Total GULP energy -78272.501365 kJ/mol
# GULP energy per Si atom -5590.892955 kJ/mol
# Density = 2.722441 g / cm^3
# Si number density = 27.286515 Si / 1000 Ang^3
#
#
#
# Elastic Constant Matrix: (Units=GPa)
#
#
# Indices 1 2 3 4 5 6 
#
# 1 293.1290 40.7227 84.2550 0.0000 -37.5614 0.0000
# 2 40.7227 155.5839 14.3955 0.0000 1.4661 0.0000
# 3 84.2550 14.3955 148.1330 0.0000 -9.9721 0.0000
# 4 0.0000 0.0000 0.0000 24.6490 0.0000 5.8240
# 5 -37.5614 1.4661 -9.9721 0.0000 49.5219 0.0000
# 6 0.0000 0.0000 0.0000 5.8240 0.0000 6.5026
#
#
#
# Elastic Compliance Matrix: (Units=1/GPa)
#
#
# Indices 1 2 3 4 5 6 
#
# 1 0.004612 -0.001022 -0.002318 0.000000 0.003062 0.000000
# 2 -0.001022 0.006717 -0.000139 0.000000 -0.001002 0.000000
# 3 -0.002318 -0.000139 0.008074 0.000000 -0.000128 0.000000
# 4 0.000000 0.000000 0.000000 0.051459 0.000000 -0.046088
# 5 0.003062 -0.001002 -0.000128 0.000000 0.022519 0.000000
# 6 0.000000 0.000000 0.000000 -0.046088 0.000000 0.195062
#
#
# Mechanical properties :
#
#
# Convention : Reuss Voigt Hill
#
# Bulk Modulus (GPa) = 80.34752 97.28802 88.81777
# Shear Modulus (GPa) = 16.69176 46.63289 31.66232
#
# Velocity S-wave (km/s) = 2.47598 4.13850 3.41011
# Velocity P-wave (km/s) = 6.13871 7.65297 6.93728
#
# Compressibility (1/GPa) = 0.01244594
#
# Stress axis : x y z
#
# Youngs Moduli (GPa) = 216.83068 148.87399 123.85586
#
# Poissons Ratio (x) = 0.15208 0.28707
# Poissons Ratio (y) = 0.22150 0.01724
# Poissons Ratio (z) = 0.50257 0.02072
#
# Static dielectric constant tensor:
#      x y z
#    x 2.121710 0.000000 -0.080800 
#    y 0.000000 2.083300 0.000000 
#    z -0.080800 0.000000 2.229980 
# 
# From -- ./inp_files/21718.got.cif
#   From: 2010.05.17/outbox.cif.g08.bks.cpg/sg9_11_cif.got.tgz:21718.got - 2010.06.03 20:04:27.
