data_PCOD9136946
_publ_section_title
;
Structure prediction by ZEFSAII (Michael W. Deem and Ramdas Pophale) SiO2 
 PCOD9136946
Probable space group: C C
;
_chemical_formula_sum "Si O2"
_cell_formula_units_Z 32
_cell_length_a 12.391507
_cell_length_b 12.780908
_cell_length_c 8.994812
_cell_angle_alpha 90.000000
_cell_angle_beta 87.636201
_cell_angle_gamma 90.000000
_cell_volume 1423.338584
_symmetry_space_group_name_H-M "C C"
_symmetry_group_IT_number 9
_symmetry_cell_setting 'monoclinic'
loop_
_space_group_symop_operation_xyz
x,y,z
x,-y,1/2+z
1/2+x,1/2+y,z
1/2+x,1/2-y,1/2+z
loop_
_atom_site_type_symbol
_atom_site_label
_atom_site_fract_x
_atom_site_fract_y
_atom_site_fract_z
Si Si1 0.531030 0.249659 0.274840
Si Si2 0.573087 0.450331 0.389197
Si Si3 0.230722 0.006808 0.125550
Si Si4 0.382963 0.939190 0.870561
Si Si5 0.696402 0.996062 0.587929
Si Si6 0.763167 0.849022 0.822162
Si Si7 0.060521 0.609732 0.849037
Si Si8 0.987232 0.814215 0.936092
O O1 0.497343 0.351327 0.372844
O O2 0.471369 0.149457 0.346242
O O3 0.658283 0.221021 0.289791
O O4 0.496765 0.276326 0.107024
O O5 0.642664 0.451397 0.233720
O O6 0.659474 0.429652 0.513227
O O7 0.520280 0.564151 0.417212
O O8 0.304731 0.069855 0.234050
O O9 0.309419 0.934970 0.021648
O O10 0.444628 0.051063 0.862258
O O11 0.741039 0.075964 0.464840
O O12 0.625318 0.058395 0.711105
O O13 0.778451 0.925661 0.678940
O O14 0.618317 0.921058 0.499259
O O15 0.871355 0.793440 0.867822
O O16 0.062115 0.734336 0.840826
#
# Coordination Sequence:
#
# PCOD9136946 Si02
#       8
#     4   4   4   4   4   4   4   4
#     4  12  25  47  71 104 152 184 251 307 358 434
#     4  11  26  49  65 102 154 189 231 303 359 449
#     4  10  24  45  73 103 139 186 245 290 372 425
#     4  11  22  43  78 107 133 188 243 314 351 432
#     4  10  21  46  71 105 140 180 238 306 361 418
#     4  11  26  44  77 105 144 193 237 306 362 440
#     4  11  21  44  73 100 138 180 242 299 362 415
#     4  12  27  46  72 104 150 200 231 297 375 443
#
# _framework density 22.482354000000001
#
# number of rings (size 3 to 8) (size 9 to 14) (size 15 to 20)
#    0.000    1.000    5.000    1.500    7.000    1.000 
#    2.250    1.250    0.000    0.000    0.000    0.000 
#    0.000    0.000    0.000    0.000    0.000    0.000 
#
# Total GULP energy -89405.400919 kJ/mol
# GULP energy per Si atom -5587.837557 kJ/mol
# Density = 2.243118 g / cm^3
# Si number density = 22.482354 Si / 1000 Ang^3
#
#
#
# Elastic Constant Matrix: (Units=GPa)
#
#
# Indices 1 2 3 4 5 6 
#
# 1 60.1128 13.4497 30.3965 0.0000 22.4845 0.0000
# 2 13.4497 114.2377 20.3644 0.0000 0.6116 0.0000
# 3 30.3965 20.3644 127.4189 0.0000 15.8252 0.0000
# 4 0.0000 0.0000 0.0000 18.4985 0.0000 15.4306
# 5 22.4845 0.6116 15.8252 0.0000 25.2384 0.0000
# 6 0.0000 0.0000 0.0000 15.4306 0.0000 46.4216
#
#
#
# Elastic Compliance Matrix: (Units=1/GPa)
#
#
# Indices 1 2 3 4 5 6 
#
# 1 0.027104 -0.002478 -0.003338 0.000000 -0.021994 0.000000
# 2 -0.002478 0.009250 -0.001229 0.000000 0.002754 0.000000
# 3 -0.003338 -0.001229 0.009183 0.000000 -0.002754 0.000000
# 4 0.000000 0.000000 0.000000 0.074798 0.000000 -0.024863
# 5 -0.021994 0.002754 -0.002754 0.000000 0.060876 0.000000
# 6 0.000000 0.000000 0.000000 -0.024863 0.000000 0.029806
#
#
# Mechanical properties :
#
#
# Convention : Reuss Voigt Hill
#
# Bulk Modulus (GPa) = 31.80081 47.79894 39.79987
# Shear Modulus (GPa) = 21.22320 33.86895 27.54608
#
# Velocity S-wave (km/s) = 3.07578 3.88554 3.50413
# Velocity P-wave (km/s) = 5.17585 6.43713 5.84064
#
# Compressibility (1/GPa) = 0.03144574
#
# Stress axis : x y z
#
# Youngs Moduli (GPa) = 36.89441 108.11007 108.89670
#
# Poissons Ratio (x) = 0.26793 0.36352
# Poissons Ratio (y) = 0.09143 0.13386
# Poissons Ratio (z) = 0.12316 0.13289
#
# Static dielectric constant tensor:
#      x y z
#    x 1.871640 0.000000 -0.010110 
#    y 0.000000 1.868300 0.000000 
#    z -0.010110 0.000000 1.819640 
# 
# From -- ./inp_files/9140.got.cif
#   From: 2010.05.17/outbox.cif.g08.bks.cpg/sg9_5_cif.got.tgz:9140.got - 2010.06.03 20:04:27.
