data_PCOD9136853
_publ_section_title
;
Structure prediction by ZEFSAII (Michael W. Deem and Ramdas Pophale) SiO2 
 PCOD9136853
Probable space group: C C
;
_chemical_formula_sum "Si O2"
_cell_formula_units_Z 28
_cell_length_a 15.066506
_cell_length_b 9.779503
_cell_length_c 8.799686
_cell_angle_alpha 90.000000
_cell_angle_beta 117.792443
_cell_angle_gamma 90.000000
_cell_volume 1147.002328
_symmetry_space_group_name_H-M "C C"
_symmetry_group_IT_number 9
_symmetry_cell_setting 'monoclinic'
loop_
_space_group_symop_operation_xyz
x,y,z
x,-y,1/2+z
1/2+x,1/2+y,z
1/2+x,1/2-y,1/2+z
loop_
_atom_site_type_symbol
_atom_site_label
_atom_site_fract_x
_atom_site_fract_y
_atom_site_fract_z
Si Si1 0.222410 0.085554 0.413600
Si Si2 0.530771 0.408460 0.936865
Si Si3 0.911753 0.763391 0.570563
Si Si4 0.117449 0.710668 0.594791
Si Si5 0.757603 0.728771 0.937272
Si Si6 0.927323 0.874605 0.181820
Si Si7 0.779351 0.009073 0.784829
O O1 0.146931 0.111167 0.494180
O O2 0.328913 0.150643 0.535954
O O3 0.168733 0.166259 0.232355
O O4 0.236899 0.927608 0.383263
O O5 0.470040 0.315355 0.767122
O O6 0.508233 0.563044 0.862270
O O7 0.486822 0.610360 0.569349
O O8 0.849954 0.883443 0.434351
O O9 0.999998 0.707169 0.532735
O O10 0.162746 0.723907 0.462772
O O11 0.169274 0.572347 0.699308
O O12 0.863513 0.735468 0.117174
O O13 0.830827 0.968228 0.161383
O O14 0.776057 0.850688 0.830035
#
# Coordination Sequence:
#
# PCOD9136853 Si02
#       7
#     4   4   4   4   4   4   4
#     4  10  25  42  69 107 144 176 232 289 347 417
#     4  11  22  42  73 100 136 188 233 277 349 414
#     4  10  21  48  70  97 144 184 228 286 346 417
#     4   9  23  44  69  97 139 189 228 284 350 410
#     4  11  22  41  69 102 133 178 231 284 341 408
#     4  11  22  41  71 100 133 185 234 278 341 415
#     4  10  21  44  71 101 135 184 240 280 344 419
#
# _framework density 24.411459000000001
#
# number of rings (size 3 to 8) (size 9 to 14) (size 15 to 20)
#    0.000    1.714    2.857    0.000    6.000    1.143 
#    2.571    4.286    0.000    0.000    0.000    0.000 
#    0.000    0.000    0.000    0.000    0.000    0.000 
#
# Total GULP energy -78104.331847 kJ/mol
# GULP energy per Si atom -5578.880846 kJ/mol
# Density = 2.435590 g / cm^3
# Si number density = 24.411459 Si / 1000 Ang^3
#
#
#
# Elastic Constant Matrix: (Units=GPa)
#
#
# Indices 1 2 3 4 5 6 
#
# 1 219.0129 63.0570 52.7383 0.0000 19.1540 0.0000
# 2 63.0570 131.3208 28.9353 0.0000 15.1041 0.0000
# 3 52.7383 28.9353 71.7478 0.0000 11.7642 0.0000
# 4 0.0000 0.0000 0.0000 21.9603 0.0000 4.3322
# 5 19.1540 15.1041 11.7642 0.0000 50.0515 0.0000
# 6 0.0000 0.0000 0.0000 4.3322 0.0000 39.8693
#
#
#
# Elastic Compliance Matrix: (Units=1/GPa)
#
#
# Indices 1 2 3 4 5 6 
#
# 1 0.006074 -0.002044 -0.003495 0.000000 -0.000886 0.000000
# 2 -0.002044 0.009205 -0.001958 0.000000 -0.001535 0.000000
# 3 -0.003495 -0.001958 0.017660 0.000000 -0.002223 0.000000
# 4 0.000000 0.000000 0.000000 0.046534 0.000000 -0.005056
# 5 -0.000886 -0.001535 -0.002223 0.000000 0.021304 0.000000
# 6 0.000000 0.000000 0.000000 -0.005056 0.000000 0.025631
#
#
# Mechanical properties :
#
#
# Convention : Reuss Voigt Hill
#
# Bulk Modulus (GPa) = 55.72543 79.06030 67.39286
# Shear Modulus (GPa) = 33.92514 40.86628 37.39571
#
# Velocity S-wave (km/s) = 3.73194 4.09597 3.91818
# Velocity P-wave (km/s) = 6.43793 7.40447 6.93805
#
# Compressibility (1/GPa) = 0.01794513
#
# Stress axis : x y z
#
# Youngs Moduli (GPa) = 164.64830 108.64190 56.62392
#
# Poissons Ratio (x) = 0.22212 0.19788
# Poissons Ratio (y) = 0.33662 0.11085
# Poissons Ratio (z) = 0.57538 0.21268
#
# Static dielectric constant tensor:
#      x y z
#    x 1.951630 0.000000 -0.029620 
#    y 0.000000 1.984770 0.000000 
#    z -0.029620 0.000000 2.206920 
# 
# From -- ./inp_files/19185.got.cif
#   From: 2010.05.17/outbox.cif.g08.bks.cpg/sg9_10_cif.got.tgz:19185.got - 2010.06.03 20:04:27.
