data_PCOD9136984
_publ_section_title
;
Structure prediction by ZEFSAII (Michael W. Deem and Ramdas Pophale) SiO2 
 PCOD9136984
Probable space group: C C
;
_chemical_formula_sum "Si O2"
_cell_formula_units_Z 24
_cell_length_a 5.521256
_cell_length_b 21.037209
_cell_length_c 8.430664
_cell_angle_alpha 90.000000
_cell_angle_beta 88.790817
_cell_angle_gamma 90.000000
_cell_volume 979.018875
_symmetry_space_group_name_H-M "C C"
_symmetry_group_IT_number 9
_symmetry_cell_setting 'monoclinic'
loop_
_space_group_symop_operation_xyz
x,y,z
x,-y,1/2+z
1/2+x,1/2+y,z
1/2+x,1/2-y,1/2+z
loop_
_atom_site_type_symbol
_atom_site_label
_atom_site_fract_x
_atom_site_fract_y
_atom_site_fract_z
Si Si1 0.625000 0.525991 0.372620
Si Si2 0.990036 0.734282 0.438095
Si Si3 0.245247 0.352890 0.445033
Si Si4 0.812733 0.936661 0.154565
Si Si5 0.989086 0.237633 0.561852
Si Si6 0.954924 0.460168 0.599917
O O1 0.438647 0.491428 0.259089
O O2 0.476640 0.567799 0.497678
O O3 0.760670 0.468708 0.463378
O O4 0.822882 0.560413 0.261628
O O5 0.961626 0.807855 0.501043
O O6 0.745051 0.703629 0.514510
O O7 0.241646 0.708096 0.499009
O O8 0.981107 0.741428 0.247003
O O9 0.295732 0.376900 0.268381
O O10 0.025409 0.302864 0.458941
O O11 0.168289 0.413484 0.547038
O O12 0.555878 0.968158 0.118008
#
# Coordination Sequence:
#
# PCOD9136984 Si02
#       6
#     4   4   4   4   4   4
#     4  10  22  32  63  78 132 167 216 252 316 362
#     4  10  23  44  71  96 131 170 222 282 339 396
#     4  10  24  36  67  88 136 169 220 262 340 374
#     4  11  20  39  55  91 124 172 208 264 307 389
#     4  10  23  44  71  96 131 170 222 282 339 396
#     4  11  20  39  55  91 124 172 208 264 307 389
#
# _framework density 24.514339
#
# number of rings (size 3 to 8) (size 9 to 14) (size 15 to 20)
#    1.000    0.667    3.333    1.000    2.333    0.000 
#    3.000    3.333    0.000    0.000    0.000    0.000 
#    0.000    0.000    0.000    0.000    0.000    0.000 
#
# Total GULP energy -67010.477966 kJ/mol
# GULP energy per Si atom -5584.206497 kJ/mol
# Density = 2.445854 g / cm^3
# Si number density = 24.514339 Si / 1000 Ang^3
#
#
#
# Elastic Constant Matrix: (Units=GPa)
#
#
# Indices 1 2 3 4 5 6 
#
# 1 142.1298 0.7525 61.3188 0.0000 -13.1664 0.0000
# 2 0.7525 51.8986 5.3920 0.0000 -2.1427 0.0000
# 3 61.3188 5.3920 147.4851 0.0000 -34.7201 0.0000
# 4 0.0000 0.0000 0.0000 35.0976 0.0000 -6.9456
# 5 -13.1664 -2.1427 -34.7201 0.0000 47.7827 0.0000
# 6 0.0000 0.0000 0.0000 -6.9456 0.0000 18.2073
#
#
#
# Elastic Compliance Matrix: (Units=1/GPa)
#
#
# Indices 1 2 3 4 5 6 
#
# 1 0.008580 0.000243 -0.003639 0.000000 -0.000270 0.000000
# 2 0.000243 0.019356 -0.000710 0.000000 0.000419 0.000000
# 3 -0.003639 -0.000710 0.009742 0.000000 0.006044 0.000000
# 4 0.000000 0.000000 0.000000 0.030818 0.000000 0.011756
# 5 -0.000270 0.000419 0.006044 0.000000 0.025265 0.000000
# 6 0.000000 0.000000 0.000000 0.011756 0.000000 0.059408
#
#
# Mechanical properties :
#
#
# Convention : Reuss Voigt Hill
#
# Bulk Modulus (GPa) = 33.93910 52.93778 43.43844
# Shear Modulus (GPa) = 29.20497 38.48754 33.84625
#
# Velocity S-wave (km/s) = 3.45533 3.96662 3.71977
# Velocity P-wave (km/s) = 5.45836 6.52842 6.01722
#
# Compressibility (1/GPa) = 0.02946454
#
# Stress axis : x y z
#
# Youngs Moduli (GPa) = 116.55372 51.66387 102.64425
#
# Poissons Ratio (x) = -0.01253 0.37357
# Poissons Ratio (y) = -0.02828 0.07286
# Poissons Ratio (z) = 0.42419 0.03667
#
# Static dielectric constant tensor:
#      x y z
#    x 1.999790 0.000000 -0.027110 
#    y 0.000000 1.931750 0.000000 
#    z -0.027110 0.000000 1.918700 
# 
# From -- ./inp_files/3962.got.cif
#   From: 2010.05.17/outbox.cif.g08.bks.cpg/sg9_2_cif.got.tgz:3962.got - 2010.06.03 20:04:27.
