data_PCOD9136116
_publ_section_title
;
Structure prediction by ZEFSAII (Michael W. Deem and Ramdas Pophale) SiO2 
 PCOD9136116
Probable space group: C C
;
_chemical_formula_sum "Si O2"
_cell_formula_units_Z 28
_cell_length_a 24.677525
_cell_length_b 5.437573
_cell_length_c 9.096132
_cell_angle_alpha 90.000000
_cell_angle_beta 67.126428
_cell_angle_gamma 90.000000
_cell_volume 1124.592203
_symmetry_space_group_name_H-M "C C"
_symmetry_group_IT_number 9
_symmetry_cell_setting 'monoclinic'
loop_
_space_group_symop_operation_xyz
x,y,z
x,-y,1/2+z
1/2+x,1/2+y,z
1/2+x,1/2-y,1/2+z
loop_
_atom_site_type_symbol
_atom_site_label
_atom_site_fract_x
_atom_site_fract_y
_atom_site_fract_z
Si Si1 0.141120 0.314380 0.900870
Si Si2 0.967831 0.779892 0.839710
Si Si3 0.685574 0.196498 0.085371
Si Si4 0.518484 0.980755 0.532011
Si Si5 0.069430 0.062842 0.670193
Si Si6 0.295742 0.190181 0.315719
Si Si7 0.333792 0.303070 0.941395
O O1 0.201310 0.339086 0.738665
O O2 0.164688 0.455746 0.024587
O O3 0.085496 0.486578 0.908596
O O4 0.105925 0.087064 0.009959
O O5 0.902190 0.868317 0.897819
O O6 0.991996 0.699669 0.656297
O O7 0.023425 0.942204 0.830066
O O8 0.972028 0.565388 0.953867
O O9 0.625718 0.336441 0.197940
O O10 0.728012 0.347960 0.936799
O O11 0.527820 0.761799 0.637486
O O12 0.309058 0.449275 0.388853
O O13 0.328318 0.945578 0.346214
O O14 0.306670 0.233527 0.130710
#
# Coordination Sequence:
#
# PCOD9136116 Si02
#       7
#     4   4   4   4   4   4   4
#     4  10  21  39  62 102 134 181 224 294 369 442
#     4  11  24  41  69  95 144 177 243 296 366 441
#     4  11  24  41  71  94 145 175 244 294 370 439
#     4  10  21  40  61 102 135 181 226 293 372 436
#     4  10  22  37  68 104 133 183 223 304 365 442
#     4  12  29  53  78 112 149 205 259 315 375 449
#     4  12  29  51  79 111 150 204 261 312 377 445
#
# _framework density 24.897915000000001
#
# number of rings (size 3 to 8) (size 9 to 14) (size 15 to 20)
#    0.000    1.143    0.000    6.000    8.000    2.286 
#    0.000    0.000    0.000    0.000    0.000    0.000 
#    0.000    0.000    0.000    0.000    0.000    0.000 
#
# Total GULP energy -78018.096902 kJ/mol
# GULP energy per Si atom -5572.721207 kJ/mol
# Density = 2.484125 g / cm^3
# Si number density = 24.897915 Si / 1000 Ang^3
#
#
#
# Elastic Constant Matrix: (Units=GPa)
#
#
# Indices 1 2 3 4 5 6 
#
# 1 54.8664 -10.2917 -30.8294 0.0000 -27.5977 0.0000
# 2 -10.2917 147.5215 94.5754 0.0000 42.1343 0.0000
# 3 -30.8294 94.5754 194.5459 0.0000 43.5476 0.0000
# 4 0.0000 0.0000 0.0000 23.8118 0.0000 -0.1861
# 5 -27.5977 42.1343 43.5476 0.0000 55.8173 0.0000
# 6 0.0000 0.0000 0.0000 -0.1861 0.0000 17.6559
#
#
#
# Elastic Compliance Matrix: (Units=1/GPa)
#
#
# Indices 1 2 3 4 5 6 
#
# 1 0.025962 -0.003983 0.003034 0.000000 0.013476 0.000000
# 2 -0.003983 0.011480 -0.004642 0.000000 -0.007013 0.000000
# 3 0.003034 -0.004642 0.008187 0.000000 -0.001383 0.000000
# 4 0.000000 0.000000 0.000000 0.042000 0.000000 0.000443
# 5 0.013476 -0.007013 -0.001383 0.000000 0.030952 0.000000
# 6 0.000000 0.000000 0.000000 0.000443 0.000000 0.056643
#
#
# Mechanical properties :
#
#
# Convention : Reuss Voigt Hill
#
# Bulk Modulus (GPa) = 29.02966 55.98248 42.50607
# Shear Modulus (GPa) = 25.26687 42.35564 33.81125
#
# Velocity S-wave (km/s) = 3.18908 4.12900 3.68910
# Velocity P-wave (km/s) = 5.02445 6.72794 5.93760
#
# Compressibility (1/GPa) = 0.03444753
#
# Stress axis : x y z
#
# Youngs Moduli (GPa) = 38.51771 87.10889 122.14099
#
# Poissons Ratio (x) = 0.34692 -0.37055
# Poissons Ratio (y) = 0.15340 0.56698
# Poissons Ratio (z) = -0.11686 0.40436
#
# Static dielectric constant tensor:
#      x y z
#    x 2.147760 0.000000 0.092730 
#    y 0.000000 2.362480 0.000000 
#    z 0.092730 0.000000 2.066990 
# 
# From -- ./inp_files/12552.got.cif
#   From: 2010.05.17/outbox.cif.g08.bks.cpg/sg9_7_cif.got.tgz:12552.got - 2010.06.03 20:04:27.
