data_PCOD9136277
_publ_section_title
;
Structure prediction by ZEFSAII (Michael W. Deem and Ramdas Pophale) SiO2 
 PCOD9136277
Probable space group: C C
;
_chemical_formula_sum "Si O2"
_cell_formula_units_Z 32
_cell_length_a 25.806137
_cell_length_b 8.183804
_cell_length_c 15.767756
_cell_angle_alpha 90.000000
_cell_angle_beta 157.065751
_cell_angle_gamma 90.000000
_cell_volume 1297.627752
_symmetry_space_group_name_H-M "C C"
_symmetry_group_IT_number 9
_symmetry_cell_setting 'monoclinic'
loop_
_space_group_symop_operation_xyz
x,y,z
x,-y,1/2+z
1/2+x,1/2+y,z
1/2+x,1/2-y,1/2+z
loop_
_atom_site_type_symbol
_atom_site_label
_atom_site_fract_x
_atom_site_fract_y
_atom_site_fract_z
Si Si1 0.524180 0.051710 0.358130
Si Si2 0.828168 0.682835 0.633217
Si Si3 0.582157 0.587176 0.552276
Si Si4 0.767509 0.551720 0.198586
Si Si5 0.244037 0.502339 0.439153
Si Si6 0.930448 0.805177 0.350251
Si Si7 0.983025 0.647772 0.110658
Si Si8 0.767742 0.121597 0.300783
O O1 0.392951 0.937556 0.161800
O O2 0.659278 0.947083 0.572113
O O3 0.507143 0.158705 0.417838
O O4 0.522464 0.149749 0.268491
O O5 0.775705 0.572664 0.631079
O O6 0.727350 0.819240 0.448594
O O7 0.957475 0.790874 0.854023
O O8 0.630998 0.485692 0.541742
O O9 0.534861 0.439542 0.541528
O O10 0.703316 0.714044 0.746139
O O11 0.819675 0.726449 0.244573
O O12 0.882175 0.497164 0.436381
O O13 0.349252 0.598952 0.655175
O O14 0.288828 0.498762 0.409555
O O15 0.109991 0.604294 0.247270
O O16 0.905000 0.812979 0.970586
#
# Coordination Sequence:
#
# PCOD9136277 Si02
#       8
#     4   4   4   4   4   4   4   4
#     4  10  21  43  66  89 132 175 219 283 332 399
#     4   9  21  39  66  92 130 171 220 269 346 394
#     4   9  20  39  68  85 130 174 216 268 347 387
#     4  10  22  42  62  93 134 171 224 279 330 410
#     4  11  22  38  65  98 129 170 220 278 334 407
#     4  10  21  40  63  98 127 172 224 282 330 402
#     4  11  23  39  67  94 126 173 225 262 343 401
#     4  10  22  44  63  91 134 176 216 281 336 402
#
# _framework density 24.660382999999999
#
# number of rings (size 3 to 8) (size 9 to 14) (size 15 to 20)
#    0.000    2.000    1.250    2.250    7.000    0.000 
#    9.000    0.000    0.000    0.000    0.000    0.000 
#    0.000    0.000    0.000    0.000    0.000    0.000 
#
# Total GULP energy -89375.083750 kJ/mol
# GULP energy per Si atom -5585.942734 kJ/mol
# Density = 2.460425 g / cm^3
# Si number density = 24.660383 Si / 1000 Ang^3
#
#
#
# Elastic Constant Matrix: (Units=GPa)
#
#
# Indices 1 2 3 4 5 6 
#
# 1 92.3315 36.2245 15.6685 0.0000 10.9263 0.0000
# 2 36.2245 87.3346 13.4324 0.0000 18.9837 0.0000
# 3 15.6685 13.4324 65.9188 0.0000 15.6439 0.0000
# 4 0.0000 0.0000 0.0000 34.0854 0.0000 11.0547
# 5 10.9263 18.9837 15.6439 0.0000 33.5074 0.0000
# 6 0.0000 0.0000 0.0000 11.0547 0.0000 31.4137
#
#
#
# Elastic Compliance Matrix: (Units=1/GPa)
#
#
# Indices 1 2 3 4 5 6 
#
# 1 0.013215 -0.005064 -0.001988 0.000000 -0.000512 0.000000
# 2 -0.005064 0.015060 -0.000261 0.000000 -0.006759 0.000000
# 3 -0.001988 -0.000261 0.017439 0.000000 -0.007346 0.000000
# 4 0.000000 0.000000 0.000000 0.033118 0.000000 -0.011654
# 5 -0.000512 -0.006759 -0.007346 0.000000 0.037270 0.000000
# 6 0.000000 0.000000 0.000000 -0.011654 0.000000 0.035934
#
#
# Mechanical properties :
#
#
# Convention : Reuss Voigt Hill
#
# Bulk Modulus (GPa) = 32.16621 41.80396 36.98508
# Shear Modulus (GPa) = 28.24437 31.81860 30.03148
#
# Velocity S-wave (km/s) = 3.38795 3.59593 3.49349
# Velocity P-wave (km/s) = 5.32694 5.85061 5.59490
#
# Compressibility (1/GPa) = 0.03108853
#
# Stress axis : x y z
#
# Youngs Moduli (GPa) = 75.66940 66.40019 57.34213
#
# Poissons Ratio (x) = 0.33628 0.11398
# Poissons Ratio (y) = 0.38322 0.01497
# Poissons Ratio (z) = 0.15041 0.01733
#
# Static dielectric constant tensor:
#      x y z
#    x 1.934440 0.000000 0.031780 
#    y 0.000000 2.006900 0.000000 
#    z 0.031780 0.000000 2.004300 
# 
# From -- ./inp_files/31874.got.cif
#   From: 2010.05.17/outbox.cif.g08.bks.cpg/sg9_16_cif.got.tgz:31874.got - 2010.06.03 20:04:27.
