data_PCOD9136056
_publ_section_title
;
Structure prediction by ZEFSAII (Michael W. Deem and Ramdas Pophale) SiO2 
 PCOD9136056
Probable space group: C C
;
_chemical_formula_sum "Si O2"
_cell_formula_units_Z 28
_cell_length_a 12.085839
_cell_length_b 7.863644
_cell_length_c 22.357136
_cell_angle_alpha 90.000000
_cell_angle_beta 30.729536
_cell_angle_gamma 90.000000
_cell_volume 1085.740173
_symmetry_space_group_name_H-M "C C"
_symmetry_group_IT_number 9
_symmetry_cell_setting 'monoclinic'
loop_
_space_group_symop_operation_xyz
x,y,z
x,-y,1/2+z
1/2+x,1/2+y,z
1/2+x,1/2-y,1/2+z
loop_
_atom_site_type_symbol
_atom_site_label
_atom_site_fract_x
_atom_site_fract_y
_atom_site_fract_z
Si Si1 0.765850 0.880399 0.973210
Si Si2 0.107193 0.581061 0.148725
Si Si3 0.905791 0.377714 0.499566
Si Si4 0.469749 0.579021 0.066673
Si Si5 0.784330 0.270643 0.882546
Si Si6 0.469764 0.710268 0.254574
Si Si7 0.620394 0.136476 0.318960
O O1 0.908636 0.862231 0.847506
O O2 0.647174 0.038737 0.060894
O O3 0.902216 0.801158 0.965326
O O4 0.582976 0.740651 0.043671
O O5 0.333416 0.638735 0.072429
O O6 0.912501 0.700240 0.260478
O O7 0.050901 0.404480 0.210206
O O8 0.673170 0.397752 0.636967
O O9 0.104230 0.371692 0.453502
O O10 0.949036 0.517043 0.430370
O O11 0.289270 0.529792 0.199768
O O12 0.640989 0.434471 0.969265
O O13 0.978136 0.246877 0.840573
O O14 0.266668 0.710351 0.303881
#
# Coordination Sequence:
#
# PCOD9136056 Si02
#       7
#     4   4   4   4   4   4   4
#     4  11  20  39  68  96 127 169 218 264 327 396
#     4  10  21  38  65  99 125 167 218 265 327 388
#     4  11  23  41  66  97 126 173 221 267 330 389
#     4  11  18  37  69  92 124 174 216 262 326 391
#     4  11  21  39  67  98 126 172 223 262 325 395
#     4  11  21  40  66  91 132 175 216 271 331 385
#     4  11  22  40  63  95 132 172 218 269 324 390
#
# _framework density 25.788858999999999
#
# number of rings (size 3 to 8) (size 9 to 14) (size 15 to 20)
#    0.000    1.143    8.571    0.857    0.000    0.000 
#    2.571    8.571    0.000    0.000    0.000    0.000 
#    0.000    0.000    0.000    0.000    0.000    0.000 
#
# Total GULP energy -78315.050365 kJ/mol
# GULP energy per Si atom -5593.932169 kJ/mol
# Density = 2.573016 g / cm^3
# Si number density = 25.788859 Si / 1000 Ang^3
#
#
#
# Elastic Constant Matrix: (Units=GPa)
#
#
# Indices 1 2 3 4 5 6 
#
# 1 162.3860 11.3874 72.4927 0.0000 3.8415 0.0000
# 2 11.3874 23.4226 19.9022 -0.0001 2.7792 0.0000
# 3 72.4927 19.9022 191.3103 -0.0009 30.4088 -0.0002
# 4 0.0000 -0.0001 -0.0009 28.2384 0.0000 1.0693
# 5 3.8415 2.7792 30.4088 0.0000 56.2956 0.0000
# 6 0.0000 0.0000 -0.0002 1.0693 0.0000 35.5043
#
#
#
# Elastic Compliance Matrix: (Units=1/GPa)
#
#
# Indices 1 2 3 4 5 6 
#
# 1 0.007513 -0.001333 -0.002885 0.000000 0.001111 0.000000
# 2 -0.001333 0.047077 -0.004416 0.000000 0.000153 0.000000
# 3 -0.002885 -0.004416 0.007344 0.000000 -0.003552 0.000000
# 4 0.000000 0.000000 0.000000 0.035453 0.000000 -0.001068
# 5 0.001111 0.000153 -0.003552 0.000000 0.019599 0.000000
# 6 0.000000 0.000000 0.000000 -0.001068 0.000000 0.028198
#
#
# Mechanical properties :
#
#
# Convention : Reuss Voigt Hill
#
# Bulk Modulus (GPa) = 22.38899 64.96484 43.67692
# Shear Modulus (GPa) = 28.19419 42.23010 35.21215
#
# Velocity S-wave (km/s) = 3.31005 4.05103 3.69914
# Velocity P-wave (km/s) = 4.82795 6.86490 5.93448
#
# Compressibility (1/GPa) = 0.04466481
#
# Stress axis : x y z
#
# Youngs Moduli (GPa) = 133.09768 21.24202 136.15847
#
# Poissons Ratio (x) = 0.02832 0.39281
# Poissons Ratio (y) = 0.17745 0.60134
# Poissons Ratio (z) = 0.38398 0.09381
#
# Static dielectric constant tensor:
#      x y z
#    x 2.041000 0.000000 0.010760 
#    y 0.000000 2.135110 0.000000 
#    z 0.010760 0.000000 2.025640 
# 
# From -- ./inp_files/16291.got.cif
#   From: 2010.05.17/outbox.cif.g08.bks.cpg/sg9_9_cif.got.tgz:16291.got - 2010.06.03 20:04:27.
