data_PCOD9136624
_publ_section_title
;
Structure prediction by ZEFSAII (Michael W. Deem and Ramdas Pophale) SiO2 
 PCOD9136624
Probable space group: C C
;
_chemical_formula_sum "Si O2"
_cell_formula_units_Z 28
_cell_length_a 13.774068
_cell_length_b 11.580887
_cell_length_c 10.923842
_cell_angle_alpha 90.000000
_cell_angle_beta 138.737744
_cell_angle_gamma 90.000000
_cell_volume 1149.207942
_symmetry_space_group_name_H-M "C C"
_symmetry_group_IT_number 9
_symmetry_cell_setting 'monoclinic'
loop_
_space_group_symop_operation_xyz
x,y,z
x,-y,1/2+z
1/2+x,1/2+y,z
1/2+x,1/2-y,1/2+z
loop_
_atom_site_type_symbol
_atom_site_label
_atom_site_fract_x
_atom_site_fract_y
_atom_site_fract_z
Si Si1 0.850370 0.649914 0.619740
Si Si2 0.125763 0.403069 0.268567
Si Si3 0.263357 0.192206 0.280746
Si Si4 0.927865 0.590147 0.937880
Si Si5 0.031003 0.225884 0.881526
Si Si6 0.712251 0.234088 0.208618
Si Si7 0.277063 0.609050 0.493368
O O1 0.764110 0.628771 0.412316
O O2 0.889239 0.554664 0.760814
O O3 0.771637 0.744022 0.628996
O O4 0.010590 0.683636 0.722003
O O5 0.225182 0.326599 0.274805
O O6 0.223715 0.478154 0.453728
O O7 0.016598 0.496193 0.099106
O O8 0.418329 0.199721 0.357995
O O9 0.135328 0.152073 0.069527
O O10 0.774196 0.648986 0.835079
O O11 0.042591 0.697940 0.042163
O O12 0.925541 0.148669 0.698157
O O13 0.142872 0.309351 0.914255
O O14 0.786771 0.132655 0.357307
#
# Coordination Sequence:
#
# PCOD9136624 Si02
#       7
#     4   4   4   4   4   4   4
#     4  10  22  37  65  95 127 168 212 263 319 389
#     4  11  22  39  70  95 123 164 223 258 314 382
#     4  11  22  42  64  92 131 172 211 261 324 392
#     4   9  21  37  66  95 123 162 215 258 311 381
#     4  10  23  38  67  91 133 172 210 251 340 378
#     4   9  19  37  64  93 126 165 209 257 323 376
#     4  10  21  42  68  95 125 171 216 264 307 398
#
# _framework density 24.364606999999999
#
# number of rings (size 3 to 8) (size 9 to 14) (size 15 to 20)
#    0.857    1.143    1.429    2.571    4.000    0.000 
#    0.000    0.000   22.000    0.000    0.000    0.000 
#    0.000    0.000    0.000    0.000    0.000    0.000 
#
# Total GULP energy -78004.834292 kJ/mol
# GULP energy per Si atom -5571.773878 kJ/mol
# Density = 2.430915 g / cm^3
# Si number density = 24.364607 Si / 1000 Ang^3
#
#
#
# Elastic Constant Matrix: (Units=GPa)
#
#
# Indices 1 2 3 4 5 6 
#
# 1 87.8723 22.8113 29.3168 0.0000 13.9769 0.0000
# 2 22.8113 80.1663 35.5642 0.0000 18.7747 0.0000
# 3 29.3168 35.5642 171.1286 0.0000 2.9833 0.0000
# 4 0.0000 0.0000 0.0000 37.6308 0.0000 9.9557
# 5 13.9769 18.7747 2.9833 0.0000 37.7590 0.0000
# 6 0.0000 0.0000 0.0000 9.9557 0.0000 15.9037
#
#
#
# Elastic Compliance Matrix: (Units=1/GPa)
#
#
# Indices 1 2 3 4 5 6 
#
# 1 0.013088 -0.002092 -0.001743 0.000000 -0.003667 0.000000
# 2 -0.002092 0.015951 -0.002836 0.000000 -0.006933 0.000000
# 3 -0.001743 -0.002836 0.006705 0.000000 0.001526 0.000000
# 4 0.000000 0.000000 0.000000 0.031849 0.000000 -0.019937
# 5 -0.003667 -0.006933 0.001526 0.000000 0.031168 0.000000
# 6 0.000000 0.000000 0.000000 -0.019937 0.000000 0.075359
#
#
# Mechanical properties :
#
#
# Convention : Reuss Voigt Hill
#
# Bulk Modulus (GPa) = 44.63952 57.17241 50.90597
# Shear Modulus (GPa) = 25.65031 35.02368 30.33700
#
# Velocity S-wave (km/s) = 3.24816 3.79553 3.53246
# Velocity P-wave (km/s) = 5.69461 6.53638 6.12997
#
# Compressibility (1/GPa) = 0.02240168
#
# Stress axis : x y z
#
# Youngs Moduli (GPa) = 76.40502 62.69199 149.14313
#
# Poissons Ratio (x) = 0.13115 0.26003
# Poissons Ratio (y) = 0.15984 0.42293
# Poissons Ratio (z) = 0.13321 0.17778
#
# Static dielectric constant tensor:
#      x y z
#    x 1.996980 0.000000 -0.073900 
#    y 0.000000 1.999430 0.000000 
#    z -0.073900 0.000000 2.017760 
# 
# From -- ./inp_files/18359.got.cif
#   From: 2010.05.17/outbox.cif.g08.bks.cpg/sg9_10_cif.got.tgz:18359.got - 2010.06.03 20:04:27.
