data_PCOD9136487
_publ_section_title
;
Structure prediction by ZEFSAII (Michael W. Deem and Ramdas Pophale) SiO2 
 PCOD9136487
Probable space group: C C
;
_chemical_formula_sum "Si O2"
_cell_formula_units_Z 32
_cell_length_a 8.453377
_cell_length_b 11.954902
_cell_length_c 19.966575
_cell_angle_alpha 90.000000
_cell_angle_beta 140.045086
_cell_angle_gamma 90.000000
_cell_volume 1295.805223
_symmetry_space_group_name_H-M "C C"
_symmetry_group_IT_number 9
_symmetry_cell_setting 'monoclinic'
loop_
_space_group_symop_operation_xyz
x,y,z
x,-y,1/2+z
1/2+x,1/2+y,z
1/2+x,1/2-y,1/2+z
loop_
_atom_site_type_symbol
_atom_site_label
_atom_site_fract_x
_atom_site_fract_y
_atom_site_fract_z
Si Si1 0.229980 0.842469 0.953810
Si Si2 0.321868 0.167538 0.334275
Si Si3 0.281434 0.396681 0.504200
Si Si4 0.335742 0.097562 0.202651
Si Si5 0.785782 0.212904 0.149377
Si Si6 0.825955 0.146034 0.527139
Si Si7 0.289881 0.457238 0.773110
Si Si8 0.788866 0.151704 0.673512
O O1 0.286858 0.881169 0.896948
O O2 0.993099 0.916304 0.892907
O O3 0.163913 0.710345 0.930211
O O4 0.486115 0.849744 0.076792
O O5 0.294424 0.074683 0.267303
O O6 0.592980 0.222110 0.429463
O O7 0.076789 0.242820 0.243577
O O8 0.573199 0.396016 0.582385
O O9 0.245952 0.365692 0.571330
O O10 0.229462 0.524767 0.472971
O O11 0.536732 0.026525 0.230557
O O12 0.406760 0.228822 0.229267
O O13 0.583650 0.310487 0.082299
O O14 0.743210 0.142227 0.203556
O O15 0.851194 0.135901 0.615516
O O16 0.369290 0.559871 0.752676
#
# Coordination Sequence:
#
# PCOD9136487 Si02
#       8
#     4   4   4   4   4   4   4   4
#     4   9  22  43  63  95 136 171 225 287 346 415
#     4   9  22  43  60  97 137 169 231 289 337 427
#     4  10  22  42  67  96 135 177 228 294 348 421
#     4  10  22  42  62  95 138 170 226 293 347 412
#     4  10  21  41  67  94 135 178 227 288 350 416
#     4  11  21  42  73  95 132 190 232 284 366 415
#     4  11  21  42  67  98 133 179 228 281 355 417
#     4  10  21  43  67  94 134 178 223 286 347 415
#
# _framework density 24.695067999999999
#
# number of rings (size 3 to 8) (size 9 to 14) (size 15 to 20)
#    0.000    2.000    2.500    0.000    1.750    3.000 
#   20.250    0.000    0.000    0.000    0.000    0.000 
#    0.000    0.000    0.000    0.000    0.000    0.000 
#
# Total GULP energy -89270.714199 kJ/mol
# GULP energy per Si atom -5579.419637 kJ/mol
# Density = 2.463886 g / cm^3
# Si number density = 24.695068 Si / 1000 Ang^3
#
#
#
# Elastic Constant Matrix: (Units=GPa)
#
#
# Indices 1 2 3 4 5 6 
#
# 1 95.2675 9.4390 29.0189 0.0000 13.1820 0.0000
# 2 9.4390 81.0493 20.9111 0.0000 7.7025 0.0000
# 3 29.0189 20.9111 76.2112 0.0000 13.6292 0.0000
# 4 0.0000 0.0000 0.0000 23.8499 0.0000 -3.9863
# 5 13.1820 7.7025 13.6292 0.0000 40.3822 0.0000
# 6 0.0000 0.0000 0.0000 -3.9863 0.0000 27.1716
#
#
#
# Elastic Compliance Matrix: (Units=1/GPa)
#
#
# Indices 1 2 3 4 5 6 
#
# 1 0.012117 -0.000104 -0.004131 0.000000 -0.002541 0.000000
# 2 -0.000104 0.013352 -0.003379 0.000000 -0.001373 0.000000
# 3 -0.004131 -0.003379 0.016246 0.000000 -0.003490 0.000000
# 4 0.000000 0.000000 0.000000 0.042983 0.000000 0.006306
# 5 -0.002541 -0.001373 -0.003490 0.000000 0.027033 0.000000
# 6 0.000000 0.000000 0.000000 0.006306 0.000000 0.037728
#
#
# Mechanical properties :
#
#
# Convention : Reuss Voigt Hill
#
# Bulk Modulus (GPa) = 37.75258 41.25178 39.50218
# Shear Modulus (GPa) = 28.81599 31.15800 29.98699
#
# Velocity S-wave (km/s) = 3.41966 3.55591 3.48845
# Velocity P-wave (km/s) = 5.55992 5.79655 5.67947
#
# Compressibility (1/GPa) = 0.02648826
#
# Stress axis : x y z
#
# Youngs Moduli (GPa) = 82.52901 74.89279 61.55549
#
# Poissons Ratio (x) = 0.00778 0.25427
# Poissons Ratio (y) = 0.00857 0.20798
# Poissons Ratio (z) = 0.34091 0.25304
#
# Static dielectric constant tensor:
#      x y z
#    x 2.060330 0.000000 0.023390 
#    y 0.000000 2.063600 0.000000 
#    z 0.023390 0.000000 2.033270 
# 
# From -- ./inp_files/32716.got.cif
#   From: 2010.05.17/outbox.cif.g08.bks.cpg/sg9_17_cif.got.tgz:32716.got - 2010.06.03 20:04:27.
