data_PCOD9136667
_publ_section_title
;
Structure prediction by ZEFSAII (Michael W. Deem and Ramdas Pophale) SiO2 
 PCOD9136667
Probable space group: C C
;
_chemical_formula_sum "Si O2"
_cell_formula_units_Z 28
_cell_length_a 14.419987
_cell_length_b 10.451404
_cell_length_c 20.332798
_cell_angle_alpha 90.000000
_cell_angle_beta 23.838899
_cell_angle_gamma 90.000000
_cell_volume 1238.502362
_symmetry_space_group_name_H-M "C C"
_symmetry_group_IT_number 9
_symmetry_cell_setting 'monoclinic'
loop_
_space_group_symop_operation_xyz
x,y,z
x,-y,1/2+z
1/2+x,1/2+y,z
1/2+x,1/2-y,1/2+z
loop_
_atom_site_type_symbol
_atom_site_label
_atom_site_fract_x
_atom_site_fract_y
_atom_site_fract_z
Si Si1 0.716580 0.372012 0.952960
Si Si2 0.854395 0.675026 0.166743
Si Si3 0.957881 0.111588 0.260775
Si Si4 0.600040 0.660046 0.682067
Si Si5 0.445530 0.965786 0.207071
Si Si6 0.346751 0.718975 0.466387
Si Si7 0.454343 0.910074 0.055254
O O1 0.769743 0.503861 0.879971
O O2 0.932416 0.278119 0.801563
O O3 0.495566 0.302927 0.064373
O O4 0.670829 0.369239 0.060795
O O5 0.960699 0.604190 0.161509
O O6 0.585822 0.703027 0.349172
O O7 0.895042 0.562328 0.086928
O O8 0.921184 0.211803 0.342688
O O9 0.724795 0.111663 0.370314
O O10 0.194229 0.156156 0.076055
O O11 0.967473 0.971031 0.285657
O O12 0.810047 0.667423 0.596302
O O13 0.673830 0.901457 0.087386
O O14 0.393211 0.885516 0.172971
#
# Coordination Sequence:
#
# PCOD9136667 Si02
#       7
#     4   4   4   4   4   4   4
#     4  12  24  42  73 105 141 177 248 287 356 413
#     4  10  21  42  73  95 134 187 227 291 343 410
#     4  11  24  43  64  99 137 182 233 294 336 427
#     4  12  24  43  71 102 141 189 234 299 344 428
#     4   9  22  44  63 101 137 184 225 301 337 421
#     4  11  24  41  68  93 141 178 233 280 359 402
#     4   9  21  43  68  91 139 183 226 282 365 391
#
# _framework density 22.607949999999999
#
# number of rings (size 3 to 8) (size 9 to 14) (size 15 to 20)
#    0.857    0.571    4.286    0.000    4.000    3.429 
#    2.571    1.429    0.000    0.000    0.000    0.000 
#    0.000    0.000    0.000    0.000    0.000    0.000 
#
# Total GULP energy -78005.469146 kJ/mol
# GULP energy per Si atom -5571.819225 kJ/mol
# Density = 2.255649 g / cm^3
# Si number density = 22.607950 Si / 1000 Ang^3
#
#
#
# Elastic Constant Matrix: (Units=GPa)
#
#
# Indices 1 2 3 4 5 6 
#
# 1 80.4084 17.8399 54.7162 -0.0021 -15.4593 0.0008
# 2 17.8399 48.3840 24.1099 -0.0046 -10.8801 0.0014
# 3 54.7162 24.1099 98.5139 -0.0113 -17.3227 0.0064
# 4 -0.0021 -0.0046 -0.0113 54.0064 0.0032 -0.9973
# 5 -15.4593 -10.8801 -17.3227 0.0032 50.0255 -0.0027
# 6 0.0008 0.0014 0.0064 -0.9973 -0.0027 15.1876
#
#
#
# Elastic Compliance Matrix: (Units=1/GPa)
#
#
# Indices 1 2 3 4 5 6 
#
# 1 0.020418 -0.001781 -0.010503 -0.000002 0.002286 0.000004
# 2 -0.001781 0.024226 -0.004377 0.000001 0.003203 0.000000
# 3 -0.010503 -0.004377 0.017375 0.000003 0.001819 -0.000006
# 4 -0.000002 0.000001 0.000003 0.018539 -0.000001 0.001217
# 5 0.002286 0.003203 0.001819 -0.000001 0.022023 0.000003
# 6 0.000004 0.000000 -0.000006 0.001217 0.000003 0.065923
#
#
# Mechanical properties :
#
#
# Convention : Reuss Voigt Hill
#
# Bulk Modulus (GPa) = 34.84496 46.73760 40.79128
# Shear Modulus (GPa) = 23.65296 32.55324 28.10310
#
# Velocity S-wave (km/s) = 3.23805 3.79872 3.52953
# Velocity P-wave (km/s) = 5.42458 6.32126 5.89001
#
# Compressibility (1/GPa) = 0.02869855
#
# Stress axis : x y z
#
# Youngs Moduli (GPa) = 48.97663 41.27841 57.55329
#
# Poissons Ratio (x) = 0.07351 0.60446
# Poissons Ratio (y) = 0.08722 0.25189
# Poissons Ratio (z) = 0.51439 0.18066
#
# Static dielectric constant tensor:
#      x y z
#    x 1.905490 0.000000 0.041110 
#    y 0.000000 1.846610 0.000000 
#    z 0.041110 0.000000 1.878710 
# 
# From -- ./inp_files/33779.got.cif
#   From: 2010.05.17/outbox.cif.g08.bks.cpg/sg9_17_cif.got.tgz:33779.got - 2010.06.03 20:04:27.
