data_PCOD9136203
_publ_section_title
;
Structure prediction by ZEFSAII (Michael W. Deem and Ramdas Pophale) SiO2 
 PCOD9136203
Probable space group: C C
;
_chemical_formula_sum "Si O2"
_cell_formula_units_Z 28
_cell_length_a 7.049006
_cell_length_b 14.531547
_cell_length_c 12.165152
_cell_angle_alpha 90.000000
_cell_angle_beta 121.419747
_cell_angle_gamma 90.000000
_cell_volume 1063.396540
_symmetry_space_group_name_H-M "C C"
_symmetry_group_IT_number 9
_symmetry_cell_setting 'monoclinic'
loop_
_space_group_symop_operation_xyz
x,y,z
x,-y,1/2+z
1/2+x,1/2+y,z
1/2+x,1/2-y,1/2+z
loop_
_atom_site_type_symbol
_atom_site_label
_atom_site_fract_x
_atom_site_fract_y
_atom_site_fract_z
Si Si1 0.298250 0.910953 0.501440
Si Si2 0.202059 0.405195 0.781300
Si Si3 0.373249 0.639847 0.013356
Si Si4 0.685428 0.748432 0.269772
Si Si5 0.966576 0.413573 0.941141
Si Si6 0.369112 0.536564 0.669288
Si Si7 0.147163 0.794609 0.283489
O O1 0.475424 0.924122 0.648937
O O2 0.071250 0.894203 0.495377
O O3 0.315271 0.819946 0.432602
O O4 0.342072 0.992658 0.430335
O O5 0.367090 0.482385 0.784970
O O6 0.247397 0.298329 0.763629
O O7 0.134019 0.411734 0.887471
O O8 0.485002 0.717744 0.127597
O O9 0.330625 0.550892 0.076808
O O10 0.186957 0.674896 0.868932
O O11 0.774066 0.659206 0.363369
O O12 0.909067 0.766166 0.264229
O O13 0.141948 0.403486 0.093357
O O14 0.568393 0.608673 0.703492
#
# Coordination Sequence:
#
# PCOD9136203 Si02
#       7
#     4   4   4   4   4   4   4
#     4  10  21  40  64  90 125 169 222 273 342 405
#     4  10  23  43  63  95 129 173 224 275 342 421
#     4  11  22  43  64 100 132 177 227 277 346 414
#     4  10  21  41  68  90 130 178 224 275 345 410
#     4  10  21  41  65  90 126 171 221 277 335 411
#     4  11  25  41  64 100 133 173 225 284 343 409
#     4  10  21  39  68  87 125 177 211 279 341 404
#
# _framework density 26.330725000000001
#
# number of rings (size 3 to 8) (size 9 to 14) (size 15 to 20)
#    0.000    1.714    2.857    1.714    8.000    0.000 
#    7.714    0.000    0.000    0.000    0.000    0.000 
#    0.000    0.000    0.000    0.000    0.000    0.000 
#
# Total GULP energy -78066.866649 kJ/mol
# GULP energy per Si atom -5576.204761 kJ/mol
# Density = 2.627079 g / cm^3
# Si number density = 26.330725 Si / 1000 Ang^3
#
#
#
# Elastic Constant Matrix: (Units=GPa)
#
#
# Indices 1 2 3 4 5 6 
#
# 1 71.9907 17.5747 7.5001 0.0000 -18.5119 0.0000
# 2 17.5747 132.9782 55.3116 0.0000 -17.5645 0.0000
# 3 7.5001 55.3116 84.3742 0.0000 18.0879 0.0000
# 4 0.0000 0.0000 0.0000 51.3147 0.0000 1.8868
# 5 -18.5119 -17.5645 18.0879 0.0000 40.2245 0.0000
# 6 0.0000 0.0000 0.0000 1.8868 0.0000 44.7165
#
#
#
# Elastic Compliance Matrix: (Units=1/GPa)
#
#
# Indices 1 2 3 4 5 6 
#
# 1 0.016665 0.000829 -0.004147 0.000000 0.009896 0.000000
# 2 0.000829 0.013758 -0.011579 0.000000 0.011596 0.000000
# 3 -0.004147 -0.011579 0.023577 0.000000 -0.017566 0.000000
# 4 0.000000 0.000000 0.000000 0.019518 0.000000 -0.000824
# 5 0.009896 0.011596 -0.017566 0.000000 0.042378 0.000000
# 6 0.000000 0.000000 0.000000 -0.000824 0.000000 0.022398
#
#
# Mechanical properties :
#
#
# Convention : Reuss Voigt Hill
#
# Bulk Modulus (GPa) = 41.30877 50.01288 45.66083
# Shear Modulus (GPa) = 28.38406 41.18158 34.78282
#
# Velocity S-wave (km/s) = 3.28683 3.95905 3.63850
# Velocity P-wave (km/s) = 5.48879 6.31934 5.91865
#
# Compressibility (1/GPa) = 0.02420793
#
# Stress axis : x y z
#
# Youngs Moduli (GPa) = 60.00615 72.68343 42.41427
#
# Poissons Ratio (x) = -0.06029 0.17588
# Poissons Ratio (y) = -0.04977 0.49111
# Poissons Ratio (z) = 0.24882 0.84160
#
# Static dielectric constant tensor:
#      x y z
#    x 2.083610 0.000000 -0.037660 
#    y 0.000000 2.201400 0.000000 
#    z -0.037660 0.000000 2.145780 
# 
# From -- ./inp_files/14409.got.cif
#   From: 2010.05.17/outbox.cif.g08.bks.cpg/sg9_8_cif.got.tgz:14409.got - 2010.06.03 20:04:27.
