data_PCOD9136529
_publ_section_title
;
Structure prediction by ZEFSAII (Michael W. Deem and Ramdas Pophale) SiO2 
 PCOD9136529
Probable space group: C C
;
_chemical_formula_sum "Si O2"
_cell_formula_units_Z 32
_cell_length_a 9.244941
_cell_length_b 12.271034
_cell_length_c 15.424189
_cell_angle_alpha 90.000000
_cell_angle_beta 132.705947
_cell_angle_gamma 90.000000
_cell_volume 1285.828103
_symmetry_space_group_name_H-M "C C"
_symmetry_group_IT_number 9
_symmetry_cell_setting 'monoclinic'
loop_
_space_group_symop_operation_xyz
x,y,z
x,-y,1/2+z
1/2+x,1/2+y,z
1/2+x,1/2-y,1/2+z
loop_
_atom_site_type_symbol
_atom_site_label
_atom_site_fract_x
_atom_site_fract_y
_atom_site_fract_z
Si Si1 0.337750 0.001096 0.598600
Si Si2 0.251217 0.314367 0.949263
Si Si3 0.873557 0.573773 0.924811
Si Si4 0.121016 0.101228 0.670264
Si Si5 0.546887 0.333088 0.475158
Si Si6 0.769422 0.986564 0.800572
Si Si7 0.385962 0.296096 0.743033
Si Si8 0.730841 0.189940 0.992216
O O1 0.354526 0.003375 0.500945
O O2 0.553465 0.037762 0.715203
O O3 0.266891 0.875757 0.586844
O O4 0.184443 0.059712 0.600473
O O5 0.332710 0.197757 0.945358
O O6 0.252661 0.398799 0.871367
O O7 0.060037 0.276513 0.924655
O O8 0.393739 0.372674 0.076271
O O9 0.715634 0.536522 0.788155
O O10 0.082706 0.592417 0.961244
O O11 0.228894 0.216377 0.723319
O O12 0.443517 0.427275 0.376852
O O13 0.408234 0.335565 0.500843
O O14 0.812612 0.916785 0.733147
O O15 0.588090 0.269701 0.876932
O O16 0.346083 0.273393 0.625706
#
# Coordination Sequence:
#
# PCOD9136529 Si02
#       8
#     4   4   4   4   4   4   4   4
#     4  11  24  43  72 107 148 194 256 311 381 469
#     4  11  22  44  74 104 145 198 249 309 394 461
#     4  10  21  41  72 101 141 201 253 302 388 465
#     4  11  20  43  75 104 144 198 249 315 386 456
#     4  11  27  44  69 114 150 188 257 316 379 479
#     4  12  21  46  78 103 147 197 252 318 382 461
#     4  11  21  41  77  98 140 201 247 307 394 453
#     4  11  22  44  67 109 149 189 249 320 380 466
#
# _framework density 24.886686000000001
#
# number of rings (size 3 to 8) (size 9 to 14) (size 15 to 20)
#    0.000    1.000    6.250    2.250    0.000    1.000 
#    6.750    2.500    0.000    0.000    0.000    0.000 
#    0.000    0.000    0.000    0.000    0.000    0.000 
#
# Total GULP energy -89264.830841 kJ/mol
# GULP energy per Si atom -5579.051928 kJ/mol
# Density = 2.483004 g / cm^3
# Si number density = 24.886686 Si / 1000 Ang^3
#
#
#
# Elastic Constant Matrix: (Units=GPa)
#
#
# Indices 1 2 3 4 5 6 
#
# 1 108.4616 16.9979 36.0371 0.0000 2.2424 0.0000
# 2 16.9979 52.4732 33.4081 0.0000 0.3416 0.0000
# 3 36.0371 33.4081 127.0553 0.0000 -14.1730 0.0000
# 4 0.0000 0.0000 0.0000 24.2135 0.0000 -3.6808
# 5 2.2424 0.3416 -14.1730 0.0000 29.4622 0.0000
# 6 0.0000 0.0000 0.0000 -3.6808 0.0000 40.3176
#
#
#
# Elastic Compliance Matrix: (Units=1/GPa)
#
#
# Indices 1 2 3 4 5 6 
#
# 1 0.010436 -0.001600 -0.002775 0.000000 -0.002111 0.000000
# 2 -0.001600 0.023450 -0.006054 0.000000 -0.003062 0.000000
# 3 -0.002775 -0.006054 0.010864 0.000000 0.005507 0.000000
# 4 0.000000 0.000000 0.000000 0.041880 0.000000 0.003823
# 5 -0.002111 -0.003062 0.005507 0.000000 0.036787 0.000000
# 6 0.000000 0.000000 0.000000 0.003823 0.000000 0.025152
#
#
# Mechanical properties :
#
#
# Convention : Reuss Voigt Hill
#
# Bulk Modulus (GPa) = 41.85428 51.20848 46.53138
# Shear Modulus (GPa) = 28.18633 32.23514 30.21073
#
# Velocity S-wave (km/s) = 3.36904 3.60290 3.48793
# Velocity P-wave (km/s) = 5.65583 6.15867 5.91260
#
# Compressibility (1/GPa) = 0.02389242
#
# Stress axis : x y z
#
# Youngs Moduli (GPa) = 95.82032 42.64423 92.04997
#
# Poissons Ratio (x) = 0.06825 0.25541
# Poissons Ratio (y) = 0.15335 0.55723
# Poissons Ratio (z) = 0.26587 0.25815
#
# Static dielectric constant tensor:
#      x y z
#    x 1.975960 0.000000 -0.009220 
#    y 0.000000 2.088660 0.000000 
#    z -0.009220 0.000000 2.074770 
# 
# From -- ./inp_files/23432.got.cif
#   From: 2010.05.17/outbox.cif.g08.bks.cpg/sg9_12_cif.got.tgz:23432.got - 2010.06.03 20:04:27.
