data_PCOD9136713
_publ_section_title
;
Structure prediction by ZEFSAII (Michael W. Deem and Ramdas Pophale) SiO2 
 PCOD9136713
Probable space group: C C
;
_chemical_formula_sum "Si O2"
_cell_formula_units_Z 32
_cell_length_a 14.316586
_cell_length_b 10.325975
_cell_length_c 19.043784
_cell_angle_alpha 90.000000
_cell_angle_beta 152.154453
_cell_angle_gamma 90.000000
_cell_volume 1314.994875
_symmetry_space_group_name_H-M "C C"
_symmetry_group_IT_number 9
_symmetry_cell_setting 'monoclinic'
loop_
_space_group_symop_operation_xyz
x,y,z
x,-y,1/2+z
1/2+x,1/2+y,z
1/2+x,1/2-y,1/2+z
loop_
_atom_site_type_symbol
_atom_site_label
_atom_site_fract_x
_atom_site_fract_y
_atom_site_fract_z
Si Si1 0.989770 0.001336 0.828360
Si Si2 0.046892 0.505925 0.571112
Si Si3 0.346173 0.967874 0.794734
Si Si4 0.473307 0.698357 0.047029
Si Si5 0.777229 0.599705 0.620716
Si Si6 0.524208 0.872108 0.705849
Si Si7 0.172193 0.288799 0.940560
Si Si8 0.052253 0.186331 0.250237
O O1 0.097543 0.921995 0.837847
O O2 0.753903 0.986294 0.668104
O O3 0.057128 0.150346 0.869355
O O4 0.059240 0.933950 0.947245
O O5 0.874911 0.503418 0.396320
O O6 0.046758 0.653724 0.598190
O O7 0.044650 0.416205 0.638771
O O8 0.540569 0.887870 0.898518
O O9 0.157258 0.883477 0.638609
O O10 0.319774 0.095157 0.731304
O O11 0.474185 0.635914 0.124436
O O12 0.246996 0.719392 0.869880
O O13 0.906587 0.487720 0.667527
O O14 0.865771 0.732037 0.652943
O O15 0.386396 0.744400 0.614138
O O16 0.695557 0.838069 0.875810
#
# Coordination Sequence:
#
# PCOD9136713 Si02
#       8
#     4   4   4   4   4   4   4   4
#     4  11  24  42  70  93 136 179 219 280 335 401
#     4  12  24  43  65 103 134 169 230 282 328 392
#     4  11  25  40  71 103 130 173 228 282 328 401
#     4  12  24  41  71 100 133 172 235 279 324 396
#     4  10  24  44  67  97 132 177 222 271 345 398
#     4  10  22  43  66  94 129 172 217 278 322 401
#     4  10  21  43  66  93 131 172 219 262 342 394
#     4  12  24  46  66  99 139 180 222 276 344 405
#
# _framework density 24.334693999999999
#
# number of rings (size 3 to 8) (size 9 to 14) (size 15 to 20)
#    0.000    1.000    5.000    1.500    7.000    0.000 
#    4.500    0.000    0.000    0.000    0.000    0.000 
#    0.000    0.000    0.000    0.000    0.000    0.000 
#
# Total GULP energy -89330.283151 kJ/mol
# GULP energy per Si atom -5583.142697 kJ/mol
# Density = 2.427931 g / cm^3
# Si number density = 24.334694 Si / 1000 Ang^3
#
#
#
# Elastic Constant Matrix: (Units=GPa)
#
#
# Indices 1 2 3 4 5 6 
#
# 1 73.5896 5.8740 26.5259 0.0009 -23.8411 0.0002
# 2 5.8740 19.7321 12.6733 0.0017 -6.7164 0.0010
# 3 26.5259 12.6733 97.3585 0.0018 -18.7900 0.0007
# 4 0.0009 0.0017 0.0018 28.6126 0.0007 -11.2938
# 5 -23.8411 -6.7164 -18.7900 0.0007 41.4209 0.0002
# 6 0.0002 0.0010 0.0007 -11.2938 0.0002 14.4255
#
#
#
# Elastic Compliance Matrix: (Units=1/GPa)
#
#
# Indices 1 2 3 4 5 6 
#
# 1 0.017518 -0.000304 -0.003065 -0.000001 0.008643 -0.000001
# 2 -0.000304 0.056824 -0.006104 -0.000007 0.006270 -0.000009
# 3 -0.003065 -0.006104 0.012460 -0.000001 0.002898 -0.000001
# 4 -0.000001 -0.000007 -0.000001 0.050580 -0.000003 0.039600
# 5 0.008643 0.006270 0.002898 -0.000003 0.031449 -0.000003
# 6 -0.000001 -0.000009 -0.000001 0.039600 -0.000003 0.100325
#
#
# Mechanical properties :
#
#
# Convention : Reuss Voigt Hill
#
# Bulk Modulus (GPa) = 14.73711 31.20295 22.97003
# Shear Modulus (GPa) = 16.09158 26.59892 21.34525
#
# Velocity S-wave (km/s) = 2.57429 3.30971 2.96489
# Velocity P-wave (km/s) = 3.86071 5.23983 4.60222
#
# Compressibility (1/GPa) = 0.06785590
#
# Stress axis : x y z
#
# Youngs Moduli (GPa) = 57.08325 17.59822 80.25431
#
# Poissons Ratio (x) = 0.00536 0.24600
# Poissons Ratio (y) = 0.01737 0.48986
# Poissons Ratio (z) = 0.17497 0.10742
#
# Static dielectric constant tensor:
#      x y z
#    x 2.030320 0.000000 0.002470 
#    y 0.000000 1.888030 0.000000 
#    z 0.002470 0.000000 1.938480 
# 
# From -- ./inp_files/9076.got.cif
#   From: 2010.05.17/outbox.cif.g08.bks.cpg/sg9_5_cif.got.tgz:9076.got - 2010.06.03 20:04:27.
