data_PCOD9136861
_publ_section_title
;
Structure prediction by ZEFSAII (Michael W. Deem and Ramdas Pophale) SiO2 
 PCOD9136861
Probable space group: C C
;
_chemical_formula_sum "Si O2"
_cell_formula_units_Z 24
_cell_length_a 13.762347
_cell_length_b 7.858327
_cell_length_c 25.466436
_cell_angle_alpha 90.000000
_cell_angle_beta 160.014258
_cell_angle_gamma 90.000000
_cell_volume 941.337609
_symmetry_space_group_name_H-M "C C"
_symmetry_group_IT_number 9
_symmetry_cell_setting 'monoclinic'
loop_
_space_group_symop_operation_xyz
x,y,z
x,-y,1/2+z
1/2+x,1/2+y,z
1/2+x,1/2-y,1/2+z
loop_
_atom_site_type_symbol
_atom_site_label
_atom_site_fract_x
_atom_site_fract_y
_atom_site_fract_z
Si Si1 0.496960 0.723201 0.662340
Si Si2 0.777259 0.048815 0.230844
Si Si3 0.716164 0.570195 0.541562
Si Si4 0.005818 0.793014 0.596793
Si Si5 0.413753 0.950849 0.881715
Si Si6 0.092184 0.256425 0.307804
O O1 0.557407 0.801704 0.634985
O O2 0.790498 0.638561 0.831440
O O3 0.245742 0.584509 0.541542
O O4 0.382471 0.891603 0.632223
O O5 0.929945 0.015893 0.365209
O O6 0.995456 0.110815 0.298615
O O7 0.647617 0.875164 0.144206
O O8 0.842527 0.703779 0.562738
O O9 0.804387 0.661373 0.639864
O O10 0.249409 0.910189 0.743958
O O11 0.793627 0.872493 0.446743
O O12 0.283123 0.823824 0.858678
#
# Coordination Sequence:
#
# PCOD9136861 Si02
#       6
#     4   4   4   4   4   4
#     4  11  25  44  71 100 145 195 233 293 364 428
#     4  10  21  44  72 103 142 186 234 298 367 432
#     4   9  20  44  68 100 137 184 229 297 362 420
#     4   9  20  42  69  95 141 178 230 292 361 423
#     4  11  25  45  66 103 144 192 237 294 355 430
#     4  10  23  41  72 103 137 183 241 294 359 435
#
# _framework density 25.495633999999999
#
# number of rings (size 3 to 8) (size 9 to 14) (size 15 to 20)
#    0.000    2.000    1.667    0.000    9.333    0.000 
#    3.000    6.667    0.000    0.000    0.000    0.000 
#    0.000    0.000    0.000    0.000    0.000    0.000 
#
# Total GULP energy -66979.817169 kJ/mol
# GULP energy per Si atom -5581.651431 kJ/mol
# Density = 2.543761 g / cm^3
# Si number density = 25.495634 Si / 1000 Ang^3
#
#
#
# Elastic Constant Matrix: (Units=GPa)
#
#
# Indices 1 2 3 4 5 6 
#
# 1 65.1689 13.1413 38.7684 0.0033 -0.4069 0.0010
# 2 13.1413 78.9022 27.1466 -0.0030 -4.8842 -0.0029
# 3 38.7684 27.1466 155.7331 0.0185 -16.5880 0.0012
# 4 0.0033 -0.0030 0.0185 41.1359 -0.0013 9.3707
# 5 -0.4069 -4.8842 -16.5880 -0.0013 49.2656 -0.0014
# 6 0.0010 -0.0029 0.0012 9.3707 -0.0014 16.4195
#
#
#
# Elastic Compliance Matrix: (Units=1/GPa)
#
#
# Indices 1 2 3 4 5 6 
#
# 1 0.018299 -0.001615 -0.004434 0.000001 -0.001502 -0.000002
# 2 -0.001615 0.013640 -0.001901 0.000002 0.000699 0.000002
# 3 -0.004434 -0.001901 0.008124 -0.000004 0.002510 0.000002
# 4 0.000001 0.000002 -0.000004 0.027942 -0.000001 -0.015947
# 5 -0.001502 0.000699 0.002510 -0.000001 0.021200 0.000002
# 6 -0.000002 0.000002 0.000002 -0.015947 0.000002 0.070004
#
#
# Mechanical properties :
#
#
# Convention : Reuss Voigt Hill
#
# Bulk Modulus (GPa) = 41.38643 50.87964 46.13304
# Shear Modulus (GPa) = 27.29796 36.08072 31.68934
#
# Velocity S-wave (km/s) = 3.27569 3.76596 3.52935
# Velocity P-wave (km/s) = 5.52945 6.23775 5.89425
#
# Compressibility (1/GPa) = 0.02416251
#
# Stress axis : x y z
#
# Youngs Moduli (GPa) = 54.64891 73.31221 123.09576
#
# Poissons Ratio (x) = 0.11841 0.54577
# Poissons Ratio (y) = 0.08827 0.23403
# Poissons Ratio (z) = 0.24230 0.13938
#
# Static dielectric constant tensor:
#      x y z
#    x 1.993130 0.000000 0.026480 
#    y 0.000000 2.069900 0.000000 
#    z 0.026480 0.000000 2.095180 
# 
# From -- ./inp_files/17677.got.cif
#   From: 2010.05.17/outbox.cif.g08.bks.cpg/sg9_9_cif.got.tgz:17677.got - 2010.06.03 20:04:27.
