data_PCOD9136591
_publ_section_title
;
Structure prediction by ZEFSAII (Michael W. Deem and Ramdas Pophale) SiO2 
 PCOD9136591
Probable space group: C C
;
_chemical_formula_sum "Si O2"
_cell_formula_units_Z 32
_cell_length_a 11.489405
_cell_length_b 8.825907
_cell_length_c 29.096826
_cell_angle_alpha 90.000000
_cell_angle_beta 27.938628
_cell_angle_gamma 90.000000
_cell_volume 1382.406487
_symmetry_space_group_name_H-M "C C"
_symmetry_group_IT_number 9
_symmetry_cell_setting 'monoclinic'
loop_
_space_group_symop_operation_xyz
x,y,z
x,-y,1/2+z
1/2+x,1/2+y,z
1/2+x,1/2-y,1/2+z
loop_
_atom_site_type_symbol
_atom_site_label
_atom_site_fract_x
_atom_site_fract_y
_atom_site_fract_z
Si Si1 0.863770 0.719034 0.312820
Si Si2 0.357033 0.189492 0.873857
Si Si3 0.286229 0.461167 0.721779
Si Si4 0.988741 0.983083 0.331786
Si Si5 0.176301 0.850898 0.035383
Si Si6 0.691715 0.760287 0.832320
Si Si7 0.005228 0.399938 0.663563
Si Si8 0.481856 0.577076 0.510548
O O1 0.919773 0.680024 0.240714
O O2 0.608584 0.645853 0.420876
O O3 0.117537 0.392842 0.293776
O O4 0.873429 0.888429 0.330034
O O5 0.090336 0.363028 0.760850
O O6 0.344203 0.362878 0.894830
O O7 0.333825 0.198487 0.826549
O O8 0.135668 0.079237 0.966629
O O9 0.522961 0.512225 0.610803
O O10 0.355447 0.358654 0.740828
O O11 0.051416 0.872935 0.352877
O O12 0.261781 0.041557 0.222760
O O13 0.147030 0.714809 0.081182
O O14 0.467285 0.869828 0.926199
O O15 0.050408 0.819190 0.030021
O O16 0.195311 0.535652 0.607799
#
# Coordination Sequence:
#
# PCOD9136591 Si02
#       8
#     4   4   4   4   4   4   4   4
#     4  10  23  45  68  97 141 176 228 279 345 404
#     4  11  22  42  67  93 130 176 219 276 345 393
#     4  10  21  42  66  93 136 180 217 280 334 397
#     4  11  24  43  67 101 134 175 227 283 335 405
#     4  12  22  42  71 102 134 179 235 276 336 418
#     4  11  24  44  67  97 139 175 226 283 341 396
#     4  12  25  41  72 102 137 180 228 283 349 404
#     4  11  23  45  72  97 135 189 226 278 347 413
#
# _framework density 23.148039000000001
#
# number of rings (size 3 to 8) (size 9 to 14) (size 15 to 20)
#    0.000    1.000    7.500    1.500    1.750    0.000 
#    2.250    3.750    0.000    0.000    0.000    0.000 
#    0.000    0.000    0.000    0.000    0.000    0.000 
#
# Total GULP energy -89484.481987 kJ/mol
# GULP energy per Si atom -5592.780124 kJ/mol
# Density = 2.309535 g / cm^3
# Si number density = 23.148039 Si / 1000 Ang^3
#
#
#
# Elastic Constant Matrix: (Units=GPa)
#
#
# Indices 1 2 3 4 5 6 
#
# 1 74.4363 23.2969 7.2074 -0.0066 15.5414 -0.0012
# 2 23.2969 90.5500 7.3992 -0.0016 2.0628 -0.0027
# 3 7.2074 7.3992 57.5789 0.0165 17.0691 0.0039
# 4 -0.0066 -0.0016 0.0165 18.0201 -0.0089 2.6730
# 5 15.5414 2.0628 17.0691 -0.0089 28.7542 -0.0033
# 6 -0.0012 -0.0027 0.0039 2.6730 -0.0033 37.2614
#
#
#
# Elastic Compliance Matrix: (Units=1/GPa)
#
#
# Indices 1 2 3 4 5 6 
#
# 1 0.016576 -0.004152 0.001246 0.000000 -0.009401 -0.000001
# 2 -0.004152 0.012201 -0.001765 0.000002 0.002416 0.000001
# 3 0.001246 -0.001765 0.021359 -0.000026 -0.013226 -0.000002
# 4 0.000000 0.000002 -0.000026 0.056091 0.000032 -0.004024
# 5 -0.009401 0.002416 -0.013226 0.000032 0.047536 0.000003
# 6 -0.000001 0.000001 -0.000002 -0.004024 0.000003 0.027126
#
#
# Mechanical properties :
#
#
# Convention : Reuss Voigt Hill
#
# Bulk Modulus (GPa) = 24.51363 33.15245 28.83304
# Shear Modulus (GPa) = 24.53028 29.11791 26.82410
#
# Velocity S-wave (km/s) = 3.25885 3.55054 3.40782
# Velocity P-wave (km/s) = 4.97726 5.58224 5.28841
#
# Compressibility (1/GPa) = 0.04079362
#
# Stress axis : x y z
#
# Youngs Moduli (GPa) = 60.32804 81.96000 46.81840
#
# Poissons Ratio (x) = 0.34033 -0.05831
# Poissons Ratio (y) = 0.25050 0.08261
# Poissons Ratio (z) = -0.07514 0.14462
#
# Static dielectric constant tensor:
#      x y z
#    x 1.856010 0.000000 0.009740 
#    y 0.000000 1.952160 0.000000 
#    z 0.009740 0.000000 1.818380 
# 
# From -- ./inp_files/24258.got.cif
#   From: 2010.05.17/outbox.cif.g08.bks.cpg/sg9_13_cif.got.tgz:24258.got - 2010.06.03 20:04:27.
