data_PCOD9136477
_publ_section_title
;
Structure prediction by ZEFSAII (Michael W. Deem and Ramdas Pophale) SiO2 
 PCOD9136477
Probable space group: C C
;
_chemical_formula_sum "Si O2"
_cell_formula_units_Z 32
_cell_length_a 11.987778
_cell_length_b 7.683286
_cell_length_c 20.311303
_cell_angle_alpha 90.000000
_cell_angle_beta 136.763237
_cell_angle_gamma 90.000000
_cell_volume 1281.514031
_symmetry_space_group_name_H-M "C C"
_symmetry_group_IT_number 9
_symmetry_cell_setting 'monoclinic'
loop_
_space_group_symop_operation_xyz
x,y,z
x,-y,1/2+z
1/2+x,1/2+y,z
1/2+x,1/2-y,1/2+z
loop_
_atom_site_type_symbol
_atom_site_label
_atom_site_fract_x
_atom_site_fract_y
_atom_site_fract_z
Si Si1 0.070420 0.578414 0.667490
Si Si2 0.763240 0.751279 0.068860
Si Si3 0.099765 0.825663 0.873419
Si Si4 0.421658 0.892958 0.956374
Si Si5 0.360813 0.960080 0.298696
Si Si6 0.561936 0.293465 0.127803
Si Si7 0.418031 0.676163 0.771912
Si Si8 0.752521 0.334812 0.079286
O O1 0.088062 0.371520 0.687815
O O2 0.252437 0.644253 0.741689
O O3 0.983007 0.571457 0.557142
O O4 0.947088 0.694499 0.657380
O O5 0.576204 0.802985 0.989805
O O6 0.857856 0.839700 0.170698
O O7 0.755973 0.545607 0.079964
O O8 0.867119 0.808926 0.049648
O O9 0.939761 0.709810 0.800042
O O10 0.252812 0.789456 0.892179
O O11 0.168768 0.782945 0.975427
O O12 0.049372 0.028660 0.844931
O O13 0.379213 0.040574 0.885137
O O14 0.169165 0.954551 0.199228
O O15 0.451097 0.123389 0.303707
O O16 0.643048 0.263603 0.091377
#
# Coordination Sequence:
#
# PCOD9136477 Si02
#       8
#     4   4   4   4   4   4   4   4
#     4   9  21  42  67  89 139 177 217 287 336 402
#     4  10  22  42  67  97 138 180 229 284 336 409
#     4  11  24  44  70  98 140 177 225 293 346 405
#     4  10  23  43  63 100 134 175 229 280 345 403
#     4  12  24  41  67 106 131 180 231 274 355 413
#     4  11  21  41  67  98 133 179 230 275 339 414
#     4  11  22  44  66  98 138 176 223 288 341 407
#     4  10  21  41  67 100 131 182 232 273 346 413
#
# _framework density 24.970464
#
# number of rings (size 3 to 8) (size 9 to 14) (size 15 to 20)
#    0.000    1.500    2.500    2.250    0.000    2.000 
#    6.750    3.750    0.000    0.000    0.000    0.000 
#    0.000    0.000    0.000    0.000    0.000    0.000 
#
# Total GULP energy -89351.829586 kJ/mol
# GULP energy per Si atom -5584.489349 kJ/mol
# Density = 2.491363 g / cm^3
# Si number density = 24.970464 Si / 1000 Ang^3
#
#
#
# Elastic Constant Matrix: (Units=GPa)
#
#
# Indices 1 2 3 4 5 6 
#
# 1 210.0791 27.0605 35.0632 0.0000 23.1468 0.0000
# 2 27.0605 58.5781 -15.2980 0.0000 10.9155 0.0000
# 3 35.0632 -15.2980 52.4714 0.0000 -0.1924 0.0000
# 4 0.0000 0.0000 0.0000 22.1806 0.0000 3.8794
# 5 23.1468 10.9155 -0.1924 0.0000 43.4772 0.0000
# 6 0.0000 0.0000 0.0000 3.8794 0.0000 36.0847
#
#
#
# Elastic Compliance Matrix: (Units=1/GPa)
#
#
# Indices 1 2 3 4 5 6 
#
# 1 0.006455 -0.003952 -0.005474 0.000000 -0.002469 0.000000
# 2 -0.003952 0.021872 0.009005 0.000000 -0.003348 0.000000
# 3 -0.005474 0.009005 0.025344 0.000000 0.000766 0.000000
# 4 0.000000 0.000000 0.000000 0.045948 0.000000 -0.004940
# 5 -0.002469 -0.003348 0.000766 0.000000 0.025159 0.000000
# 6 0.000000 0.000000 0.000000 -0.004940 0.000000 0.028244
#
#
# Mechanical properties :
#
#
# Convention : Reuss Voigt Hill
#
# Bulk Modulus (GPa) = 18.92876 46.08667 32.50772
# Shear Modulus (GPa) = 29.15899 38.63537 33.89718
#
# Velocity S-wave (km/s) = 3.42093 3.93777 3.68841
# Velocity P-wave (km/s) = 4.81670 6.25869 5.58443
#
# Compressibility (1/GPa) = 0.05282965
#
# Stress axis : x y z
#
# Youngs Moduli (GPa) = 154.92318 45.72016 39.45644
#
# Poissons Ratio (x) = 0.18066 0.21600
# Poissons Ratio (y) = 0.61218 -0.35531
# Poissons Ratio (z) = 0.84812 -0.41171
#
# Static dielectric constant tensor:
#      x y z
#    x 2.038850 0.000000 -0.005820 
#    y 0.000000 2.013130 0.000000 
#    z -0.005820 0.000000 2.005800 
# 
# From -- ./inp_files/33222.got.cif
#   From: 2010.05.17/outbox.cif.g08.bks.cpg/sg9_17_cif.got.tgz:33222.got - 2010.06.03 20:04:27.
