data_PCOD9136719
_publ_section_title
;
Structure prediction by ZEFSAII (Michael W. Deem and Ramdas Pophale) SiO2 
 PCOD9136719
Probable space group: C C
;
_chemical_formula_sum "Si O2"
_cell_formula_units_Z 28
_cell_length_a 6.262174
_cell_length_b 16.528684
_cell_length_c 15.298489
_cell_angle_alpha 90.000000
_cell_angle_beta 46.187179
_cell_angle_gamma 90.000000
_cell_volume 1142.645934
_symmetry_space_group_name_H-M "C C"
_symmetry_group_IT_number 9
_symmetry_cell_setting 'monoclinic'
loop_
_space_group_symop_operation_xyz
x,y,z
x,-y,1/2+z
1/2+x,1/2+y,z
1/2+x,1/2-y,1/2+z
loop_
_atom_site_type_symbol
_atom_site_label
_atom_site_fract_x
_atom_site_fract_y
_atom_site_fract_z
Si Si1 0.665630 0.959097 0.224870
Si Si2 0.046589 0.823408 0.703460
Si Si3 0.393169 0.345188 0.562588
Si Si4 0.640997 0.729112 0.496453
Si Si5 0.046635 0.300778 0.347490
Si Si6 0.956080 0.475884 0.615942
Si Si7 0.810676 0.453733 0.979555
O O1 0.717791 0.868353 0.244137
O O2 0.450179 0.967031 0.202412
O O3 0.508321 0.007147 0.347590
O O4 0.986487 0.988184 0.099598
O O5 0.827175 0.836885 0.684455
O O6 0.300448 0.760359 0.598134
O O7 0.948855 0.777119 0.818420
O O8 0.191998 0.909801 0.685832
O O9 0.286880 0.266419 0.541086
O O10 0.230550 0.415323 0.554679
O O11 0.746423 0.348204 0.457245
O O12 0.727737 0.771688 0.380271
O O13 0.725349 0.635854 0.472322
O O14 0.982421 0.529454 0.521745
#
# Coordination Sequence:
#
# PCOD9136719 Si02
#       7
#     4   4   4   4   4   4   4
#     4  12  26  46  73 111 152 198 252 308 383 448
#     4  10  21  43  66  99 142 191 245 305 359 444
#     4  10  23  43  67 102 140 196 242 304 368 438
#     4  10  23  43  69 105 145 190 254 303 373 445
#     4  11  23  42  73 103 145 191 254 306 369 450
#     4  11  25  44  72 104 156 193 249 307 382 446
#     4  12  27  47  74 112 154 199 250 313 378 455
#
# _framework density 24.504529000000002
#
# number of rings (size 3 to 8) (size 9 to 14) (size 15 to 20)
#    0.000    1.143    1.429    5.143    2.000    8.000 
#    0.000    0.000    0.000    0.000    0.000    0.000 
#    0.000    0.000    0.000    0.000    0.000    0.000 
#
# Total GULP energy -78197.457930 kJ/mol
# GULP energy per Si atom -5585.532709 kJ/mol
# Density = 2.444876 g / cm^3
# Si number density = 24.504529 Si / 1000 Ang^3
#
#
#
# Elastic Constant Matrix: (Units=GPa)
#
#
# Indices 1 2 3 4 5 6 
#
# 1 119.1037 41.4799 54.7493 0.0000 34.0450 0.0000
# 2 41.4799 121.4036 40.3336 0.0000 15.4147 0.0000
# 3 54.7493 40.3336 119.2225 0.0000 21.1341 0.0000
# 4 0.0000 0.0000 0.0000 44.8435 0.0000 19.9417
# 5 34.0450 15.4147 21.1341 0.0000 54.9410 0.0000
# 6 0.0000 0.0000 0.0000 19.9417 0.0000 24.3025
#
#
#
# Elastic Compliance Matrix: (Units=1/GPa)
#
#
# Indices 1 2 3 4 5 6 
#
# 1 0.012660 -0.002264 -0.004046 0.000000 -0.005654 0.000000
# 2 -0.002264 0.009801 -0.002187 0.000000 -0.000506 0.000000
# 3 -0.004046 -0.002187 0.011196 0.000000 -0.001186 0.000000
# 4 0.000000 0.000000 0.000000 0.035112 0.000000 -0.028812
# 5 -0.005654 -0.000506 -0.001186 0.000000 0.022303 0.000000
# 6 0.000000 0.000000 0.000000 -0.028812 0.000000 0.064790
#
#
# Mechanical properties :
#
#
# Convention : Reuss Voigt Hill
#
# Bulk Modulus (GPa) = 60.00633 70.31725 65.16179
# Shear Modulus (GPa) = 28.02555 39.69521 33.86038
#
# Velocity S-wave (km/s) = 3.38552 4.02918 3.72129
# Velocity P-wave (km/s) = 6.31057 7.09955 6.71666
#
# Compressibility (1/GPa) = 0.01666491
#
# Stress axis : x y z
#
# Youngs Moduli (GPa) = 78.98744 102.02944 89.32107
#
# Poissons Ratio (x) = 0.23096 0.36138
# Poissons Ratio (y) = 0.17880 0.19530
# Poissons Ratio (z) = 0.31957 0.22309
#
# Static dielectric constant tensor:
#      x y z
#    x 1.986740 0.000000 -0.034910 
#    y 0.000000 1.983850 0.000000 
#    z -0.034910 0.000000 2.051030 
# 
# From -- ./inp_files/13090.got.cif
#   From: 2010.05.17/outbox.cif.g08.bks.cpg/sg9_7_cif.got.tgz:13090.got - 2010.06.03 20:04:27.
