data_PCOD9136534
_publ_section_title
;
Structure prediction by ZEFSAII (Michael W. Deem and Ramdas Pophale) SiO2 
 PCOD9136534
Probable space group: C C
;
_chemical_formula_sum "Si O2"
_cell_formula_units_Z 28
_cell_length_a 15.903761
_cell_length_b 11.904737
_cell_length_c 8.577796
_cell_angle_alpha 90.000000
_cell_angle_beta 126.511929
_cell_angle_gamma 90.000000
_cell_volume 1305.290449
_symmetry_space_group_name_H-M "C C"
_symmetry_group_IT_number 9
_symmetry_cell_setting 'monoclinic'
loop_
_space_group_symop_operation_xyz
x,y,z
x,-y,1/2+z
1/2+x,1/2+y,z
1/2+x,1/2-y,1/2+z
loop_
_atom_site_type_symbol
_atom_site_label
_atom_site_fract_x
_atom_site_fract_y
_atom_site_fract_z
Si Si1 0.861020 0.131436 0.300690
Si Si2 0.166502 0.786453 0.498087
Si Si3 0.380099 0.152668 0.653417
Si Si4 0.819202 0.102626 0.620483
Si Si5 0.296290 0.024398 0.263577
Si Si6 0.498606 0.324497 0.566090
Si Si7 0.577808 0.569473 0.630919
O O1 0.822974 0.246812 0.183371
O O2 0.846168 0.122543 0.469576
O O3 0.986356 0.117282 0.422471
O O4 0.812397 0.027702 0.155159
O O5 0.209802 0.664103 0.520294
O O6 0.265168 0.871607 0.618497
O O7 0.098093 0.839738 0.286345
O O8 0.099267 0.787088 0.579814
O O9 0.322242 0.082625 0.455607
O O10 0.465092 0.226897 0.649776
O O11 0.386891 0.055846 0.794806
O O12 0.902936 0.153991 0.837129
O O13 0.186644 0.957559 0.164610
O O14 0.532344 0.452071 0.650452
#
# Coordination Sequence:
#
# PCOD9136534 Si02
#       7
#     4   4   4   4   4   4   4
#     4  11  24  41  72 101 139 176 231 290 354 412
#     4  11  21  41  72 100 139 176 239 283 341 422
#     4  12  25  43  67 101 141 181 232 294 352 414
#     4  11  22  42  69 103 139 179 223 289 353 413
#     4  11  24  40  71  99 134 182 239 288 351 405
#     4  10  23  40  67 104 139 177 234 288 342 408
#     4  10  21  41  72 106 127 183 242 288 331 424
#
# _framework density 21.451163000000001
#
# number of rings (size 3 to 8) (size 9 to 14) (size 15 to 20)
#    0.000    1.143    4.286    2.571    4.000    0.000 
#    0.000    1.429    3.143    0.000    0.000    0.000 
#    0.000    0.000    0.000    0.000    0.000    0.000 
#
# Total GULP energy -78062.209250 kJ/mol
# GULP energy per Si atom -5575.872089 kJ/mol
# Density = 2.140234 g / cm^3
# Si number density = 21.451163 Si / 1000 Ang^3
#
#
#
# Elastic Constant Matrix: (Units=GPa)
#
#
# Indices 1 2 3 4 5 6 
#
# 1 45.7789 38.4242 26.8495 0.0000 -5.3982 0.0000
# 2 38.4242 132.7662 60.5790 0.0000 -1.1289 0.0000
# 3 26.8495 60.5790 69.8334 0.0000 -14.6473 0.0000
# 4 0.0000 0.0000 0.0000 34.5575 0.0000 -4.6147
# 5 -5.3982 -1.1289 -14.6473 0.0000 19.6859 0.0000
# 6 0.0000 0.0000 0.0000 -4.6147 0.0000 33.2431
#
#
#
# Elastic Compliance Matrix: (Units=1/GPa)
#
#
# Indices 1 2 3 4 5 6 
#
# 1 0.030915 -0.006415 -0.005475 0.000000 0.004036 0.000000
# 2 -0.006415 0.015192 -0.012914 0.000000 -0.010496 0.000000
# 3 -0.005475 -0.012914 0.032179 0.000000 0.021701 0.000000
# 4 0.000000 0.000000 0.000000 0.029484 0.000000 0.004093
# 5 0.004036 -0.010496 0.021701 0.000000 0.067449 0.000000
# 6 0.000000 0.000000 0.000000 0.004093 0.000000 0.030650
#
#
# Mechanical properties :
#
#
# Convention : Reuss Voigt Hill
#
# Bulk Modulus (GPa) = 34.86895 55.56489 45.21692
# Shear Modulus (GPa) = 18.86545 25.66567 22.26556
#
# Velocity S-wave (km/s) = 2.96879 3.46276 3.22524
# Velocity P-wave (km/s) = 5.29546 6.47663 5.91560
#
# Compressibility (1/GPa) = 0.02867881
#
# Stress axis : x y z
#
# Youngs Moduli (GPa) = 32.34625 65.82616 31.07641
#
# Poissons Ratio (x) = 0.42226 0.17015
# Poissons Ratio (y) = 0.20749 0.40131
# Poissons Ratio (z) = 0.17710 0.85005
#
# Static dielectric constant tensor:
#      x y z
#    x 1.846910 0.000000 -0.057510 
#    y 0.000000 1.791680 0.000000 
#    z -0.057510 0.000000 1.819610 
# 
# From -- ./inp_files/9024.got.cif
#   From: 2010.05.17/outbox.cif.g08.bks.cpg/sg9_5_cif.got.tgz:9024.got - 2010.06.03 20:04:27.
