data_PCOD9136023
_publ_section_title
;
Structure prediction by ZEFSAII (Michael W. Deem and Ramdas Pophale) SiO2 
 PCOD9136023
Probable space group: C C
;
_chemical_formula_sum "Si O2"
_cell_formula_units_Z 28
_cell_length_a 27.325399
_cell_length_b 5.212100
_cell_length_c 11.995465
_cell_angle_alpha 90.000000
_cell_angle_beta 43.363627
_cell_angle_gamma 90.000000
_cell_volume 1173.050371
_symmetry_space_group_name_H-M "C C"
_symmetry_group_IT_number 9
_symmetry_cell_setting 'monoclinic'
loop_
_space_group_symop_operation_xyz
x,y,z
x,-y,1/2+z
1/2+x,1/2+y,z
1/2+x,1/2-y,1/2+z
loop_
_atom_site_type_symbol
_atom_site_label
_atom_site_fract_x
_atom_site_fract_y
_atom_site_fract_z
Si Si1 0.890280 0.652781 0.990780
Si Si2 0.165141 0.820463 0.662394
Si Si3 0.196010 0.476112 0.830051
Si Si4 0.519748 0.168137 0.942026
Si Si5 0.838218 0.840539 0.478952
Si Si6 0.074119 0.831805 0.443809
Si Si7 0.764704 0.658556 0.376285
O O1 0.892393 0.384463 0.922955
O O2 0.955669 0.707929 0.964239
O O3 0.875380 0.885736 0.931632
O O4 0.822443 0.633261 0.184268
O O5 0.186913 0.672971 0.739633
O O6 0.092757 0.678981 0.749258
O O7 0.133540 0.098549 0.751324
O O8 0.229058 0.893045 0.476030
O O9 0.270056 0.339272 0.675417
O O10 0.127965 0.287095 0.945447
O O11 0.206113 0.651079 0.921369
O O12 0.532049 0.397195 0.012544
O O13 0.520324 0.892240 0.999012
O O14 0.804941 0.782643 0.414381
#
# Coordination Sequence:
#
# PCOD9136023 Si02
#       7
#     4   4   4   4   4   4   4
#     4  11  25  41  65  90 129 173 209 263 319 382
#     4   9  20  40  65  92 125 157 212 264 314 378
#     4  10  21  38  63 100 129 163 207 279 323 372
#     4   9  19  40  65  81 125 169 201 255 328 358
#     4  11  23  41  59  93 133 162 213 260 314 385
#     4   9  18  37  66  85 119 163 201 258 312 380
#     4  11  22  39  67  95 128 165 217 259 332 371
#
# _framework density 23.869392000000001
#
# number of rings (size 3 to 8) (size 9 to 14) (size 15 to 20)
#    0.857    1.143    1.429    2.571    0.000    4.571 
#    0.000    2.857    6.286    0.000    0.000    0.000 
#    0.000    0.000    0.000    0.000    0.000    0.000 
#
# Total GULP energy -78157.139074 kJ/mol
# GULP energy per Si atom -5582.652791 kJ/mol
# Density = 2.381506 g / cm^3
# Si number density = 23.869392 Si / 1000 Ang^3
#
#
#
# Elastic Constant Matrix: (Units=GPa)
#
#
# Indices 1 2 3 4 5 6 
#
# 1 100.8645 44.3080 -5.7330 0.0002 -23.5673 0.0003
# 2 44.3080 152.0266 21.3479 0.0002 -0.3668 0.0027
# 3 -5.7330 21.3479 40.2936 0.0000 5.2302 0.0002
# 4 0.0002 0.0002 0.0000 14.0932 0.0000 -2.5743
# 5 -23.5673 -0.3668 5.2302 0.0000 21.9329 -0.0002
# 6 0.0003 0.0027 0.0002 -2.5743 -0.0002 30.8081
#
#
#
# Elastic Compliance Matrix: (Units=1/GPa)
#
#
# Indices 1 2 3 4 5 6 
#
# 1 0.016194 -0.005078 0.002834 0.000000 0.016640 0.000000
# 2 -0.005078 0.008722 -0.004803 0.000000 -0.004165 -0.000001
# 3 0.002834 -0.004803 0.028255 0.000000 -0.003773 0.000000
# 4 0.000000 0.000000 0.000000 0.072056 0.000000 0.006021
# 5 0.016640 -0.004165 -0.003773 0.000000 0.064303 0.000001
# 6 0.000000 -0.000001 0.000000 0.006021 0.000001 0.032962
#
#
# Mechanical properties :
#
#
# Convention : Reuss Voigt Hill
#
# Bulk Modulus (GPa) = 25.58913 45.89227 35.74070
# Shear Modulus (GPa) = 20.03116 28.91762 24.47439
#
# Velocity S-wave (km/s) = 2.90004 3.48443 3.20558
# Velocity P-wave (km/s) = 4.68587 5.95453 5.35788
#
# Compressibility (1/GPa) = 0.03907909
#
# Stress axis : x y z
#
# Youngs Moduli (GPa) = 61.75207 114.65243 35.39148
#
# Poissons Ratio (x) = 0.58215 -0.10031
# Poissons Ratio (y) = 0.31355 0.16998
# Poissons Ratio (z) = -0.17502 0.55066
#
# Static dielectric constant tensor:
#      x y z
#    x 1.889130 0.000000 -0.015230 
#    y 0.000000 1.975000 0.000000 
#    z -0.015230 0.000000 1.929440 
# 
# From -- ./inp_files/20436.got.cif
#   From: 2010.05.17/outbox.cif.g08.bks.cpg/sg9_11_cif.got.tgz:20436.got - 2010.06.03 20:04:27.
