data_PCOD9136262
_publ_section_title
;
Structure prediction by ZEFSAII (Michael W. Deem and Ramdas Pophale) SiO2 
 PCOD9136262
Probable space group: C C
;
_chemical_formula_sum "Si O2"
_cell_formula_units_Z 32
_cell_length_a 23.502282
_cell_length_b 12.923375
_cell_length_c 16.453784
_cell_angle_alpha 90.000000
_cell_angle_beta 17.147151
_cell_angle_gamma 90.000000
_cell_volume 1473.393364
_symmetry_space_group_name_H-M "C C"
_symmetry_group_IT_number 9
_symmetry_cell_setting 'monoclinic'
loop_
_space_group_symop_operation_xyz
x,y,z
x,-y,1/2+z
1/2+x,1/2+y,z
1/2+x,1/2-y,1/2+z
loop_
_atom_site_type_symbol
_atom_site_label
_atom_site_fract_x
_atom_site_fract_y
_atom_site_fract_z
Si Si1 0.255990 0.184098 0.600440
Si Si2 0.701611 0.643286 0.334580
Si Si3 0.479214 0.551411 0.380207
Si Si4 0.143220 0.593483 0.742059
Si Si5 0.255790 0.805480 0.578677
Si Si6 0.484733 0.539862 0.050812
Si Si7 0.055674 0.492380 0.197078
Si Si8 0.554194 0.657548 0.707484
O O1 0.347089 0.291599 0.503965
O O2 0.179915 0.194861 0.612135
O O3 0.423252 0.094309 0.367662
O O4 0.091120 0.148756 0.889847
O O5 0.679768 0.698856 0.276754
O O6 0.604879 0.531614 0.448928
O O7 0.613350 0.691042 0.536268
O O8 0.927681 0.634379 0.045364
O O9 0.252675 0.559263 0.672829
O O10 0.600510 0.655861 0.223836
O O11 0.516222 0.506144 0.418162
O O12 0.554987 0.466922 0.213064
O O13 0.285228 0.685595 0.516896
O O14 0.118538 0.509661 0.705755
O O15 0.423803 0.891385 0.355641
O O16 0.259021 0.524280 0.375119
#
# Coordination Sequence:
#
# PCOD9136262 Si02
#       8
#     4   4   4   4   4   4   4   4
#     4  11  25  46  64  98 135 171 226 277 327 402
#     4  10  22  39  64 102 124 168 215 274 338 383
#     4  10  21  40  62  95 132 170 214 274 328 397
#     4  11  22  37  68  96 127 166 222 277 331 389
#     4  10  21  42  62  96 132 160 220 275 330 388
#     4  10  22  44  67  88 138 179 208 268 337 385
#     4  11  22  44  67  88 136 175 211 276 333 388
#     4  11  25  40  66  97 132 173 220 273 334 392
#
# _framework density 21.718572000000002
#
# number of rings (size 3 to 8) (size 9 to 14) (size 15 to 20)
#    0.000    1.500    5.000    2.250    7.000    1.000 
#    4.500    0.000    2.750    0.000    0.000    0.000 
#    0.000    0.000    0.000    0.000    0.000    0.000 
#
# Total GULP energy -89125.144243 kJ/mol
# GULP energy per Si atom -5570.321515 kJ/mol
# Density = 2.166914 g / cm^3
# Si number density = 21.718572 Si / 1000 Ang^3
#
#
#
# Elastic Constant Matrix: (Units=GPa)
#
#
# Indices 1 2 3 4 5 6 
#
# 1 97.5769 21.7067 18.6270 0.0003 -37.1719 -0.0002
# 2 21.7067 33.9911 -3.8462 -0.0005 -7.0459 0.0002
# 3 18.6270 -3.8462 81.9858 -0.0006 -10.1238 0.0001
# 4 0.0003 -0.0005 -0.0006 22.2887 0.0001 -11.9711
# 5 -37.1719 -7.0459 -10.1238 0.0001 37.3328 0.0001
# 6 -0.0002 0.0002 0.0001 -11.9711 0.0001 13.6629
#
#
#
# Elastic Compliance Matrix: (Units=1/GPa)
#
#
# Indices 1 2 3 4 5 6 
#
# 1 0.019094 -0.009068 -0.002718 -0.000001 0.016563 0.000000
# 2 -0.009068 0.035321 0.003544 0.000001 -0.001401 0.000001
# 3 -0.002718 0.003544 0.013170 0.000001 0.001534 0.000001
# 4 -0.000001 0.000001 0.000001 0.084747 -0.000001 0.074253
# 5 0.016563 -0.001401 0.001534 -0.000001 0.043430 -0.000001
# 6 0.000000 0.000001 0.000001 0.074253 -0.000001 0.138250
#
#
# Mechanical properties :
#
#
# Convention : Reuss Voigt Hill
#
# Bulk Modulus (GPa) = 19.56888 31.83655 25.70271
# Shear Modulus (GPa) = 13.60435 26.46129 20.03282
#
# Velocity S-wave (km/s) = 2.50550 3.49430 3.04037
# Velocity P-wave (km/s) = 4.17131 5.56513 4.91785
#
# Compressibility (1/GPa) = 0.05110155
#
# Stress axis : x y z
#
# Youngs Moduli (GPa) = 52.37164 28.31202 75.92733
#
# Poissons Ratio (x) = 0.25673 0.20639
# Poissons Ratio (y) = 0.47490 -0.26910
# Poissons Ratio (z) = 0.14236 -0.10034
#
# Static dielectric constant tensor:
#      x y z
#    x 1.769360 0.000000 0.008780 
#    y 0.000000 1.890770 0.000000 
#    z 0.008780 0.000000 1.837730 
# 
# From -- ./inp_files/11706.got.cif
#   From: 2010.05.17/outbox.cif.g08.bks.cpg/sg9_6_cif.got.tgz:11706.got - 2010.06.03 20:04:27.
