data_PCOD9136302
_publ_section_title
;
Structure prediction by ZEFSAII (Michael W. Deem and Ramdas Pophale) SiO2 
 PCOD9136302
Probable space group: C C
;
_chemical_formula_sum "Si O2"
_cell_formula_units_Z 24
_cell_length_a 7.559221
_cell_length_b 13.140572
_cell_length_c 9.456859
_cell_angle_alpha 90.000000
_cell_angle_beta 67.547275
_cell_angle_gamma 90.000000
_cell_volume 868.164109
_symmetry_space_group_name_H-M "C C"
_symmetry_group_IT_number 9
_symmetry_cell_setting 'monoclinic'
loop_
_space_group_symop_operation_xyz
x,y,z
x,-y,1/2+z
1/2+x,1/2+y,z
1/2+x,1/2-y,1/2+z
loop_
_atom_site_type_symbol
_atom_site_label
_atom_site_fract_x
_atom_site_fract_y
_atom_site_fract_z
Si Si1 0.974200 0.952890 0.439280
Si Si2 0.689167 0.552722 0.144356
Si Si3 0.182569 0.274540 0.513329
Si Si4 0.165748 0.380224 0.989335
Si Si5 0.482592 0.235399 0.789284
Si Si6 0.440870 0.119319 0.297469
O O1 0.854359 0.851171 0.495610
O O2 0.155989 0.955559 0.488653
O O3 0.824128 0.045604 0.508705
O O4 0.052021 0.970115 0.259004
O O5 0.602636 0.663282 0.211940
O O6 0.880277 0.552767 0.180715
O O7 0.072453 0.309120 0.405199
O O8 0.269774 0.166698 0.443010
O O9 0.041872 0.284527 0.688502
O O10 0.278031 0.280670 0.894795
O O11 0.077346 0.428451 0.873863
O O12 0.014005 0.339752 0.149612
#
# Coordination Sequence:
#
# PCOD9136302 Si02
#       6
#     4   4   4   4   4   4
#     4  11  23  43  67  96 134 173 219 281 331 381
#     4  10  23  41  62  93 132 174 219 268 327 389
#     4  11  23  42  68  98 133 174 221 275 329 395
#     4  11  22  41  69  99 131 174 220 273 332 394
#     4  10  21  40  65  94 129 171 217 264 325 399
#     4  11  24  43  67  98 133 176 224 269 332 408
#
# _framework density 27.644542999999999
#
# number of rings (size 3 to 8) (size 9 to 14) (size 15 to 20)
#    0.000    1.333    0.000    7.000    0.000    4.000 
#    0.000    6.667    0.000    2.000    0.000    0.000 
#    0.000    0.000    0.000    0.000    0.000    0.000 
#
# Total GULP energy -67250.351952 kJ/mol
# GULP energy per Si atom -5604.195996 kJ/mol
# Density = 2.758162 g / cm^3
# Si number density = 27.644543 Si / 1000 Ang^3
#
#
#
# Elastic Constant Matrix: (Units=GPa)
#
#
# Indices 1 2 3 4 5 6 
#
# 1 135.2372 32.0147 40.9481 0.0000 49.0121 0.0000
# 2 32.0147 106.8625 24.6919 0.0000 -3.6832 0.0000
# 3 40.9481 24.6919 131.1139 0.0000 28.4746 0.0000
# 4 0.0000 0.0000 0.0000 36.7429 0.0000 -0.5646
# 5 49.0121 -3.6832 28.4746 0.0000 61.2261 0.0000
# 6 0.0000 0.0000 0.0000 -0.5646 0.0000 32.5926
#
#
#
# Elastic Compliance Matrix: (Units=1/GPa)
#
#
# Indices 1 2 3 4 5 6 
#
# 1 0.011943 -0.003663 -0.001019 0.000000 -0.009307 0.000000
# 2 -0.003663 0.011052 -0.001912 0.000000 0.004486 0.000000
# 3 -0.001019 -0.001912 0.009069 0.000000 -0.003517 0.000000
# 4 0.000000 0.000000 0.000000 0.027223 0.000000 0.000472
# 5 -0.009307 0.004486 -0.003517 0.000000 0.025689 0.000000
# 6 0.000000 0.000000 0.000000 0.000472 0.000000 0.030690
#
#
# Mechanical properties :
#
#
# Convention : Reuss Voigt Hill
#
# Bulk Modulus (GPa) = 52.97617 63.16922 58.07269
# Shear Modulus (GPa) = 36.99706 44.48290 40.73998
#
# Velocity S-wave (km/s) = 3.66227 4.01571 3.84305
# Velocity P-wave (km/s) = 6.08998 6.66344 6.38315
#
# Compressibility (1/GPa) = 0.01887641
#
# Stress axis : x y z
#
# Youngs Moduli (GPa) = 83.72941 90.48418 110.26630
#
# Poissons Ratio (x) = 0.33148 0.11234
# Poissons Ratio (y) = 0.30674 0.21077
# Poissons Ratio (z) = 0.08530 0.17296
#
# Static dielectric constant tensor:
#      x y z
#    x 2.225820 0.000000 -0.018410 
#    y 0.000000 2.122020 0.000000 
#    z -0.018410 0.000000 2.043190 
# 
# From -- ./inp_files/4975.got.cif
#   From: 2010.05.17/outbox.cif.g08.bks.cpg/sg9_3_cif.got.tgz:4975.got - 2010.06.03 20:04:27.
