data_PCOD9136285
_publ_section_title
;
Structure prediction by ZEFSAII (Michael W. Deem and Ramdas Pophale) SiO2 
 PCOD9136285
Probable space group: C C
;
_chemical_formula_sum "Si O2"
_cell_formula_units_Z 32
_cell_length_a 7.368063
_cell_length_b 19.575122
_cell_length_c 9.935423
_cell_angle_alpha 90.000000
_cell_angle_beta 77.458282
_cell_angle_gamma 90.000000
_cell_volume 1398.799469
_symmetry_space_group_name_H-M "C C"
_symmetry_group_IT_number 9
_symmetry_cell_setting 'monoclinic'
loop_
_space_group_symop_operation_xyz
x,y,z
x,-y,1/2+z
1/2+x,1/2+y,z
1/2+x,1/2-y,1/2+z
loop_
_atom_site_type_symbol
_atom_site_label
_atom_site_fract_x
_atom_site_fract_y
_atom_site_fract_z
Si Si1 0.036490 0.922422 0.406370
Si Si2 0.131283 0.826738 0.639760
Si Si3 0.133243 0.547944 0.853938
Si Si4 0.579420 0.656080 0.642878
Si Si5 0.560629 0.053750 0.155305
Si Si6 0.148658 0.314125 0.254356
Si Si7 0.580537 0.198972 0.071934
Si Si8 0.174872 0.925809 0.869214
O O1 0.070528 0.867355 0.517299
O O2 0.824060 0.929726 0.393394
O O3 0.129907 0.890664 0.259484
O O4 0.094482 0.000444 0.422865
O O5 0.067536 0.748917 0.682464
O O6 0.356917 0.814610 0.597778
O O7 0.080480 0.878743 0.769024
O O8 0.044779 0.613716 0.794194
O O9 0.181122 0.495243 0.729241
O O10 0.022044 0.528344 0.008204
O O11 0.352477 0.663258 0.666296
O O12 0.630552 0.735131 0.649139
O O13 0.670747 0.622340 0.498855
O O14 0.642975 0.129513 0.131938
O O15 0.372894 0.057776 0.271382
O O16 0.159613 0.289274 0.408829
#
# Coordination Sequence:
#
# PCOD9136285 Si02
#       8
#     4   4   4   4   4   4   4   4
#     4  11  25  39  64  98 134 165 223 274 323 396
#     4  10  21  40  65  95 127 177 215 271 333 384
#     4  10  24  44  66  94 133 175 218 271 334 393
#     4  10  21  40  64  92 128 174 215 270 327 385
#     4  10  24  42  67  94 127 175 218 271 330 395
#     4   9  19  40  67  88 127 175 215 264 323 389
#     4   9  19  42  67  91 132 174 218 271 329 386
#     4  11  23  39  68  92 130 173 222 264 333 388
#
# _framework density 22.876759
#
# number of rings (size 3 to 8) (size 9 to 14) (size 15 to 20)
#    0.000    2.000    1.250    0.750   12.250    0.000 
#    2.250    3.750    0.000    0.000    0.000    0.000 
#    0.000    0.000    0.000    0.000    0.000    0.000 
#
# Total GULP energy -89205.469157 kJ/mol
# GULP energy per Si atom -5575.341822 kJ/mol
# Density = 2.282469 g / cm^3
# Si number density = 22.876759 Si / 1000 Ang^3
#
#
#
# Elastic Constant Matrix: (Units=GPa)
#
#
# Indices 1 2 3 4 5 6 
#
# 1 60.8863 20.5646 5.3812 0.0000 0.4172 0.0000
# 2 20.5646 166.7719 58.7454 0.0000 19.6369 0.0000
# 3 5.3812 58.7454 114.0645 0.0000 4.2145 0.0000
# 4 0.0000 0.0000 0.0000 50.1033 0.0000 2.3411
# 5 0.4172 19.6369 4.2145 0.0000 24.0573 0.0000
# 6 0.0000 0.0000 0.0000 2.3411 0.0000 4.4969
#
#
#
# Elastic Compliance Matrix: (Units=1/GPa)
#
#
# Indices 1 2 3 4 5 6 
#
# 1 0.017206 -0.002452 0.000391 0.000000 0.001634 0.000000
# 2 -0.002452 0.008430 -0.003999 0.000000 -0.006138 0.000000
# 3 0.000391 -0.003999 0.010757 0.000000 0.001373 0.000000
# 4 0.000000 0.000000 0.000000 0.020456 0.000000 -0.010650
# 5 0.001634 -0.006138 0.001373 0.000000 0.046309 0.000000
# 6 0.000000 0.000000 0.000000 -0.010650 0.000000 0.227920
#
#
# Mechanical properties :
#
#
# Convention : Reuss Voigt Hill
#
# Bulk Modulus (GPa) = 41.19769 56.78943 48.99356
# Shear Modulus (GPa) = 14.23324 32.86695 23.55009
#
# Velocity S-wave (km/s) = 2.49704 3.79449 3.21196
# Velocity P-wave (km/s) = 5.13432 6.63894 5.93451
#
# Compressibility (1/GPa) = 0.02427320
#
# Stress axis : x y z
#
# Youngs Moduli (GPa) = 58.11779 118.62474 92.95893
#
# Poissons Ratio (x) = 0.29084 -0.03631
# Poissons Ratio (y) = 0.14249 0.37175
# Poissons Ratio (z) = -0.02270 0.47440
#
# Static dielectric constant tensor:
#      x y z
#    x 1.966260 0.000000 -0.052260 
#    y 0.000000 1.931350 0.000000 
#    z -0.052260 0.000000 1.887520 
# 
# From -- ./inp_files/5771.got.cif
#   From: 2010.05.17/outbox.cif.g08.bks.cpg/sg9_3_cif.got.tgz:5771.got - 2010.06.03 20:04:27.
