data_PCOD9136797
_publ_section_title
;
Structure prediction by ZEFSAII (Michael W. Deem and Ramdas Pophale) SiO2 
 PCOD9136797
Probable space group: C C
;
_chemical_formula_sum "Si O2"
_cell_formula_units_Z 28
_cell_length_a 15.841046
_cell_length_b 13.778234
_cell_length_c 5.153764
_cell_angle_alpha 90.000000
_cell_angle_beta 81.197285
_cell_angle_gamma 90.000000
_cell_volume 1111.619291
_symmetry_space_group_name_H-M "C C"
_symmetry_group_IT_number 9
_symmetry_cell_setting 'monoclinic'
loop_
_space_group_symop_operation_xyz
x,y,z
x,-y,1/2+z
1/2+x,1/2+y,z
1/2+x,1/2-y,1/2+z
loop_
_atom_site_type_symbol
_atom_site_label
_atom_site_fract_x
_atom_site_fract_y
_atom_site_fract_z
Si Si1 0.972370 0.849698 0.786040
Si Si2 0.435362 0.068989 0.453490
Si Si3 0.782300 0.886765 0.691142
Si Si4 0.765801 0.552850 0.700008
Si Si5 0.547290 0.180493 0.029539
Si Si6 0.209713 0.605664 0.722793
Si Si7 0.078295 0.875921 0.212045
O O1 0.031386 0.864805 0.507671
O O2 0.877577 0.880864 0.753678
O O3 0.979364 0.736650 0.877383
O O4 0.011587 0.908101 0.016269
O O5 0.341470 0.116851 0.538404
O O6 0.503194 0.143611 0.310800
O O7 0.444256 0.011311 0.718094
O O8 0.721551 0.843270 0.941538
O O9 0.746582 0.996911 0.667021
O O10 0.769199 0.845497 0.411883
O O11 0.779960 0.459662 0.500656
O O12 0.667083 0.571403 0.700442
O O13 0.611890 0.106701 0.862434
O O14 0.604483 0.271362 0.085749
#
# Coordination Sequence:
#
# PCOD9136797 Si02
#       7
#     4   4   4   4   4   4   4
#     4  10  23  43  62  94 136 173 224 261 352 388
#     4  10  24  40  69  92 130 170 224 274 333 397
#     4  10  22  43  61  96 132 175 216 277 323 407
#     4  10  21  44  64  97 124 173 223 277 329 392
#     4  10  26  41  68 100 135 175 222 276 342 400
#     4  10  23  39  66  94 134 168 225 266 337 389
#     4  10  23  42  66  95 133 174 218 279 332 409
#
# _framework density 25.188478
#
# number of rings (size 3 to 8) (size 9 to 14) (size 15 to 20)
#    0.857    1.143    0.000    1.714    8.000    1.143 
#   15.429    0.000    0.000    0.000    0.000    0.000 
#    0.000    0.000    0.000    0.000    0.000    0.000 
#
# Total GULP energy -78067.667829 kJ/mol
# GULP energy per Si atom -5576.261988 kJ/mol
# Density = 2.513115 g / cm^3
# Si number density = 25.188478 Si / 1000 Ang^3
#
#
#
# Elastic Constant Matrix: (Units=GPa)
#
#
# Indices 1 2 3 4 5 6 
#
# 1 91.3762 13.4823 13.1495 0.0000 -5.3214 0.0000
# 2 13.4823 45.9501 -4.2769 0.0000 -0.1899 0.0000
# 3 13.1495 -4.2769 127.6684 0.0000 6.3870 0.0000
# 4 0.0000 0.0000 0.0000 -6.8324 0.0000 7.3890
# 5 -5.3214 -0.1899 6.3870 0.0000 52.0815 0.0000
# 6 0.0000 0.0000 0.0000 7.3890 0.0000 24.1979
#
#
#
# Elastic Compliance Matrix: (Units=1/GPa)
#
#
# Indices 1 2 3 4 5 6 
#
# 1 0.011751 -0.003572 -0.001398 0.000000 0.001359 0.000000
# 2 -0.003572 0.022917 0.001157 0.000000 -0.000423 0.000000
# 3 -0.001398 0.001157 0.008072 0.000000 -0.001129 0.000000
# 4 0.000000 0.000000 0.000000 -0.110027 0.000000 0.033598
# 5 0.001359 -0.000423 -0.001129 0.000000 0.019476 0.000000
# 6 0.000000 0.000000 0.000000 0.033598 0.000000 0.031067
#
#
# Mechanical properties :
#
#
# Convention : Reuss Voigt Hill
#
# Bulk Modulus (GPa) = 28.47962 34.41160 31.44561
# Shear Modulus (GPa) = 1932.51241 30.06540 981.28891
#
# Velocity S-wave (km/s) = 27.72880 3.45862 19.75916
# Velocity P-wave (km/s) = 32.19492 5.44433 23.08846
#
# Compressibility (1/GPa) = 0.03511283
#
# Stress axis : x y z
#
# Youngs Moduli (GPa) = 85.09764 43.63603 123.88505
#
# Poissons Ratio (x) = 0.15589 0.17319
# Poissons Ratio (y) = 0.30401 -0.14332
# Poissons Ratio (z) = 0.11897 -0.05048
#
# Static dielectric constant tensor:
#      x y z
#    x 2.046440 0.000000 0.081670 
#    y 0.000000 3.848920 0.000000 
#    z 0.081670 0.000000 2.013130 
# 
# From -- ./inp_files/2453.got.cif
#   From: 2010.05.17/outbox.cif.g08.bks.cpg/sg9_2_cif.got.tgz:2453.got - 2010.06.03 20:04:27.
