data_PCOD9136169
_publ_section_title
;
Structure prediction by ZEFSAII (Michael W. Deem and Ramdas Pophale) SiO2 
 PCOD9136169
Probable space group: C C
;
_chemical_formula_sum "Si O2"
_cell_formula_units_Z 24
_cell_length_a 5.407326
_cell_length_b 9.140945
_cell_length_c 20.862611
_cell_angle_alpha 90.000000
_cell_angle_beta 59.610242
_cell_angle_gamma 90.000000
_cell_volume 889.516142
_symmetry_space_group_name_H-M "C C"
_symmetry_group_IT_number 9
_symmetry_cell_setting 'monoclinic'
loop_
_space_group_symop_operation_xyz
x,y,z
x,-y,1/2+z
1/2+x,1/2+y,z
1/2+x,1/2-y,1/2+z
loop_
_atom_site_type_symbol
_atom_site_label
_atom_site_fract_x
_atom_site_fract_y
_atom_site_fract_z
Si Si1 0.741410 0.953504 0.632940
Si Si2 0.340545 0.208139 0.082214
Si Si3 0.840426 0.381511 0.268424
Si Si4 0.505196 0.044696 0.941371
Si Si5 0.055174 0.045265 0.414392
Si Si6 0.287408 0.706791 0.795761
O O1 0.782746 0.123116 0.605893
O O2 0.513495 0.977994 0.720927
O O3 0.573201 0.860945 0.600851
O O4 0.039038 0.882099 0.618086
O O5 0.470439 0.180557 0.993919
O O6 0.634133 0.407089 0.357110
O O7 0.618733 0.329275 0.243611
O O8 0.087337 0.272949 0.260381
O O9 0.646635 0.067910 0.852684
O O10 0.191164 0.989963 0.964415
O O11 0.715587 0.936605 0.951722
O O12 0.221793 0.171092 0.356166
#
# Coordination Sequence:
#
# PCOD9136169 Si02
#       6
#     4   4   4   4   4   4
#     4  12  28  49  73 107 142 198 237 295 351 428
#     4  12  28  47  73 103 144 194 241 291 355 424
#     4  10  23  39  65  96 133 170 236 279 352 412
#     4  10  23  39  61  96 129 174 232 283 348 416
#     4  10  21  39  65  95 127 174 221 294 349 404
#     4  10  21  39  65  97 125 176 217 298 345 408
#
# _framework density 26.980958000000001
#
# number of rings (size 3 to 8) (size 9 to 14) (size 15 to 20)
#    0.000    1.333    0.000    4.000    9.333    0.000 
#    0.000    0.000    0.000    0.000    0.000    0.000 
#    0.000    0.000    0.000    0.000    0.000    0.000 
#
# Total GULP energy -67125.013835 kJ/mol
# GULP energy per Si atom -5593.751153 kJ/mol
# Density = 2.691955 g / cm^3
# Si number density = 26.980958 Si / 1000 Ang^3
#
#
#
# Elastic Constant Matrix: (Units=GPa)
#
#
# Indices 1 2 3 4 5 6 
#
# 1 225.2964 65.5988 15.0749 -0.0002 7.7311 0.0000
# 2 65.5988 103.5580 6.9172 -0.0001 -3.5114 0.0000
# 3 15.0749 6.9172 101.4622 -0.0006 -0.7024 0.0003
# 4 -0.0002 -0.0001 -0.0006 40.3406 0.0003 -7.4894
# 5 7.7311 -3.5114 -0.7024 0.0003 33.8338 -0.0001
# 6 0.0000 0.0000 0.0003 -7.4894 -0.0001 44.3853
#
#
#
# Elastic Compliance Matrix: (Units=1/GPa)
#
#
# Indices 1 2 3 4 5 6 
#
# 1 0.005567 -0.003542 -0.000597 0.000000 -0.001652 0.000000
# 2 -0.003542 0.011988 -0.000277 0.000000 0.002048 0.000000
# 3 -0.000597 -0.000277 0.009966 0.000000 0.000315 0.000000
# 4 0.000000 0.000000 0.000000 0.025591 0.000000 0.004318
# 5 -0.001652 0.002048 0.000315 0.000000 0.030153 0.000000
# 6 0.000000 0.000000 0.000000 0.004318 0.000000 0.023259
#
#
# Mechanical properties :
#
#
# Convention : Reuss Voigt Hill
#
# Bulk Modulus (GPa) = 53.50964 67.27759 60.39362
# Shear Modulus (GPa) = 41.12378 46.56033 43.84206
#
# Velocity S-wave (km/s) = 3.90831 4.15863 4.03541
# Velocity P-wave (km/s) = 6.34365 6.93169 6.64418
#
# Compressibility (1/GPa) = 0.01868822
#
# Stress axis : x y z
#
# Youngs Moduli (GPa) = 179.64165 83.41513 100.34476
#
# Poissons Ratio (x) = 0.29548 0.05991
# Poissons Ratio (y) = 0.63635 0.02778
# Poissons Ratio (z) = 0.10725 0.02309
#
# Static dielectric constant tensor:
#      x y z
#    x 2.145820 0.000000 -0.017990 
#    y 0.000000 2.177370 0.000000 
#    z -0.017990 0.000000 2.182750 
# 
# From -- ./inp_files/28418.got.cif
#   From: 2010.05.17/outbox.cif.g08.bks.cpg/sg9_15_cif.got.tgz:28418.got - 2010.06.03 20:04:27.
