data_PCOD9136247
_publ_section_title
;
Structure prediction by ZEFSAII (Michael W. Deem and Ramdas Pophale) SiO2 
 PCOD9136247
Probable space group: C C
;
_chemical_formula_sum "Si O2"
_cell_formula_units_Z 32
_cell_length_a 25.629458
_cell_length_b 5.509473
_cell_length_c 10.754090
_cell_angle_alpha 90.000000
_cell_angle_beta 54.191081
_cell_angle_gamma 90.000000
_cell_volume 1231.485804
_symmetry_space_group_name_H-M "C C"
_symmetry_group_IT_number 9
_symmetry_cell_setting 'monoclinic'
loop_
_space_group_symop_operation_xyz
x,y,z
x,-y,1/2+z
1/2+x,1/2+y,z
1/2+x,1/2-y,1/2+z
loop_
_atom_site_type_symbol
_atom_site_label
_atom_site_fract_x
_atom_site_fract_y
_atom_site_fract_z
Si Si1 0.127360 0.460761 0.459490
Si Si2 0.758544 0.272106 0.549272
Si Si3 0.047109 0.539240 0.828811
Si Si4 0.293823 0.265352 0.582870
Si Si5 0.516531 0.457125 0.302211
Si Si6 0.157937 0.042875 0.986090
Si Si7 0.915924 0.772106 0.239029
Si Si8 0.880645 0.734649 0.705431
O O1 0.087234 0.500000 0.644150
O O2 0.087234 0.379563 0.394150
O O3 0.174325 0.233857 0.424337
O O4 0.150366 0.735401 0.400322
O O5 0.757062 0.511749 0.634153
O O6 0.707074 0.336164 0.515188
O O7 0.829871 0.263528 0.389935
O O8 0.752847 0.010305 0.621425
O O9 0.024103 0.264600 0.887979
O O10 0.000144 0.766144 0.863964
O O11 0.344598 0.263528 0.398366
O O12 0.337234 0.250001 0.644151
O O13 0.587234 0.500000 0.144150
O O14 0.467395 0.336164 0.273113
O O15 0.921622 0.510305 0.166876
O O16 0.917406 0.011750 0.154148
#
# Coordination Sequence:
#
# PCOD9136247 Si02
#       8
#     4   4   4   4   4   4   4   4
#     4  10  21  40  61  86 129 168 211 257 309 382
#     4  10  21  40  63  88 127 160 208 263 313 379
#     4  10  21  40  61  86 129 168 211 257 309 382
#     4  10  21  40  63  92 120 161 214 262 316 369
#     4  10  21  40  61  91 126 165 208 258 322 390
#     4  10  21  40  61  91 126 165 208 258 322 390
#     4  10  21  40  63  88 127 160 208 263 313 379
#     4  10  21  40  63  92 120 161 214 262 316 369
#
# _framework density 25.984867000000001
#
# number of rings (size 3 to 8) (size 9 to 14) (size 15 to 20)
#    0.000    2.000    0.000    3.000    0.000    0.000 
#   27.000    0.000    0.000    0.000    0.000    0.000 
#    0.000    0.000    0.000    0.000    0.000    0.000 
#
# Total GULP energy -89402.113727 kJ/mol
# GULP energy per Si atom -5587.632108 kJ/mol
# Density = 2.592572 g / cm^3
# Si number density = 25.984867 Si / 1000 Ang^3
#
#
#
# Elastic Constant Matrix: (Units=GPa)
#
#
# Indices 1 2 3 4 5 6 
#
# 1 87.2267 51.7744 -10.2004 0.0000 24.8657 0.0000
# 2 51.7744 293.0525 60.5040 0.0000 -1.3452 0.0000
# 3 -10.2004 60.5040 97.5651 0.0000 -20.3589 0.0000
# 4 0.0000 0.0000 0.0000 57.0584 0.0000 -1.4638
# 5 24.8657 -1.3452 -20.3589 0.0000 48.2421 0.0000
# 6 0.0000 0.0000 0.0000 -1.4638 0.0000 63.2080
#
#
#
# Elastic Compliance Matrix: (Units=1/GPa)
#
#
# Indices 1 2 3 4 5 6 
#
# 1 0.015725 -0.003253 0.002140 0.000000 -0.007293 0.000000
# 2 -0.003253 0.004631 -0.003109 0.000000 0.000494 0.000000
# 3 0.002140 -0.003109 0.013327 0.000000 0.004434 0.000000
# 4 0.000000 0.000000 0.000000 0.017536 0.000000 0.000406
# 5 -0.007293 0.000494 0.004434 0.000000 0.026373 0.000000
# 6 0.000000 0.000000 0.000000 0.000406 0.000000 0.015830
#
#
# Mechanical properties :
#
#
# Convention : Reuss Voigt Hill
#
# Bulk Modulus (GPa) = 39.62404 75.77781 57.70093
# Shear Modulus (GPa) = 45.33915 58.75278 52.04597
#
# Velocity S-wave (km/s) = 4.18165 4.76020 4.48027
# Velocity P-wave (km/s) = 6.21264 7.70962 7.00125
#
# Compressibility (1/GPa) = 0.02523720
#
# Stress axis : x y z
#
# Youngs Moduli (GPa) = 63.59451 215.92097 75.03723
#
# Poissons Ratio (x) = 0.70247 -0.16056
# Poissons Ratio (y) = 0.20690 0.23330
# Poissons Ratio (z) = -0.13608 0.67133
#
# Static dielectric constant tensor:
#      x y z
#    x 2.252750 0.000000 -0.003710 
#    y 0.000000 2.018070 0.000000 
#    z -0.003710 0.000000 2.212500 
# 
# From -- ./inp_files/19824.got.cif
#   From: 2010.05.17/outbox.cif.g08.bks.cpg/sg9_10_cif.got.tgz:19824.got - 2010.06.03 20:04:27.
