data_PCOD9136434
_publ_section_title
;
Structure prediction by ZEFSAII (Michael W. Deem and Ramdas Pophale) SiO2 
 PCOD9136434
Probable space group: C C
;
_chemical_formula_sum "Si O2"
_cell_formula_units_Z 24
_cell_length_a 12.247963
_cell_length_b 4.952049
_cell_length_c 22.311920
_cell_angle_alpha 90.000000
_cell_angle_beta 143.800567
_cell_angle_gamma 90.000000
_cell_volume 799.240497
_symmetry_space_group_name_H-M "C C"
_symmetry_group_IT_number 9
_symmetry_cell_setting 'monoclinic'
loop_
_space_group_symop_operation_xyz
x,y,z
x,-y,1/2+z
1/2+x,1/2+y,z
1/2+x,1/2-y,1/2+z
loop_
_atom_site_type_symbol
_atom_site_label
_atom_site_fract_x
_atom_site_fract_y
_atom_site_fract_z
Si Si1 0.456760 0.626686 0.889070
Si Si2 0.613923 0.137870 0.560998
Si Si3 0.332082 0.192605 0.529695
Si Si4 0.032747 0.990195 0.718056
Si Si5 0.782028 0.499626 0.719738
Si Si6 0.678641 0.919036 0.865923
O O1 0.640939 0.456142 0.960191
O O2 0.356354 0.725267 0.785431
O O3 0.307907 0.527109 0.870520
O O4 0.528163 0.885837 0.957818
O O5 0.465422 0.030386 0.542449
O O6 0.649975 0.437815 0.605514
O O7 0.824065 0.061173 0.644991
O O8 0.464136 0.236908 0.645558
O O9 0.272727 0.470605 0.468666
O O10 0.163440 0.123356 0.721880
O O11 0.137779 0.115790 0.823366
O O12 0.981324 0.585548 0.781439
#
# Coordination Sequence:
#
# PCOD9136434 Si02
#       6
#     4   4   4   4   4   4
#     4  11  23  41  65  93 130 172 220 275 328 391
#     4   9  22  39  60  93 125 167 221 268 331 390
#     4  10  22  41  64  94 130 172 223 273 329 394
#     4  10  21  41  64  90 131 168 214 277 323 387
#     4  10  22  40  61  93 127 166 221 271 327 392
#     4  10  22  40  64  93 125 169 219 270 332 390
#
# _framework density 30.028507000000001
#
# number of rings (size 3 to 8) (size 9 to 14) (size 15 to 20)
#    0.000    2.000    0.000    2.000    0.000   12.000 
#    0.000   13.333    0.000    0.000    0.000    0.000 
#    0.000    0.000    0.000    0.000    0.000    0.000 
#
# Total GULP energy -66832.615225 kJ/mol
# GULP energy per Si atom -5569.384602 kJ/mol
# Density = 2.996016 g / cm^3
# Si number density = 30.028507 Si / 1000 Ang^3
#
#
#
# Elastic Constant Matrix: (Units=GPa)
#
#
# Indices 1 2 3 4 5 6 
#
# 1 304.7442 55.4440 74.6630 -0.0009 32.5493 0.0016
# 2 55.4440 94.9884 31.4097 -0.0023 10.8983 0.0056
# 3 74.6630 31.4097 137.5724 0.0001 41.8721 0.0001
# 4 -0.0009 -0.0023 0.0001 48.8795 -0.0004 1.3689
# 5 32.5493 10.8983 41.8721 -0.0004 63.6829 0.0000
# 6 0.0016 0.0056 0.0001 1.3689 0.0000 48.6025
#
#
#
# Elastic Compliance Matrix: (Units=1/GPa)
#
#
# Indices 1 2 3 4 5 6 
#
# 1 0.004069 -0.001768 -0.001580 0.000000 -0.000738 0.000000
# 2 -0.001768 0.012160 -0.001823 0.000001 0.000021 -0.000001
# 3 -0.001580 -0.001823 0.010254 0.000000 -0.005622 0.000000
# 4 0.000000 0.000001 0.000000 0.020475 0.000000 -0.000577
# 5 -0.000738 0.000021 -0.005622 0.000000 0.019773 0.000000
# 6 0.000000 -0.000001 0.000000 -0.000577 0.000000 0.020591
#
#
# Mechanical properties :
#
#
# Convention : Reuss Voigt Hill
#
# Bulk Modulus (GPa) = 61.95595 95.59316 78.77456
# Shear Modulus (GPa) = 48.52253 57.28555 52.90404
#
# Velocity S-wave (km/s) = 4.02416 4.37247 4.20193
# Velocity P-wave (km/s) = 6.50146 7.57592 7.05916
#
# Compressibility (1/GPa) = 0.01614050
#
# Stress axis : x y z
#
# Youngs Moduli (GPa) = 245.75771 82.23705 97.52326
#
# Poissons Ratio (x) = 0.14539 0.15408
# Poissons Ratio (y) = 0.43448 0.17782
# Poissons Ratio (z) = 0.38829 0.14995
#
# Static dielectric constant tensor:
#      x y z
#    x 2.329660 0.000000 -0.007220 
#    y 0.000000 2.521260 0.000000 
#    z -0.007220 0.000000 2.310120 
# 
# From -- ./inp_files/35195.got.cif
#   From: 2010.05.17/outbox.cif.g08.bks.cpg/sg9_18_cif.got.tgz:35195.got - 2010.06.03 20:04:27.
