data_PCOD9136323
_publ_section_title
;
Structure prediction by ZEFSAII (Michael W. Deem and Ramdas Pophale) SiO2 
 PCOD9136323
Probable space group: C C
;
_chemical_formula_sum "Si O2"
_cell_formula_units_Z 24
_cell_length_a 9.444888
_cell_length_b 5.312545
_cell_length_c 20.755984
_cell_angle_alpha 90.000000
_cell_angle_beta 118.541598
_cell_angle_gamma 90.000000
_cell_volume 914.892190
_symmetry_space_group_name_H-M "C C"
_symmetry_group_IT_number 9
_symmetry_cell_setting 'monoclinic'
loop_
_space_group_symop_operation_xyz
x,y,z
x,-y,1/2+z
1/2+x,1/2+y,z
1/2+x,1/2-y,1/2+z
loop_
_atom_site_type_symbol
_atom_site_label
_atom_site_fract_x
_atom_site_fract_y
_atom_site_fract_z
Si Si1 0.354720 0.657500 0.580680
Si Si2 0.201947 0.162879 0.245889
Si Si3 0.856429 0.788162 0.463018
Si Si4 0.123214 0.895686 0.435896
Si Si5 0.090029 0.451620 0.106972
Si Si6 0.086501 0.661996 0.296815
O O1 0.374032 0.490354 0.522300
O O2 0.216322 0.851837 0.523956
O O3 0.268835 0.505428 0.618812
O O4 0.508088 0.825339 0.628657
O O5 0.106748 0.213339 0.157687
O O6 0.391586 0.155654 0.266303
O O7 0.149395 0.409735 0.275822
O O8 0.148273 0.912175 0.272191
O O9 0.682102 0.663947 0.423828
O O10 0.938837 0.871490 0.415603
O O11 0.974277 0.569002 0.519015
O O12 0.155424 0.704279 0.384642
#
# Coordination Sequence:
#
# PCOD9136323 Si02
#       6
#     4   4   4   4   4   4
#     4  10  21  40  66  97 128 172 221 295 351 406
#     4  12  28  49  73 106 144 197 240 293 351 428
#     4  10  21  40  66  97 128 172 221 295 351 406
#     4  10  23  39  65  97 132 173 232 282 352 414
#     4  10  23  39  65  97 132 173 232 282 352 414
#     4  12  28  49  73 106 144 197 240 293 351 428
#
# _framework density 26.232596999999998
#
# number of rings (size 3 to 8) (size 9 to 14) (size 15 to 20)
#    0.000    1.333    0.000    4.000    9.333    0.000 
#    0.000    0.000    0.000    0.000    0.000    0.000 
#    0.000    0.000    0.000    0.000    0.000    0.000 
#
# Total GULP energy -67084.852169 kJ/mol
# GULP energy per Si atom -5590.404347 kJ/mol
# Density = 2.617289 g / cm^3
# Si number density = 26.232597 Si / 1000 Ang^3
#
#
#
# Elastic Constant Matrix: (Units=GPa)
#
#
# Indices 1 2 3 4 5 6 
#
# 1 155.4740 82.9225 25.4458 0.0000 -10.8321 0.0000
# 2 82.9225 136.9603 11.3172 0.0000 1.1755 0.0000
# 3 25.4458 11.3172 113.0556 0.0000 1.1562 0.0000
# 4 0.0000 0.0000 0.0000 21.5489 0.0000 -14.0048
# 5 -10.8321 1.1755 1.1562 0.0000 23.8333 0.0000
# 6 0.0000 0.0000 0.0000 -14.0048 0.0000 40.2030
#
#
#
# Elastic Compliance Matrix: (Units=1/GPa)
#
#
# Indices 1 2 3 4 5 6 
#
# 1 0.010372 -0.006177 -0.001768 0.000000 0.005104 0.000000
# 2 -0.006177 0.011044 0.000319 0.000000 -0.003368 0.000000
# 3 -0.001768 0.000319 0.009224 0.000000 -0.001267 0.000000
# 4 0.000000 0.000000 0.000000 0.059987 0.000000 0.020897
# 5 0.005104 -0.003368 -0.001267 0.000000 0.044505 0.000000
# 6 0.000000 0.000000 0.000000 0.020897 0.000000 0.032153
#
#
# Mechanical properties :
#
#
# Convention : Reuss Voigt Hill
#
# Bulk Modulus (GPa) = 64.98848 71.65120 68.31984
# Shear Modulus (GPa) = 26.64301 36.17068 31.40684
#
# Velocity S-wave (km/s) = 3.19038 3.71731 3.46388
# Velocity P-wave (km/s) = 6.19670 6.76739 6.48832
#
# Compressibility (1/GPa) = 0.01538734
#
# Stress axis : x y z
#
# Youngs Moduli (GPa) = 96.41743 90.54804 108.41069
#
# Poissons Ratio (x) = 0.55933 0.19169
# Poissons Ratio (y) = 0.59559 -0.03461
# Poissons Ratio (z) = 0.17049 -0.02891
#
# Static dielectric constant tensor:
#      x y z
#    x 2.162460 0.000000 0.069650 
#    y 0.000000 2.107340 0.000000 
#    z 0.069650 0.000000 2.106220 
# 
# From -- ./inp_files/32250.got.cif
#   From: 2010.05.17/outbox.cif.g08.bks.cpg/sg9_17_cif.got.tgz:32250.got - 2010.06.03 20:04:27.
