data_PCOD9136341
_publ_section_title
;
Structure prediction by ZEFSAII (Michael W. Deem and Ramdas Pophale) SiO2 
 PCOD9136341
Probable space group: C C
;
_chemical_formula_sum "Si O2"
_cell_formula_units_Z 24
_cell_length_a 7.255273
_cell_length_b 30.259165
_cell_length_c 7.531840
_cell_angle_alpha 90.000000
_cell_angle_beta 142.012842
_cell_angle_gamma 90.000000
_cell_volume 1017.721955
_symmetry_space_group_name_H-M "C C"
_symmetry_group_IT_number 9
_symmetry_cell_setting 'monoclinic'
loop_
_space_group_symop_operation_xyz
x,y,z
x,-y,1/2+z
1/2+x,1/2+y,z
1/2+x,1/2-y,1/2+z
loop_
_atom_site_type_symbol
_atom_site_label
_atom_site_fract_x
_atom_site_fract_y
_atom_site_fract_z
Si Si1 0.852250 0.460318 0.498770
Si Si2 0.685953 0.721539 0.928731
Si Si3 0.895736 0.093963 0.842603
Si Si4 0.272980 0.481873 0.509548
Si Si5 0.837431 0.652123 0.347010
Si Si6 0.962435 0.278978 0.248286
O O1 0.656349 0.418199 0.401182
O O2 0.608599 0.500242 0.294877
O O3 0.083198 0.455762 0.512382
O O4 0.071495 0.475140 0.821173
O O5 0.344726 0.734828 0.632816
O O6 0.825340 0.713367 0.839921
O O7 0.759965 0.682760 0.119362
O O8 0.781085 0.048416 0.841352
O O9 0.636938 0.122996 0.560413
O O10 0.054565 0.119170 0.128513
O O11 0.892750 0.681127 0.564609
O O12 0.301709 0.264280 0.540865
#
# Coordination Sequence:
#
# PCOD9136341 Si02
#       6
#     4   4   4   4   4   4
#     4  12  23  44  71  95 128 174 232 289 339 412
#     4  10  21  40  67  96 130 182 234 273 333 411
#     4  12  26  41  66 104 138 180 228 288 362 411
#     4  12  23  44  71  95 128 174 232 289 339 412
#     4  12  24  41  64  98 148 174 222 290 356 407
#     4  10  21  40  67  96 130 182 234 273 333 411
#
# _framework density 23.582080999999999
#
# number of rings (size 3 to 8) (size 9 to 14) (size 15 to 20)
#    0.000    0.667    3.333    5.000    0.000    1.333 
#    0.000    3.333    0.000    0.000    0.000    0.000 
#    0.000    0.000    0.000    0.000    0.000    0.000 
#
# Total GULP energy -67132.242563 kJ/mol
# GULP energy per Si atom -5594.353547 kJ/mol
# Density = 2.352841 g / cm^3
# Si number density = 23.582081 Si / 1000 Ang^3
#
#
#
# Elastic Constant Matrix: (Units=GPa)
#
#
# Indices 1 2 3 4 5 6 
#
# 1 100.1870 13.5932 37.6224 0.0000 -7.4539 0.0000
# 2 13.5932 58.3295 25.8245 0.0000 -4.6160 0.0000
# 3 37.6224 25.8245 136.1412 0.0000 3.7507 0.0000
# 4 0.0000 0.0000 0.0000 48.4808 0.0000 7.8659
# 5 -7.4539 -4.6160 3.7507 0.0000 43.9762 0.0000
# 6 0.0000 0.0000 0.0000 7.8659 0.0000 8.4120
#
#
#
# Elastic Compliance Matrix: (Units=1/GPa)
#
#
# Indices 1 2 3 4 5 6 
#
# 1 0.011417 -0.001174 -0.002989 0.000000 0.002067 0.000000
# 2 -0.001174 0.019066 -0.003350 0.000000 0.002088 0.000000
# 3 -0.002989 -0.003350 0.008851 0.000000 -0.001613 0.000000
# 4 0.000000 0.000000 0.000000 0.024316 0.000000 -0.022737
# 5 0.002067 0.002088 -0.001613 0.000000 0.023447 0.000000
# 6 0.000000 0.000000 0.000000 -0.022737 0.000000 0.140139
#
#
# Mechanical properties :
#
#
# Convention : Reuss Voigt Hill
#
# Bulk Modulus (GPa) = 41.13779 49.85976 45.49878
# Shear Modulus (GPa) = 19.97094 34.68163 27.32628
#
# Velocity S-wave (km/s) = 2.91326 3.83910 3.40777
# Velocity P-wave (km/s) = 5.36642 6.39066 5.90081
#
# Compressibility (1/GPa) = 0.02430855
#
# Stress axis : x y z
#
# Youngs Moduli (GPa) = 87.58929 52.44999 112.97793
#
# Poissons Ratio (x) = 0.06155 0.33773
# Poissons Ratio (y) = 0.10279 0.37845
# Poissons Ratio (z) = 0.26184 0.17570
#
# Static dielectric constant tensor:
#      x y z
#    x 1.931010 0.000000 -0.021300 
#    y 0.000000 1.966800 0.000000 
#    z -0.021300 0.000000 1.859060 
# 
# From -- ./inp_files/6536.got.cif
#   From: 2010.05.17/outbox.cif.g08.bks.cpg/sg9_4_cif.got.tgz:6536.got - 2010.06.03 20:04:27.
