data_PCOD9136883
_publ_section_title
;
Structure prediction by ZEFSAII (Michael W. Deem and Ramdas Pophale) SiO2 
 PCOD9136883
Probable space group: C C
;
_chemical_formula_sum "Si O2"
_cell_formula_units_Z 20
_cell_length_a 6.871840
_cell_length_b 18.441209
_cell_length_c 9.306352
_cell_angle_alpha 90.000000
_cell_angle_beta 50.344909
_cell_angle_gamma 90.000000
_cell_volume 907.979867
_symmetry_space_group_name_H-M "C C"
_symmetry_group_IT_number 9
_symmetry_cell_setting 'monoclinic'
loop_
_space_group_symop_operation_xyz
x,y,z
x,-y,1/2+z
1/2+x,1/2+y,z
1/2+x,1/2-y,1/2+z
loop_
_atom_site_type_symbol
_atom_site_label
_atom_site_fract_x
_atom_site_fract_y
_atom_site_fract_z
Si Si1 0.936410 0.015794 0.895420
Si Si2 0.761278 0.851291 0.644568
Si Si3 0.292873 0.806974 0.053967
Si Si4 0.794662 0.377457 0.357794
Si Si5 0.345543 0.592548 0.662460
O O1 0.906314 0.025428 0.740659
O O2 0.206695 0.047120 0.822279
O O3 0.747984 0.076134 0.054787
O O4 0.883602 0.938045 0.984903
O O5 0.764961 0.778772 0.545899
O O6 0.050590 0.855316 0.566314
O O7 0.536764 0.840666 0.861259
O O8 0.315720 0.822588 0.213441
O O9 0.045578 0.847007 0.111172
O O10 0.057015 0.384025 0.313274
#
# Coordination Sequence:
#
# PCOD9136883 Si02
#       5
#     4   4   4   4   4
#     4   9  24  40  66  95 137 164 224 272 329 383
#     4  10  21  45  65  91 139 171 212 284 325 386
#     4  11  21  45  65  94 135 175 216 275 331 388
#     4   9  23  41  62  98 129 171 223 267 324 396
#     4  11  23  43  68  98 132 177 221 272 329 401
#
# _framework density 22.026918999999999
#
# number of rings (size 3 to 8) (size 9 to 14) (size 15 to 20)
#    1.200    0.800    2.000    0.000    5.600    1.600 
#   10.800    0.000    0.000    0.000    0.000    0.000 
#    0.000    0.000    0.000    0.000    0.000    0.000 
#
# Total GULP energy -55786.513067 kJ/mol
# GULP energy per Si atom -5578.651307 kJ/mol
# Density = 2.197679 g / cm^3
# Si number density = 22.026919 Si / 1000 Ang^3
#
#
#
# Elastic Constant Matrix: (Units=GPa)
#
#
# Indices 1 2 3 4 5 6 
#
# 1 144.2440 29.9629 45.7326 0.0000 -35.5509 0.0000
# 2 29.9629 56.4261 -3.4813 0.0000 2.7168 0.0000
# 3 45.7326 -3.4813 83.5061 0.0000 -20.3800 0.0000
# 4 0.0000 0.0000 0.0000 34.0403 0.0000 -1.3463
# 5 -35.5509 2.7168 -20.3800 0.0000 31.5400 0.0000
# 6 0.0000 0.0000 0.0000 -1.3463 0.0000 6.7104
#
#
#
# Elastic Compliance Matrix: (Units=1/GPa)
#
#
# Indices 1 2 3 4 5 6 
#
# 1 0.013034 -0.007796 -0.004409 0.000000 0.012514 0.000000
# 2 -0.007796 0.022472 0.003074 0.000000 -0.008737 0.000000
# 3 -0.004409 0.003074 0.015719 0.000000 0.004923 0.000000
# 4 0.000000 0.000000 0.000000 0.029612 0.000000 0.005941
# 5 0.012514 -0.008737 0.004923 0.000000 0.049745 0.000000
# 6 0.000000 0.000000 0.000000 0.005941 0.000000 0.150215
#
#
# Mechanical properties :
#
#
# Convention : Reuss Voigt Hill
#
# Bulk Modulus (GPa) = 30.33596 47.62273 38.97934
# Shear Modulus (GPa) = 16.12654 28.58894 22.35774
#
# Velocity S-wave (km/s) = 2.70872 3.60656 3.18939
# Velocity P-wave (km/s) = 4.85644 6.24581 5.59443
#
# Compressibility (1/GPa) = 0.03296418
#
# Stress axis : x y z
#
# Youngs Moduli (GPa) = 76.72003 44.49904 63.61559
#
# Poissons Ratio (x) = 0.34691 0.28049
# Poissons Ratio (y) = 0.59811 -0.19556
# Poissons Ratio (z) = 0.33827 -0.13680
#
# Static dielectric constant tensor:
#      x y z
#    x 1.767490 0.000000 -0.007550 
#    y 0.000000 1.838450 0.000000 
#    z -0.007550 0.000000 1.837740 
# 
# From -- ./inp_files/3727.got.cif
#   From: 2010.05.17/outbox.cif.g08.bks.cpg/sg9_2_cif.got.tgz:3727.got - 2010.06.03 20:04:27.
