data_PCOD9136292
_publ_section_title
;
Structure prediction by ZEFSAII (Michael W. Deem and Ramdas Pophale) SiO2 
 PCOD9136292
Probable space group: C C
;
_chemical_formula_sum "Si O2"
_cell_formula_units_Z 32
_cell_length_a 22.503126
_cell_length_b 5.800991
_cell_length_c 25.027775
_cell_angle_alpha 90.000000
_cell_angle_beta 21.351004
_cell_angle_gamma 90.000000
_cell_volume 1189.500598
_symmetry_space_group_name_H-M "C C"
_symmetry_group_IT_number 9
_symmetry_cell_setting 'monoclinic'
loop_
_space_group_symop_operation_xyz
x,y,z
x,-y,1/2+z
1/2+x,1/2+y,z
1/2+x,1/2-y,1/2+z
loop_
_atom_site_type_symbol
_atom_site_label
_atom_site_fract_x
_atom_site_fract_y
_atom_site_fract_z
Si Si1 0.463230 0.284014 0.822610
Si Si2 0.700831 0.448316 0.477175
Si Si3 0.010720 0.554679 0.041040
Si Si4 0.685505 0.241127 0.305828
Si Si5 0.893911 0.077967 0.561957
Si Si6 0.809254 0.557279 0.043288
Si Si7 0.978206 0.446649 0.182035
Si Si8 0.230530 0.672784 0.044529
O O1 0.334389 0.246640 0.883298
O O2 0.650469 0.312714 0.653404
O O3 0.447147 0.101275 0.883806
O O4 0.392064 0.521585 0.905372
O O5 0.530524 0.316258 0.623767
O O6 0.725112 0.633560 0.502875
O O7 0.787625 0.506901 0.348892
O O8 0.842487 0.405112 0.181514
O O9 0.977626 0.801009 0.042876
O O10 0.050460 0.579216 0.070115
O O11 0.136135 0.410316 0.899218
O O12 0.740025 0.063793 0.213659
O O13 0.528373 0.402265 0.425227
O O14 0.853023 0.301027 0.559374
O O15 0.747769 0.295924 0.087668
O O16 0.068981 0.537976 0.159884
#
# Coordination Sequence:
#
# PCOD9136292 Si02
#       8
#     4   4   4   4   4   4   4   4
#     4  10  22  42  64  97 134 183 231 290 340 409
#     4  10  21  40  64  95 141 178 235 279 338 414
#     4  11  24  44  72 108 149 183 241 290 362 431
#     4  10  25  47  71 101 145 186 241 298 357 436
#     4  11  26  49  73  99 143 184 240 304 358 433
#     4  11  25  44  69  96 139 181 235 291 348 420
#     4  11  23  40  71 104 141 191 227 292 350 421
#     4  10  22  40  68 104 138 182 238 282 353 414
#
# _framework density 26.902047
#
# number of rings (size 3 to 8) (size 9 to 14) (size 15 to 20)
#    0.000    1.500    0.000    4.500    3.500    8.000 
#    2.250    0.000    0.000    0.000    0.000    0.000 
#    0.000    0.000    0.000    0.000    0.000    0.000 
#
# Total GULP energy -89435.683092 kJ/mol
# GULP energy per Si atom -5589.730193 kJ/mol
# Density = 2.684082 g / cm^3
# Si number density = 26.902047 Si / 1000 Ang^3
#
#
#
# Elastic Constant Matrix: (Units=GPa)
#
#
# Indices 1 2 3 4 5 6 
#
# 1 107.7749 31.4199 15.0467 -0.0862 -2.9545 0.0701
# 2 31.4199 84.5217 30.3010 -0.1944 -1.2904 0.2513
# 3 15.0467 30.3010 142.1851 -0.0281 11.9452 0.0739
# 4 -0.0862 -0.1944 -0.0281 32.5279 0.0132 0.9946
# 5 -2.9545 -1.2904 11.9452 0.0132 31.7703 -0.0545
# 6 0.0701 0.2513 0.0739 0.9946 -0.0545 38.9611
#
#
#
# Elastic Compliance Matrix: (Units=1/GPa)
#
#
# Indices 1 2 3 4 5 6 
#
# 1 0.010447 -0.003728 -0.000392 0.000004 0.000968 0.000007
# 2 -0.003728 0.014220 -0.002742 0.000075 0.001262 -0.000080
# 3 -0.000392 -0.002742 0.007922 -0.000009 -0.003126 -0.000001
# 4 0.000004 0.000075 -0.000009 0.030767 -0.000007 -0.000786
# 5 0.000968 0.001262 -0.003126 -0.000007 0.032793 0.000042
# 6 0.000007 -0.000080 -0.000001 -0.000786 0.000042 0.025687
#
#
# Mechanical properties :
#
#
# Convention : Reuss Voigt Hill
#
# Bulk Modulus (GPa) = 53.01179 54.22409 53.61794
# Shear Modulus (GPa) = 35.24916 37.83281 36.54099
#
# Velocity S-wave (km/s) = 3.62370 3.75416 3.68951
# Velocity P-wave (km/s) = 6.10382 6.24432 6.17447
#
# Compressibility (1/GPa) = 0.01886373
#
# Stress axis : x y z
#
# Youngs Moduli (GPa) = 95.72368 70.32492 126.23815
#
# Poissons Ratio (x) = 0.26217 0.04953
# Poissons Ratio (y) = 0.35686 0.34611
# Poissons Ratio (z) = 0.03756 0.19281
#
# Static dielectric constant tensor:
#      x y z
#    x 2.170810 -0.000050 0.073350 
#    y -0.000050 2.246670 0.000090 
#    z 0.073350 0.000090 2.145050 
# 
# From -- ./inp_files/37744.got.cif
#   From: 2010.05.17/outbox.cif.g08.bks.cpg/sg9_19_cif.got.tgz:37744.got - 2010.06.03 20:04:27.
