data_PCOD9136464
_publ_section_title
;
Structure prediction by ZEFSAII (Michael W. Deem and Ramdas Pophale) SiO2 
 PCOD9136464
Probable space group: C C
;
_chemical_formula_sum "Si O2"
_cell_formula_units_Z 32
_cell_length_a 16.974459
_cell_length_b 9.198815
_cell_length_c 13.976965
_cell_angle_alpha 90.000000
_cell_angle_beta 52.416095
_cell_angle_gamma 90.000000
_cell_volume 1729.492196
_symmetry_space_group_name_H-M "C C"
_symmetry_group_IT_number 9
_symmetry_cell_setting 'monoclinic'
loop_
_space_group_symop_operation_xyz
x,y,z
x,-y,1/2+z
1/2+x,1/2+y,z
1/2+x,1/2-y,1/2+z
loop_
_atom_site_type_symbol
_atom_site_label
_atom_site_fract_x
_atom_site_fract_y
_atom_site_fract_z
Si Si1 0.904320 0.829344 0.194330
Si Si2 0.278318 0.186424 0.447806
Si Si3 0.054763 0.661156 0.547391
Si Si4 0.587237 0.864056 0.630473
Si Si5 0.180953 0.116913 0.051853
Si Si6 0.960511 0.122908 0.251524
Si Si7 0.372807 0.760667 0.502560
Si Si8 0.470792 0.923386 0.907843
O O1 0.819434 0.746776 0.317411
O O2 0.885693 0.813198 0.095682
O O3 0.007563 0.749216 0.145491
O O4 0.911647 0.993088 0.228136
O O5 0.195045 0.292216 0.551343
O O6 0.373055 0.164240 0.446293
O O7 0.229534 0.027688 0.474329
O O8 0.085202 0.506298 0.566341
O O9 0.145968 0.772401 0.494972
O O10 0.970030 0.732376 0.678814
O O11 0.016270 0.643382 0.469590
O O12 0.547966 0.910905 0.763579
O O13 0.259912 0.192286 0.063046
O O14 0.076816 0.082105 0.181650
O O15 0.908046 0.159050 0.389363
O O16 0.437351 0.909884 0.450404
#
# Coordination Sequence:
#
# PCOD9136464 Si02
#       8
#     4   4   4   4   4   4   4   4
#     4  11  24  40  68  93 127 173 211 265 320 375
#     4  10  23  42  63  94 132 164 217 260 313 385
#     4  10  21  42  64  90 129 166 209 264 320 368
#     4  11  20  42  62  95 130 163 213 266 309 384
#     4   9  22  44  61  93 132 170 207 263 319 373
#     4  10  23  44  62  93 132 166 211 272 313 377
#     4  11  22  43  68  91 128 171 213 260 324 380
#     4  10  21  41  66  93 122 175 209 258 324 372
#
# _framework density 18.50254
#
# number of rings (size 3 to 8) (size 9 to 14) (size 15 to 20)
#    0.750    1.000    3.750    0.000    1.750    3.000 
#    9.000    0.000    0.000    0.000    0.000    0.000 
#    0.000    0.000    0.000    0.000    0.000    0.000 
#
# Total GULP energy -89263.422825 kJ/mol
# GULP energy per Si atom -5578.963927 kJ/mol
# Density = 1.846043 g / cm^3
# Si number density = 18.502540 Si / 1000 Ang^3
#
#
#
# Elastic Constant Matrix: (Units=GPa)
#
#
# Indices 1 2 3 4 5 6 
#
# 1 86.8213 49.6447 79.1251 0.0000 17.6622 0.0000
# 2 49.6447 90.5583 33.1215 0.0000 14.7169 0.0000
# 3 79.1251 33.1215 104.3969 0.0000 17.3299 0.0000
# 4 0.0000 0.0000 0.0000 22.0468 0.0000 -4.7260
# 5 17.6622 14.7169 17.3299 0.0000 34.9866 0.0000
# 6 0.0000 0.0000 0.0000 -4.7260 0.0000 30.3635
#
#
#
# Elastic Compliance Matrix: (Units=1/GPa)
#
#
# Indices 1 2 3 4 5 6 
#
# 1 0.051993 -0.015611 -0.033981 0.000000 -0.002849 0.000000
# 2 -0.015611 0.017607 0.006720 0.000000 -0.002854 0.000000
# 3 -0.033981 0.006720 0.033585 0.000000 -0.002308 0.000000
# 4 0.000000 0.000000 0.000000 0.046924 0.000000 0.007304
# 5 -0.002849 -0.002854 -0.002308 0.000000 0.032364 0.000000
# 6 0.000000 0.000000 0.000000 0.007304 0.000000 0.034071
#
#
# Mechanical properties :
#
#
# Convention : Reuss Voigt Hill
#
# Bulk Modulus (GPa) = 57.33952 67.28435 62.31194
# Shear Modulus (GPa) = 16.22848 25.47173 20.85010
#
# Velocity S-wave (km/s) = 2.96479 3.71436 3.36054
# Velocity P-wave (km/s) = 6.54044 7.40535 6.98629
#
# Compressibility (1/GPa) = 0.01743998
#
# Stress axis : x y z
#
# Youngs Moduli (GPa) = 19.23351 56.79607 29.77546
#
# Poissons Ratio (x) = 0.88667 1.01179
# Poissons Ratio (y) = 0.30026 -0.20009
# Poissons Ratio (z) = 0.65357 -0.38167
#
# Static dielectric constant tensor:
#      x y z
#    x 1.623850 0.000000 -0.029180 
#    y 0.000000 1.646830 0.000000 
#    z -0.029180 0.000000 1.608710 
# 
# From -- ./inp_files/19145.got.cif
#   From: 2010.05.17/outbox.cif.g08.bks.cpg/sg9_10_cif.got.tgz:19145.got - 2010.06.03 20:04:27.
