data_PCOD9136182
_publ_section_title
;
Structure prediction by ZEFSAII (Michael W. Deem and Ramdas Pophale) SiO2 
 PCOD9136182
Probable space group: C C
;
_chemical_formula_sum "Si O2"
_cell_formula_units_Z 24
_cell_length_a 5.409239
_cell_length_b 9.250086
_cell_length_c 21.667816
_cell_angle_alpha 90.000000
_cell_angle_beta 56.850008
_cell_angle_gamma 90.000000
_cell_volume 907.711923
_symmetry_space_group_name_H-M "C C"
_symmetry_group_IT_number 9
_symmetry_cell_setting 'monoclinic'
loop_
_space_group_symop_operation_xyz
x,y,z
x,-y,1/2+z
1/2+x,1/2+y,z
1/2+x,1/2-y,1/2+z
loop_
_atom_site_type_symbol
_atom_site_label
_atom_site_fract_x
_atom_site_fract_y
_atom_site_fract_z
Si Si1 0.156840 0.520131 0.679730
Si Si2 0.363534 0.125500 0.010014
Si Si3 0.979224 0.039299 0.459169
Si Si4 0.595467 0.397507 0.323615
Si Si5 0.831729 0.316951 0.650315
Si Si6 0.274155 0.601824 0.295251
O O1 0.393723 0.646952 0.640887
O O2 0.191569 0.432029 0.737047
O O3 0.846362 0.605010 0.735974
O O4 0.104089 0.418996 0.629143
O O5 0.169360 0.036048 0.987510
O O6 0.419571 0.291080 0.979667
O O7 0.670881 0.043100 0.984379
O O8 0.215764 0.143385 0.098327
O O9 0.155697 0.007116 0.371179
O O10 0.302787 0.456255 0.330578
O O11 0.598980 0.234641 0.348009
O O12 0.615262 0.345566 0.738151
#
# Coordination Sequence:
#
# PCOD9136182 Si02
#       6
#     4   4   4   4   4   4
#     4  10  21  39  66  96 126 175 219 299 347 406
#     4  12  28  47  73 103 145 195 241 291 355 426
#     4  12  28  49  73 107 143 199 237 295 351 430
#     4  10  23  39  65  97 133 170 237 279 354 412
#     4  10  23  39  61  97 129 174 233 283 350 416
#     4  10  21  39  66  96 126 175 219 299 347 406
#
# _framework density 26.440104999999999
#
# number of rings (size 3 to 8) (size 9 to 14) (size 15 to 20)
#    0.000    1.333    0.000    4.000    9.333    0.000 
#    0.000    0.000    0.000    0.000    0.000    0.000 
#    0.000    0.000    0.000    0.000    0.000    0.000 
#
# Total GULP energy -67102.777275 kJ/mol
# GULP energy per Si atom -5591.898106 kJ/mol
# Density = 2.637993 g / cm^3
# Si number density = 26.440105 Si / 1000 Ang^3
#
#
#
# Elastic Constant Matrix: (Units=GPa)
#
#
# Indices 1 2 3 4 5 6 
#
# 1 129.9027 67.6907 34.4818 -0.0002 23.9409 0.0002
# 2 67.6907 179.3293 7.8707 -0.0002 1.4819 0.0002
# 3 34.4818 7.8707 112.3736 -0.0004 8.6192 0.0003
# 4 -0.0002 -0.0002 -0.0004 24.9973 0.0002 20.8167
# 5 23.9409 1.4819 8.6192 0.0002 47.5280 -0.0002
# 6 0.0002 0.0002 0.0003 20.8167 -0.0002 46.5420
#
#
#
# Elastic Compliance Matrix: (Units=1/GPa)
#
#
# Indices 1 2 3 4 5 6 
#
# 1 0.011614 -0.004215 -0.002870 0.000000 -0.005199 0.000000
# 2 -0.004215 0.007124 0.000658 0.000000 0.001782 0.000000
# 3 -0.002870 0.000658 0.009760 0.000000 -0.000345 0.000000
# 4 0.000000 0.000000 0.000000 0.063748 -0.000001 -0.028513
# 5 -0.005199 0.001782 -0.000345 -0.000001 0.023666 0.000000
# 6 0.000000 0.000000 0.000000 -0.028513 0.000000 0.034239
#
#
# Mechanical properties :
#
#
# Convention : Reuss Voigt Hill
#
# Bulk Modulus (GPa) = 63.92390 71.29911 67.61150
# Shear Modulus (GPa) = 29.72297 44.58430 37.15364
#
# Velocity S-wave (km/s) = 3.35649 4.11084 3.75267
# Velocity P-wave (km/s) = 6.26504 7.03966 6.66361
#
# Compressibility (1/GPa) = 0.01564360
#
# Stress axis : x y z
#
# Youngs Moduli (GPa) = 86.09993 140.37448 102.46012
#
# Poissons Ratio (x) = 0.59170 0.29405
# Poissons Ratio (y) = 0.36292 -0.06740
# Poissons Ratio (z) = 0.24710 -0.09234
#
# Static dielectric constant tensor:
#      x y z
#    x 2.168770 0.000000 -0.164140 
#    y 0.000000 2.127350 0.000000 
#    z -0.164140 0.000000 2.131290 
# 
# From -- ./inp_files/31905.got.cif
#   From: 2010.05.17/outbox.cif.g08.bks.cpg/sg9_16_cif.got.tgz:31905.got - 2010.06.03 20:04:27.
