data_PCOD9136819
_publ_section_title
;
Structure prediction by ZEFSAII (Michael W. Deem and Ramdas Pophale) SiO2 
 PCOD9136819
Probable space group: C C
;
_chemical_formula_sum "Si O2"
_cell_formula_units_Z 32
_cell_length_a 28.377806
_cell_length_b 8.849611
_cell_length_c 8.995958
_cell_angle_alpha 90.000000
_cell_angle_beta 140.507287
_cell_angle_gamma 90.000000
_cell_volume 1436.792086
_symmetry_space_group_name_H-M "C C"
_symmetry_group_IT_number 9
_symmetry_cell_setting 'monoclinic'
loop_
_space_group_symop_operation_xyz
x,y,z
x,-y,1/2+z
1/2+x,1/2+y,z
1/2+x,1/2-y,1/2+z
loop_
_atom_site_type_symbol
_atom_site_label
_atom_site_fract_x
_atom_site_fract_y
_atom_site_fract_z
Si Si1 0.726110 0.182713 0.829190
Si Si2 0.566019 0.316282 0.824934
Si Si3 0.801169 0.245786 0.722218
Si Si4 0.843480 0.092812 0.320269
Si Si5 0.716938 0.845434 0.755417
Si Si6 0.476256 0.805597 0.620683
Si Si7 0.092722 0.872913 0.557786
Si Si8 0.945085 0.616274 0.699140
O O1 0.735853 0.218106 0.680807
O O2 0.676058 0.310731 0.779551
O O3 0.700303 0.009286 0.790420
O O4 0.809662 0.174420 0.093839
O O5 0.553398 0.360912 0.622339
O O6 0.498712 0.225958 0.734961
O O7 0.639758 0.214106 0.008457
O O8 0.584268 0.462661 0.968228
O O9 0.757291 0.272597 0.463538
O O10 0.844923 0.086850 0.804286
O O11 0.861224 0.357973 0.936202
O O12 0.780164 0.122386 0.287961
O O13 0.921419 0.170032 0.536628
O O14 0.459853 0.851450 0.409863
O O15 0.464670 0.946471 0.700889
O O16 0.557436 0.741592 0.851184
#
# Coordination Sequence:
#
# PCOD9136819 Si02
#       8
#     4   4   4   4   4   4   4   4
#     4  10  21  44  67  98 134 174 221 269 329 395
#     4  12  27  46  67  99 134 177 226 276 335 397
#     4  10  23  40  71  99 134 176 220 270 327 395
#     4  10  21  44  67  98 134 174 221 269 329 395
#     4  10  23  40  71  99 134 176 220 270 327 395
#     4  12  27  45  70  96 135 177 223 280 334 398
#     4  12  27  45  70  96 135 177 223 280 334 398
#     4  12  27  46  67  99 134 177 226 276 335 397
#
# _framework density 22.271837000000001
#
# number of rings (size 3 to 8) (size 9 to 14) (size 15 to 20)
#    0.000    1.000    2.500    3.000    7.000    2.000 
#    0.000    0.000    0.000    0.000    0.000    0.000 
#    0.000    0.000    0.000    0.000    0.000    0.000 
#
# Total GULP energy -89405.430866 kJ/mol
# GULP energy per Si atom -5587.839429 kJ/mol
# Density = 2.222115 g / cm^3
# Si number density = 22.271837 Si / 1000 Ang^3
#
#
#
# Elastic Constant Matrix: (Units=GPa)
#
#
# Indices 1 2 3 4 5 6 
#
# 1 61.5514 -3.7458 -1.4139 0.0000 -8.4241 0.0000
# 2 -3.7458 43.7854 -12.8786 0.0000 11.9723 0.0000
# 3 -1.4139 -12.8786 58.1471 0.0000 -1.6752 0.0000
# 4 0.0000 0.0000 0.0000 32.5417 0.0000 -2.0713
# 5 -8.4241 11.9723 -1.6752 0.0000 31.8461 0.0000
# 6 0.0000 0.0000 0.0000 -2.0713 0.0000 20.1595
#
#
#
# Elastic Compliance Matrix: (Units=1/GPa)
#
#
# Indices 1 2 3 4 5 6 
#
# 1 0.016881 0.000446 0.000634 0.000000 0.004331 0.000000
# 2 0.000446 0.027259 0.005765 0.000000 -0.009827 0.000000
# 3 0.000634 0.005765 0.018460 0.000000 -0.001029 0.000000
# 4 0.000000 0.000000 0.000000 0.030932 0.000000 0.003178
# 5 0.004331 -0.009827 -0.001029 0.000000 0.036187 0.000000
# 6 0.000000 0.000000 0.000000 0.003178 0.000000 0.049931
#
#
# Mechanical properties :
#
#
# Convention : Reuss Voigt Hill
#
# Bulk Modulus (GPa) = 13.10743 14.15639 13.63191
# Shear Modulus (GPa) = 26.12464 29.01093 27.56779
#
# Velocity S-wave (km/s) = 3.42861 3.61305 3.52204
# Velocity P-wave (km/s) = 4.64455 4.87601 4.76168
#
# Compressibility (1/GPa) = 0.07629262
#
# Stress axis : x y z
#
# Youngs Moduli (GPa) = 59.23800 36.68449 54.16982
#
# Poissons Ratio (x) = -0.01638 -0.03435
# Poissons Ratio (y) = -0.02645 -0.31230
# Poissons Ratio (z) = -0.03756 -0.21150
#
# Static dielectric constant tensor:
#      x y z
#    x 1.812340 0.000000 -0.044930 
#    y 0.000000 1.794280 0.000000 
#    z -0.044930 0.000000 1.831820 
# 
# From -- ./inp_files/12413.got.cif
#   From: 2010.05.17/outbox.cif.g08.bks.cpg/sg9_7_cif.got.tgz:12413.got - 2010.06.03 20:04:27.
