data_PCOD9136492
_publ_section_title
;
Structure prediction by ZEFSAII (Michael W. Deem and Ramdas Pophale) SiO2 
 PCOD9136492
Probable space group: C C
;
_chemical_formula_sum "Si O2"
_cell_formula_units_Z 28
_cell_length_a 8.396972
_cell_length_b 12.592420
_cell_length_c 13.777140
_cell_angle_alpha 90.000000
_cell_angle_beta 128.574410
_cell_angle_gamma 90.000000
_cell_volume 1138.901352
_symmetry_space_group_name_H-M "C C"
_symmetry_group_IT_number 9
_symmetry_cell_setting 'monoclinic'
loop_
_space_group_symop_operation_xyz
x,y,z
x,-y,1/2+z
1/2+x,1/2+y,z
1/2+x,1/2-y,1/2+z
loop_
_atom_site_type_symbol
_atom_site_label
_atom_site_fract_x
_atom_site_fract_y
_atom_site_fract_z
Si Si1 0.289690 0.394543 0.135360
Si Si2 0.045948 0.594269 0.367952
Si Si3 0.105435 0.016154 0.966899
Si Si4 0.294553 0.294868 0.320743
Si Si5 0.157082 0.982780 0.208534
Si Si6 0.552956 0.093234 0.139122
Si Si7 0.964493 0.161380 0.257963
O O1 0.235262 0.297780 0.183480
O O2 0.534714 0.400260 0.227887
O O3 0.163132 0.487273 0.140499
O O4 0.248178 0.411674 0.006627
O O5 0.065191 0.603068 0.260529
O O6 0.943881 0.695273 0.382055
O O7 0.889689 0.498864 0.327273
O O8 0.917778 0.099527 0.894696
O O9 0.043462 0.917313 0.874209
O O10 0.150910 0.972015 0.091298
O O11 0.315616 0.080588 0.021985
O O12 0.094789 0.268520 0.305855
O O13 0.037532 0.092673 0.191919
O O14 0.721487 0.178069 0.166379
#
# Coordination Sequence:
#
# PCOD9136492 Si02
#       7
#     4   4   4   4   4   4   4
#     4  11  22  40  69  95 135 181 224 282 353 408
#     4  10  23  39  65  98 136 174 230 287 334 421
#     4  11  21  42  72  97 137 190 226 293 355 410
#     4  11  24  40  69  95 138 182 234 281 356 402
#     4   9  20  39  67  93 131 179 225 272 357 411
#     4  10  21  41  67  96 139 177 232 287 349 418
#     4  10  21  43  65 106 138 171 241 286 340 438
#
# _framework density 24.585096
#
# number of rings (size 3 to 8) (size 9 to 14) (size 15 to 20)
#    0.000    1.714    2.857    2.571    6.000    0.000 
#    0.000    5.714    6.286    0.000    0.000    0.000 
#    0.000    0.000    0.000    0.000    0.000    0.000 
#
# Total GULP energy -78085.626502 kJ/mol
# GULP energy per Si atom -5577.544750 kJ/mol
# Density = 2.452914 g / cm^3
# Si number density = 24.585096 Si / 1000 Ang^3
#
#
#
# Elastic Constant Matrix: (Units=GPa)
#
#
# Indices 1 2 3 4 5 6 
#
# 1 95.3371 29.1970 14.9025 0.0000 32.7663 0.0000
# 2 29.1970 52.7519 14.3966 0.0000 6.8330 0.0000
# 3 14.9025 14.3966 113.0267 0.0000 5.0123 0.0000
# 4 0.0000 0.0000 0.0000 12.6918 0.0000 3.0444
# 5 32.7663 6.8330 5.0123 0.0000 45.5050 0.0000
# 6 0.0000 0.0000 0.0000 3.0444 0.0000 43.5967
#
#
#
# Elastic Compliance Matrix: (Units=1/GPa)
#
#
# Indices 1 2 3 4 5 6 
#
# 1 0.016631 -0.007608 -0.000747 0.000000 -0.010750 0.000000
# 2 -0.007608 0.023453 -0.002081 0.000000 0.002186 0.000000
# 3 -0.000747 -0.002081 0.009218 0.000000 -0.000165 0.000000
# 4 0.000000 0.000000 0.000000 0.080133 0.000000 -0.005596
# 5 -0.010750 0.002186 -0.000165 0.000000 0.029406 0.000000
# 6 0.000000 0.000000 0.000000 -0.005596 0.000000 0.023328
#
#
# Mechanical properties :
#
#
# Convention : Reuss Voigt Hill
#
# Bulk Modulus (GPa) = 35.17543 42.01200 38.59372
# Shear Modulus (GPa) = 23.52736 33.86666 28.69701
#
# Velocity S-wave (km/s) = 3.09686 3.71553 3.42021
# Velocity P-wave (km/s) = 5.20827 5.96091 5.59725
#
# Compressibility (1/GPa) = 0.02842893
#
# Stress axis : x y z
#
# Youngs Moduli (GPa) = 60.12983 42.63933 108.47946
#
# Poissons Ratio (x) = 0.32442 0.08102
# Poissons Ratio (y) = 0.45749 0.22575
# Poissons Ratio (z) = 0.04491 0.08873
#
# Static dielectric constant tensor:
#      x y z
#    x 1.963820 0.000000 0.042890 
#    y 0.000000 2.008810 0.000000 
#    z 0.042890 0.000000 2.005620 
# 
# From -- ./inp_files/21000.got.cif
#   From: 2010.05.17/outbox.cif.g08.bks.cpg/sg9_11_cif.got.tgz:21000.got - 2010.06.03 20:04:27.
