data_PCOD9136575
_publ_section_title
;
Structure prediction by ZEFSAII (Michael W. Deem and Ramdas Pophale) SiO2 
 PCOD9136575
Probable space group: C C
;
_chemical_formula_sum "Si O2"
_cell_formula_units_Z 32
_cell_length_a 7.231171
_cell_length_b 18.112701
_cell_length_c 16.464512
_cell_angle_alpha 90.000000
_cell_angle_beta 142.279387
_cell_angle_gamma 90.000000
_cell_volume 1319.345252
_symmetry_space_group_name_H-M "C C"
_symmetry_group_IT_number 9
_symmetry_cell_setting 'monoclinic'
loop_
_space_group_symop_operation_xyz
x,y,z
x,-y,1/2+z
1/2+x,1/2+y,z
1/2+x,1/2-y,1/2+z
loop_
_atom_site_type_symbol
_atom_site_label
_atom_site_fract_x
_atom_site_fract_y
_atom_site_fract_z
Si Si1 0.399760 0.076336 0.384190
Si Si2 0.417644 0.361252 0.446115
Si Si3 0.107519 0.768562 0.779049
Si Si4 0.266158 0.322230 0.819524
Si Si5 0.196167 0.738578 0.645352
Si Si6 0.971073 0.557230 0.108376
Si Si7 0.336896 0.098012 0.540391
Si Si8 0.372708 0.461340 0.588676
O O1 0.355944 0.164530 0.360351
O O2 0.248845 0.063505 0.420804
O O3 0.208068 0.039815 0.244330
O O4 0.725868 0.038412 0.507317
O O5 0.164035 0.319576 0.307609
O O6 0.594763 0.285913 0.533461
O O7 0.342595 0.407249 0.500856
O O8 0.639756 0.411885 0.472233
O O9 0.991235 0.771873 0.646962
O O10 0.910693 0.788168 0.788180
O O11 0.077093 0.391791 0.719892
O O12 0.043692 0.261117 0.779694
O O13 0.544966 0.355826 0.966717
O O14 0.108589 0.653668 0.612581
O O15 0.940673 0.472671 0.125609
O O16 0.178963 0.563252 0.100929
#
# Coordination Sequence:
#
# PCOD9136575 Si02
#       8
#     4   4   4   4   4   4   4   4
#     4  10  21  42  71  94 136 180 225 281 352 402
#     4  11  23  42  67  95 132 177 229 279 342 416
#     4  11  22  45  62  99 140 172 232 295 333 420
#     4  10  21  42  65  91 134 179 223 278 347 406
#     4  11  22  41  67  92 135 182 219 283 353 403
#     4  10  22  41  66  94 132 177 226 278 349 402
#     4  10  21  43  66 100 136 177 233 289 336 427
#     4  11  22  46  70  97 139 182 225 293 344 416
#
# _framework density 24.254456000000001
#
# number of rings (size 3 to 8) (size 9 to 14) (size 15 to 20)
#    0.000    1.500    6.250    0.000    0.000    3.000 
#   13.500    0.000    0.000    0.000    0.000    0.000 
#    0.000    0.000    0.000    0.000    0.000    0.000 
#
# Total GULP energy -89154.258476 kJ/mol
# GULP energy per Si atom -5572.141155 kJ/mol
# Density = 2.419925 g / cm^3
# Si number density = 24.254456 Si / 1000 Ang^3
#
#
#
# Elastic Constant Matrix: (Units=GPa)
#
#
# Indices 1 2 3 4 5 6 
#
# 1 63.0513 27.6722 29.4310 -0.0008 7.1348 -0.0004
# 2 27.6722 160.9578 43.4371 -0.0001 18.3905 -0.0001
# 3 29.4310 43.4371 59.0678 -0.0024 2.9292 -0.0009
# 4 -0.0008 -0.0001 -0.0024 37.2540 -0.0014 -2.3140
# 5 7.1348 18.3905 2.9292 -0.0014 25.0546 -0.0007
# 6 -0.0004 -0.0001 -0.0009 -2.3140 -0.0007 31.4041
#
#
#
# Elastic Compliance Matrix: (Units=1/GPa)
#
#
# Indices 1 2 3 4 5 6 
#
# 1 0.021255 -0.000418 -0.010056 0.000000 -0.004570 0.000000
# 2 -0.000418 0.008452 -0.005739 -0.000001 -0.005414 0.000000
# 3 -0.010056 -0.005739 0.025960 0.000002 0.004041 0.000001
# 4 0.000000 -0.000001 0.000002 0.026966 0.000002 0.001987
# 5 -0.004570 -0.005414 0.004041 0.000002 0.044716 0.000001
# 6 0.000000 0.000000 0.000001 0.001987 0.000001 0.031989
#
#
# Mechanical properties :
#
#
# Convention : Reuss Voigt Hill
#
# Bulk Modulus (GPa) = 43.02782 53.79528 48.41155
# Shear Modulus (GPa) = 25.06131 30.91165 27.98648
#
# Velocity S-wave (km/s) = 3.21793 3.57385 3.40055
# Velocity P-wave (km/s) = 5.62010 6.26559 5.95160
#
# Compressibility (1/GPa) = 0.02324078
#
# Stress axis : x y z
#
# Youngs Moduli (GPa) = 47.04810 118.31649 38.52091
#
# Poissons Ratio (x) = 0.04948 0.38738
# Poissons Ratio (y) = 0.01967 0.22105
# Poissons Ratio (z) = 0.47313 0.67896
#
# Static dielectric constant tensor:
#      x y z
#    x 1.973800 0.000000 -0.006680 
#    y 0.000000 1.980460 0.000000 
#    z -0.006680 0.000000 2.245270 
# 
# From -- ./inp_files/32858.got.cif
#   From: 2010.05.17/outbox.cif.g08.bks.cpg/sg9_17_cif.got.tgz:32858.got - 2010.06.03 20:04:27.
