data_PCOD9136065
_publ_section_title
;
Structure prediction by ZEFSAII (Michael W. Deem and Ramdas Pophale) SiO2 
 PCOD9136065
Probable space group: C C
;
_chemical_formula_sum "Si O2"
_cell_formula_units_Z 32
_cell_length_a 19.180284
_cell_length_b 9.751553
_cell_length_c 8.843719
_cell_angle_alpha 90.000000
_cell_angle_beta 122.119126
_cell_angle_gamma 90.000000
_cell_volume 1400.937302
_symmetry_space_group_name_H-M "C C"
_symmetry_group_IT_number 9
_symmetry_cell_setting 'monoclinic'
loop_
_space_group_symop_operation_xyz
x,y,z
x,-y,1/2+z
1/2+x,1/2+y,z
1/2+x,1/2-y,1/2+z
loop_
_atom_site_type_symbol
_atom_site_label
_atom_site_fract_x
_atom_site_fract_y
_atom_site_fract_z
Si Si1 0.910290 0.102371 0.318360
Si Si2 0.642706 0.795817 0.396390
Si Si3 0.672444 0.882421 0.979649
Si Si4 0.046973 0.420393 0.082492
Si Si5 0.375328 0.900689 0.738656
Si Si6 0.853358 0.132296 0.569454
Si Si7 0.068619 0.259500 0.624524
Si Si8 0.315046 0.174476 0.507623
O O1 0.849370 0.084809 0.392101
O O2 0.868080 0.203912 0.147765
O O3 0.992588 0.162073 0.493322
O O4 0.917911 0.959198 0.238330
O O5 0.630348 0.751304 0.554125
O O6 0.719102 0.714354 0.416266
O O7 0.656173 0.960300 0.409452
O O8 0.550753 0.803346 0.215984
O O9 0.632263 0.885819 0.096485
O O10 0.626313 0.758116 0.838914
O O11 0.768143 0.874454 0.061160
O O12 0.971791 0.401935 0.884313
O O13 0.038592 0.582267 0.104415
O O14 0.370083 0.792445 0.596878
O O15 0.338429 0.041328 0.633857
O O16 0.336167 0.854119 0.855350
#
# Coordination Sequence:
#
# PCOD9136065 Si02
#       8
#     4   4   4   4   4   4   4   4
#     4  12  24  44  67  98 139 175 228 281 336 402
#     4  10  21  39  67  93 126 173 221 274 330 393
#     4  10  21  38  66  96 127 168 225 271 327 402
#     4  10  21  38  66  96 127 168 225 271 327 402
#     4  12  26  42  67 102 136 179 223 277 344 405
#     4  12  26  42  67 102 136 179 223 277 344 405
#     4  10  21  39  67  93 126 173 221 274 330 393
#     4  12  24  44  67  98 139 175 228 281 336 402
#
# _framework density 22.841850999999998
#
# number of rings (size 3 to 8) (size 9 to 14) (size 15 to 20)
#    0.000    1.000    2.500    4.500    7.000    0.000 
#    0.000    6.250    0.000    0.000    0.000    0.000 
#    0.000    0.000    0.000    0.000    0.000    0.000 
#
# Total GULP energy -89212.035276 kJ/mol
# GULP energy per Si atom -5575.752205 kJ/mol
# Density = 2.278986 g / cm^3
# Si number density = 22.841851 Si / 1000 Ang^3
#
#
#
# Elastic Constant Matrix: (Units=GPa)
#
#
# Indices 1 2 3 4 5 6 
#
# 1 76.5623 9.5262 13.1141 0.0000 -8.1850 0.0000
# 2 9.5262 50.3904 11.5408 0.0000 4.4334 0.0000
# 3 13.1141 11.5408 68.5036 0.0000 -8.9646 0.0000
# 4 0.0000 0.0000 0.0000 21.0036 0.0000 1.5397
# 5 -8.1850 4.4334 -8.9646 0.0000 37.5128 0.0000
# 6 0.0000 0.0000 0.0000 1.5397 0.0000 17.6476
#
#
#
# Elastic Compliance Matrix: (Units=1/GPa)
#
#
# Indices 1 2 3 4 5 6 
#
# 1 0.014001 -0.002470 -0.001885 0.000000 0.002896 0.000000
# 2 -0.002470 0.021500 -0.003667 0.000000 -0.003956 0.000000
# 3 -0.001885 -0.003667 0.016082 0.000000 0.003865 0.000000
# 4 0.000000 0.000000 0.000000 0.047917 0.000000 -0.004181
# 5 0.002896 -0.003956 0.003865 0.000000 0.028681 0.000000
# 6 0.000000 0.000000 0.000000 -0.004181 0.000000 0.057030
#
#
# Mechanical properties :
#
#
# Convention : Reuss Voigt Hill
#
# Bulk Modulus (GPa) = 28.13805 29.31317 28.72561
# Shear Modulus (GPa) = 23.46298 25.98448 24.72373
#
# Velocity S-wave (km/s) = 3.20846 3.37647 3.29353
# Velocity P-wave (km/s) = 5.10598 5.29732 5.20253
#
# Compressibility (1/GPa) = 0.03553907
#
# Stress axis : x y z
#
# Youngs Moduli (GPa) = 71.42282 46.51186 62.18033
#
# Poissons Ratio (x) = 0.11488 0.11722
# Poissons Ratio (y) = 0.17641 0.22801
# Poissons Ratio (z) = 0.13465 0.17056
#
# Static dielectric constant tensor:
#      x y z
#    x 1.921660 0.000000 0.086450 
#    y 0.000000 1.869090 0.000000 
#    z 0.086450 0.000000 2.052540 
# 
# From -- ./inp_files/11534.got.cif
#   From: 2010.05.17/outbox.cif.g08.bks.cpg/sg9_6_cif.got.tgz:11534.got - 2010.06.03 20:04:27.
