data_PCOD9136966
_publ_section_title
;
Structure prediction by ZEFSAII (Michael W. Deem and Ramdas Pophale) SiO2 
 PCOD9136966
Probable space group: C C
;
_chemical_formula_sum "Si O2"
_cell_formula_units_Z 24
_cell_length_a 23.257076
_cell_length_b 12.180849
_cell_length_c 11.433862
_cell_angle_alpha 90.000000
_cell_angle_beta 161.397828
_cell_angle_gamma 90.000000
_cell_volume 1033.260476
_symmetry_space_group_name_H-M "C C"
_symmetry_group_IT_number 9
_symmetry_cell_setting 'monoclinic'
loop_
_space_group_symop_operation_xyz
x,y,z
x,-y,1/2+z
1/2+x,1/2+y,z
1/2+x,1/2-y,1/2+z
loop_
_atom_site_type_symbol
_atom_site_label
_atom_site_fract_x
_atom_site_fract_y
_atom_site_fract_z
Si Si1 0.344270 0.284037 0.072970
Si Si2 0.816220 0.652071 0.642978
Si Si3 0.682403 0.902928 0.969991
Si Si4 0.176763 0.906894 0.400649
Si Si5 0.754143 0.723487 0.280663
Si Si6 0.759700 0.142062 0.154177
O O1 0.554100 0.274710 0.449342
O O2 0.305655 0.374878 0.096798
O O3 0.259732 0.171583 0.960383
O O4 0.263048 0.323657 0.794544
O O5 0.726753 0.532869 0.474171
O O6 0.870742 0.686183 0.616233
O O7 0.696201 0.751747 0.460794
O O8 0.989402 0.648703 0.062934
O O9 0.771315 0.842591 0.252922
O O10 0.653072 0.030704 0.930461
O O11 0.255840 0.861921 0.676496
O O12 0.962059 0.888784 0.999512
#
# Coordination Sequence:
#
# PCOD9136966 Si02
#       6
#     4   4   4   4   4   4
#     4  10  21  47  72  96 148 182 227 291 344 416
#     4  12  25  45  74 102 140 184 235 287 349 410
#     4  11  25  48  69 108 139 181 242 284 348 423
#     4  10  24  47  69 103 142 180 236 285 348 417
#     4  10  24  46  69 106 141 183 231 288 351 413
#     4  11  25  47  69 103 140 184 233 289 350 411
#
# _framework density 23.227443000000001
#
# number of rings (size 3 to 8) (size 9 to 14) (size 15 to 20)
#    0.000    1.333    5.000    1.000    7.000    1.333 
#    6.000    0.000    0.000    0.000    0.000    0.000 
#    0.000    0.000    0.000    0.000    0.000    0.000 
#
# Total GULP energy -67140.860711 kJ/mol
# GULP energy per Si atom -5595.071726 kJ/mol
# Density = 2.317458 g / cm^3
# Si number density = 23.227443 Si / 1000 Ang^3
#
#
#
# Elastic Constant Matrix: (Units=GPa)
#
#
# Indices 1 2 3 4 5 6 
#
# 1 137.9464 74.8135 21.5869 0.0000 -3.4342 0.0000
# 2 74.8135 196.8641 30.3858 0.0000 -19.1301 0.0000
# 3 21.5869 30.3858 47.9470 0.0000 7.9905 0.0000
# 4 0.0000 0.0000 0.0000 26.2139 0.0000 -0.1290
# 5 -3.4342 -19.1301 7.9905 0.0000 41.1882 0.0000
# 6 0.0000 0.0000 0.0000 -0.1290 0.0000 19.6459
#
#
#
# Elastic Compliance Matrix: (Units=1/GPa)
#
#
# Indices 1 2 3 4 5 6 
#
# 1 0.009334 -0.003258 -0.002083 0.000000 -0.000331 0.000000
# 2 -0.003258 0.007275 -0.003784 0.000000 0.003841 0.000000
# 3 -0.002083 -0.003784 0.025333 0.000000 -0.006846 0.000000
# 4 0.000000 0.000000 0.000000 0.038149 0.000000 0.000250
# 5 -0.000331 0.003841 -0.006846 0.000000 0.027363 0.000000
# 6 0.000000 0.000000 0.000000 0.000250 0.000000 0.050903
#
#
# Mechanical properties :
#
#
# Convention : Reuss Voigt Hill
#
# Bulk Modulus (GPa) = 42.20643 70.70333 56.45488
# Shear Modulus (GPa) = 27.09987 34.47434 30.78710
#
# Velocity S-wave (km/s) = 3.41943 3.85672 3.64464
# Velocity P-wave (km/s) = 5.81381 7.09493 6.48608
#
# Compressibility (1/GPa) = 0.02369307
#
# Stress axis : x y z
#
# Youngs Moduli (GPa) = 107.13933 137.45731 39.47453
#
# Poissons Ratio (x) = 0.44780 0.08221
# Poissons Ratio (y) = 0.34903 0.14937
# Poissons Ratio (z) = 0.22312 0.52012
#
# Static dielectric constant tensor:
#      x y z
#    x 1.851360 0.000000 -0.012820 
#    y 0.000000 1.842760 0.000000 
#    z -0.012820 0.000000 1.956020 
# 
# From -- ./inp_files/14091.got.cif
#   From: 2010.05.17/outbox.cif.g08.bks.cpg/sg9_8_cif.got.tgz:14091.got - 2010.06.03 20:04:27.
