data_PCOD9136229
_publ_section_title
;
Structure prediction by ZEFSAII (Michael W. Deem and Ramdas Pophale) SiO2 
 PCOD9136229
Probable space group: C C
;
_chemical_formula_sum "Si O2"
_cell_formula_units_Z 28
_cell_length_a 21.647983
_cell_length_b 6.693052
_cell_length_c 9.610176
_cell_angle_alpha 90.000000
_cell_angle_beta 126.274227
_cell_angle_gamma 90.000000
_cell_volume 1122.568395
_symmetry_space_group_name_H-M "C C"
_symmetry_group_IT_number 9
_symmetry_cell_setting 'monoclinic'
loop_
_space_group_symop_operation_xyz
x,y,z
x,-y,1/2+z
1/2+x,1/2+y,z
1/2+x,1/2-y,1/2+z
loop_
_atom_site_type_symbol
_atom_site_label
_atom_site_fract_x
_atom_site_fract_y
_atom_site_fract_z
Si Si1 0.216890 0.997029 0.704760
Si Si2 0.645037 0.863640 0.262008
Si Si3 0.594773 0.795571 0.544501
Si Si4 0.982035 0.803857 0.103339
Si Si5 0.976292 0.365032 0.166884
Si Si6 0.411180 0.540496 0.229605
Si Si7 0.758116 0.789538 0.005186
O O1 0.187697 0.835258 0.777444
O O2 0.251298 0.869222 0.623275
O O3 0.146326 0.126690 0.546707
O O4 0.256400 0.166484 0.855697
O O5 0.555932 0.820212 0.188223
O O6 0.636197 0.995702 0.111655
O O7 0.695774 0.026632 0.415627
O O8 0.568104 0.715294 0.659716
O O9 0.514888 0.853394 0.369591
O O10 0.951509 0.581275 0.087064
O O11 0.979473 0.917338 0.245736
O O12 0.932847 0.909977 0.916957
O O13 0.905335 0.221153 0.108042
O O14 0.337919 0.403095 0.126805
#
# Coordination Sequence:
#
# PCOD9136229 Si02
#       7
#     4   4   4   4   4   4   4
#     4  11  23  45  72 109 149 196 246 313 377 443
#     4  10  21  39  73 108 148 184 245 312 375 442
#     4   9  20  39  70 110 142 184 245 308 377 440
#     4  10  24  44  71 105 145 196 246 307 377 440
#     4  10  21  43  72 110 142 191 246 310 371 441
#     4  11  26  48  70 103 155 199 249 305 369 455
#     4  11  27  46  72 109 151 204 251 305 374 453
#
# _framework density 24.942800999999999
#
# number of rings (size 3 to 8) (size 9 to 14) (size 15 to 20)
#    0.000    1.714    0.000    2.571    2.000   13.714 
#    5.143    0.000    0.000    0.000    0.000    0.000 
#    0.000    0.000    0.000    0.000    0.000    0.000 
#
# Total GULP energy -78022.887806 kJ/mol
# GULP energy per Si atom -5573.063415 kJ/mol
# Density = 2.488603 g / cm^3
# Si number density = 24.942801 Si / 1000 Ang^3
#
#
#
# Elastic Constant Matrix: (Units=GPa)
#
#
# Indices 1 2 3 4 5 6 
#
# 1 67.6121 28.0966 34.1451 0.0000 -11.0432 0.0000
# 2 28.0966 108.1140 41.3871 0.0000 -2.6624 0.0000
# 3 34.1451 41.3871 88.4218 0.0000 -5.9556 0.0000
# 4 0.0000 0.0000 0.0000 38.2877 0.0000 4.6429
# 5 -11.0432 -2.6624 -5.9556 0.0000 28.5431 0.0000
# 6 0.0000 0.0000 0.0000 4.6429 0.0000 59.6084
#
#
#
# Elastic Compliance Matrix: (Units=1/GPa)
#
#
# Indices 1 2 3 4 5 6 
#
# 1 0.019982 -0.002737 -0.006016 0.000000 0.006220 0.000000
# 2 -0.002737 0.011643 -0.004454 0.000000 -0.000902 0.000000
# 3 -0.006016 -0.004454 0.015754 0.000000 0.000544 0.000000
# 4 0.000000 0.000000 0.000000 0.026367 0.000000 -0.002054
# 5 0.006220 -0.000902 0.000544 0.000000 0.037471 0.000000
# 6 0.000000 0.000000 0.000000 -0.002054 0.000000 0.016936
#
#
# Mechanical properties :
#
#
# Convention : Reuss Voigt Hill
#
# Bulk Modulus (GPa) = 47.69694 52.37839 50.03767
# Shear Modulus (GPa) = 30.94916 35.98911 33.46913
#
# Velocity S-wave (km/s) = 3.52633 3.80263 3.66708
# Velocity P-wave (km/s) = 5.97863 6.35019 6.16721
#
# Compressibility (1/GPa) = 0.02096571
#
# Stress axis : x y z
#
# Youngs Moduli (GPa) = 50.04563 85.88524 63.47579
#
# Poissons Ratio (x) = 0.23503 0.38189
# Poissons Ratio (y) = 0.13695 0.28271
# Poissons Ratio (z) = 0.30109 0.38252
#
# Static dielectric constant tensor:
#      x y z
#    x 2.084320 0.000000 0.009140 
#    y 0.000000 2.080860 0.000000 
#    z 0.009140 0.000000 2.083790 
# 
# From -- ./inp_files/20514.got.cif
#   From: 2010.05.17/outbox.cif.g08.bks.cpg/sg9_11_cif.got.tgz:20514.got - 2010.06.03 20:04:27.
