data_PCOD9136038
_publ_section_title
;
Structure prediction by ZEFSAII (Michael W. Deem and Ramdas Pophale) SiO2 
 PCOD9136038
Probable space group: C C
;
_chemical_formula_sum "Si O2"
_cell_formula_units_Z 28
_cell_length_a 23.445755
_cell_length_b 5.337906
_cell_length_c 10.521833
_cell_angle_alpha 90.000000
_cell_angle_beta 122.234849
_cell_angle_gamma 90.000000
_cell_volume 1113.857428
_symmetry_space_group_name_H-M "C C"
_symmetry_group_IT_number 9
_symmetry_cell_setting 'monoclinic'
loop_
_space_group_symop_operation_xyz
x,y,z
x,-y,1/2+z
1/2+x,1/2+y,z
1/2+x,1/2-y,1/2+z
loop_
_atom_site_type_symbol
_atom_site_label
_atom_site_fract_x
_atom_site_fract_y
_atom_site_fract_z
Si Si1 0.458030 0.860362 0.469610
Si Si2 0.350459 0.454891 0.711298
Si Si3 0.746274 0.771739 0.274407
Si Si4 0.214429 0.232787 0.814864
Si Si5 0.122801 0.205352 0.943300
Si Si6 0.087804 0.287428 0.492115
Si Si7 0.392274 0.048113 0.151495
O O1 0.413237 0.615660 0.379741
O O2 0.537042 0.809404 0.550208
O O3 0.430250 0.982449 0.564161
O O4 0.443308 0.035949 0.331154
O O5 0.293689 0.584813 0.730645
O O6 0.365228 0.670836 0.627198
O O7 0.343228 0.183730 0.633522
O O8 0.766201 0.487763 0.337004
O O9 0.738453 0.984708 0.372139
O O10 0.672997 0.727823 0.124257
O O11 0.171307 0.146013 0.883458
O O12 0.163211 0.267705 0.636815
O O13 0.087448 0.474389 0.899297
O O14 0.073369 0.972633 0.904291
#
# Coordination Sequence:
#
# PCOD9136038 Si02
#       7
#     4   4   4   4   4   4   4
#     4  10  26  43  68 100 137 181 228 273 343 399
#     4  10  24  41  66  94 136 174 226 274 338 393
#     4  10  21  42  59  94 124 165 217 269 325 391
#     4  10  21  38  64  91 125 165 214 269 330 388
#     4  10  22  40  60  95 122 171 212 267 330 390
#     4  10  23  37  63  90 132 161 220 264 330 391
#     4  10  25  43  66  98 134 175 229 274 334 402
#
# _framework density 25.137868999999998
#
# number of rings (size 3 to 8) (size 9 to 14) (size 15 to 20)
#    0.857    1.143    0.000    1.714    6.000    1.143 
#    0.000    0.000    0.000    0.000    0.000    0.000 
#    0.000    0.000    0.000    0.000    0.000    0.000 
#
# Total GULP energy -78132.662531 kJ/mol
# GULP energy per Si atom -5580.904467 kJ/mol
# Density = 2.508065 g / cm^3
# Si number density = 25.137869 Si / 1000 Ang^3
#
#
#
# Elastic Constant Matrix: (Units=GPa)
#
#
# Indices 1 2 3 4 5 6 
#
# 1 100.4452 32.9132 10.8878 0.0000 -29.0556 0.0000
# 2 32.9132 179.7114 30.4238 0.0000 -17.2421 0.0000
# 3 10.8878 30.4238 52.1976 0.0000 -15.6819 0.0000
# 4 0.0000 0.0000 0.0000 20.0179 0.0000 -10.3413
# 5 -29.0556 -17.2421 -15.6819 0.0000 40.3104 0.0000
# 6 0.0000 0.0000 0.0000 -10.3413 0.0000 25.7270
#
#
#
# Elastic Compliance Matrix: (Units=1/GPa)
#
#
# Indices 1 2 3 4 5 6 
#
# 1 0.013017 -0.001683 0.000983 0.000000 0.009045 0.000000
# 2 -0.001683 0.006462 -0.003340 0.000000 0.000252 0.000000
# 3 0.000983 -0.003340 0.023421 0.000000 0.008391 0.000000
# 4 0.000000 0.000000 0.000000 0.063047 0.000000 0.025343
# 5 0.009045 0.000252 0.008391 0.000000 0.034700 0.000000
# 6 0.000000 0.000000 0.000000 0.025343 0.000000 0.049057
#
#
# Mechanical properties :
#
#
# Convention : Reuss Voigt Hill
#
# Bulk Modulus (GPa) = 28.71836 53.42265 41.07050
# Shear Modulus (GPa) = 23.87898 34.41966 29.14932
#
# Velocity S-wave (km/s) = 3.08542 3.70433 3.40895
# Velocity P-wave (km/s) = 4.91348 6.29238 5.64519
#
# Compressibility (1/GPa) = 0.03482093
#
# Stress axis : x y z
#
# Youngs Moduli (GPa) = 76.82264 154.74536 42.69746
#
# Poissons Ratio (x) = 0.26037 -0.04197
# Poissons Ratio (y) = 0.12926 0.14260
# Poissons Ratio (z) = -0.07552 0.51683
#
# Static dielectric constant tensor:
#      x y z
#    x 2.025250 0.000000 0.109500 
#    y 0.000000 2.057510 0.000000 
#    z 0.109500 0.000000 2.106170 
# 
# From -- ./inp_files/19554.got.cif
#   From: 2010.05.17/outbox.cif.g08.bks.cpg/sg9_10_cif.got.tgz:19554.got - 2010.06.03 20:04:27.
