data_PCOD9136932
_publ_section_title
;
Structure prediction by ZEFSAII (Michael W. Deem and Ramdas Pophale) SiO2 
 PCOD9136932
Probable space group: C C
;
_chemical_formula_sum "Si O2"
_cell_formula_units_Z 28
_cell_length_a 9.179517
_cell_length_b 6.894085
_cell_length_c 27.210945
_cell_angle_alpha 90.000000
_cell_angle_beta 139.890263
_cell_angle_gamma 90.000000
_cell_volume 1109.422454
_symmetry_space_group_name_H-M "C C"
_symmetry_group_IT_number 9
_symmetry_cell_setting 'monoclinic'
loop_
_space_group_symop_operation_xyz
x,y,z
x,-y,1/2+z
1/2+x,1/2+y,z
1/2+x,1/2-y,1/2+z
loop_
_atom_site_type_symbol
_atom_site_label
_atom_site_fract_x
_atom_site_fract_y
_atom_site_fract_z
Si Si1 0.544660 0.964266 0.113140
Si Si2 0.494180 0.919304 0.992974
Si Si3 0.468059 0.682547 0.363099
Si Si4 0.745213 0.700235 0.249705
Si Si5 0.581994 0.109452 0.411656
Si Si6 0.337225 0.221727 0.723764
Si Si7 0.021567 0.878596 0.979896
O O1 0.670590 0.839488 0.186540
O O2 0.626701 0.184376 0.141049
O O3 0.604064 0.885122 0.074131
O O4 0.276142 0.947806 0.049797
O O5 0.230195 0.874336 0.929210
O O6 0.565085 0.810564 0.961900
O O7 0.532278 0.146679 0.991815
O O8 0.369179 0.663739 0.283714
O O9 0.395398 0.583525 0.395013
O O10 0.441713 0.911611 0.368747
O O11 0.549529 0.731573 0.241783
O O12 0.788110 0.496309 0.230814
O O13 0.974834 0.738663 0.340642
O O14 0.840898 0.048668 0.472012
#
# Coordination Sequence:
#
# PCOD9136932 Si02
#       7
#     4   4   4   4   4   4   4
#     4  11  26  48  72 109 156 199 256 320 407 468
#     4  10  21  46  67 102 143 192 241 315 378 468
#     4   9  21  41  72 101 138 189 253 303 384 454
#     4  11  26  49  77 117 150 201 271 326 395 479
#     4  10  22  43  78  99 145 190 259 316 381 469
#     4  11  25  50  76 108 156 203 256 334 394 473
#     4  10  23  45  68 112 138 194 254 310 383 479
#
# _framework density 25.238357000000001
#
# number of rings (size 3 to 8) (size 9 to 14) (size 15 to 20)
#    0.000    1.714    1.429    0.857    2.000    5.714 
#   33.429    0.000    0.000    0.000    0.000    0.000 
#    0.000    0.000    0.000    0.000    0.000    0.000 
#
# Total GULP energy -78185.315020 kJ/mol
# GULP energy per Si atom -5584.665359 kJ/mol
# Density = 2.518091 g / cm^3
# Si number density = 25.238357 Si / 1000 Ang^3
#
#
#
# Elastic Constant Matrix: (Units=GPa)
#
#
# Indices 1 2 3 4 5 6 
#
# 1 146.3060 22.1754 60.4633 0.0000 -24.9506 0.0000
# 2 22.1754 113.4932 49.2378 0.0000 -7.8559 0.0000
# 3 60.4633 49.2378 152.1221 0.0000 -43.3001 0.0000
# 4 0.0000 0.0000 0.0000 41.2177 0.0000 -3.0770
# 5 -24.9506 -7.8559 -43.3001 0.0000 47.4586 0.0000
# 6 0.0000 0.0000 0.0000 -3.0770 0.0000 25.7686
#
#
#
# Elastic Compliance Matrix: (Units=1/GPa)
#
#
# Indices 1 2 3 4 5 6 
#
# 1 0.008305 -0.000341 -0.002653 0.000000 0.001890 0.000000
# 2 -0.000341 0.010379 -0.003763 0.000000 -0.001895 0.000000
# 3 -0.002653 -0.003763 0.011174 0.000000 0.008177 0.000000
# 4 0.000000 0.000000 0.000000 0.024480 0.000000 0.002923
# 5 0.001890 -0.001895 0.008177 0.000000 0.029211 0.000000
# 6 0.000000 0.000000 0.000000 0.002923 0.000000 0.039156
#
#
# Mechanical properties :
#
#
# Convention : Reuss Voigt Hill
#
# Bulk Modulus (GPa) = 61.18503 75.07491 68.12997
# Shear Modulus (GPa) = 35.29403 41.55863 38.42633
#
# Velocity S-wave (km/s) = 3.74361 4.06229 3.90620
# Velocity P-wave (km/s) = 6.55604 7.19818 6.88460
#
# Compressibility (1/GPa) = 0.01634387
#
# Stress axis : x y z
#
# Youngs Moduli (GPa) = 120.40600 96.34629 89.49668
#
# Poissons Ratio (x) = 0.03286 0.23742
# Poissons Ratio (y) = 0.04107 0.33680
# Poissons Ratio (z) = 0.31941 0.36257
#
# Static dielectric constant tensor:
#      x y z
#    x 2.018090 0.000000 -0.037010 
#    y 0.000000 2.108370 0.000000 
#    z -0.037010 0.000000 1.929930 
# 
# From -- ./inp_files/28941.got.cif
#   From: 2010.05.17/outbox.cif.g08.bks.cpg/sg9_15_cif.got.tgz:28941.got - 2010.06.03 20:04:27.
