data_PCOD9136369
_publ_section_title
;
Structure prediction by ZEFSAII (Michael W. Deem and Ramdas Pophale) SiO2 
 PCOD9136369
Probable space group: C C
;
_chemical_formula_sum "Si O2"
_cell_formula_units_Z 20
_cell_length_a 9.503373
_cell_length_b 17.122930
_cell_length_c 5.115956
_cell_angle_alpha 90.000000
_cell_angle_beta 84.632342
_cell_angle_gamma 90.000000
_cell_volume 828.846402
_symmetry_space_group_name_H-M "C C"
_symmetry_group_IT_number 9
_symmetry_cell_setting 'monoclinic'
loop_
_space_group_symop_operation_xyz
x,y,z
x,-y,1/2+z
1/2+x,1/2+y,z
1/2+x,1/2-y,1/2+z
loop_
_atom_site_type_symbol
_atom_site_label
_atom_site_fract_x
_atom_site_fract_y
_atom_site_fract_z
Si Si1 0.922830 0.777140 0.995540
Si Si2 0.015449 0.946917 0.853844
Si Si3 0.639438 0.944363 0.651280
Si Si4 0.244005 0.275318 0.538090
Si Si5 0.837066 0.547947 0.348323
O O1 0.837766 0.742371 0.761802
O O2 0.930884 0.870416 0.945619
O O3 0.830273 0.760157 0.262934
O O4 0.084094 0.753110 0.022974
O O5 0.180988 0.921153 0.825560
O O6 0.992021 0.986952 0.578064
O O7 0.730100 0.868219 0.585773
O O8 0.478589 0.911769 0.722016
O O9 0.658753 0.003165 0.405793
O O10 0.843807 0.528562 0.655194
#
# Coordination Sequence:
#
# PCOD9136369 Si02
#       5
#     4   4   4   4   4
#     4  12  28  49  72 104 144 192 235 291 359 424
#     4  10  21  40  69 103 136 177 233 292 348 411
#     4  10  21  40  69 103 136 177 233 292 348 411
#     4  12  28  49  72 104 144 192 235 291 359 424
#     4   8  16  32  56  94 130 166 210 268 342 400
#
# _framework density 24.129922000000001
#
# number of rings (size 3 to 8) (size 9 to 14) (size 15 to 20)
#    0.000    1.600    0.000    3.600    2.800    4.800 
#   14.400    0.000    0.000    0.000    0.000    0.000 
#    0.000    0.000    0.000    0.000    0.000    0.000 
#
# Total GULP energy -55921.135364 kJ/mol
# GULP energy per Si atom -5592.113536 kJ/mol
# Density = 2.407500 g / cm^3
# Si number density = 24.129922 Si / 1000 Ang^3
#
#
#
# Elastic Constant Matrix: (Units=GPa)
#
#
# Indices 1 2 3 4 5 6 
#
# 1 141.6288 24.6262 66.9076 0.0000 10.9120 0.0000
# 2 24.6262 78.6212 22.0286 0.0000 1.9135 0.0000
# 3 66.9076 22.0286 185.0302 0.0000 -1.4699 0.0000
# 4 0.0000 0.0000 0.0000 -12.9707 0.0000 12.8857
# 5 10.9120 1.9135 -1.4699 0.0000 39.0257 0.0000
# 6 0.0000 0.0000 0.0000 12.8857 0.0000 24.8363
#
#
#
# Elastic Compliance Matrix: (Units=1/GPa)
#
#
# Indices 1 2 3 4 5 6 
#
# 1 0.009035 -0.001911 -0.003060 0.000000 -0.002548 0.000000
# 2 -0.001911 0.013582 -0.000927 0.000000 -0.000167 0.000000
# 3 -0.003060 -0.000927 0.006630 0.000000 0.001151 0.000000
# 4 0.000000 0.000000 0.000000 -0.050875 0.000000 0.026395
# 5 -0.002548 -0.000167 0.001151 0.000000 0.026388 0.000000
# 6 0.000000 0.000000 0.000000 0.026395 0.000000 0.026569
#
#
# Mechanical properties :
#
#
# Convention : Reuss Voigt Hill
#
# Bulk Modulus (GPa) = 57.30238 70.26722 63.78480
# Shear Modulus (GPa) = 102.16213 29.62611 65.89412
#
# Velocity S-wave (km/s) = 6.51385 3.50776 5.23138
# Velocity P-wave (km/s) = 8.96508 6.75200 7.93606
#
# Compressibility (1/GPa) = 0.01745128
#
# Stress axis : x y z
#
# Youngs Moduli (GPa) = 110.68447 73.62929 150.81838
#
# Poissons Ratio (x) = 0.14067 0.46147
# Poissons Ratio (y) = 0.21147 0.13987
# Poissons Ratio (z) = 0.33867 0.06828
#
# Static dielectric constant tensor:
#      x y z
#    x 2.108020 0.000000 0.088970 
#    y 0.000000 1.895490 0.000000 
#    z 0.088970 0.000000 1.854620 
# 
# From -- ./inp_files/525.got.cif
#   From: 2010.05.17/outbox.cif.g08.bks.cpg/sg9_1_cif.got.tgz:525.got - 2010.06.03 20:04:27.
