data_PCOD9136502
_publ_section_title
;
Structure prediction by ZEFSAII (Michael W. Deem and Ramdas Pophale) SiO2 
 PCOD9136502
Probable space group: C C
;
_chemical_formula_sum "Si O2"
_cell_formula_units_Z 28
_cell_length_a 10.176950
_cell_length_b 10.571438
_cell_length_c 17.552548
_cell_angle_alpha 90.000000
_cell_angle_beta 34.923113
_cell_angle_gamma 90.000000
_cell_volume 1081.059688
_symmetry_space_group_name_H-M "C C"
_symmetry_group_IT_number 9
_symmetry_cell_setting 'monoclinic'
loop_
_space_group_symop_operation_xyz
x,y,z
x,-y,1/2+z
1/2+x,1/2+y,z
1/2+x,1/2-y,1/2+z
loop_
_atom_site_type_symbol
_atom_site_label
_atom_site_fract_x
_atom_site_fract_y
_atom_site_fract_z
Si Si1 0.921460 0.802168 0.436590
Si Si2 0.799473 0.776931 0.330832
Si Si3 0.996154 0.526599 0.160149
Si Si4 0.299251 0.499812 0.205475
Si Si5 0.288552 0.974314 0.961209
Si Si6 0.314177 0.865673 0.600644
Si Si7 0.888953 0.252747 0.259674
O O1 0.964028 0.811610 0.324436
O O2 0.748051 0.913180 0.538071
O O3 0.808892 0.663189 0.490840
O O4 0.131580 0.801000 0.395363
O O5 0.856372 0.639089 0.270606
O O6 0.540317 0.779391 0.487165
O O7 0.809716 0.887575 0.263341
O O8 0.880648 0.533377 0.131708
O O9 0.006040 0.378336 0.171881
O O10 0.534422 0.483577 0.046729
O O11 0.328888 0.635861 0.232326
O O12 0.034353 0.500674 0.302149
O O13 0.289061 0.073902 0.029720
O O14 0.071002 0.799765 0.733867
#
# Coordination Sequence:
#
# PCOD9136502 Si02
#       7
#     4   4   4   4   4   4   4
#     4  10  22  40  67  95 130 171 232 277 338 411
#     4  10  21  41  68  92 132 181 214 277 354 400
#     4  11  23  41  68  94 139 175 219 285 343 400
#     4   9  18  37  64  88 127 167 221 263 332 404
#     4   9  17  37  64  91 121 171 223 274 327 410
#     4   9  22  43  65  93 136 179 222 272 349 408
#     4  10  23  39  64  99 127 170 233 270 329 411
#
# _framework density 25.900513
#
# number of rings (size 3 to 8) (size 9 to 14) (size 15 to 20)
#    0.000    2.286    1.429    0.000    6.000    0.000 
#    7.714    1.429   12.571    0.000    0.000    0.000 
#    0.000    0.000    0.000    0.000    0.000    0.000 
#
# Total GULP energy -78136.610492 kJ/mol
# GULP energy per Si atom -5581.186464 kJ/mol
# Density = 2.584156 g / cm^3
# Si number density = 25.900513 Si / 1000 Ang^3
#
#
#
# Elastic Constant Matrix: (Units=GPa)
#
#
# Indices 1 2 3 4 5 6 
#
# 1 82.6455 18.4076 49.6200 0.0000 -36.8195 0.0000
# 2 18.4076 93.6981 13.9601 0.0000 -0.1046 0.0000
# 3 49.6200 13.9601 94.4047 -0.0001 -48.9951 0.0001
# 4 0.0000 0.0000 -0.0001 39.6006 0.0000 0.7851
# 5 -36.8195 -0.1046 -48.9951 0.0000 48.0783 0.0000
# 6 0.0000 0.0000 0.0001 0.7851 0.0000 34.0396
#
#
#
# Elastic Compliance Matrix: (Units=1/GPa)
#
#
# Indices 1 2 3 4 5 6 
#
# 1 0.020498 -0.003339 -0.004536 0.000000 0.011068 0.000000
# 2 -0.003339 0.011732 -0.002746 0.000000 -0.005330 0.000000
# 3 -0.004536 -0.002746 0.024574 0.000000 0.021563 0.000000
# 4 0.000000 0.000000 0.000000 0.025264 0.000000 -0.000583
# 5 0.011068 -0.005330 0.021563 0.000000 0.051238 0.000000
# 6 0.000000 0.000000 0.000000 -0.000583 0.000000 0.029391
#
#
# Mechanical properties :
#
#
# Convention : Reuss Voigt Hill
#
# Bulk Modulus (GPa) = 28.12014 48.30262 38.21138
# Shear Modulus (GPa) = 25.53744 36.92774 31.23259
#
# Velocity S-wave (km/s) = 3.14344 3.78001 3.47633
# Velocity P-wave (km/s) = 4.90464 6.14338 5.55862
#
# Compressibility (1/GPa) = 0.03556170
#
# Stress axis : x y z
#
# Youngs Moduli (GPa) = 48.78568 85.23924 40.69397
#
# Poissons Ratio (x) = 0.28459 0.18458
# Poissons Ratio (y) = 0.16288 0.11175
# Poissons Ratio (z) = 0.22129 0.23407
#
# Static dielectric constant tensor:
#      x y z
#    x 2.058150 0.000000 0.008150 
#    y 0.000000 1.989790 0.000000 
#    z 0.008150 0.000000 2.179090 
# 
# From -- ./inp_files/33345.got.cif
#   From: 2010.05.17/outbox.cif.g08.bks.cpg/sg9_17_cif.got.tgz:33345.got - 2010.06.03 20:04:27.
