data_PCOD9136119
_publ_section_title
;
Structure prediction by ZEFSAII (Michael W. Deem and Ramdas Pophale) SiO2 
 PCOD9136119
Probable space group: C C
;
_chemical_formula_sum "Si O2"
_cell_formula_units_Z 32
_cell_length_a 9.181934
_cell_length_b 5.311932
_cell_length_c 28.852176
_cell_angle_alpha 90.000000
_cell_angle_beta 66.665321
_cell_angle_gamma 90.000000
_cell_volume 1292.128641
_symmetry_space_group_name_H-M "C C"
_symmetry_group_IT_number 9
_symmetry_cell_setting 'monoclinic'
loop_
_space_group_symop_operation_xyz
x,y,z
x,-y,1/2+z
1/2+x,1/2+y,z
1/2+x,1/2-y,1/2+z
loop_
_atom_site_type_symbol
_atom_site_label
_atom_site_fract_x
_atom_site_fract_y
_atom_site_fract_z
Si Si1 0.831260 0.491171 0.734530
Si Si2 0.237778 0.448769 0.346338
Si Si3 0.221317 0.062882 0.003184
Si Si4 0.509298 0.063234 0.039823
Si Si5 0.053144 0.878717 0.155276
Si Si6 0.860456 0.452384 0.382892
Si Si7 0.372850 0.232453 0.635453
Si Si8 0.011751 0.875460 0.754343
O O1 0.830949 0.712670 0.695356
O O2 0.950117 0.591134 0.758519
O O3 0.652876 0.438067 0.771630
O O4 0.910312 0.275813 0.694560
O O5 0.281675 0.195570 0.368400
O O6 0.356352 0.467614 0.287201
O O7 0.052506 0.463773 0.357192
O O8 0.292398 0.696097 0.368508
O O9 0.356243 0.082543 0.025814
O O10 0.118294 0.807692 0.020988
O O11 0.110596 0.311553 0.015977
O O12 0.311027 0.047618 0.942776
O O13 0.443278 0.007779 0.100114
O O14 0.209133 0.710645 0.130086
O O15 0.002911 0.050706 0.119385
O O16 0.092141 0.061987 0.194494
#
# Coordination Sequence:
#
# PCOD9136119 Si02
#       8
#     4   4   4   4   4   4   4   4
#     4  10  21  39  62  87 136 171 219 274 329 398
#     4  12  27  45  76 105 140 182 235 289 340 431
#     4  12  26  49  71 105 138 184 227 295 360 414
#     4  12  27  45  76 103 140 182 237 289 340 431
#     4  10  21  39  62  87 136 171 219 274 330 397
#     4  12  26  47  73 103 142 180 229 293 361 412
#     4  10  23  38  59  97 124 178 224 272 335 392
#     4  10  23  38  61  97 124 178 224 270 335 393
#
# _framework density 24.765336000000001
#
# number of rings (size 3 to 8) (size 9 to 14) (size 15 to 20)
#    0.000    1.000    0.000    6.000    7.000    0.000 
#    0.000    0.000    0.000    0.000    0.000    0.000 
#    0.000    0.000    0.000    0.000    0.000    0.000 
#
# Total GULP energy -89518.933427 kJ/mol
# GULP energy per Si atom -5594.933339 kJ/mol
# Density = 2.470897 g / cm^3
# Si number density = 24.765336 Si / 1000 Ang^3
#
#
#
# Elastic Constant Matrix: (Units=GPa)
#
#
# Indices 1 2 3 4 5 6 
#
# 1 189.9821 67.8168 16.8735 0.0000 -8.6033 0.0000
# 2 67.8168 146.3387 16.9353 0.0000 3.0097 0.0000
# 3 16.8735 16.9353 110.2338 0.0000 -5.4444 0.0000
# 4 0.0000 0.0000 0.0000 38.0951 0.0000 -3.1962
# 5 -8.6033 3.0097 -5.4444 0.0000 34.1485 0.0000
# 6 0.0000 0.0000 0.0000 -3.1962 0.0000 43.6164
#
#
#
# Elastic Compliance Matrix: (Units=1/GPa)
#
#
# Indices 1 2 3 4 5 6 
#
# 1 0.006447 -0.002974 -0.000440 0.000000 0.001816 0.000000
# 2 -0.002974 0.008350 -0.000908 0.000000 -0.001630 0.000000
# 3 -0.000440 -0.000908 0.009351 0.000000 0.001460 0.000000
# 4 0.000000 0.000000 0.000000 0.026412 0.000000 0.001935
# 5 0.001816 -0.001630 0.001460 0.000000 0.030118 0.000000
# 6 0.000000 0.000000 0.000000 0.001935 0.000000 0.023069
#
#
# Mechanical properties :
#
#
# Convention : Reuss Voigt Hill
#
# Bulk Modulus (GPa) = 64.50376 72.20062 68.35219
# Shear Modulus (GPa) = 42.53188 46.16727 44.34957
#
# Velocity S-wave (km/s) = 4.14864 4.32231 4.23637
# Velocity P-wave (km/s) = 7.00363 7.35711 7.18254
#
# Compressibility (1/GPa) = 0.01550297
#
# Stress axis : x y z
#
# Youngs Moduli (GPa) = 155.12132 119.75676 106.94462
#
# Poissons Ratio (x) = 0.35614 0.04708
# Poissons Ratio (y) = 0.46132 0.09712
# Poissons Ratio (z) = 0.06828 0.10876
#
# Static dielectric constant tensor:
#      x y z
#    x 1.992060 0.000000 0.041510 
#    y 0.000000 2.014550 0.000000 
#    z 0.041510 0.000000 2.000530 
# 
# From -- ./inp_files/37117.got.cif
#   From: 2010.05.17/outbox.cif.g08.bks.cpg/sg9_19_cif.got.tgz:37117.got - 2010.06.03 20:04:27.
