data_PCOD9136413
_publ_section_title
;
Structure prediction by ZEFSAII (Michael W. Deem and Ramdas Pophale) SiO2 
 PCOD9136413
Probable space group: C C
;
_chemical_formula_sum "Si O2"
_cell_formula_units_Z 32
_cell_length_a 8.184435
_cell_length_b 12.298944
_cell_length_c 14.666547
_cell_angle_alpha 90.000000
_cell_angle_beta 112.631652
_cell_angle_gamma 90.000000
_cell_volume 1362.652328
_symmetry_space_group_name_H-M "C C"
_symmetry_group_IT_number 9
_symmetry_cell_setting 'monoclinic'
loop_
_space_group_symop_operation_xyz
x,y,z
x,-y,1/2+z
1/2+x,1/2+y,z
1/2+x,1/2-y,1/2+z
loop_
_atom_site_type_symbol
_atom_site_label
_atom_site_fract_x
_atom_site_fract_y
_atom_site_fract_z
Si Si1 0.029270 0.685539 0.201010
Si Si2 0.860179 0.933770 0.823419
Si Si3 0.774673 0.619828 0.302257
Si Si4 0.171878 0.159633 0.481068
Si Si5 0.383158 0.450024 0.018179
Si Si6 0.726529 0.287464 0.507851
Si Si7 0.447268 0.670668 0.106279
Si Si8 0.639608 0.599255 0.799478
O O1 0.201554 0.613104 0.233258
O O2 0.080633 0.811958 0.214398
O O3 0.932856 0.668765 0.277848
O O4 0.893282 0.657326 0.093226
O O5 0.796374 0.988070 0.903831
O O6 0.979235 0.831229 0.887472
O O7 0.980841 0.021703 0.800366
O O8 0.784362 0.633055 0.413990
O O9 0.594582 0.672895 0.218919
O O10 0.771534 0.489948 0.287276
O O11 0.281043 0.247585 0.561624
O O12 0.091097 0.070095 0.533431
O O13 0.280530 0.339781 0.019853
O O14 0.377987 0.547574 0.086560
O O15 0.560944 0.308182 0.538347
O O16 0.702986 0.337972 0.403405
#
# Coordination Sequence:
#
# PCOD9136413 Si02
#       8
#     4   4   4   4   4   4   4   4
#     4  11  23  42  63  95 124 162 215 256 312 378
#     4   9  21  41  60  87 126 161 203 254 306 369
#     4  10  23  38  66  95 118 169 211 251 316 377
#     4   9  21  39  61  89 126 159 203 256 304 365
#     4  10  21  41  61  91 121 166 205 253 310 369
#     4  11  22  40  68  91 125 166 207 263 313 367
#     4  11  21  42  66  89 128 162 209 261 308 369
#     4  11  20  45  61  85 132 161 199 270 311 360
#
# _framework density 23.483612999999998
#
# number of rings (size 3 to 8) (size 9 to 14) (size 15 to 20)
#    0.750    1.000    2.500    1.500    0.000    2.000 
#    4.500   12.500    0.000    0.000    0.000    0.000 
#    0.000    0.000    0.000    0.000    0.000    0.000 
#
# Total GULP energy -89203.347040 kJ/mol
# GULP energy per Si atom -5575.209190 kJ/mol
# Density = 2.343016 g / cm^3
# Si number density = 23.483613 Si / 1000 Ang^3
#
#
#
# Elastic Constant Matrix: (Units=GPa)
#
#
# Indices 1 2 3 4 5 6 
#
# 1 59.8346 41.8984 28.8670 0.0000 7.1236 0.0000
# 2 41.8984 100.9828 33.6352 0.0000 10.5116 0.0000
# 3 28.8670 33.6352 101.7396 0.0000 7.3511 0.0000
# 4 0.0000 0.0000 0.0000 11.1528 0.0000 1.2307
# 5 7.1236 10.5116 7.3511 0.0000 44.2312 0.0000
# 6 0.0000 0.0000 0.0000 1.2307 0.0000 42.2703
#
#
#
# Elastic Compliance Matrix: (Units=1/GPa)
#
#
# Indices 1 2 3 4 5 6 
#
# 1 0.025069 -0.008915 -0.004076 0.000000 -0.001241 0.000000
# 2 -0.008915 0.014486 -0.002140 0.000000 -0.001651 0.000000
# 3 -0.004076 -0.002140 0.011750 0.000000 -0.000788 0.000000
# 4 0.000000 0.000000 0.000000 0.089952 0.000000 -0.002619
# 5 -0.001241 -0.001651 -0.000788 0.000000 0.023332 0.000000
# 6 0.000000 0.000000 0.000000 -0.002619 0.000000 0.023734
#
#
# Mechanical properties :
#
#
# Convention : Reuss Voigt Hill
#
# Bulk Modulus (GPa) = 47.52106 52.37313 49.94710
# Shear Modulus (GPa) = 22.16313 30.07462 26.11887
#
# Velocity S-wave (km/s) = 3.07542 3.58252 3.33861
# Velocity P-wave (km/s) = 5.73504 6.28196 6.01472
#
# Compressibility (1/GPa) = 0.02104330
#
# Stress axis : x y z
#
# Youngs Moduli (GPa) = 39.88935 69.03123 85.10550
#
# Poissons Ratio (x) = 0.61538 0.34691
# Poissons Ratio (y) = 0.35559 0.18217
# Poissons Ratio (z) = 0.16260 0.14776
#
# Static dielectric constant tensor:
#      x y z
#    x 1.935290 0.000000 -0.027990 
#    y 0.000000 1.901840 0.000000 
#    z -0.027990 0.000000 1.995300 
# 
# From -- ./inp_files/29275.got.cif
#   From: 2010.05.17/outbox.cif.g08.bks.cpg/sg9_15_cif.got.tgz:29275.got - 2010.06.03 20:04:27.
