data_PCOD9136821
_publ_section_title
;
Structure prediction by ZEFSAII (Michael W. Deem and Ramdas Pophale) SiO2 
 PCOD9136821
Probable space group: C C
;
_chemical_formula_sum "Si O2"
_cell_formula_units_Z 32
_cell_length_a 8.562500
_cell_length_b 8.768555
_cell_length_c 19.636807
_cell_angle_alpha 90.000000
_cell_angle_beta 103.714328
_cell_angle_gamma 90.000000
_cell_volume 1432.312427
_symmetry_space_group_name_H-M "C C"
_symmetry_group_IT_number 9
_symmetry_cell_setting 'monoclinic'
loop_
_space_group_symop_operation_xyz
x,y,z
x,-y,1/2+z
1/2+x,1/2+y,z
1/2+x,1/2-y,1/2+z
loop_
_atom_site_type_symbol
_atom_site_label
_atom_site_fract_x
_atom_site_fract_y
_atom_site_fract_z
Si Si1 0.442660 0.115889 0.861930
Si Si2 0.918021 0.967660 0.816122
Si Si3 0.117346 0.375587 0.609367
Si Si4 0.498359 0.628039 0.182965
Si Si5 0.184893 0.463676 0.983960
Si Si6 0.555171 0.968320 0.235369
Si Si7 0.657568 0.615143 0.935807
Si Si8 0.554309 0.538007 0.554618
O O1 0.439177 0.296157 0.846591
O O2 0.438295 0.032179 0.788340
O O3 0.298328 0.077624 0.897522
O O4 0.602223 0.068681 0.918943
O O5 0.008291 0.971964 0.752598
O O6 0.731499 0.996015 0.782852
O O7 0.995269 0.082107 0.877449
O O8 0.306727 0.363456 0.647519
O O9 0.104695 0.501526 0.548868
O O10 0.025425 0.419972 0.668939
O O11 0.063732 0.215699 0.572796
O O12 0.556102 0.797724 0.205282
O O13 0.583989 0.554017 0.127163
O O14 0.166030 0.289525 0.959782
O O15 0.372843 0.497973 0.012228
O O16 0.665697 0.511757 0.003964
#
# Coordination Sequence:
#
# PCOD9136821 Si02
#       8
#     4   4   4   4   4   4   4   4
#     4  11  24  42  64  94 128 167 210 257 314 375
#     4  10  23  44  64  92 130 166 209 261 313 374
#     4  10  22  42  66  93 126 165 211 264 316 370
#     4   9  22  40  64  94 125 165 210 259 316 372
#     4  11  24  42  64  93 128 166 211 259 314 374
#     4  10  21  44  68  90 129 168 207 261 316 373
#     4  12  24  39  64  96 127 166 211 258 315 374
#     4  11  24  43  66  94 129 165 211 263 312 374
#
# _framework density 22.341493
#
# number of rings (size 3 to 8) (size 9 to 14) (size 15 to 20)
#    0.000    1.500    0.000    4.500    0.000   11.000 
#    0.000    6.250    0.000    0.000    0.000    0.000 
#    0.000    0.000    0.000    0.000    0.000    0.000 
#
# Total GULP energy -89563.123242 kJ/mol
# GULP energy per Si atom -5597.695203 kJ/mol
# Density = 2.229064 g / cm^3
# Si number density = 22.341493 Si / 1000 Ang^3
#
#
#
# Elastic Constant Matrix: (Units=GPa)
#
#
# Indices 1 2 3 4 5 6 
#
# 1 66.1336 31.5435 60.7206 0.0000 -34.5627 0.0000
# 2 31.5435 77.3959 63.6696 0.0000 -24.9759 0.0000
# 3 60.7206 63.6696 171.7154 0.0000 -46.4279 0.0000
# 4 0.0000 0.0000 0.0000 56.6690 0.0000 9.7623
# 5 -34.5627 -24.9759 -46.4279 0.0000 36.6822 0.0000
# 6 0.0000 0.0000 0.0000 9.7623 0.0000 19.8336
#
#
#
# Elastic Compliance Matrix: (Units=1/GPa)
#
#
# Indices 1 2 3 4 5 6 
#
# 1 0.032449 -0.002020 -0.004303 0.000000 0.023752 0.000000
# 2 -0.002020 0.019622 -0.005266 0.000000 0.004792 0.000000
# 3 -0.004303 -0.005266 0.010994 0.000000 0.006276 0.000000
# 4 0.000000 0.000000 0.000000 0.019281 0.000000 -0.009490
# 5 0.023752 0.004792 0.006276 0.000000 0.060847 0.000000
# 6 0.000000 0.000000 0.000000 -0.009490 0.000000 0.055091
#
#
# Mechanical properties :
#
#
# Convention : Reuss Voigt Hill
#
# Bulk Modulus (GPa) = 25.07046 69.67916 47.37481
# Shear Modulus (GPa) = 21.29861 33.25768 27.27814
#
# Velocity S-wave (km/s) = 3.09094 3.86243 3.49802
# Velocity P-wave (km/s) = 4.89738 7.15172 6.12909
#
# Compressibility (1/GPa) = 0.03988758
#
# Stress axis : x y z
#
# Youngs Moduli (GPa) = 30.81804 50.96309 90.95471
#
# Poissons Ratio (x) = 0.10294 0.39141
# Poissons Ratio (y) = 0.06225 0.47893
# Poissons Ratio (z) = 0.13262 0.26835
#
# Static dielectric constant tensor:
#      x y z
#    x 1.839660 0.000000 -0.021580 
#    y 0.000000 1.765670 0.000000 
#    z -0.021580 0.000000 1.836870 
# 
# From -- ./inp_files/32411.got.cif
#   From: 2010.05.17/outbox.cif.g08.bks.cpg/sg9_17_cif.got.tgz:32411.got - 2010.06.03 20:04:27.
