data_PCOD9136939
_publ_section_title
;
Structure prediction by ZEFSAII (Michael W. Deem and Ramdas Pophale) SiO2 
 PCOD9136939
Probable space group: C C
;
_chemical_formula_sum "Si O2"
_cell_formula_units_Z 24
_cell_length_a 17.161857
_cell_length_b 7.440164
_cell_length_c 20.062158
_cell_angle_alpha 90.000000
_cell_angle_beta 153.610922
_cell_angle_gamma 90.000000
_cell_volume 1138.574468
_symmetry_space_group_name_H-M "C C"
_symmetry_group_IT_number 9
_symmetry_cell_setting 'monoclinic'
loop_
_space_group_symop_operation_xyz
x,y,z
x,-y,1/2+z
1/2+x,1/2+y,z
1/2+x,1/2-y,1/2+z
loop_
_atom_site_type_symbol
_atom_site_label
_atom_site_fract_x
_atom_site_fract_y
_atom_site_fract_z
Si Si1 0.255240 0.376665 0.629730
Si Si2 0.429207 0.345395 0.903081
Si Si3 0.585469 0.546800 0.841819
Si Si4 0.257662 0.760582 0.595643
Si Si5 0.090192 0.168381 0.101339
Si Si6 0.317158 0.984119 0.892769
O O1 0.302811 0.389429 0.744589
O O2 0.448307 0.380530 0.743986
O O3 0.172955 0.559814 0.536354
O O4 0.117297 0.219105 0.517947
O O5 0.459092 0.515766 0.972908
O O6 0.363849 0.174423 0.894899
O O7 0.454497 0.712979 0.724362
O O8 0.666263 0.609563 0.973765
O O9 0.729304 0.513652 0.896924
O O10 0.238860 0.823053 0.657497
O O11 0.983159 0.352448 0.025006
O O12 0.177561 0.109374 0.236652
#
# Coordination Sequence:
#
# PCOD9136939 Si02
#       6
#     4   4   4   4   4   4
#     4  10  23  41  68 100 129 187 229 270 341 409
#     4  12  23  43  73 100 136 182 239 275 342 414
#     4  10  24  43  68 102 140 178 225 289 350 398
#     4  10  21  46  69  97 137 182 229 274 345 407
#     4  12  24  45  72 100 138 183 236 283 334 424
#     4  12  27  44  68 105 142 180 228 293 350 400
#
# _framework density 21.078990000000001
#
# number of rings (size 3 to 8) (size 9 to 14) (size 15 to 20)
#    1.000    0.000    5.000    2.000    2.333    1.333 
#    0.000    0.000    0.000    0.000    0.000    0.000 
#    0.000    0.000    0.000    0.000    0.000    0.000 
#
# Total GULP energy -66944.981903 kJ/mol
# GULP energy per Si atom -5578.748492 kJ/mol
# Density = 2.103101 g / cm^3
# Si number density = 21.078990 Si / 1000 Ang^3
#
#
#
# Elastic Constant Matrix: (Units=GPa)
#
#
# Indices 1 2 3 4 5 6 
#
# 1 115.8817 64.3754 36.4866 0.0000 17.4712 0.0000
# 2 64.3754 89.2145 28.9316 0.0000 3.6418 0.0000
# 3 36.4866 28.9316 84.4550 0.0000 0.9815 0.0001
# 4 0.0000 0.0000 0.0000 29.5548 0.0001 -3.7620
# 5 17.4712 3.6418 0.9815 0.0001 19.8375 0.0000
# 6 0.0000 0.0000 0.0001 -3.7620 0.0000 23.8411
#
#
#
# Elastic Compliance Matrix: (Units=1/GPa)
#
#
# Indices 1 2 3 4 5 6 
#
# 1 0.018205 -0.011335 -0.003822 0.000000 -0.013763 0.000000
# 2 -0.011335 0.019756 -0.001946 0.000000 0.006452 0.000000
# 3 -0.003822 -0.001946 0.014123 0.000000 0.003024 0.000000
# 4 0.000000 0.000000 0.000000 0.034529 0.000000 0.005449
# 5 -0.013763 0.006452 0.003024 0.000000 0.061197 0.000000
# 6 0.000000 0.000000 0.000000 0.005449 0.000000 0.042804
#
#
# Mechanical properties :
#
#
# Convention : Reuss Voigt Hill
#
# Bulk Modulus (GPa) = 55.93333 61.01536 58.47434
# Shear Modulus (GPa) = 21.66579 25.29717 23.48148
#
# Velocity S-wave (km/s) = 3.20947 3.46802 3.34125
# Velocity P-wave (km/s) = 6.35035 6.71157 6.53346
#
# Compressibility (1/GPa) = 0.01787843
#
# Stress axis : x y z
#
# Youngs Moduli (GPa) = 54.93041 50.61854 70.80559
#
# Poissons Ratio (x) = 0.57376 0.27062
# Poissons Ratio (y) = 0.62264 0.13776
# Poissons Ratio (z) = 0.20994 0.09848
#
# Static dielectric constant tensor:
#      x y z
#    x 1.738550 0.000000 0.028420 
#    y 0.000000 1.783910 0.000000 
#    z 0.028420 0.000000 1.760900 
# 
# From -- ./inp_files/12677.got.cif
#   From: 2010.05.17/outbox.cif.g08.bks.cpg/sg9_7_cif.got.tgz:12677.got - 2010.06.03 20:04:27.
