data_PCOD9136373
_publ_section_title
;
Structure prediction by ZEFSAII (Michael W. Deem and Ramdas Pophale) SiO2 
 PCOD9136373
Probable space group: C C
;
_chemical_formula_sum "Si O2"
_cell_formula_units_Z 28
_cell_length_a 9.336482
_cell_length_b 26.746633
_cell_length_c 9.723501
_cell_angle_alpha 90.000000
_cell_angle_beta 149.546993
_cell_angle_gamma 90.000000
_cell_volume 1230.661584
_symmetry_space_group_name_H-M "C C"
_symmetry_group_IT_number 9
_symmetry_cell_setting 'monoclinic'
loop_
_space_group_symop_operation_xyz
x,y,z
x,-y,1/2+z
1/2+x,1/2+y,z
1/2+x,1/2-y,1/2+z
loop_
_atom_site_type_symbol
_atom_site_label
_atom_site_fract_x
_atom_site_fract_y
_atom_site_fract_z
Si Si1 0.265130 0.280024 0.592760
Si Si2 0.343192 0.017732 0.929519
Si Si3 0.177060 0.572662 0.625544
Si Si4 0.987044 0.718145 0.165131
Si Si5 0.080874 0.944216 0.944460
Si Si6 0.634005 0.888208 0.395470
Si Si7 0.292226 0.893101 0.571638
O O1 0.116866 0.286312 0.619121
O O2 0.220886 0.331159 0.477756
O O3 0.087639 0.235641 0.376315
O O4 0.116397 0.029585 0.622308
O O5 0.209474 0.982016 0.936213
O O6 0.303566 0.101782 0.644192
O O7 0.436044 0.067970 0.084910
O O8 0.096340 0.514170 0.569319
O O9 0.917770 0.595749 0.325903
O O10 0.200436 0.591702 0.799486
O O11 0.465521 0.590187 0.793225
O O12 0.246597 0.739170 0.468653
O O13 0.858163 0.664306 0.093902
O O14 0.806731 0.919672 0.650801
#
# Coordination Sequence:
#
# PCOD9136373 Si02
#       7
#     4   4   4   4   4   4   4
#     4  10  21  40  69  97 130 169 230 294 343 408
#     4  11  25  45  66 102 135 184 232 284 341 422
#     4  11  26  45  65 101 141 183 233 289 332 447
#     4  10  22  43  67 100 134 173 236 293 340 413
#     4  11  25  40  68  91 139 173 225 278 337 415
#     4  11  24  43  64  96 135 177 221 278 356 395
#     4  12  25  44  73  97 142 191 229 284 369 396
#
# _framework density 22.751992000000001
#
# number of rings (size 3 to 8) (size 9 to 14) (size 15 to 20)
#    0.000    1.143    1.429    4.286    2.000    6.857 
#    0.000    4.286    0.000    0.000    0.000    0.000 
#    0.000    0.000    0.000    0.000    0.000    0.000 
#
# Total GULP energy -78349.171715 kJ/mol
# GULP energy per Si atom -5596.369408 kJ/mol
# Density = 2.270021 g / cm^3
# Si number density = 22.751992 Si / 1000 Ang^3
#
#
#
# Elastic Constant Matrix: (Units=GPa)
#
#
# Indices 1 2 3 4 5 6 
#
# 1 31.8279 5.8510 16.2134 0.0000 -4.5235 0.0000
# 2 5.8510 110.4609 5.9711 0.0000 -11.6512 0.0000
# 3 16.2134 5.9711 100.2541 0.0000 -18.8905 0.0000
# 4 0.0000 0.0000 0.0000 32.9876 0.0000 -2.2853
# 5 -4.5235 -11.6512 -18.8905 0.0000 31.4133 0.0000
# 6 0.0000 0.0000 0.0000 -2.2853 0.0000 21.5241
#
#
#
# Elastic Compliance Matrix: (Units=1/GPa)
#
#
# Indices 1 2 3 4 5 6 
#
# 1 0.034540 -0.001409 -0.005259 0.000000 0.001288 0.000000
# 2 -0.001409 0.009480 0.000324 0.000000 0.003508 0.000000
# 3 -0.005259 0.000324 0.012051 0.000000 0.006610 0.000000
# 4 0.000000 0.000000 0.000000 0.030539 0.000000 0.003242
# 5 0.001288 0.003508 0.006610 0.000000 0.037295 0.000000
# 6 0.000000 0.000000 0.000000 0.003242 0.000000 0.046804
#
#
# Mechanical properties :
#
#
# Convention : Reuss Voigt Hill
#
# Bulk Modulus (GPa) = 23.05038 33.17933 28.11485
# Shear Modulus (GPa) = 25.27042 31.48550 28.37796
#
# Velocity S-wave (km/s) = 3.33632 3.72406 3.53551
# Velocity P-wave (km/s) = 4.99945 5.75380 5.38984
#
# Compressibility (1/GPa) = 0.04338324
#
# Stress axis : x y z
#
# Youngs Moduli (GPa) = 28.95174 105.48366 82.97784
#
# Poissons Ratio (x) = 0.14867 0.43640
# Poissons Ratio (y) = 0.04080 -0.02691
# Poissons Ratio (z) = 0.15226 -0.03421
#
# Static dielectric constant tensor:
#      x y z
#    x 1.890020 0.000000 0.047100 
#    y 0.000000 1.824430 0.000000 
#    z 0.047100 0.000000 1.840480 
# 
# From -- ./inp_files/6414.got.cif
#   From: 2010.05.17/outbox.cif.g08.bks.cpg/sg9_4_cif.got.tgz:6414.got - 2010.06.03 20:04:27.
