data_PCOD9136091
_publ_section_title
;
Structure prediction by ZEFSAII (Michael W. Deem and Ramdas Pophale) SiO2 
 PCOD9136091
Probable space group: C C
;
_chemical_formula_sum "Si O2"
_cell_formula_units_Z 24
_cell_length_a 9.164904
_cell_length_b 14.134985
_cell_length_c 7.759607
_cell_angle_alpha 90.000000
_cell_angle_beta 111.907667
_cell_angle_gamma 90.000000
_cell_volume 932.633411
_symmetry_space_group_name_H-M "C C"
_symmetry_group_IT_number 9
_symmetry_cell_setting 'monoclinic'
loop_
_space_group_symop_operation_xyz
x,y,z
x,-y,1/2+z
1/2+x,1/2+y,z
1/2+x,1/2-y,1/2+z
loop_
_atom_site_type_symbol
_atom_site_label
_atom_site_fract_x
_atom_site_fract_y
_atom_site_fract_z
Si Si1 0.517150 0.931650 0.063390
Si Si2 0.805995 0.558167 0.171659
Si Si3 0.638812 0.708585 0.907198
Si Si4 0.737442 0.057403 0.954748
Si Si5 0.408345 0.354781 0.007416
Si Si6 0.533671 0.349797 0.711153
O O1 0.377788 0.962293 0.130986
O O2 0.659768 0.900909 0.248879
O O3 0.433755 0.891770 0.854794
O O4 0.598594 0.026157 0.020148
O O5 0.646056 0.561118 0.212404
O O6 0.759779 0.621041 0.987298
O O7 0.497417 0.675692 0.722147
O O8 0.749977 0.794657 0.908388
O O9 0.581220 0.721829 0.080568
O O10 0.844281 0.962905 0.969894
O O11 0.853575 0.128995 0.093507
O O12 0.534192 0.331239 0.912555
#
# Coordination Sequence:
#
# PCOD9136091 Si02
#       6
#     4   4   4   4   4   4
#     4  10  21  38  72 103 144 170 232 303 346 422
#     4   9  24  43  65 108 137 184 234 292 363 418
#     4  10  28  45  71 102 143 193 234 292 358 439
#     4  11  22  41  73 110 134 188 236 303 354 422
#     4  12  26  47  73 101 151 185 246 295 361 428
#     4  10  25  46  74 104 141 192 240 291 370 417
#
# _framework density 25.733584
#
# number of rings (size 3 to 8) (size 9 to 14) (size 15 to 20)
#    1.000    0.667    1.667    1.000    9.333    2.667 
#    0.000    3.333    0.000    0.000    0.000    0.000 
#    0.000    0.000    0.000    0.000    0.000    0.000 
#
# Total GULP energy -66953.586987 kJ/mol
# GULP energy per Si atom -5579.465582 kJ/mol
# Density = 2.567501 g / cm^3
# Si number density = 25.733584 Si / 1000 Ang^3
#
#
#
# Elastic Constant Matrix: (Units=GPa)
#
#
# Indices 1 2 3 4 5 6 
#
# 1 130.0155 15.2077 45.9801 0.0000 -5.7005 0.0000
# 2 15.2077 45.4553 43.7136 0.0000 7.1953 0.0000
# 3 45.9801 43.7136 169.7600 0.0000 17.5361 0.0000
# 4 0.0000 0.0000 0.0000 33.2649 0.0000 9.1291
# 5 -5.7005 7.1953 17.5361 0.0000 64.0585 0.0000
# 6 0.0000 0.0000 0.0000 9.1291 0.0000 21.4331
#
#
#
# Elastic Compliance Matrix: (Units=1/GPa)
#
#
# Indices 1 2 3 4 5 6 
#
# 1 0.008667 -0.000971 -0.002252 0.000000 0.001497 0.000000
# 2 -0.000971 0.029448 -0.007172 0.000000 -0.001431 0.000000
# 3 -0.002252 -0.007172 0.008526 0.000000 -0.001729 0.000000
# 4 0.000000 0.000000 0.000000 0.034041 0.000000 -0.014499
# 5 0.001497 -0.001431 -0.001729 0.000000 0.016378 0.000000
# 6 0.000000 0.000000 0.000000 -0.014499 0.000000 0.052832
#
#
# Mechanical properties :
#
#
# Convention : Reuss Voigt Hill
#
# Bulk Modulus (GPa) = 38.68301 61.67040 50.17671
# Shear Modulus (GPa) = 27.88618 39.77326 33.82972
#
# Velocity S-wave (km/s) = 3.29545 3.93565 3.62969
# Velocity P-wave (km/s) = 5.43551 6.68352 6.09156
#
# Compressibility (1/GPa) = 0.02585114
#
# Stress axis : x y z
#
# Youngs Moduli (GPa) = 115.37960 33.95770 117.28631
#
# Poissons Ratio (x) = 0.03297 0.26415
# Poissons Ratio (y) = 0.11201 0.84121
# Poissons Ratio (z) = 0.25985 0.24355
#
# Static dielectric constant tensor:
#      x y z
#    x 2.038830 0.000000 -0.076210 
#    y 0.000000 2.185530 0.000000 
#    z -0.076210 0.000000 2.087850 
# 
# From -- ./inp_files/5515.got.cif
#   From: 2010.05.17/outbox.cif.g08.bks.cpg/sg9_3_cif.got.tgz:5515.got - 2010.06.03 20:04:27.
