data_PCOD9136987
_publ_section_title
;
Structure prediction by ZEFSAII (Michael W. Deem and Ramdas Pophale) SiO2 
 PCOD9136987
Probable space group: C C
;
_chemical_formula_sum "Si O2"
_cell_formula_units_Z 32
_cell_length_a 14.076420
_cell_length_b 18.403018
_cell_length_c 5.496497
_cell_angle_alpha 90.000000
_cell_angle_beta 99.341102
_cell_angle_gamma 90.000000
_cell_volume 1404.978865
_symmetry_space_group_name_H-M "C C"
_symmetry_group_IT_number 9
_symmetry_cell_setting 'monoclinic'
loop_
_space_group_symop_operation_xyz
x,y,z
x,-y,1/2+z
1/2+x,1/2+y,z
1/2+x,1/2-y,1/2+z
loop_
_atom_site_type_symbol
_atom_site_label
_atom_site_fract_x
_atom_site_fract_y
_atom_site_fract_z
Si Si1 0.063730 0.862149 0.388910
Si Si2 0.804240 0.809052 0.992978
Si Si3 0.482470 0.732434 0.241802
Si Si4 0.824446 0.317430 0.873959
Si Si5 0.701568 0.469146 0.301390
Si Si6 0.382447 0.454533 0.195458
Si Si7 0.655884 0.750250 0.592651
Si Si8 0.411906 0.977822 0.853096
O O1 0.022735 0.839312 0.628563
O O2 0.167355 0.898308 0.427458
O O3 0.083305 0.789773 0.246278
O O4 0.990692 0.920934 0.247436
O O5 0.791728 0.736323 0.145235
O O6 0.814744 0.882796 0.150068
O O7 0.720188 0.809195 0.757433
O O8 0.906383 0.795498 0.906939
O O9 0.578167 0.775630 0.361728
O O10 0.416139 0.778196 0.034373
O O11 0.865571 0.396982 0.830590
O O12 0.733251 0.307841 0.017507
O O13 0.668967 0.525304 0.504766
O O14 0.815911 0.472218 0.325499
O O15 0.369473 0.498970 0.441920
O O16 0.463757 0.001921 0.627005
#
# Coordination Sequence:
#
# PCOD9136987 Si02
#       8
#     4   4   4   4   4   4   4   4
#     4  12  23  40  64 107 138 183 226 294 370 438
#     4  11  25  45  66 104 142 194 251 293 360 435
#     4  11  23  42  67 101 139 187 243 298 355 425
#     4  11  24  42  70  94 147 186 238 298 347 436
#     4  10  22  34  54  90 141 170 210 256 342 439
#     4  12  26  44  72 101 151 198 235 306 371 446
#     4  11  24  38  72  98 139 185 241 298 354 424
#     4  10  23  39  61  99 137 183 222 277 355 429
#
# _framework density 22.776143000000001
#
# number of rings (size 3 to 8) (size 9 to 14) (size 15 to 20)
#    0.000    1.000    2.500    3.750   14.000    0.000 
#    0.000    0.000    0.000    1.500    0.000    0.000 
#    0.000    0.000    0.000    0.000    0.000    0.000 
#
# Total GULP energy -89249.925375 kJ/mol
# GULP energy per Si atom -5578.120336 kJ/mol
# Density = 2.272430 g / cm^3
# Si number density = 22.776143 Si / 1000 Ang^3
#
#
#
# Elastic Constant Matrix: (Units=GPa)
#
#
# Indices 1 2 3 4 5 6 
#
# 1 65.4260 3.2866 24.3018 0.0000 22.1356 0.0000
# 2 3.2866 63.6734 39.7537 0.0000 5.3252 0.0000
# 3 24.3018 39.7537 126.8368 0.0000 -5.3863 0.0000
# 4 0.0000 0.0000 0.0000 38.8036 0.0000 5.2326
# 5 22.1356 5.3252 -5.3863 0.0000 44.2851 0.0000
# 6 0.0000 0.0000 0.0000 5.2326 0.0000 31.6810
#
#
#
# Elastic Compliance Matrix: (Units=1/GPa)
#
#
# Indices 1 2 3 4 5 6 
#
# 1 0.021140 0.003384 -0.005606 0.000000 -0.011655 0.000000
# 2 0.003384 0.020503 -0.007288 0.000000 -0.005043 0.000000
# 3 -0.005606 -0.007288 0.011458 0.000000 0.005072 0.000000
# 4 0.000000 0.000000 0.000000 0.026358 0.000000 -0.004353
# 5 -0.011655 -0.005043 0.005072 0.000000 0.029630 0.000000
# 6 0.000000 0.000000 0.000000 -0.004353 0.000000 0.032284
#
#
# Mechanical properties :
#
#
# Convention : Reuss Voigt Hill
#
# Bulk Modulus (GPa) = 29.34338 43.40226 36.37282
# Shear Modulus (GPa) = 29.11141 35.52688 32.31914
#
# Velocity S-wave (km/s) = 3.57901 3.95375 3.77104
# Velocity P-wave (km/s) = 5.47635 6.31983 5.91315
#
# Compressibility (1/GPa) = 0.03407923
#
# Stress axis : x y z
#
# Youngs Moduli (GPa) = 47.30345 48.77392 87.27525
#
# Poissons Ratio (x) = -0.16503 0.48925
# Poissons Ratio (y) = -0.16005 0.63611
# Poissons Ratio (z) = 0.26518 0.35549
#
# Static dielectric constant tensor:
#      x y z
#    x 1.814860 0.000000 0.051550 
#    y 0.000000 1.893040 0.000000 
#    z 0.051550 0.000000 2.089780 
# 
# From -- ./inp_files/2545.got.cif
#   From: 2010.05.17/outbox.cif.g08.bks.cpg/sg9_2_cif.got.tgz:2545.got - 2010.06.03 20:04:27.
