data_PCOD9136263
_publ_section_title
;
Structure prediction by ZEFSAII (Michael W. Deem and Ramdas Pophale) SiO2 
 PCOD9136263
Probable space group: C C
;
_chemical_formula_sum "Si O2"
_cell_formula_units_Z 32
_cell_length_a 24.158435
_cell_length_b 6.037114
_cell_length_c 9.213889
_cell_angle_alpha 90.000000
_cell_angle_beta 79.080772
_cell_angle_gamma 90.000000
_cell_volume 1319.490556
_symmetry_space_group_name_H-M "C C"
_symmetry_group_IT_number 9
_symmetry_cell_setting 'monoclinic'
loop_
_space_group_symop_operation_xyz
x,y,z
x,-y,1/2+z
1/2+x,1/2+y,z
1/2+x,1/2-y,1/2+z
loop_
_atom_site_type_symbol
_atom_site_label
_atom_site_fract_x
_atom_site_fract_y
_atom_site_fract_z
Si Si1 0.375000 0.788120 0.506400
Si Si2 0.173880 0.779373 0.228540
Si Si3 0.142297 0.497851 0.488725
Si Si4 0.325243 0.469846 0.282213
Si Si5 0.488091 0.085225 0.796693
Si Si6 0.586028 0.616426 0.365428
Si Si7 0.287042 0.189403 0.553578
Si Si8 0.522616 0.230032 0.496646
O O1 0.351422 0.623789 0.393704
O O2 0.369525 0.675340 0.667002
O O3 0.437442 0.837593 0.422431
O O4 0.335867 0.006742 0.528745
O O5 0.179782 0.678481 0.387030
O O6 0.226784 0.902752 0.133314
O O7 0.119153 0.933847 0.256341
O O8 0.162341 0.560407 0.138226
O O9 0.134575 0.257677 0.418658
O O10 0.078896 0.590271 0.505493
O O11 0.285940 0.304054 0.395552
O O12 0.297990 0.625192 0.172543
O O13 0.544431 0.225184 0.800294
O O14 0.477039 0.145856 0.635499
O O15 0.502179 0.838214 0.845459
O O16 0.543556 0.480440 0.490481
#
# Coordination Sequence:
#
# PCOD9136263 Si02
#       8
#     4   4   4   4   4   4   4   4
#     4  11  26  45  70  95 135 180 235 289 348 402
#     4  11  23  40  68  97 134 177 216 271 334 404
#     4  10  21  40  62  96 135 170 216 268 329 400
#     4  10  25  46  66 100 133 173 234 289 341 417
#     4  11  25  40  66  93 131 172 223 282 331 394
#     4  10  22  39  64  98 133 172 226 262 333 400
#     4  11  24  44  70 100 138 181 229 285 347 405
#     4  10  22  40  62  95 131 173 215 274 329 400
#
# _framework density 24.251784000000001
#
# number of rings (size 3 to 8) (size 9 to 14) (size 15 to 20)
#    0.000    1.500    0.000    4.500    5.250    7.000 
#    0.000    0.000    0.000    0.000    0.000    0.000 
#    0.000    0.000    0.000    0.000    0.000    0.000 
#
# Total GULP energy -89427.962889 kJ/mol
# GULP energy per Si atom -5589.247681 kJ/mol
# Density = 2.419659 g / cm^3
# Si number density = 24.251784 Si / 1000 Ang^3
#
#
#
# Elastic Constant Matrix: (Units=GPa)
#
#
# Indices 1 2 3 4 5 6 
#
# 1 54.7388 12.0197 30.1360 0.0000 -27.9553 0.0000
# 2 12.0197 68.6497 42.9628 0.0000 -7.0189 0.0000
# 3 30.1360 42.9628 142.9554 0.0000 -22.1375 0.0000
# 4 0.0000 0.0000 0.0000 33.5745 0.0000 2.8881
# 5 -27.9553 -7.0189 -22.1375 0.0000 43.8534 0.0000
# 6 0.0000 0.0000 0.0000 2.8881 0.0000 25.7708
#
#
#
# Elastic Compliance Matrix: (Units=1/GPa)
#
#
# Indices 1 2 3 4 5 6 
#
# 1 0.028708 -0.001418 -0.003067 0.000000 0.016525 0.000000
# 2 -0.001418 0.018012 -0.005216 0.000000 -0.000654 0.000000
# 3 -0.003067 -0.005216 0.009521 0.000000 0.002017 0.000000
# 4 0.000000 0.000000 0.000000 0.030074 0.000000 -0.003370
# 5 0.016525 -0.000654 0.002017 0.000000 0.034251 0.000000
# 6 0.000000 0.000000 0.000000 -0.003370 0.000000 0.039181
#
#
# Mechanical properties :
#
#
# Convention : Reuss Voigt Hill
#
# Bulk Modulus (GPa) = 27.14320 48.50898 37.82609
# Shear Modulus (GPa) = 26.11938 32.72142 29.42040
#
# Velocity S-wave (km/s) = 3.28534 3.67718 3.48677
# Velocity P-wave (km/s) = 5.06042 6.17046 5.64280
#
# Compressibility (1/GPa) = 0.03684164
#
# Stress axis : x y z
#
# Youngs Moduli (GPa) = 34.83372 55.51805 105.02600
#
# Poissons Ratio (x) = 0.07870 0.32209
# Poissons Ratio (y) = 0.04938 0.54778
# Poissons Ratio (z) = 0.10683 0.28956
#
# Static dielectric constant tensor:
#      x y z
#    x 1.930240 0.000000 0.016870 
#    y 0.000000 1.932070 0.000000 
#    z 0.016870 0.000000 2.019780 
# 
# From -- ./inp_files/12568.got.cif
#   From: 2010.05.17/outbox.cif.g08.bks.cpg/sg9_7_cif.got.tgz:12568.got - 2010.06.03 20:04:27.
