data_PCOD9136472
_publ_section_title
;
Structure prediction by ZEFSAII (Michael W. Deem and Ramdas Pophale) SiO2 
 PCOD9136472
Probable space group: C C
;
_chemical_formula_sum "Si O2"
_cell_formula_units_Z 28
_cell_length_a 23.025329
_cell_length_b 10.965271
_cell_length_c 13.263988
_cell_angle_alpha 90.000000
_cell_angle_beta 159.634228
_cell_angle_gamma 90.000000
_cell_volume 1165.449956
_symmetry_space_group_name_H-M "C C"
_symmetry_group_IT_number 9
_symmetry_cell_setting 'monoclinic'
loop_
_space_group_symop_operation_xyz
x,y,z
x,-y,1/2+z
1/2+x,1/2+y,z
1/2+x,1/2-y,1/2+z
loop_
_atom_site_type_symbol
_atom_site_label
_atom_site_fract_x
_atom_site_fract_y
_atom_site_fract_z
Si Si1 0.395280 0.438206 0.368810
Si Si2 0.436539 0.448878 0.207939
Si Si3 0.187474 0.748014 0.645589
Si Si4 0.960966 0.456171 0.118494
Si Si5 0.182649 0.605052 0.148006
Si Si6 0.680485 0.764696 0.364685
Si Si7 0.731164 0.361689 0.141052
O O1 0.426016 0.484960 0.307358
O O2 0.242437 0.347649 0.150313
O O3 0.350158 0.554323 0.363036
O O4 0.545052 0.344471 0.632440
O O5 0.514011 0.311773 0.336717
O O6 0.573012 0.542547 0.380123
O O7 0.246644 0.431362 0.861097
O O8 0.213123 0.698587 0.801815
O O9 0.311819 0.861842 0.856360
O O10 0.021806 0.457089 0.333767
O O11 0.108001 0.384188 0.301079
O O12 0.887359 0.577198 0.950891
O O13 0.165168 0.747305 0.098150
O O14 0.789078 0.696309 0.627635
#
# Coordination Sequence:
#
# PCOD9136472 Si02
#       7
#     4   4   4   4   4   4   4
#     4  10  21  41  66  97 129 170 223 264 329 388
#     4  10  22  44  66  91 134 175 209 277 323 390
#     4   9  20  41  67  91 131 170 215 266 326 390
#     4   9  21  40  59  96 126 163 218 264 323 388
#     4  11  23  40  63  93 128 166 217 265 321 389
#     4   9  18  41  67  91 125 173 210 269 327 383
#     4  10  21  43  64  93 129 165 218 263 327 390
#
# _framework density 24.025054000000001
#
# number of rings (size 3 to 8) (size 9 to 14) (size 15 to 20)
#    0.000    2.286    1.429    0.000    2.000    2.286 
#    7.714    4.286    0.000    0.000    0.000    0.000 
#    0.000    0.000    0.000    0.000    0.000    0.000 
#
# Total GULP energy -77950.246685 kJ/mol
# GULP energy per Si atom -5567.874763 kJ/mol
# Density = 2.397037 g / cm^3
# Si number density = 24.025054 Si / 1000 Ang^3
#
#
#
# Elastic Constant Matrix: (Units=GPa)
#
#
# Indices 1 2 3 4 5 6 
#
# 1 46.0623 -3.0474 -12.7420 0.0000 2.8999 0.0000
# 2 -3.0474 67.3501 51.0698 0.0000 -10.6668 0.0000
# 3 -12.7420 51.0698 104.7913 0.0000 -20.7618 0.0000
# 4 0.0000 0.0000 0.0000 -2.0118 0.0000 -4.3947
# 5 2.8999 -10.6668 -20.7618 0.0000 14.8643 0.0000
# 6 0.0000 0.0000 0.0000 -4.3947 0.0000 27.8579
#
#
#
# Elastic Compliance Matrix: (Units=1/GPa)
#
#
# Indices 1 2 3 4 5 6 
#
# 1 0.022593 -0.001694 0.003399 0.000000 -0.000875 0.000000
# 2 -0.001694 0.023693 -0.011502 0.000000 0.001268 0.000000
# 3 0.003399 -0.011502 0.019073 0.000000 0.017723 0.000000
# 4 0.000000 0.000000 0.000000 -0.369673 0.000000 -0.058317
# 5 -0.000875 0.001268 0.017723 0.000000 0.093111 0.000000
# 6 0.000000 0.000000 0.000000 -0.058317 0.000000 0.026697
#
#
# Mechanical properties :
#
#
# Convention : Reuss Voigt Hill
#
# Bulk Modulus (GPa) = 21.84998 32.08496 26.96747
# Shear Modulus (GPa) = -33.40964 20.33695 -6.53634
#
# Velocity S-wave (km/s) = -3.73314 2.91261 -1.65122
# Velocity P-wave (km/s) = 3.07691 4.96939 2.75929
#
# Compressibility (1/GPa) = 0.04576664
#
# Stress axis : x y z
#
# Youngs Moduli (GPa) = 44.26128 42.20593 52.43072
#
# Poissons Ratio (x) = 0.07150 -0.17823
# Poissons Ratio (y) = 0.07498 0.60304
# Poissons Ratio (z) = -0.15046 0.48544
#
# Static dielectric constant tensor:
#      x y z
#    x 1.980260 0.000000 -0.036580 
#    y 0.000000 1.903280 0.000000 
#    z -0.036580 0.000000 2.020250 
# 
# From -- ./inp_files/21507.got.cif
#   From: 2010.05.17/outbox.cif.g08.bks.cpg/sg9_11_cif.got.tgz:21507.got - 2010.06.03 20:04:27.
