data_PCOD9136629
_publ_section_title
;
Structure prediction by ZEFSAII (Michael W. Deem and Ramdas Pophale) SiO2 
 PCOD9136629
Probable space group: C C
;
_chemical_formula_sum "Si O2"
_cell_formula_units_Z 28
_cell_length_a 6.994859
_cell_length_b 12.564696
_cell_length_c 16.794566
_cell_angle_alpha 90.000000
_cell_angle_beta 127.963700
_cell_angle_gamma 90.000000
_cell_volume 1163.715206
_symmetry_space_group_name_H-M "C C"
_symmetry_group_IT_number 9
_symmetry_cell_setting 'monoclinic'
loop_
_space_group_symop_operation_xyz
x,y,z
x,-y,1/2+z
1/2+x,1/2+y,z
1/2+x,1/2-y,1/2+z
loop_
_atom_site_type_symbol
_atom_site_label
_atom_site_fract_x
_atom_site_fract_y
_atom_site_fract_z
Si Si1 0.582520 0.532212 0.453620
Si Si2 0.822975 0.270863 0.650083
Si Si3 0.441772 0.129472 0.883090
Si Si4 0.136758 0.334998 0.865710
Si Si5 0.966914 0.955504 0.254376
Si Si6 0.545624 0.096576 0.088742
Si Si7 0.346714 0.763424 0.945381
O O1 0.336695 0.573717 0.431648
O O2 0.497414 0.459954 0.357476
O O3 0.805495 0.471587 0.552410
O O4 0.709978 0.636668 0.448954
O O5 0.846856 0.151257 0.689531
O O6 0.983024 0.289260 0.611053
O O7 0.543255 0.284132 0.556619
O O8 0.942446 0.349607 0.745081
O O9 0.551504 0.090929 0.994924
O O10 0.645640 0.174238 0.877713
O O11 0.993032 0.303802 0.907310
O O12 0.247547 0.047383 0.798511
O O13 0.284030 0.232099 0.870731
O O14 0.795764 0.051945 0.186104
#
# Coordination Sequence:
#
# PCOD9136629 Si02
#       7
#     4   4   4   4   4   4   4
#     4  10  22  42  68 101 142 183 229 302 358 429
#     4  11  22  41  71 101 140 186 234 298 363 431
#     4   9  22  40  69  99 143 186 222 304 358 420
#     4  10  21  42  69  99 143 181 233 294 359 425
#     4  10  21  42  69 101 141 181 240 296 360 437
#     4  11  20  42  74  99 144 188 243 299 362 440
#     4  11  22  43  68 104 141 185 239 291 366 432
#
# _framework density 24.060870000000001
#
# number of rings (size 3 to 8) (size 9 to 14) (size 15 to 20)
#    0.000    1.714    4.286    0.000    0.000    1.143 
#    5.143    1.429    6.286    0.000    0.000    0.000 
#    0.000    0.000    0.000    0.000    0.000    0.000 
#
# Total GULP energy -78252.543280 kJ/mol
# GULP energy per Si atom -5589.467377 kJ/mol
# Density = 2.400611 g / cm^3
# Si number density = 24.060870 Si / 1000 Ang^3
#
#
#
# Elastic Constant Matrix: (Units=GPa)
#
#
# Indices 1 2 3 4 5 6 
#
# 1 138.0015 41.6719 47.1163 0.0000 26.0078 0.0000
# 2 41.6719 70.6981 9.9169 0.0000 11.3270 0.0000
# 3 47.1163 9.9169 109.1963 0.0000 24.3978 0.0000
# 4 0.0000 0.0000 0.0000 23.0134 0.0000 2.4547
# 5 26.0078 11.3270 24.3978 0.0000 17.5483 0.0000
# 6 0.0000 0.0000 0.0000 2.4547 0.0000 39.6987
#
#
#
# Elastic Compliance Matrix: (Units=1/GPa)
#
#
# Indices 1 2 3 4 5 6 
#
# 1 0.011450 -0.004682 -0.002029 0.000000 -0.011126 0.000000
# 2 -0.004682 0.017804 0.002061 0.000000 -0.007418 0.000000
# 3 -0.002029 0.002061 0.013740 0.000000 -0.017425 0.000000
# 4 0.000000 0.000000 0.000000 0.043741 0.000000 -0.002705
# 5 -0.011126 -0.007418 -0.017425 0.000000 0.102489 0.000000
# 6 0.000000 0.000000 0.000000 -0.002705 0.000000 0.025357
#
#
# Mechanical properties :
#
#
# Convention : Reuss Voigt Hill
#
# Bulk Modulus (GPa) = 29.68040 57.25624 43.46832
# Shear Modulus (GPa) = 21.26648 30.66479 25.96564
#
# Velocity S-wave (km/s) = 2.97621 3.57384 3.28863
# Velocity P-wave (km/s) = 4.91658 6.39358 5.70310
#
# Compressibility (1/GPa) = 0.03369226
#
# Stress axis : x y z
#
# Youngs Moduli (GPa) = 87.33922 56.16826 72.78266
#
# Poissons Ratio (x) = 0.26296 0.14770
# Poissons Ratio (y) = 0.40889 -0.14998
# Poissons Ratio (z) = 0.17724 -0.11574
#
# Static dielectric constant tensor:
#      x y z
#    x 1.935210 0.000000 -0.004610 
#    y 0.000000 1.982130 0.000000 
#    z -0.004610 0.000000 1.936930 
# 
# From -- ./inp_files/23150.got.cif
#   From: 2010.05.17/outbox.cif.g08.bks.cpg/sg9_12_cif.got.tgz:23150.got - 2010.06.03 20:04:27.
