data_PCOD9136549
_publ_section_title
;
Structure prediction by ZEFSAII (Michael W. Deem and Ramdas Pophale) SiO2 
 PCOD9136549
Probable space group: C C
;
_chemical_formula_sum "Si O2"
_cell_formula_units_Z 28
_cell_length_a 8.808655
_cell_length_b 10.678219
_cell_length_c 18.597630
_cell_angle_alpha 90.000000
_cell_angle_beta 136.149860
_cell_angle_gamma 90.000000
_cell_volume 1211.875311
_symmetry_space_group_name_H-M "C C"
_symmetry_group_IT_number 9
_symmetry_cell_setting 'monoclinic'
loop_
_space_group_symop_operation_xyz
x,y,z
x,-y,1/2+z
1/2+x,1/2+y,z
1/2+x,1/2-y,1/2+z
loop_
_atom_site_type_symbol
_atom_site_label
_atom_site_fract_x
_atom_site_fract_y
_atom_site_fract_z
Si Si1 0.522090 0.724912 0.401580
Si Si2 0.853538 0.209437 0.776994
Si Si3 0.807436 0.423175 0.646488
Si Si4 0.274564 0.442875 0.725849
Si Si5 0.200329 0.813855 0.178789
Si Si6 0.803206 0.838331 0.966393
Si Si7 0.840683 0.116276 0.928905
O O1 0.471460 0.590174 0.348409
O O2 0.323866 0.806904 0.298145
O O3 0.484308 0.709427 0.471668
O O4 0.746724 0.783176 0.452969
O O5 0.781929 0.326793 0.704252
O O6 0.761428 0.165962 0.823900
O O7 0.096925 0.251580 0.883032
O O8 0.812772 0.084010 0.716347
O O9 0.781875 0.563265 0.667298
O O10 0.601625 0.396872 0.524502
O O11 0.042996 0.420969 0.687871
O O12 0.275688 0.322809 0.674003
O O13 0.936228 0.828142 0.086110
O O14 0.750451 0.980623 0.924210
#
# Coordination Sequence:
#
# PCOD9136549 Si02
#       7
#     4   4   4   4   4   4   4
#     4  10  21  42  61  92 130 161 210 265 316 376
#     4  12  21  42  70  93 128 172 217 266 325 377
#     4  11  23  43  67  93 131 171 220 264 321 384
#     4  10  22  43  63  93 132 165 213 271 318 378
#     4   9  21  41  65  87 130 168 207 259 323 373
#     4  11  22  43  67  92 128 177 211 266 322 383
#     4  11  24  42  65  98 129 172 218 265 319 389
#
# _framework density 23.104687999999999
#
# number of rings (size 3 to 8) (size 9 to 14) (size 15 to 20)
#    0.857    0.571    2.857    2.571    0.000    3.429 
#   10.286    2.857    0.000    0.000    0.000    0.000 
#    0.000    0.000    0.000    0.000    0.000    0.000 
#
# Total GULP energy -78005.364512 kJ/mol
# GULP energy per Si atom -5571.811751 kJ/mol
# Density = 2.305210 g / cm^3
# Si number density = 23.104688 Si / 1000 Ang^3
#
#
#
# Elastic Constant Matrix: (Units=GPa)
#
#
# Indices 1 2 3 4 5 6 
#
# 1 45.4470 49.2689 13.9537 0.0000 8.7340 0.0000
# 2 49.2689 146.9643 32.8707 0.0000 13.0449 0.0000
# 3 13.9537 32.8707 86.9922 0.0000 8.0243 0.0000
# 4 0.0000 0.0000 0.0000 43.0937 0.0000 4.6635
# 5 8.7340 13.0449 8.0243 0.0000 31.5781 0.0000
# 6 0.0000 0.0000 0.0000 4.6635 0.0000 27.6140
#
#
#
# Elastic Compliance Matrix: (Units=1/GPa)
#
#
# Indices 1 2 3 4 5 6 
#
# 1 0.035407 -0.011213 -0.000990 0.000000 -0.004909 0.000000
# 2 -0.011213 0.011167 -0.002336 0.000000 -0.000918 0.000000
# 3 -0.000990 -0.002336 0.012721 0.000000 -0.001994 0.000000
# 4 0.000000 0.000000 0.000000 0.023637 0.000000 -0.003992
# 5 -0.004909 -0.000918 -0.001994 0.000000 0.033911 0.000000
# 6 0.000000 0.000000 0.000000 -0.003992 0.000000 0.036888
#
#
# Mechanical properties :
#
#
# Convention : Reuss Voigt Hill
#
# Bulk Modulus (GPa) = 33.09365 52.39890 42.74628
# Shear Modulus (GPa) = 25.92264 32.67782 29.30023
#
# Velocity S-wave (km/s) = 3.35321 3.76485 3.56497
# Velocity P-wave (km/s) = 5.41724 6.45189 5.95707
#
# Compressibility (1/GPa) = 0.03021728
#
# Stress axis : x y z
#
# Youngs Moduli (GPa) = 28.24316 89.54561 78.61169
#
# Poissons Ratio (x) = 1.00406 0.07780
# Poissons Ratio (y) = 0.31668 0.18367
# Poissons Ratio (z) = 0.02795 0.20922
#
# Static dielectric constant tensor:
#      x y z
#    x 1.875970 0.000000 -0.008690 
#    y 0.000000 1.883080 0.000000 
#    z -0.008690 0.000000 1.902190 
# 
# From -- ./inp_files/32449.got.cif
#   From: 2010.05.17/outbox.cif.g08.bks.cpg/sg9_17_cif.got.tgz:32449.got - 2010.06.03 20:04:27.
