data_PCOD9136723
_publ_section_title
;
Structure prediction by ZEFSAII (Michael W. Deem and Ramdas Pophale) SiO2 
 PCOD9136723
Probable space group: C C
;
_chemical_formula_sum "Si O2"
_cell_formula_units_Z 32
_cell_length_a 6.677125
_cell_length_b 12.209426
_cell_length_c 17.966499
_cell_angle_alpha 90.000000
_cell_angle_beta 83.916653
_cell_angle_gamma 90.000000
_cell_volume 1456.450386
_symmetry_space_group_name_H-M "C C"
_symmetry_group_IT_number 9
_symmetry_cell_setting 'monoclinic'
loop_
_space_group_symop_operation_xyz
x,y,z
x,-y,1/2+z
1/2+x,1/2+y,z
1/2+x,1/2-y,1/2+z
loop_
_atom_site_type_symbol
_atom_site_label
_atom_site_fract_x
_atom_site_fract_y
_atom_site_fract_z
Si Si1 0.070360 0.825219 0.153680
Si Si2 0.216428 0.229032 0.429430
Si Si3 0.874462 0.827114 0.561692
Si Si4 0.580133 0.473759 0.018419
Si Si5 0.879234 0.608035 0.904939
Si Si6 0.173816 0.203845 0.184737
Si Si7 0.921853 0.593625 0.293392
Si Si8 0.767627 0.248279 0.284812
O O1 0.180944 0.718711 0.113086
O O2 0.123968 0.924866 0.098023
O O3 0.154831 0.831285 0.233294
O O4 0.834410 0.800489 0.165860
O O5 0.376887 0.251457 0.488535
O O6 0.071236 0.132218 0.465653
O O7 0.320172 0.184762 0.351535
O O8 0.086246 0.338008 0.423639
O O9 0.060868 0.818664 0.611552
O O10 0.882508 0.951835 0.533811
O O11 0.751968 0.550010 0.974722
O O12 0.909772 0.518969 0.838258
O O13 0.763206 0.706372 0.867974
O O14 0.302344 0.108143 0.220613
O O15 0.995108 0.236760 0.247806
O O16 0.151230 0.634150 0.278307
#
# Coordination Sequence:
#
# PCOD9136723 Si02
#       8
#     4   4   4   4   4   4   4   4
#     4   9  22  44  62  95 137 165 224 277 319 390
#     4  10  22  44  61  97 137 162 217 270 321 395
#     4  10  22  40  65  95 125 173 215 264 327 386
#     4  10  23  41  65  96 126 175 216 265 326 392
#     4  11  23  41  71  96 130 177 212 272 332 387
#     4  10  21  44  67  92 135 172 218 283 327 380
#     4  10  22  43  66  95 128 168 221 266 327 395
#     4  10  21  43  67  94 132 174 215 277 327 385
#
# _framework density 21.971223999999999
#
# number of rings (size 3 to 8) (size 9 to 14) (size 15 to 20)
#    0.000    2.000    1.250    0.750    5.250    1.000 
#   18.000    0.000    0.000    0.000    0.000    0.000 
#    0.000    0.000    0.000    0.000    0.000    0.000 
#
# Total GULP energy -89282.470398 kJ/mol
# GULP energy per Si atom -5580.154400 kJ/mol
# Density = 2.192122 g / cm^3
# Si number density = 21.971224 Si / 1000 Ang^3
#
#
#
# Elastic Constant Matrix: (Units=GPa)
#
#
# Indices 1 2 3 4 5 6 
#
# 1 107.2365 36.4678 40.0644 0.0000 3.5606 0.0000
# 2 36.4678 79.2944 18.6435 0.0000 0.3806 0.0000
# 3 40.0644 18.6435 83.3069 0.0000 4.4259 0.0000
# 4 0.0000 0.0000 0.0000 35.8030 0.0000 -7.6453
# 5 3.5606 0.3806 4.4259 0.0000 20.5750 0.0000
# 6 0.0000 0.0000 0.0000 -7.6453 0.0000 31.8444
#
#
#
# Elastic Compliance Matrix: (Units=1/GPa)
#
#
# Indices 1 2 3 4 5 6 
#
# 1 0.012859 -0.004716 -0.005073 0.000000 -0.001047 0.000000
# 2 -0.004716 0.015045 -0.001140 0.000000 0.000783 0.000000
# 3 -0.005073 -0.001140 0.014820 0.000000 -0.002289 0.000000
# 4 0.000000 0.000000 0.000000 0.029440 0.000000 0.007068
# 5 -0.001047 0.000783 -0.002289 0.000000 0.049262 0.000000
# 6 0.000000 0.000000 0.000000 0.007068 0.000000 0.033100
#
#
# Mechanical properties :
#
#
# Convention : Reuss Voigt Hill
#
# Bulk Modulus (GPa) = 47.92785 51.13215 49.53000
# Shear Modulus (GPa) = 27.27175 29.28862 28.28019
#
# Velocity S-wave (km/s) = 3.52696 3.65505 3.59157
# Velocity P-wave (km/s) = 6.20058 6.41369 6.30803
#
# Compressibility (1/GPa) = 0.02086470
#
# Stress axis : x y z
#
# Youngs Moduli (GPa) = 77.76559 66.46922 67.47422
#
# Poissons Ratio (x) = 0.31348 0.34231
# Poissons Ratio (y) = 0.36675 0.07694
# Poissons Ratio (z) = 0.39452 0.07580
#
# Static dielectric constant tensor:
#      x y z
#    x 1.797580 0.000000 0.005150 
#    y 0.000000 1.827810 0.000000 
#    z 0.005150 0.000000 1.832400 
# 
# From -- ./inp_files/32003.got.cif
#   From: 2010.05.17/outbox.cif.g08.bks.cpg/sg9_17_cif.got.tgz:32003.got - 2010.06.03 20:04:27.
