data_PCOD9136075
_publ_section_title
;
Structure prediction by ZEFSAII (Michael W. Deem and Ramdas Pophale) SiO2 
 PCOD9136075
Probable space group: C C
;
_chemical_formula_sum "Si O2"
_cell_formula_units_Z 32
_cell_length_a 22.498006
_cell_length_b 7.717475
_cell_length_c 16.745503
_cell_angle_alpha 90.000000
_cell_angle_beta 155.656143
_cell_angle_gamma 90.000000
_cell_volume 1198.499760
_symmetry_space_group_name_H-M "C C"
_symmetry_group_IT_number 9
_symmetry_cell_setting 'monoclinic'
loop_
_space_group_symop_operation_xyz
x,y,z
x,-y,1/2+z
1/2+x,1/2+y,z
1/2+x,1/2-y,1/2+z
loop_
_atom_site_type_symbol
_atom_site_label
_atom_site_fract_x
_atom_site_fract_y
_atom_site_fract_z
Si Si1 0.900790 0.965730 0.546340
Si Si2 0.395133 0.065480 0.591163
Si Si3 0.080309 0.447312 0.476216
Si Si4 0.666289 0.977511 0.864715
Si Si5 0.009460 0.088838 0.010986
Si Si6 0.677454 0.395345 0.442294
Si Si7 0.338758 0.322529 0.710632
Si Si8 0.748400 0.685837 0.203356
O O1 0.908207 0.763690 0.579110
O O2 0.963402 0.003749 0.535991
O O3 0.738021 0.017110 0.365111
O O4 0.008681 0.066179 0.735753
O O5 0.508127 0.023698 0.801339
O O6 0.492747 0.972411 0.643638
O O7 0.251338 0.008707 0.461910
O O8 0.950726 0.335576 0.355400
O O9 0.214896 0.319727 0.625780
O O10 0.154156 0.632450 0.587082
O O11 0.712255 0.799604 0.961621
O O12 0.749130 0.130523 0.018686
O O13 0.915971 0.263898 0.907706
O O14 0.177881 0.100992 0.195964
O O15 0.936485 0.989839 0.848346
O O16 0.723529 0.414076 0.590385
#
# Coordination Sequence:
#
# PCOD9136075 Si02
#       8
#     4   4   4   4   4   4   4   4
#     4  12  27  43  68 102 146 183 230 291 358 426
#     4  11  23  39  68 104 132 173 229 290 350 404
#     4  10  21  38  68 101 126 175 230 296 337 398
#     4  11  22  43  70  99 136 174 236 291 337 424
#     4  11  26  46  66 101 143 188 230 292 362 426
#     4  12  24  44  75 102 131 186 240 288 353 420
#     4  10  21  42  66 100 134 176 233 289 344 409
#     4  11  24  45  75 101 138 185 240 289 355 431
#
# _framework density 26.700047999999999
#
# number of rings (size 3 to 8) (size 9 to 14) (size 15 to 20)
#    0.000    1.000    5.000    3.000    5.250    1.000 
#    4.500    1.250    0.000    0.000    0.000    0.000 
#    0.000    0.000    0.000    0.000    0.000    0.000 
#
# Total GULP energy -89254.841637 kJ/mol
# GULP energy per Si atom -5578.427602 kJ/mol
# Density = 2.663928 g / cm^3
# Si number density = 26.700048 Si / 1000 Ang^3
#
#
#
# Elastic Constant Matrix: (Units=GPa)
#
#
# Indices 1 2 3 4 5 6 
#
# 1 141.5895 29.6987 26.9524 0.0000 43.2556 0.0000
# 2 29.6987 81.3002 7.9701 0.0000 17.0030 0.0000
# 3 26.9524 7.9701 76.2959 0.0000 39.5535 0.0000
# 4 0.0000 0.0000 0.0000 40.8604 0.0000 8.8062
# 5 43.2556 17.0030 39.5535 0.0000 60.9173 0.0000
# 6 0.0000 0.0000 0.0000 8.8062 0.0000 27.2484
#
#
#
# Elastic Compliance Matrix: (Units=1/GPa)
#
#
# Indices 1 2 3 4 5 6 
#
# 1 0.009362 -0.002152 0.000079 0.000000 -0.006098 0.000000
# 2 -0.002152 0.013589 0.000776 0.000000 -0.002769 0.000000
# 3 0.000079 0.000776 0.019806 0.000000 -0.013133 0.000000
# 4 0.000000 0.000000 0.000000 0.026306 0.000000 -0.008502
# 5 -0.006098 -0.002769 -0.013133 0.000000 0.030046 0.000000
# 6 0.000000 0.000000 0.000000 -0.008502 0.000000 0.039447
#
#
# Mechanical properties :
#
#
# Convention : Reuss Voigt Hill
#
# Bulk Modulus (GPa) = 24.89830 47.60310 36.25070
# Shear Modulus (GPa) = 32.35438 41.44284 36.89861
#
# Velocity S-wave (km/s) = 3.48483 3.94402 3.72152
# Velocity P-wave (km/s) = 5.05346 6.21353 5.66328
#
# Compressibility (1/GPa) = 0.04016338
#
# Stress axis : x y z
#
# Youngs Moduli (GPa) = 106.81345 73.58748 50.48902
#
# Poissons Ratio (x) = 0.15838 -0.00399
# Poissons Ratio (y) = 0.22989 -0.03918
# Poissons Ratio (z) = -0.00845 -0.05711
#
# Static dielectric constant tensor:
#      x y z
#    x 2.315770 0.000000 0.088230 
#    y 0.000000 2.108120 0.000000 
#    z 0.088230 0.000000 2.213450 
# 
# From -- ./inp_files/31230.got.cif
#   From: 2010.05.17/outbox.cif.g08.bks.cpg/sg9_16_cif.got.tgz:31230.got - 2010.06.03 20:04:27.
