data_PCOD9136533
_publ_section_title
;
Structure prediction by ZEFSAII (Michael W. Deem and Ramdas Pophale) SiO2 
 PCOD9136533
Probable space group: C C
;
_chemical_formula_sum "Si O2"
_cell_formula_units_Z 24
_cell_length_a 17.842092
_cell_length_b 8.572363
_cell_length_c 7.770748
_cell_angle_alpha 90.000000
_cell_angle_beta 49.479122
_cell_angle_gamma 90.000000
_cell_volume 903.481903
_symmetry_space_group_name_H-M "C C"
_symmetry_group_IT_number 9
_symmetry_cell_setting 'monoclinic'
loop_
_space_group_symop_operation_xyz
x,y,z
x,-y,1/2+z
1/2+x,1/2+y,z
1/2+x,1/2-y,1/2+z
loop_
_atom_site_type_symbol
_atom_site_label
_atom_site_fract_x
_atom_site_fract_y
_atom_site_fract_z
Si Si1 0.675250 0.206772 0.448480
Si Si2 0.459449 0.617734 0.849542
Si Si3 0.379016 0.690524 0.334239
Si Si4 0.388090 0.133181 0.171184
Si Si5 0.161546 0.158683 0.615906
Si Si6 0.582078 0.985425 0.817046
O O1 0.775665 0.219762 0.398025
O O2 0.669376 0.337616 0.311500
O O3 0.598970 0.155519 0.709460
O O4 0.660504 0.053356 0.349511
O O5 0.387526 0.474132 0.919786
O O6 0.428003 0.744679 0.754417
O O7 0.572185 0.557548 0.675262
O O8 0.448521 0.671011 0.063979
O O9 0.391510 0.811513 0.468873
O O10 0.270825 0.120352 0.386845
O O11 0.469146 0.993590 0.052254
O O12 0.111691 0.332390 0.658483
#
# Coordination Sequence:
#
# PCOD9136533 Si02
#       6
#     4   4   4   4   4   4
#     4  10  21  41  72 105 138 185 252 296 355 442
#     4  12  24  45  68 107 145 187 237 307 370 434
#     4  12  24  43  73 106 140 191 246 298 368 449
#     4  12  25  44  76 106 141 191 248 301 364 436
#     4  10  25  45  71 102 147 190 237 304 367 430
#     4  10  23  42  72 108 137 190 250 298 360 441
#
# _framework density 26.563897999999998
#
# number of rings (size 3 to 8) (size 9 to 14) (size 15 to 20)
#    1.000    0.000    3.333    4.000    4.667    0.000 
#    0.000    3.333    0.000    0.000    0.000    0.000 
#    0.000    0.000    0.000    0.000    0.000    0.000 
#
# Total GULP energy -66926.067910 kJ/mol
# GULP energy per Si atom -5577.172326 kJ/mol
# Density = 2.650344 g / cm^3
# Si number density = 26.563898 Si / 1000 Ang^3
#
#
#
# Elastic Constant Matrix: (Units=GPa)
#
#
# Indices 1 2 3 4 5 6 
#
# 1 208.8841 18.0628 67.9104 0.0000 -16.5012 0.0000
# 2 18.0628 64.4676 32.3243 0.0000 11.2979 0.0000
# 3 67.9104 32.3243 168.2003 0.0000 -6.5627 0.0000
# 4 0.0000 0.0000 0.0000 19.1518 0.0000 -7.9527
# 5 -16.5012 11.2979 -6.5627 0.0000 69.0183 0.0000
# 6 0.0000 0.0000 0.0000 -7.9527 0.0000 -14.5222
#
#
#
# Elastic Compliance Matrix: (Units=1/GPa)
#
#
# Indices 1 2 3 4 5 6 
#
# 1 0.005629 -0.000759 -0.002077 0.000000 0.001272 0.000000
# 2 -0.000759 0.017972 -0.003281 0.000000 -0.003435 0.000000
# 3 -0.002077 -0.003281 0.007444 0.000000 0.000748 0.000000
# 4 0.000000 0.000000 0.000000 0.042541 0.000000 -0.023296
# 5 0.001272 -0.003435 0.000748 0.000000 0.015427 0.000000
# 6 0.000000 0.000000 0.000000 -0.023296 0.000000 -0.056102
#
#
# Mechanical properties :
#
#
# Convention : Reuss Voigt Hill
#
# Bulk Modulus (GPa) = 53.16423 75.34967 64.25695
# Shear Modulus (GPa) = 97.25074 36.27988 66.76531
#
# Velocity S-wave (km/s) = 6.05719 3.69963 5.01881
# Velocity P-wave (km/s) = 8.30522 6.83203 7.60438
#
# Compressibility (1/GPa) = 0.01880964
#
# Stress axis : x y z
#
# Youngs Moduli (GPa) = 177.65881 55.64340 134.34054
#
# Poissons Ratio (x) = 0.04221 0.27905
# Poissons Ratio (y) = 0.13477 0.44084
# Poissons Ratio (z) = 0.36903 0.18259
#
# Static dielectric constant tensor:
#      x y z
#    x 2.021670 0.000000 -0.005140 
#    y 0.000000 2.575680 0.000000 
#    z -0.005140 0.000000 2.194970 
# 
# From -- ./inp_files/8814.got.cif
#   From: 2010.05.17/outbox.cif.g08.bks.cpg/sg9_5_cif.got.tgz:8814.got - 2010.06.03 20:04:27.
