data_PCOD9136707
_publ_section_title
;
Structure prediction by ZEFSAII (Michael W. Deem and Ramdas Pophale) SiO2 
 PCOD9136707
Probable space group: C C
;
_chemical_formula_sum "Si O2"
_cell_formula_units_Z 32
_cell_length_a 23.319155
_cell_length_b 5.140392
_cell_length_c 18.523374
_cell_angle_alpha 90.000000
_cell_angle_beta 143.656677
_cell_angle_gamma 90.000000
_cell_volume 1315.852480
_symmetry_space_group_name_H-M "C C"
_symmetry_group_IT_number 9
_symmetry_cell_setting 'monoclinic'
loop_
_space_group_symop_operation_xyz
x,y,z
x,-y,1/2+z
1/2+x,1/2+y,z
1/2+x,1/2-y,1/2+z
loop_
_atom_site_type_symbol
_atom_site_label
_atom_site_fract_x
_atom_site_fract_y
_atom_site_fract_z
Si Si1 0.781450 0.413496 0.834180
Si Si2 0.995010 0.719150 0.539113
Si Si3 0.786563 0.221987 0.002238
Si Si4 0.940020 0.517394 0.220228
Si Si5 0.066256 0.757821 0.460218
Si Si6 0.611560 0.353973 0.897855
Si Si7 0.976696 0.900944 0.151626
Si Si8 0.669735 0.926133 0.671382
O O1 0.749980 0.148624 0.763153
O O2 0.717139 0.652622 0.740009
O O3 0.767692 0.355729 0.905626
O O4 0.895555 0.441723 0.935297
O O5 0.022876 0.853944 0.491537
O O6 0.083794 0.516690 0.639065
O O7 0.984481 0.951522 0.584716
O O8 0.831309 0.429627 0.104007
O O9 0.873067 0.015613 0.077548
O O10 0.688344 0.150167 0.943403
O O11 0.975054 0.722814 0.314158
O O12 0.011665 0.288595 0.314175
O O13 0.965155 0.601664 0.163126
O O14 0.121860 0.496106 0.544755
O O15 0.135412 0.953466 0.487618
O O16 0.575364 0.524780 0.793124
#
# Coordination Sequence:
#
# PCOD9136707 Si02
#       8
#     4   4   4   4   4   4   4   4
#     4  11  24  46  72 113 142 199 251 309 375 442
#     4   9  22  45  70 107 149 194 245 321 369 451
#     4  10  23  40  68 102 142 184 249 311 361 448
#     4  10  22  43  68  99 141 191 247 301 378 451
#     4   9  23  44  66 102 147 193 237 304 372 450
#     4  10  21  43  66 103 141 191 247 298 379 439
#     4   9  20  42  65 103 138 187 248 304 373 435
#     4  10  25  45  71 107 150 189 252 300 377 448
#
# _framework density 24.318836000000001
#
# number of rings (size 3 to 8) (size 9 to 14) (size 15 to 20)
#    0.750    1.500    0.000    0.750    5.250    4.000 
#   22.500    1.250    0.000    0.000    0.000    0.000 
#    0.000    0.000    0.000    0.000    0.000    0.000 
#
# Total GULP energy -89156.204095 kJ/mol
# GULP energy per Si atom -5572.262756 kJ/mol
# Density = 2.426349 g / cm^3
# Si number density = 24.318836 Si / 1000 Ang^3
#
#
#
# Elastic Constant Matrix: (Units=GPa)
#
#
# Indices 1 2 3 4 5 6 
#
# 1 77.2822 6.1135 25.8491 0.0006 -6.9420 0.0003
# 2 6.1135 81.4393 30.0902 0.0024 -14.2842 0.0013
# 3 25.8491 30.0902 92.6832 -0.0002 -21.7595 0.0001
# 4 0.0006 0.0024 -0.0002 42.4940 -0.0006 -6.8632
# 5 -6.9420 -14.2842 -21.7595 -0.0006 36.2416 -0.0005
# 6 0.0003 0.0013 0.0001 -6.8632 -0.0005 11.6062
#
#
#
# Elastic Compliance Matrix: (Units=1/GPa)
#
#
# Indices 1 2 3 4 5 6 
#
# 1 0.014294 0.000507 -0.004029 0.000000 0.000518 -0.000001
# 2 0.000507 0.014304 -0.004003 -0.000001 0.003331 -0.000002
# 3 -0.004029 -0.004003 0.014739 0.000001 0.006500 0.000001
# 4 0.000000 -0.000001 0.000001 0.026018 0.000001 0.015385
# 5 0.000518 0.003331 0.006500 0.000001 0.032907 0.000001
# 6 -0.000001 -0.000002 0.000001 0.015385 0.000001 0.095259
#
#
# Mechanical properties :
#
#
# Convention : Reuss Voigt Hill
#
# Bulk Modulus (GPa) = 35.35389 41.72335 38.53862
# Shear Modulus (GPa) = 22.52245 30.69182 26.60714
#
# Velocity S-wave (km/s) = 3.04654 3.55640 3.31130
# Velocity P-wave (km/s) = 5.19080 5.83593 5.52279
#
# Compressibility (1/GPa) = 0.02828543
#
# Stress axis : x y z
#
# Youngs Moduli (GPa) = 69.96049 69.90816 67.84818
#
# Poissons Ratio (x) = -0.03542 0.27338
# Poissons Ratio (y) = -0.03545 0.27161
# Poissons Ratio (z) = 0.28189 0.27986
#
# Static dielectric constant tensor:
#      x y z
#    x 1.998300 0.000000 -0.036230 
#    y 0.000000 2.023130 0.000000 
#    z -0.036230 0.000000 1.974120 
# 
# From -- ./inp_files/34567.got.cif
#   From: 2010.05.17/outbox.cif.g08.bks.cpg/sg9_18_cif.got.tgz:34567.got - 2010.06.03 20:04:27.
