data_PCOD9136271
_publ_section_title
;
Structure prediction by ZEFSAII (Michael W. Deem and Ramdas Pophale) SiO2 
 PCOD9136271
Probable space group: C C
;
_chemical_formula_sum "Si O2"
_cell_formula_units_Z 32
_cell_length_a 25.029479
_cell_length_b 8.498839
_cell_length_c 15.043033
_cell_angle_alpha 90.000000
_cell_angle_beta 29.302425
_cell_angle_gamma 90.000000
_cell_volume 1566.130566
_symmetry_space_group_name_H-M "C C"
_symmetry_group_IT_number 9
_symmetry_cell_setting 'monoclinic'
loop_
_space_group_symop_operation_xyz
x,y,z
x,-y,1/2+z
1/2+x,1/2+y,z
1/2+x,1/2-y,1/2+z
loop_
_atom_site_type_symbol
_atom_site_label
_atom_site_fract_x
_atom_site_fract_y
_atom_site_fract_z
Si Si1 0.715380 0.915661 0.130690
Si Si2 0.467189 0.385242 0.532392
Si Si3 0.203613 0.782254 0.144628
Si Si4 0.316866 0.054985 0.325336
Si Si5 0.008797 0.243518 0.480281
Si Si6 0.529613 0.906677 0.278586
Si Si7 0.843333 0.367728 0.111123
Si Si8 0.408692 0.779668 0.295095
O O1 0.634886 0.801238 0.304253
O O2 0.656745 0.914760 0.118050
O O3 0.706936 0.098322 0.165914
O O4 0.836318 0.849555 0.950572
O O5 0.582520 0.350246 0.320061
O O6 0.469562 0.568224 0.554230
O O7 0.372314 0.303371 0.610947
O O8 0.464197 0.291863 0.628746
O O9 0.271958 0.862727 0.125607
O O10 0.248880 0.817017 0.979672
O O11 0.292081 0.978521 0.264074
O O12 0.323998 0.909050 0.382130
O O13 0.435513 0.132988 0.139807
O O14 0.987253 0.270686 0.406576
O O15 0.497014 0.862561 0.228156
O O16 0.460215 0.056093 0.413267
#
# Coordination Sequence:
#
# PCOD9136271 Si02
#       8
#     4   4   4   4   4   4   4   4
#     4  10  22  39  66  95 126 168 211 269 311 384
#     4  11  23  41  60  99 129 163 213 270 305 393
#     4  12  22  40  69  90 132 170 214 259 329 372
#     4  10  21  40  63  92 126 169 206 268 310 385
#     4   9  21  42  61  86 134 157 208 263 311 368
#     4   9  20  41  63  88 130 165 207 265 315 374
#     4  10  22  41  64  93 130 166 216 261 322 375
#     4  11  21  38  66  91 127 168 211 255 331 371
#
# _framework density 20.432523
#
# number of rings (size 3 to 8) (size 9 to 14) (size 15 to 20)
#    0.750    1.000    2.500    2.250    1.750    2.000 
#    0.000    1.250    0.000    0.000    0.000    0.000 
#    0.000    0.000    0.000    0.000    0.000    0.000 
#
# Total GULP energy -89067.738687 kJ/mol
# GULP energy per Si atom -5566.733668 kJ/mol
# Density = 2.038602 g / cm^3
# Si number density = 20.432523 Si / 1000 Ang^3
#
#
#
# Elastic Constant Matrix: (Units=GPa)
#
#
# Indices 1 2 3 4 5 6 
#
# 1 67.5180 2.3710 4.2658 0.0000 0.3639 0.0000
# 2 2.3710 70.0209 -15.1606 -0.0003 3.4764 0.0000
# 3 4.2658 -15.1606 56.0660 -0.0002 2.0960 0.0000
# 4 0.0000 -0.0003 -0.0002 24.8170 0.0000 -2.6300
# 5 0.3639 3.4764 2.0960 0.0000 13.4714 0.0000
# 6 0.0000 0.0000 0.0000 -2.6300 0.0000 16.8638
#
#
#
# Elastic Compliance Matrix: (Units=1/GPa)
#
#
# Indices 1 2 3 4 5 6 
#
# 1 0.014924 -0.000799 -0.001352 0.000000 0.000013 0.000000
# 2 -0.000799 0.015498 0.004426 0.000000 -0.004667 0.000000
# 3 -0.001352 0.004426 0.019289 0.000000 -0.004107 0.000000
# 4 0.000000 0.000000 0.000000 0.040972 0.000000 0.006390
# 5 0.000013 -0.004667 -0.004107 0.000000 0.076074 0.000000
# 6 0.000000 0.000000 0.000000 0.006390 0.000000 0.060295
#
#
# Mechanical properties :
#
#
# Convention : Reuss Voigt Hill
#
# Bulk Modulus (GPa) = 18.42880 19.61747 19.02314
# Shear Modulus (GPa) = 20.78219 24.50568 22.64393
#
# Velocity S-wave (km/s) = 3.19268 3.46692 3.33262
# Velocity P-wave (km/s) = 4.75709 5.06438 4.91314
#
# Compressibility (1/GPa) = 0.05426288
#
# Stress axis : x y z
#
# Youngs Moduli (GPa) = 67.00499 64.52242 51.84201
#
# Poissons Ratio (x) = 0.05154 0.07009
# Poissons Ratio (y) = 0.05352 -0.22946
# Poissons Ratio (z) = 0.09059 -0.28558
#
# Static dielectric constant tensor:
#      x y z
#    x 1.730810 0.000000 0.002990 
#    y 0.000000 1.760380 0.000000 
#    z 0.002990 0.000000 1.706670 
# 
# From -- ./inp_files/25629.got.cif
#   From: 2010.05.17/outbox.cif.g08.bks.cpg/sg9_13_cif.got.tgz:25629.got - 2010.06.03 20:04:27.
