data_PCOD9136236
_publ_section_title
;
Structure prediction by ZEFSAII (Michael W. Deem and Ramdas Pophale) SiO2 
 PCOD9136236
Probable space group: C C
;
_chemical_formula_sum "Si O2"
_cell_formula_units_Z 32
_cell_length_a 19.605282
_cell_length_b 13.566722
_cell_length_c 5.409805
_cell_angle_alpha 90.000000
_cell_angle_beta 114.750461
_cell_angle_gamma 90.000000
_cell_volume 1306.719410
_symmetry_space_group_name_H-M "C C"
_symmetry_group_IT_number 9
_symmetry_cell_setting 'monoclinic'
loop_
_space_group_symop_operation_xyz
x,y,z
x,-y,1/2+z
1/2+x,1/2+y,z
1/2+x,1/2-y,1/2+z
loop_
_atom_site_type_symbol
_atom_site_label
_atom_site_fract_x
_atom_site_fract_y
_atom_site_fract_z
Si Si1 0.700740 0.635557 0.730220
Si Si2 0.856385 0.560573 0.807212
Si Si3 0.967721 0.885921 0.280825
Si Si4 0.226024 0.357150 0.334413
Si Si5 0.012386 0.560485 0.170799
Si Si6 0.168152 0.364320 0.747576
Si Si7 0.902079 0.113928 0.180763
Si Si8 0.643479 0.642621 0.144057
O O1 0.783586 0.622746 0.753489
O O2 0.684106 0.749822 0.738867
O O3 0.646407 0.601100 0.427372
O O4 0.691131 0.594214 0.992500
O O5 0.855171 0.524043 0.521541
O O6 0.934406 0.612721 0.989015
O O7 0.933181 0.840047 0.475835
O O8 0.057229 0.869208 0.429528
O O9 0.934747 0.999871 0.228176
O O10 0.936835 0.842794 0.980930
O O11 0.178497 0.405424 0.486535
O O12 0.312493 0.369141 0.546805
O O13 0.184809 0.249826 0.239700
O O14 0.222605 0.398628 0.050393
O O15 0.013496 0.524268 0.456592
O O16 0.085358 0.622189 0.224169
#
# Coordination Sequence:
#
# PCOD9136236 Si02
#       8
#     4   4   4   4   4   4   4   4
#     4  10  21  40  62  94 127 169 216 263 323 393
#     4  10  21  40  63  94 129 165 213 271 327 381
#     4  10  21  40  60  88 127 167 208 261 319 386
#     4  10  21  40  62  88 129 165 216 262 317 388
#     4  10  21  40  63  94 129 165 213 271 327 381
#     4  10  21  40  62  94 127 169 216 263 323 393
#     4  10  21  40  60  88 127 167 208 261 319 386
#     4  10  21  40  62  88 129 165 216 262 317 388
#
# _framework density 24.488806
#
# number of rings (size 3 to 8) (size 9 to 14) (size 15 to 20)
#    0.000    2.000    0.000    3.000    0.000    0.000 
#   27.000   15.000    0.000    0.000    0.000    0.000 
#    0.000    0.000    0.000    0.000    0.000    0.000 
#
# Total GULP energy -89245.458623 kJ/mol
# GULP energy per Si atom -5577.841164 kJ/mol
# Density = 2.443307 g / cm^3
# Si number density = 24.488806 Si / 1000 Ang^3
#
#
#
# Elastic Constant Matrix: (Units=GPa)
#
#
# Indices 1 2 3 4 5 6 
#
# 1 196.3310 18.2241 131.2586 0.0000 18.2597 0.0000
# 2 18.2241 106.9537 34.1163 0.0000 15.6072 0.0000
# 3 131.2586 34.1163 290.3858 0.0000 -9.5905 0.0000
# 4 0.0000 0.0000 0.0000 -14.3646 0.0000 12.7477
# 5 18.2597 15.6072 -9.5905 0.0000 84.9785 0.0000
# 6 0.0000 0.0000 0.0000 12.7477 0.0000 20.9143
#
#
#
# Elastic Compliance Matrix: (Units=1/GPa)
#
#
# Indices 1 2 3 4 5 6 
#
# 1 0.007637 0.000127 -0.003535 0.000000 -0.002063 0.000000
# 2 0.000127 0.010038 -0.001304 0.000000 -0.002018 0.000000
# 3 -0.003535 -0.001304 0.005247 0.000000 0.001591 0.000000
# 4 0.000000 0.000000 0.000000 -0.045178 0.000000 0.027537
# 5 -0.002063 -0.002018 0.001591 0.000000 0.012761 0.000000
# 6 0.000000 0.000000 0.000000 0.027537 0.000000 0.031030
#
#
# Mechanical properties :
#
#
# Convention : Reuss Voigt Hill
#
# Bulk Modulus (GPa) = 74.07343 106.76317 90.41830
# Shear Modulus (GPa) = 141.01027 45.64373 93.32700
#
# Velocity S-wave (km/s) = 7.59648 4.32193 6.18003
# Velocity P-wave (km/s) = 10.35643 8.28232 9.37690
#
# Compressibility (1/GPa) = 0.01350012
#
# Stress axis : x y z
#
# Youngs Moduli (GPa) = 130.94229 99.61678 190.57272
#
# Poissons Ratio (x) = -0.01270 0.67370
# Poissons Ratio (y) = -0.01669 0.24844
# Poissons Ratio (z) = 0.46290 0.12987
#
# Static dielectric constant tensor:
#      x y z
#    x 1.842270 0.000000 -0.028540 
#    y 0.000000 3.161510 0.000000 
#    z -0.028540 0.000000 2.009620 
# 
# From -- ./inp_files/2977.got.cif
#   From: 2010.05.17/outbox.cif.g08.bks.cpg/sg9_2_cif.got.tgz:2977.got - 2010.06.03 20:04:27.
