data_PCOD9136605
_publ_section_title
;
Structure prediction by ZEFSAII (Michael W. Deem and Ramdas Pophale) SiO2 
 PCOD9136605
Probable space group: C C
;
_chemical_formula_sum "Si O2"
_cell_formula_units_Z 28
_cell_length_a 15.869579
_cell_length_b 13.097772
_cell_length_c 9.401962
_cell_angle_alpha 90.000000
_cell_angle_beta 31.360437
_cell_angle_gamma 90.000000
_cell_volume 1017.033850
_symmetry_space_group_name_H-M "C C"
_symmetry_group_IT_number 9
_symmetry_cell_setting 'monoclinic'
loop_
_space_group_symop_operation_xyz
x,y,z
x,-y,1/2+z
1/2+x,1/2+y,z
1/2+x,1/2-y,1/2+z
loop_
_atom_site_type_symbol
_atom_site_label
_atom_site_fract_x
_atom_site_fract_y
_atom_site_fract_z
Si Si1 0.460420 0.886448 0.645950
Si Si2 0.931711 0.229328 0.925231
Si Si3 0.111915 0.163097 0.939527
Si Si4 0.176498 0.972917 0.666648
Si Si5 0.200732 0.459280 0.889834
Si Si6 0.918064 0.310439 0.401866
Si Si7 0.915694 0.957082 0.336228
O O1 0.625694 0.952026 0.399902
O O2 0.426564 0.815909 0.559768
O O3 0.473704 0.832552 0.776950
O O4 0.312268 0.965532 0.882085
O O5 0.068022 0.206741 0.847365
O O6 0.989762 0.152515 0.703336
O O7 0.971036 0.208486 0.243490
O O8 0.781216 0.285776 0.233323
O O9 0.131732 0.041774 0.870907
O O10 0.018802 0.973761 0.794849
O O11 0.251858 0.863844 0.592253
O O12 0.308978 0.395858 0.619880
O O13 0.307940 0.499640 0.865892
O O14 0.056721 0.391701 0.155346
#
# Coordination Sequence:
#
# PCOD9136605 Si02
#       7
#     4   4   4   4   4   4   4
#     4  10  22  40  67 102 134 182 234 286 357 434
#     4  10  21  42  67  94 140 187 225 284 368 425
#     4  10  21  42  68 100 137 185 232 289 357 429
#     4   9  24  40  69 100 144 184 232 293 366 423
#     4  11  22  39  70  98 134 181 238 287 355 431
#     4  11  22  43  70 105 136 182 241 295 353 434
#     4  11  22  42  65  99 137 179 232 294 352 426
#
# _framework density 27.531040000000001
#
# number of rings (size 3 to 8) (size 9 to 14) (size 15 to 20)
#    0.000    1.714    2.857    0.857    2.000    3.429 
#    2.571    8.571    0.000    0.000    0.000    0.000 
#    0.000    0.000    0.000    0.000    0.000    0.000 
#
# Total GULP energy -78166.033524 kJ/mol
# GULP energy per Si atom -5583.288109 kJ/mol
# Density = 2.746838 g / cm^3
# Si number density = 27.531040 Si / 1000 Ang^3
#
#
#
# Elastic Constant Matrix: (Units=GPa)
#
#
# Indices 1 2 3 4 5 6 
#
# 1 117.8963 54.1249 30.4837 0.0000 12.6081 0.0000
# 2 54.1249 111.2236 20.1203 0.0000 7.8831 0.0000
# 3 30.4837 20.1203 94.4984 0.0000 15.3030 0.0000
# 4 0.0000 0.0000 0.0000 26.9249 0.0000 -1.5722
# 5 12.6081 7.8831 15.3030 0.0000 50.1041 0.0000
# 6 0.0000 0.0000 0.0000 -1.5722 0.0000 41.1958
#
#
#
# Elastic Compliance Matrix: (Units=1/GPa)
#
#
# Indices 1 2 3 4 5 6 
#
# 1 0.011604 -0.005109 -0.002433 0.000000 -0.001373 0.000000
# 2 -0.005109 0.011640 -0.000780 0.000000 -0.000307 0.000000
# 3 -0.002433 -0.000780 0.012008 0.000000 -0.002933 0.000000
# 4 0.000000 0.000000 0.000000 0.037223 0.000000 0.001421
# 5 -0.001373 -0.000307 -0.002933 0.000000 0.021248 0.000000
# 6 0.000000 0.000000 0.000000 0.001421 0.000000 0.024329
#
#
# Mechanical properties :
#
#
# Convention : Reuss Voigt Hill
#
# Bulk Modulus (GPa) = 53.74451 59.23066 56.48759
# Shear Modulus (GPa) = 35.48642 38.23758 36.86200
#
# Velocity S-wave (km/s) = 3.59410 3.73082 3.66310
# Velocity P-wave (km/s) = 6.06525 6.33400 6.20108
#
# Compressibility (1/GPa) = 0.01860655
#
# Stress axis : x y z
#
# Youngs Moduli (GPa) = 86.18086 85.90942 83.27718
#
# Poissons Ratio (x) = 0.43893 0.20261
# Poissons Ratio (y) = 0.44032 0.06500
# Poissons Ratio (z) = 0.20967 0.06705
#
# Static dielectric constant tensor:
#      x y z
#    x 2.030750 0.000000 0.016780 
#    y 0.000000 2.344150 0.000000 
#    z 0.016780 0.000000 2.733130 
# 
# From -- ./inp_files/9756.got.cif
#   From: 2010.05.17/outbox.cif.g08.bks.cpg/sg9_5_cif.got.tgz:9756.got - 2010.06.03 20:04:27.
