data_PCOD9136033
_publ_section_title
;
Structure prediction by ZEFSAII (Michael W. Deem and Ramdas Pophale) SiO2 
 PCOD9136033
Probable space group: C C
;
_chemical_formula_sum "Si O2"
_cell_formula_units_Z 32
_cell_length_a 7.461105
_cell_length_b 24.455107
_cell_length_c 12.734922
_cell_angle_alpha 90.000000
_cell_angle_beta 36.380151
_cell_angle_gamma 90.000000
_cell_volume 1378.244378
_symmetry_space_group_name_H-M "C C"
_symmetry_group_IT_number 9
_symmetry_cell_setting 'monoclinic'
loop_
_space_group_symop_operation_xyz
x,y,z
x,-y,1/2+z
1/2+x,1/2+y,z
1/2+x,1/2-y,1/2+z
loop_
_atom_site_type_symbol
_atom_site_label
_atom_site_fract_x
_atom_site_fract_y
_atom_site_fract_z
Si Si1 0.742870 0.190177 0.607670
Si Si2 0.059457 0.307289 0.439046
Si Si3 0.132341 0.066271 0.925042
Si Si4 0.659813 0.612918 0.275980
Si Si5 0.655708 0.339217 0.262700
Si Si6 0.820905 0.041257 0.274744
Si Si7 0.055194 0.508950 0.125040
Si Si8 0.736958 0.554245 0.587453
O O1 0.628689 0.179871 0.782240
O O2 0.462820 0.188492 0.657085
O O3 0.891976 0.249614 0.528801
O O4 0.992227 0.147443 0.445881
O O5 0.382444 0.303989 0.346885
O O6 0.853350 0.350038 0.602711
O O7 0.068757 0.124495 0.904920
O O8 0.456545 0.041193 0.745536
O O9 0.065279 0.064549 0.076877
O O10 0.903157 0.023764 0.976302
O O11 0.400547 0.579476 0.336269
O O12 0.881462 0.566149 0.213313
O O13 0.702759 0.386701 0.153224
O O14 0.493625 0.054597 0.378384
O O15 0.927519 0.977768 0.223330
O O16 0.944980 0.485100 0.064578
#
# Coordination Sequence:
#
# PCOD9136033 Si02
#       8
#     4   4   4   4   4   4   4   4
#     4  12  27  50  76 105 140 190 246 317 378 429
#     4  12  27  50  76 106 139 189 248 316 377 430
#     4  11  22  38  64 107 141 189 234 282 361 436
#     4  11  23  48  68 100 145 186 243 303 360 432
#     4  11  25  48  72 103 145 191 244 302 367 447
#     4  11  22  37  66 103 144 189 230 289 355 435
#     4  10  21  38  63  94 148 184 226 291 344 436
#     4  10  21  39  61  98 146 186 229 286 354 431
#
# _framework density 23.217945
#
# number of rings (size 3 to 8) (size 9 to 14) (size 15 to 20)
#    0.000    1.000    3.750    3.750    3.500    3.000 
#    0.000    0.000    0.000    0.000    0.000    0.000 
#    0.000    0.000    0.000    0.000    0.000    0.000 
#
# Total GULP energy -89333.256636 kJ/mol
# GULP energy per Si atom -5583.328540 kJ/mol
# Density = 2.316510 g / cm^3
# Si number density = 23.217945 Si / 1000 Ang^3
#
#
#
# Elastic Constant Matrix: (Units=GPa)
#
#
# Indices 1 2 3 4 5 6 
#
# 1 79.2113 50.0035 6.7126 0.0000 -8.4053 0.0000
# 2 50.0035 105.3913 42.0272 0.0000 -6.3949 0.0000
# 3 6.7126 42.0272 68.3277 0.0000 -9.9524 0.0000
# 4 0.0000 0.0000 0.0000 46.0513 0.0000 -15.3083
# 5 -8.4053 -6.3949 -9.9524 0.0000 42.5577 0.0000
# 6 0.0000 0.0000 0.0000 -15.3083 0.0000 34.0638
#
#
#
# Elastic Compliance Matrix: (Units=1/GPa)
#
#
# Indices 1 2 3 4 5 6 
#
# 1 0.019682 -0.011339 0.005548 0.000000 0.003481 0.000000
# 2 -0.011339 0.019105 -0.010917 0.000000 -0.001922 0.000000
# 3 0.005548 -0.010917 0.021457 0.000000 0.004473 0.000000
# 4 0.000000 0.000000 0.000000 0.025529 0.000000 0.011473
# 5 0.003481 -0.001922 0.004473 0.000000 0.024942 0.000000
# 6 0.000000 0.000000 0.000000 0.011473 0.000000 0.034513
#
#
# Mechanical properties :
#
#
# Convention : Reuss Voigt Hill
#
# Bulk Modulus (GPa) = 37.27602 50.04634 43.66118
# Shear Modulus (GPa) = 26.65426 34.81367 30.73397
#
# Velocity S-wave (km/s) = 3.39189 3.87645 3.64224
# Velocity P-wave (km/s) = 5.60621 6.45272 6.04430
#
# Compressibility (1/GPa) = 0.02682690
#
# Stress axis : x y z
#
# Youngs Moduli (GPa) = 50.80819 52.34108 46.60501
#
# Poissons Ratio (x) = 0.59352 -0.25857
# Poissons Ratio (y) = 0.57614 0.50880
# Poissons Ratio (z) = -0.28189 0.57143
#
# Static dielectric constant tensor:
#      x y z
#    x 1.934420 0.000000 0.094210 
#    y 0.000000 1.831680 0.000000 
#    z 0.094210 0.000000 2.626720 
# 
# From -- ./inp_files/23808.got.cif
#   From: 2010.05.17/outbox.cif.g08.bks.cpg/sg9_12_cif.got.tgz:23808.got - 2010.06.03 20:04:27.
