data_PCOD9136178
_publ_section_title
;
Structure prediction by ZEFSAII (Michael W. Deem and Ramdas Pophale) SiO2 
 PCOD9136178
Probable space group: C C
;
_chemical_formula_sum "Si O2"
_cell_formula_units_Z 32
_cell_length_a 7.301079
_cell_length_b 11.322994
_cell_length_c 17.572141
_cell_angle_alpha 90.000000
_cell_angle_beta 76.811327
_cell_angle_gamma 90.000000
_cell_volume 1414.374075
_symmetry_space_group_name_H-M "C C"
_symmetry_group_IT_number 9
_symmetry_cell_setting 'monoclinic'
loop_
_space_group_symop_operation_xyz
x,y,z
x,-y,1/2+z
1/2+x,1/2+y,z
1/2+x,1/2-y,1/2+z
loop_
_atom_site_type_symbol
_atom_site_label
_atom_site_fract_x
_atom_site_fract_y
_atom_site_fract_z
Si Si1 0.661250 0.100526 0.612670
Si Si2 0.579640 0.298702 0.739920
Si Si3 0.095338 0.056502 0.373729
Si Si4 0.217339 0.796683 0.346177
Si Si5 0.927309 0.358875 0.481722
Si Si6 0.650368 0.905336 0.939114
Si Si7 0.573911 0.379110 0.039783
Si Si8 0.772672 0.506102 0.134497
O O1 0.669840 0.199658 0.677301
O O2 0.621000 0.140302 0.528729
O O3 0.483061 0.015101 0.647353
O O4 0.875896 0.057144 0.580932
O O5 0.659305 0.331794 0.816392
O O6 0.366343 0.253882 0.771628
O O7 0.619784 0.425515 0.698313
O O8 0.160001 0.063366 0.455208
O O9 0.869810 0.070604 0.400672
O O10 0.142956 0.927123 0.336000
O O11 0.327963 0.814369 0.415490
O O12 0.079556 0.690250 0.384192
O O13 0.792693 0.410392 0.559050
O O14 0.059440 0.466581 0.445718
O O15 0.031410 0.252274 0.514913
O O16 0.697759 0.386150 0.103650
#
# Coordination Sequence:
#
# PCOD9136178 Si02
#       8
#     4   4   4   4   4   4   4   4
#     4  10  21  41  63  93 129 169 214 276 322 384
#     4  11  21  41  63  91 138 171 213 272 337 387
#     4  10  21  39  66  92 127 176 215 271 331 385
#     4  11  20  40  64  89 131 170 207 271 331 380
#     4  11  20  41  64  94 125 162 219 270 319 392
#     4   9  21  37  63  92 120 165 222 265 318 391
#     4  11  21  43  68  97 126 173 226 268 323 393
#     4  11  23  40  67  94 128 176 222 267 329 390
#
# _framework density 22.624848
#
# number of rings (size 3 to 8) (size 9 to 14) (size 15 to 20)
#    0.000    1.500    6.250    0.750    0.000    2.000 
#    9.000    0.000    8.250    0.000    0.000    0.000 
#    0.000    0.000    0.000    0.000    0.000    0.000 
#
# Total GULP energy -89110.016213 kJ/mol
# GULP energy per Si atom -5569.376013 kJ/mol
# Density = 2.257335 g / cm^3
# Si number density = 22.624848 Si / 1000 Ang^3
#
#
#
# Elastic Constant Matrix: (Units=GPa)
#
#
# Indices 1 2 3 4 5 6 
#
# 1 57.9565 24.4467 21.8448 0.0000 -3.2926 0.0000
# 2 24.4467 105.4405 38.2037 0.0000 -8.1335 0.0000
# 3 21.8448 38.2037 80.7794 0.0000 -16.2262 0.0000
# 4 0.0000 0.0000 0.0000 35.5928 0.0000 -4.0614
# 5 -3.2926 -8.1335 -16.2262 0.0000 20.2335 0.0000
# 6 0.0000 0.0000 0.0000 -4.0614 0.0000 34.4218
#
#
#
# Elastic Compliance Matrix: (Units=1/GPa)
#
#
# Indices 1 2 3 4 5 6 
#
# 1 0.020126 -0.003259 -0.004180 0.000000 -0.001387 0.000000
# 2 -0.003259 0.011975 -0.004675 0.000000 0.000534 0.000000
# 3 -0.004180 -0.004675 0.018126 0.000000 0.011977 0.000000
# 4 0.000000 0.000000 0.000000 0.028479 0.000000 0.003360
# 5 -0.001387 0.000534 0.011977 0.000000 0.059017 0.000000
# 6 0.000000 0.000000 0.000000 0.003360 0.000000 0.029448
#
#
# Mechanical properties :
#
#
# Convention : Reuss Voigt Hill
#
# Bulk Modulus (GPa) = 38.46143 45.90742 42.18443
# Shear Modulus (GPa) = 24.99205 28.69503 26.84354
#
# Velocity S-wave (km/s) = 3.32720 3.56518 3.44824
# Velocity P-wave (km/s) = 5.63887 6.10591 5.87703
#
# Compressibility (1/GPa) = 0.02600007
#
# Stress axis : x y z
#
# Youngs Moduli (GPa) = 49.68813 83.51064 55.16816
#
# Poissons Ratio (x) = 0.27213 0.23060
# Poissons Ratio (y) = 0.16192 0.25789
# Poissons Ratio (z) = 0.20769 0.39038
#
# Static dielectric constant tensor:
#      x y z
#    x 1.895520 0.000000 -0.013280 
#    y 0.000000 1.948330 0.000000 
#    z -0.013280 0.000000 1.899450 
# 
# From -- ./inp_files/29148.got.cif
#   From: 2010.05.17/outbox.cif.g08.bks.cpg/sg9_15_cif.got.tgz:29148.got - 2010.06.03 20:04:27.
