data_PCOD9136456
_publ_section_title
;
Structure prediction by ZEFSAII (Michael W. Deem and Ramdas Pophale) SiO2 
 PCOD9136456
Probable space group: C C
;
_chemical_formula_sum "Si O2"
_cell_formula_units_Z 28
_cell_length_a 25.273850
_cell_length_b 10.268806
_cell_length_c 9.291796
_cell_angle_alpha 90.000000
_cell_angle_beta 155.315512
_cell_angle_gamma 90.000000
_cell_volume 1007.101969
_symmetry_space_group_name_H-M "C C"
_symmetry_group_IT_number 9
_symmetry_cell_setting 'monoclinic'
loop_
_space_group_symop_operation_xyz
x,y,z
x,-y,1/2+z
1/2+x,1/2+y,z
1/2+x,1/2-y,1/2+z
loop_
_atom_site_type_symbol
_atom_site_label
_atom_site_fract_x
_atom_site_fract_y
_atom_site_fract_z
Si Si1 0.760120 0.323801 0.290750
Si Si2 0.120285 0.215234 0.732570
Si Si3 0.330048 0.586248 0.831648
Si Si4 0.908140 0.434124 0.201116
Si Si5 0.140858 0.831706 0.591119
Si Si6 0.122066 0.376438 0.252241
Si Si7 0.945810 0.914910 0.332087
O O1 0.685246 0.347636 0.254495
O O2 0.827352 0.458299 0.406177
O O3 0.865532 0.213316 0.584265
O O4 0.662447 0.245478 0.949149
O O5 0.010539 0.319811 0.414730
O O6 0.241737 0.289730 0.102911
O O7 0.085925 0.140195 0.795241
O O8 0.238683 0.473498 0.547295
O O9 0.441203 0.596555 0.990891
O O10 0.373456 0.542465 0.094421
O O11 0.001649 0.539821 0.507913
O O12 0.790006 0.360176 0.979678
O O13 0.108523 0.682553 0.558834
O O14 0.064864 0.912784 0.522023
#
# Coordination Sequence:
#
# PCOD9136456 Si02
#       7
#     4   4   4   4   4   4   4
#     4  10  23  46  71 104 139 190 240 296 361 431
#     4  10  25  45  69 105 138 187 246 288 359 439
#     4   9  20  42  69  95 135 190 224 296 365 414
#     4  11  26  48  76 101 151 193 236 305 372 417
#     4  12  26  42  68 108 139 189 239 295 363 434
#     4  10  23  44  73 101 140 186 242 296 360 433
#     4  10  21  41  66 100 142 177 237 298 350 436
#
# _framework density 27.802548000000002
#
# number of rings (size 3 to 8) (size 9 to 14) (size 15 to 20)
#    0.000    1.714    1.429    0.857    4.000   10.286 
#    2.571    0.000    0.000    0.000    0.000    0.000 
#    0.000    0.000    0.000    0.000    0.000    0.000 
#
# Total GULP energy -78209.784997 kJ/mol
# GULP energy per Si atom -5586.413214 kJ/mol
# Density = 2.773927 g / cm^3
# Si number density = 27.802548 Si / 1000 Ang^3
#
#
#
# Elastic Constant Matrix: (Units=GPa)
#
#
# Indices 1 2 3 4 5 6 
#
# 1 136.8251 18.9799 67.7959 0.0000 20.7422 0.0000
# 2 18.9799 86.6510 36.8775 0.0000 27.9915 0.0000
# 3 67.7959 36.8775 130.6241 0.0000 27.7624 0.0000
# 4 0.0000 0.0000 0.0000 72.7590 0.0000 11.1040
# 5 20.7422 27.9915 27.7624 0.0000 43.5567 0.0000
# 6 0.0000 0.0000 0.0000 11.1040 0.0000 35.3868
#
#
#
# Elastic Compliance Matrix: (Units=1/GPa)
#
#
# Indices 1 2 3 4 5 6 
#
# 1 0.009962 0.000540 -0.004905 0.000000 -0.001965 0.000000
# 2 0.000540 0.015307 -0.002841 0.000000 -0.008283 0.000000
# 3 -0.004905 -0.002841 0.011705 0.000000 -0.003298 0.000000
# 4 0.000000 0.000000 0.000000 0.014435 0.000000 -0.004530
# 5 -0.001965 -0.008283 -0.003298 0.000000 0.031320 0.000000
# 6 0.000000 0.000000 0.000000 -0.004530 0.000000 0.029680
#
#
# Mechanical properties :
#
#
# Convention : Reuss Voigt Hill
#
# Bulk Modulus (GPa) = 44.32433 66.82298 55.57366
# Shear Modulus (GPa) = 37.21809 45.70363 41.46086
#
# Velocity S-wave (km/s) = 3.66274 4.05886 3.86587
# Velocity P-wave (km/s) = 5.81934 6.78622 6.32129
#
# Compressibility (1/GPa) = 0.02256097
#
# Stress axis : x y z
#
# Youngs Moduli (GPa) = 100.38044 65.32816 85.43524
#
# Poissons Ratio (x) = -0.03529 0.41910
# Poissons Ratio (y) = -0.05423 0.24276
# Poissons Ratio (z) = 0.49241 0.18562
#
# Static dielectric constant tensor:
#      x y z
#    x 2.145150 0.000000 0.016680 
#    y 0.000000 2.275820 0.000000 
#    z 0.016680 0.000000 2.252370 
# 
# From -- ./inp_files/12212.got.cif
#   From: 2010.05.17/outbox.cif.g08.bks.cpg/sg9_7_cif.got.tgz:12212.got - 2010.06.03 20:04:27.
