data_PCOD9136771
_publ_section_title
;
Structure prediction by ZEFSAII (Michael W. Deem and Ramdas Pophale) SiO2 
 PCOD9136771
Probable space group: C C
;
_chemical_formula_sum "Si O2"
_cell_formula_units_Z 32
_cell_length_a 10.990007
_cell_length_b 11.489389
_cell_length_c 10.341098
_cell_angle_alpha 90.000000
_cell_angle_beta 84.524918
_cell_angle_gamma 90.000000
_cell_volume 1299.797447
_symmetry_space_group_name_H-M "C C"
_symmetry_group_IT_number 9
_symmetry_cell_setting 'monoclinic'
loop_
_space_group_symop_operation_xyz
x,y,z
x,-y,1/2+z
1/2+x,1/2+y,z
1/2+x,1/2-y,1/2+z
loop_
_atom_site_type_symbol
_atom_site_label
_atom_site_fract_x
_atom_site_fract_y
_atom_site_fract_z
Si Si1 0.033960 0.170619 0.046910
Si Si2 0.790510 0.085533 0.147562
Si Si3 0.578996 0.232179 0.090324
Si Si4 0.575406 0.813749 0.303959
Si Si5 0.730949 0.536764 0.562693
Si Si6 0.243106 0.736330 0.396414
Si Si7 0.331445 0.680496 0.675561
Si Si8 0.870472 0.477639 0.304188
O O1 0.037699 0.238724 0.183250
O O2 0.892066 0.144498 0.045761
O O3 0.120716 0.055621 0.049974
O O4 0.098013 0.244028 0.927449
O O5 0.779876 0.137999 0.292691
O O6 0.843481 0.957452 0.158898
O O7 0.657460 0.115154 0.102500
O O8 0.537970 0.237773 0.945137
O O9 0.668892 0.341001 0.105469
O O10 0.456538 0.251494 0.184416
O O11 0.721601 0.807657 0.286775
O O12 0.512735 0.940990 0.295721
O O13 0.815352 0.551801 0.427228
O O14 0.817104 0.489476 0.669753
O O15 0.281264 0.717426 0.540050
O O16 0.307344 0.852517 0.339979
#
# Coordination Sequence:
#
# PCOD9136771 Si02
#       8
#     4   4   4   4   4   4   4   4
#     4  10  21  43  72  97 138 183 231 301 376 428
#     4  12  24  44  72 103 135 187 246 293 370 456
#     4  12  24  45  68 104 144 185 247 298 370 456
#     4  11  24  46  67  98 145 185 234 312 369 439
#     4  11  23  42  75 108 136 192 247 305 373 466
#     4  10  22  44  68  93 138 183 229 309 369 438
#     4  11  26  46  69  99 145 191 232 309 380 438
#     4  11  22  44  73 102 141 188 250 301 379 447
#
# _framework density 24.619219000000001
#
# number of rings (size 3 to 8) (size 9 to 14) (size 15 to 20)
#    0.000    1.000    5.000    0.750    1.750    2.000 
#    6.750    0.000    0.000    0.000    0.000    0.000 
#    0.000    0.000    0.000    0.000    0.000    0.000 
#
# Total GULP energy -89471.715279 kJ/mol
# GULP energy per Si atom -5591.982205 kJ/mol
# Density = 2.456318 g / cm^3
# Si number density = 24.619219 Si / 1000 Ang^3
#
#
#
# Elastic Constant Matrix: (Units=GPa)
#
#
# Indices 1 2 3 4 5 6 
#
# 1 127.1551 17.2573 45.8046 0.0000 -39.0945 0.0000
# 2 17.2573 24.6317 -3.8872 0.0000 -9.6288 0.0000
# 3 45.8046 -3.8872 85.2849 0.0000 -6.6530 0.0000
# 4 0.0000 0.0000 0.0000 25.5490 0.0000 -5.1800
# 5 -39.0945 -9.6288 -6.6530 0.0000 42.5626 0.0000
# 6 0.0000 0.0000 0.0000 -5.1800 0.0000 34.3628
#
#
#
# Elastic Compliance Matrix: (Units=1/GPa)
#
#
# Indices 1 2 3 4 5 6 
#
# 1 0.014899 -0.007382 -0.007493 0.000000 0.010844 0.000000
# 2 -0.007382 0.048890 0.006607 0.000000 0.005312 0.000000
# 3 -0.007493 0.006607 0.015823 0.000000 -0.002914 0.000000
# 4 0.000000 0.000000 0.000000 0.040374 0.000000 0.006086
# 5 0.010844 0.005312 -0.002914 0.000000 0.034202 0.000000
# 6 0.000000 0.000000 0.000000 0.006086 0.000000 0.030019
#
#
# Mechanical properties :
#
#
# Convention : Reuss Voigt Hill
#
# Bulk Modulus (GPa) = 15.85342 39.49124 27.67233
# Shear Modulus (GPa) = 22.54611 32.35469 27.45040
#
# Velocity S-wave (km/s) = 3.02949 3.62913 3.34278
# Velocity P-wave (km/s) = 4.32325 5.79969 5.11502
#
# Compressibility (1/GPa) = 0.06307786
#
# Stress axis : x y z
#
# Youngs Moduli (GPa) = 67.11652 20.45427 63.19753
#
# Poissons Ratio (x) = 0.15099 0.47352
# Poissons Ratio (y) = 0.49546 -0.41758
# Poissons Ratio (z) = 0.50288 -0.13515
#
# Static dielectric constant tensor:
#      x y z
#    x 2.028500 0.000000 -0.007850 
#    y 0.000000 1.996960 0.000000 
#    z -0.007850 0.000000 1.910220 
# 
# From -- ./inp_files/16158.got.cif
#   From: 2010.05.17/outbox.cif.g08.bks.cpg/sg9_9_cif.got.tgz:16158.got - 2010.06.03 20:04:27.
