data_PCOD9136795
_publ_section_title
;
Structure prediction by ZEFSAII (Michael W. Deem and Ramdas Pophale) SiO2 
 PCOD9136795
Probable space group: C C
;
_chemical_formula_sum "Si O2"
_cell_formula_units_Z 24
_cell_length_a 7.524110
_cell_length_b 26.731954
_cell_length_c 7.128154
_cell_angle_alpha 90.000000
_cell_angle_beta 47.130133
_cell_angle_gamma 90.000000
_cell_volume 1050.771082
_symmetry_space_group_name_H-M "C C"
_symmetry_group_IT_number 9
_symmetry_cell_setting 'monoclinic'
loop_
_space_group_symop_operation_xyz
x,y,z
x,-y,1/2+z
1/2+x,1/2+y,z
1/2+x,1/2-y,1/2+z
loop_
_atom_site_type_symbol
_atom_site_label
_atom_site_fract_x
_atom_site_fract_y
_atom_site_fract_z
Si Si1 0.227760 0.143762 0.762730
Si Si2 0.468254 0.893165 0.718251
Si Si3 0.423784 0.447957 0.444574
Si Si4 0.932854 0.776517 0.278856
Si Si5 0.672158 0.843955 0.205814
Si Si6 0.490832 0.435858 0.956649
O O1 0.342906 0.137102 0.473434
O O2 0.434319 0.163753 0.752266
O O3 0.120660 0.088869 0.899101
O O4 0.010324 0.181886 0.878927
O O5 0.655712 0.929931 0.686779
O O6 0.585954 0.858859 0.476945
O O7 0.273015 0.924152 0.738643
O O8 0.447323 0.434648 0.210250
O O9 0.444283 0.507322 0.435382
O O10 0.691921 0.750289 0.541270
O O11 0.849943 0.799107 0.135063
O O12 0.821995 0.890596 0.008207
#
# Coordination Sequence:
#
# PCOD9136795 Si02
#       6
#     4   4   4   4   4   4
#     4  11  25  45  71 104 138 190 239 298 370 437
#     4  10  21  44  64  94 158 182 234 301 350 428
#     4  10  23  38  63 101 142 189 236 289 357 432
#     4  12  27  52  78 106 148 188 250 323 374 438
#     4  11  25  45  71 104 138 190 239 298 370 437
#     4  10  23  38  63 101 142 189 236 289 357 432
#
# _framework density 22.84037
#
# number of rings (size 3 to 8) (size 9 to 14) (size 15 to 20)
#    0.000    1.333    5.000    1.000    7.000    4.000 
#    0.000    0.000    0.000    0.000    0.000    0.000 
#    0.000    0.000    0.000    0.000    0.000    0.000 
#
# Total GULP energy -66928.311882 kJ/mol
# GULP energy per Si atom -5577.359323 kJ/mol
# Density = 2.278838 g / cm^3
# Si number density = 22.840370 Si / 1000 Ang^3
#
#
#
# Elastic Constant Matrix: (Units=GPa)
#
#
# Indices 1 2 3 4 5 6 
#
# 1 106.7894 5.4931 -4.8386 0.0000 -24.6223 0.0000
# 2 5.4931 56.2859 7.8265 0.0000 -21.8248 0.0000
# 3 -4.8386 7.8265 61.5795 0.0000 -21.0319 0.0000
# 4 0.0000 0.0000 0.0000 35.5559 0.0000 -10.0531
# 5 -24.6223 -21.8248 -21.0319 0.0000 35.4030 0.0000
# 6 0.0000 0.0000 0.0000 -10.0531 0.0000 30.2807
#
#
#
# Elastic Compliance Matrix: (Units=1/GPa)
#
#
# Indices 1 2 3 4 5 6 
#
# 1 0.012707 0.003522 0.005408 0.000000 0.014222 0.000000
# 2 0.003522 0.024621 0.003975 0.000000 0.019989 0.000000
# 3 0.005408 0.003975 0.022934 0.000000 0.019836 0.000000
# 4 0.000000 0.000000 0.000000 0.031038 0.000000 0.010305
# 5 0.014222 0.019989 0.019836 0.000000 0.062244 0.000000
# 6 0.000000 0.000000 0.000000 0.010305 0.000000 0.036445
#
#
# Mechanical properties :
#
#
# Convention : Reuss Voigt Hill
#
# Bulk Modulus (GPa) = 11.61819 26.84631 19.23225
# Shear Modulus (GPa) = 25.92429 34.65949 30.29189
#
# Velocity S-wave (km/s) = 3.37266 3.89969 3.64571
# Velocity P-wave (km/s) = 4.50158 5.66182 5.11470
#
# Compressibility (1/GPa) = 0.08607196
#
# Stress axis : x y z
#
# Youngs Moduli (GPa) = 78.69529 40.61630 43.60398
#
# Poissons Ratio (x) = -0.14307 -0.23582
# Poissons Ratio (y) = -0.27720 -0.17331
# Poissons Ratio (z) = -0.42560 -0.16143
#
# Static dielectric constant tensor:
#      x y z
#    x 1.895860 0.000000 -0.075850 
#    y 0.000000 2.018430 0.000000 
#    z -0.075850 0.000000 1.959740 
# 
# From -- ./inp_files/5979.got.cif
#   From: 2010.05.17/outbox.cif.g08.bks.cpg/sg9_3_cif.got.tgz:5979.got - 2010.06.03 20:04:27.
