data_PCOD9136751
_publ_section_title
;
Structure prediction by ZEFSAII (Michael W. Deem and Ramdas Pophale) SiO2 
 PCOD9136751
Probable space group: C C
;
_chemical_formula_sum "Si O2"
_cell_formula_units_Z 32
_cell_length_a 25.454420
_cell_length_b 11.864807
_cell_length_c 13.993186
_cell_angle_alpha 90.000000
_cell_angle_beta 19.691439
_cell_angle_gamma 90.000000
_cell_volume 1424.006126
_symmetry_space_group_name_H-M "C C"
_symmetry_group_IT_number 9
_symmetry_cell_setting 'monoclinic'
loop_
_space_group_symop_operation_xyz
x,y,z
x,-y,1/2+z
1/2+x,1/2+y,z
1/2+x,1/2-y,1/2+z
loop_
_atom_site_type_symbol
_atom_site_label
_atom_site_fract_x
_atom_site_fract_y
_atom_site_fract_z
Si Si1 0.751550 0.618787 0.728250
Si Si2 0.797634 0.416725 0.502293
Si Si3 0.484442 0.547059 0.436389
Si Si4 0.943589 0.633763 0.575948
Si Si5 0.445651 0.711994 0.350438
Si Si6 0.713847 0.841923 0.980688
Si Si7 0.865507 0.130334 0.031015
Si Si8 0.770533 0.946982 0.488667
O O1 0.767782 0.523422 0.621088
O O2 0.835413 0.575891 0.681266
O O3 0.845217 0.735719 0.548718
O O4 0.573987 0.657881 0.056987
O O5 0.941383 0.427312 0.182275
O O6 0.827215 0.300132 0.507688
O O7 0.652199 0.408018 0.679796
O O8 0.391626 0.613240 0.512485
O O9 0.509161 0.424724 0.343191
O O10 0.390056 0.558183 0.696309
O O11 0.859391 0.754899 0.736343
O O12 0.120634 0.634140 0.237456
O O13 0.550810 0.783100 0.244509
O O14 0.738083 0.897079 0.833020
O O15 0.711432 0.925435 0.073315
O O16 0.846866 0.076707 0.959396
#
# Coordination Sequence:
#
# PCOD9136751 Si02
#       8
#     4   4   4   4   4   4   4   4
#     4  10  23  46  74 103 141 189 245 299 362 437
#     4  12  24  44  79 105 136 199 245 291 375 433
#     4  11  25  43  66 111 143 185 247 297 360 437
#     4  10  21  43  70 102 137 187 236 291 360 431
#     4  10  22  45  69 100 145 184 234 303 357 431
#     4   9  20  43  70  97 140 185 235 293 364 429
#     4   9  22  41  63  98 140 183 230 291 357 418
#     4  11  23  41  71 100 140 188 232 295 367 426
#
# _framework density 22.471813000000001
#
# number of rings (size 3 to 8) (size 9 to 14) (size 15 to 20)
#    0.000    2.000    2.500    2.250    3.500    6.000 
#    9.000    0.000    0.000    0.000    0.000    0.000 
#    0.000    0.000    0.000    0.000    0.000    0.000 
#
# Total GULP energy -89128.973345 kJ/mol
# GULP energy per Si atom -5570.560834 kJ/mol
# Density = 2.242067 g / cm^3
# Si number density = 22.471813 Si / 1000 Ang^3
#
#
#
# Elastic Constant Matrix: (Units=GPa)
#
#
# Indices 1 2 3 4 5 6 
#
# 1 147.5726 71.3133 32.1197 0.0000 16.5649 0.0000
# 2 71.3133 107.1730 26.5679 0.0000 10.7220 0.0000
# 3 32.1197 26.5679 50.7790 0.0000 0.6186 0.0000
# 4 0.0000 0.0000 0.0000 27.7358 0.0000 3.0572
# 5 16.5649 10.7220 0.6186 0.0000 34.9017 0.0000
# 6 0.0000 0.0000 0.0000 3.0572 0.0000 43.0610
#
#
#
# Elastic Compliance Matrix: (Units=1/GPa)
#
#
# Indices 1 2 3 4 5 6 
#
# 1 0.010825 -0.005965 -0.003687 0.000000 -0.003240 0.000000
# 2 -0.005965 0.014377 -0.003730 0.000000 -0.001519 0.000000
# 3 -0.003687 -0.003730 0.023947 0.000000 0.002471 0.000000
# 4 0.000000 0.000000 0.000000 0.036339 0.000000 -0.002580
# 5 -0.003240 -0.001519 0.002471 0.000000 0.030613 0.000000
# 6 0.000000 0.000000 0.000000 -0.002580 0.000000 0.023406
#
#
# Mechanical properties :
#
#
# Convention : Reuss Voigt Hill
#
# Bulk Modulus (GPa) = 44.67447 62.83628 53.75538
# Shear Modulus (GPa) = 28.78005 32.84125 30.81065
#
# Velocity S-wave (km/s) = 3.58259 3.82703 3.70683
# Velocity P-wave (km/s) = 6.08578 6.89574 6.50338
#
# Compressibility (1/GPa) = 0.02238415
#
# Stress axis : x y z
#
# Youngs Moduli (GPa) = 92.37934 69.55796 41.75906
#
# Poissons Ratio (x) = 0.41490 0.15396
# Poissons Ratio (y) = 0.55103 0.15578
# Poissons Ratio (z) = 0.34059 0.25948
#
# Static dielectric constant tensor:
#      x y z
#    x 1.856110 0.000000 -0.007720 
#    y 0.000000 2.018080 0.000000 
#    z -0.007720 0.000000 1.901990 
# 
# From -- ./inp_files/28084.got.cif
#   From: 2010.05.17/outbox.cif.g08.bks.cpg/sg9_15_cif.got.tgz:28084.got - 2010.06.03 20:04:27.
