data_PCOD9136639
_publ_section_title
;
Structure prediction by ZEFSAII (Michael W. Deem and Ramdas Pophale) SiO2 
 PCOD9136639
Probable space group: C C
;
_chemical_formula_sum "Si O2"
_cell_formula_units_Z 28
_cell_length_a 8.668085
_cell_length_b 15.986612
_cell_length_c 13.155636
_cell_angle_alpha 90.000000
_cell_angle_beta 142.440833
_cell_angle_gamma 90.000000
_cell_volume 1111.277231
_symmetry_space_group_name_H-M "C C"
_symmetry_group_IT_number 9
_symmetry_cell_setting 'monoclinic'
loop_
_space_group_symop_operation_xyz
x,y,z
x,-y,1/2+z
1/2+x,1/2+y,z
1/2+x,1/2-y,1/2+z
loop_
_atom_site_type_symbol
_atom_site_label
_atom_site_fract_x
_atom_site_fract_y
_atom_site_fract_z
Si Si1 0.750000 0.040766 0.443630
Si Si2 0.392146 0.193795 0.299442
Si Si3 0.952555 0.948392 0.736896
Si Si4 0.152745 0.823825 0.101842
Si Si5 0.582071 0.727837 0.340421
Si Si6 0.480568 0.003620 0.103034
Si Si7 0.803949 0.311654 0.528110
O O1 0.577040 0.113004 0.407548
O O2 0.560058 0.998290 0.263146
O O3 0.975433 0.094821 0.508235
O O4 0.898474 0.977334 0.593985
O O5 0.549796 0.275648 0.349522
O O6 0.253876 0.218249 0.330601
O O7 0.246635 0.177880 0.118695
O O8 0.894402 0.851213 0.723821
O O9 0.752038 0.006172 0.691500
O O10 0.240579 0.957069 0.928715
O O11 0.441850 0.815905 0.287501
O O12 0.194399 0.793557 0.008331
O O13 0.004951 0.758409 0.097331
O O14 0.394139 0.099026 0.040198
#
# Coordination Sequence:
#
# PCOD9136639 Si02
#       7
#     4   4   4   4   4   4   4
#     4  10  24  46  73 104 147 210 245 309 400 467
#     4  10  22  40  66 106 142 189 249 314 375 454
#     4  12  26  46  75 106 155 197 255 316 390 462
#     4  11  22  44  74 100 147 192 256 312 374 465
#     4  12  24  44  69 114 146 187 262 322 376 449
#     4  11  25  48  70 109 148 197 256 312 382 475
#     4  10  21  42  69  97 141 192 247 295 383 454
#
# _framework density 25.196231999999998
#
# number of rings (size 3 to 8) (size 9 to 14) (size 15 to 20)
#    0.000    1.143    2.857    3.429    6.000    3.429 
#    5.143    0.000    0.000    0.000    0.000    0.000 
#    0.000    0.000    0.000    0.000    0.000    0.000 
#
# Total GULP energy -78078.149577 kJ/mol
# GULP energy per Si atom -5577.010684 kJ/mol
# Density = 2.513888 g / cm^3
# Si number density = 25.196232 Si / 1000 Ang^3
#
#
#
# Elastic Constant Matrix: (Units=GPa)
#
#
# Indices 1 2 3 4 5 6 
#
# 1 110.0184 -10.6657 16.4295 0.0008 0.3505 0.0004
# 2 -10.6657 58.1864 32.9221 0.0006 0.2167 0.0003
# 3 16.4295 32.9221 115.7334 0.0011 8.3952 0.0009
# 4 0.0008 0.0006 0.0011 31.4798 0.0004 -6.2187
# 5 0.3505 0.2167 8.3952 0.0004 35.1379 0.0001
# 6 0.0004 0.0003 0.0009 -6.2187 0.0001 29.4191
#
#
#
# Elastic Compliance Matrix: (Units=1/GPa)
#
#
# Indices 1 2 3 4 5 6 
#
# 1 0.009728 0.003076 -0.002287 0.000000 0.000430 0.000000
# 2 0.003076 0.021513 -0.006660 0.000000 0.001428 0.000000
# 3 -0.002287 -0.006660 0.011047 0.000000 -0.002575 0.000000
# 4 0.000000 0.000000 0.000000 0.033151 0.000000 0.007007
# 5 0.000430 0.001428 -0.002575 0.000000 0.029062 0.000000
# 6 0.000000 0.000000 0.000000 0.007007 0.000000 0.035473
#
#
# Mechanical properties :
#
#
# Convention : Reuss Voigt Hill
#
# Bulk Modulus (GPa) = 32.73928 40.14554 36.44241
# Shear Modulus (GPa) = 30.88403 35.55752 33.22077
#
# Velocity S-wave (km/s) = 3.50486 3.76070 3.63503
# Velocity P-wave (km/s) = 5.42223 5.90126 5.66681
#
# Compressibility (1/GPa) = 0.03054435
#
# Stress axis : x y z
#
# Youngs Moduli (GPa) = 102.79909 46.48406 90.52628
#
# Poissons Ratio (x) = -0.14296 0.20704
# Poissons Ratio (y) = -0.31616 0.60289
# Poissons Ratio (z) = 0.23511 0.30957
#
# Static dielectric constant tensor:
#      x y z
#    x 2.076580 0.000000 0.006110 
#    y 0.000000 2.001690 0.000000 
#    z 0.006110 0.000000 1.994990 
# 
# From -- ./inp_files/5356.got.cif
#   From: 2010.05.17/outbox.cif.g08.bks.cpg/sg9_3_cif.got.tgz:5356.got - 2010.06.03 20:04:27.
