data_PCOD9136726
_publ_section_title
;
Structure prediction by ZEFSAII (Michael W. Deem and Ramdas Pophale) SiO2 
 PCOD9136726
Probable space group: C C
;
_chemical_formula_sum "Si O2"
_cell_formula_units_Z 32
_cell_length_a 9.951417
_cell_length_b 22.606496
_cell_length_c 5.635323
_cell_angle_alpha 90.000000
_cell_angle_beta 110.437773
_cell_angle_gamma 90.000000
_cell_volume 1187.956876
_symmetry_space_group_name_H-M "C C"
_symmetry_group_IT_number 9
_symmetry_cell_setting 'monoclinic'
loop_
_space_group_symop_operation_xyz
x,y,z
x,-y,1/2+z
1/2+x,1/2+y,z
1/2+x,1/2-y,1/2+z
loop_
_atom_site_type_symbol
_atom_site_label
_atom_site_fract_x
_atom_site_fract_y
_atom_site_fract_z
Si Si1 0.107320 0.536747 0.009150
Si Si2 0.083173 0.126130 0.842604
Si Si3 0.424031 0.464108 0.683757
Si Si4 0.272370 0.800496 0.772773
Si Si5 0.493910 0.153490 0.792555
Si Si6 0.987947 0.780660 0.900418
Si Si7 0.220323 0.999425 0.369083
Si Si8 0.310841 0.674907 0.892214
O O1 0.098579 0.499387 0.250934
O O2 0.267918 0.566578 0.110092
O O3 0.996638 0.591408 0.928572
O O4 0.031707 0.167158 0.598580
O O5 0.130913 0.061207 0.807019
O O6 0.938563 0.128973 0.914726
O O7 0.223320 0.157658 0.032782
O O8 0.413275 0.499761 0.428533
O O9 0.596240 0.449599 0.791836
O O10 0.117649 0.783811 0.788927
O O11 0.335776 0.735555 0.754723
O O12 0.371214 0.835011 0.021884
O O13 0.487620 0.211065 0.958189
O O14 0.648800 0.154982 0.754718
O O15 0.842923 0.799361 0.674959
O O16 0.298866 0.997254 0.668024
#
# Coordination Sequence:
#
# PCOD9136726 Si02
#       8
#     4   4   4   4   4   4   4   4
#     4  10  22  41  61  94 135 181 225 278 337 408
#     4  11  23  40  70  95 132 177 225 280 342 411
#     4   8  16  31  52  81 123 157 202 265 326 374
#     4   9  21  44  60  93 137 174 219 280 342 412
#     4  10  21  43  67  96 135 177 221 282 346 406
#     4   9  21  42  65  97 130 170 225 280 344 407
#     4  10  23  38  63  99 133 175 225 284 340 401
#     4   9  21  39  66  99 129 165 224 285 347 403
#
# _framework density 26.937002
#
# number of rings (size 3 to 8) (size 9 to 14) (size 15 to 20)
#    0.000    2.500    0.000    0.750    8.750    5.000 
#   11.250    1.250    0.000    0.000    0.000    0.000 
#    0.000    0.000    0.000    0.000    0.000    0.000 
#
# Total GULP energy -89336.872577 kJ/mol
# GULP energy per Si atom -5583.554536 kJ/mol
# Density = 2.687569 g / cm^3
# Si number density = 26.937002 Si / 1000 Ang^3
#
#
#
# Elastic Constant Matrix: (Units=GPa)
#
#
# Indices 1 2 3 4 5 6 
#
# 1 119.9976 20.6870 18.0703 0.0000 12.1235 0.0000
# 2 20.6870 108.0943 26.3812 0.0000 28.7349 0.0000
# 3 18.0703 26.3812 119.7792 0.0000 4.8682 0.0000
# 4 0.0000 0.0000 0.0000 30.9415 0.0000 8.7966
# 5 12.1235 28.7349 4.8682 0.0000 3.6146 0.0000
# 6 0.0000 0.0000 0.0000 8.7966 0.0000 47.8730
#
#
#
# Elastic Compliance Matrix: (Units=1/GPa)
#
#
# Indices 1 2 3 4 5 6 
#
# 1 0.007927 -0.004918 -0.000657 0.000000 0.013399 0.000000
# 2 -0.004918 -0.005166 -0.000486 0.000000 0.058223 0.000000
# 3 -0.000657 -0.000486 0.008789 0.000000 -0.005766 0.000000
# 4 0.000000 0.000000 0.000000 0.034100 0.000000 -0.006266
# 5 0.013399 0.058223 -0.005766 0.000000 -0.223375 0.000000
# 6 0.000000 0.000000 0.000000 -0.006266 0.000000 0.022040
#
#
# Mechanical properties :
#
#
# Convention : Reuss Voigt Hill
#
# Bulk Modulus (GPa) = -1740.89539 53.12756 -843.88391
# Shear Modulus (GPa) = -34.78211 35.33464 0.27627
#
# Velocity S-wave (km/s) = -3.59728 3.62574 0.32060
# Velocity P-wave (km/s) = 25.78645 6.10686 17.71507
#
# Compressibility (1/GPa) = -0.00057442
#
# Stress axis : x y z
#
# Youngs Moduli (GPa) = 126.15598 -193.55965 113.77418
#
# Poissons Ratio (x) = -0.95201 0.07477
# Poissons Ratio (y) = 0.62049 0.05535
# Poissons Ratio (z) = 0.08290 -0.09416
#
# Static dielectric constant tensor:
#      x y z
#    x 2.144080 0.000000 -0.085970 
#    y 0.000000 2.253030 0.000000 
#    z -0.085970 0.000000 2.138060 
# 
# From -- ./inp_files/2070.got.cif
#   From: 2010.05.17/outbox.cif.g08.bks.cpg/sg9_2_cif.got.tgz:2070.got - 2010.06.03 20:04:27.
