data_PCOD9136171
_publ_section_title
;
Structure prediction by ZEFSAII (Michael W. Deem and Ramdas Pophale) SiO2 
 PCOD9136171
Probable space group: C C
;
_chemical_formula_sum "Si O2"
_cell_formula_units_Z 28
_cell_length_a 10.567962
_cell_length_b 14.768819
_cell_length_c 8.917390
_cell_angle_alpha 90.000000
_cell_angle_beta 102.331076
_cell_angle_gamma 90.000000
_cell_volume 1359.684567
_symmetry_space_group_name_H-M "C C"
_symmetry_group_IT_number 9
_symmetry_cell_setting 'monoclinic'
loop_
_space_group_symop_operation_xyz
x,y,z
x,-y,1/2+z
1/2+x,1/2+y,z
1/2+x,1/2-y,1/2+z
loop_
_atom_site_type_symbol
_atom_site_label
_atom_site_fract_x
_atom_site_fract_y
_atom_site_fract_z
Si Si1 0.080660 0.893792 0.538820
Si Si2 0.549885 0.216281 0.362058
Si Si3 0.872551 0.648679 0.746488
Si Si4 0.500712 0.044725 0.535167
Si Si5 0.715099 0.505131 0.329175
Si Si6 0.568128 0.839617 0.531316
Si Si7 0.332888 0.705865 0.977130
O O1 0.117200 0.972497 0.431995
O O2 0.118353 0.797703 0.470861
O O3 0.926956 0.880530 0.523917
O O4 0.155804 0.918065 0.709077
O O5 0.479284 0.082947 0.696358
O O6 0.081983 0.292188 0.696112
O O7 0.398179 0.244209 0.351381
O O8 0.067722 0.379408 0.949856
O O9 0.749320 0.585082 0.741971
O O10 0.855342 0.727558 0.623401
O O11 0.932181 0.682466 0.917042
O O12 0.353626 0.032049 0.434676
O O13 0.566302 0.947527 0.556743
O O14 0.682809 0.814464 0.446730
#
# Coordination Sequence:
#
# PCOD9136171 Si02
#       7
#     4   4   4   4   4   4   4
#     4  10  23  41  63  95 128 166 213 270 319 378
#     4   9  22  43  61  94 130 166 220 251 330 381
#     4  10  21  39  65  96 120 175 218 267 313 379
#     4  10  21  40  66  96 123 168 223 264 317 380
#     4  11  20  40  70  91 127 167 223 266 313 384
#     4  11  20  40  67  95 132 168 217 269 315 385
#     4   9  23  43  58  95 136 162 214 265 331 377
#
# _framework density 20.593012000000002
#
# number of rings (size 3 to 8) (size 9 to 14) (size 15 to 20)
#    0.857    1.143    1.429    2.571    2.000    2.286 
#    7.714    0.000    0.000    0.000    0.000    0.000 
#    0.000    0.000    0.000    0.000    0.000    0.000 
#
# Total GULP energy -78038.338292 kJ/mol
# GULP energy per Si atom -5574.167021 kJ/mol
# Density = 2.054614 g / cm^3
# Si number density = 20.593012 Si / 1000 Ang^3
#
#
#
# Elastic Constant Matrix: (Units=GPa)
#
#
# Indices 1 2 3 4 5 6 
#
# 1 69.8489 20.6120 10.5965 0.0000 -8.1928 0.0000
# 2 20.6120 78.5584 28.0335 0.0000 6.1140 0.0000
# 3 10.5965 28.0335 53.9051 0.0000 -6.1948 0.0000
# 4 0.0000 0.0000 0.0000 34.5867 0.0000 -1.4397
# 5 -8.1928 6.1140 -6.1948 0.0000 20.9565 0.0000
# 6 0.0000 0.0000 0.0000 -1.4397 0.0000 30.1555
#
#
#
# Elastic Compliance Matrix: (Units=1/GPa)
#
#
# Indices 1 2 3 4 5 6 
#
# 1 0.016739 -0.005138 0.000317 0.000000 0.008137 0.000000
# 2 -0.005138 0.018335 -0.009700 0.000000 -0.010225 0.000000
# 3 0.000317 -0.009700 0.024712 0.000000 0.010259 0.000000
# 4 0.000000 0.000000 0.000000 0.028970 0.000000 0.001383
# 5 0.008137 -0.010225 0.010259 0.000000 0.056915 0.000000
# 6 0.000000 0.000000 0.000000 0.001383 0.000000 0.033228
#
#
# Mechanical properties :
#
#
# Convention : Reuss Voigt Hill
#
# Bulk Modulus (GPa) = 32.52762 35.64405 34.08584
# Shear Modulus (GPa) = 22.91577 26.67775 24.79676
#
# Velocity S-wave (km/s) = 3.33947 3.60318 3.47383
# Velocity P-wave (km/s) = 5.54069 5.88701 5.71647
#
# Compressibility (1/GPa) = 0.03074311
#
# Stress axis : x y z
#
# Youngs Moduli (GPa) = 59.73980 54.54089 40.46551
#
# Poissons Ratio (x) = 0.28025 -0.01282
# Poissons Ratio (y) = 0.30696 0.39252
# Poissons Ratio (z) = -0.01892 0.52905
#
# Static dielectric constant tensor:
#      x y z
#    x 1.749010 0.000000 -0.017450 
#    y 0.000000 1.762810 0.000000 
#    z -0.017450 0.000000 1.744150 
# 
# From -- ./inp_files/16290.got.cif
#   From: 2010.05.17/outbox.cif.g08.bks.cpg/sg9_9_cif.got.tgz:16290.got - 2010.06.03 20:04:27.
