data_PCOD9136419
_publ_section_title
;
Structure prediction by ZEFSAII (Michael W. Deem and Ramdas Pophale) SiO2 
 PCOD9136419
Probable space group: C C
;
_chemical_formula_sum "Si O2"
_cell_formula_units_Z 32
_cell_length_a 19.332212
_cell_length_b 9.576418
_cell_length_c 8.276272
_cell_angle_alpha 90.000000
_cell_angle_beta 57.161451
_cell_angle_gamma 90.000000
_cell_volume 1287.369106
_symmetry_space_group_name_H-M "C C"
_symmetry_group_IT_number 9
_symmetry_cell_setting 'monoclinic'
loop_
_space_group_symop_operation_xyz
x,y,z
x,-y,1/2+z
1/2+x,1/2+y,z
1/2+x,1/2-y,1/2+z
loop_
_atom_site_type_symbol
_atom_site_label
_atom_site_fract_x
_atom_site_fract_y
_atom_site_fract_z
Si Si1 0.198760 0.474039 0.587860
Si Si2 0.409455 0.711201 0.059412
Si Si3 0.114858 0.658968 0.908768
Si Si4 0.457988 0.942125 0.793434
Si Si5 0.884336 0.062313 0.413148
Si Si6 0.220699 0.198020 0.729631
Si Si7 0.689372 0.422792 0.912129
Si Si8 0.366190 0.833820 0.609677
O O1 0.135850 0.598541 0.707378
O O2 0.188015 0.396490 0.432233
O O3 0.290325 0.531743 0.482293
O O4 0.185836 0.352125 0.738220
O O5 0.465972 0.839165 0.936640
O O6 0.420717 0.584831 0.919446
O O7 0.424062 0.642938 0.213650
O O8 0.315558 0.771914 0.163206
O O9 0.116994 0.825052 0.931386
O O10 0.037660 0.581986 0.084608
O O11 0.388806 0.882103 0.760311
O O12 0.424160 0.085132 0.908747
O O13 0.880714 0.170741 0.565671
O O14 0.206846 0.121377 0.574359
O O15 0.180600 0.088775 0.904144
O O16 0.771748 0.379189 0.707331
#
# Coordination Sequence:
#
# PCOD9136419 Si02
#       8
#     4   4   4   4   4   4   4   4
#     4  10  21  41  62  94 125 168 215 265 332 391
#     4  11  22  39  60  95 127 166 217 270 336 386
#     4  11  24  42  64  93 138 170 214 271 343 406
#     4  12  25  42  64  96 137 176 214 281 341 402
#     4  11  23  38  69  94 125 167 221 285 314 390
#     4  10  22  35  63  92 124 156 214 275 312 378
#     4  11  21  40  61  96 122 166 220 274 314 389
#     4  12  22  41  65  96 128 173 229 267 328 388
#
# _framework density 24.856895999999999
#
# number of rings (size 3 to 8) (size 9 to 14) (size 15 to 20)
#    0.000    1.000    3.750    3.750    3.500    1.000 
#    0.000    6.250    0.000    0.000    0.000    0.000 
#    0.000    0.000    0.000    0.000    0.000    0.000 
#
# Total GULP energy -89523.509645 kJ/mol
# GULP energy per Si atom -5595.219353 kJ/mol
# Density = 2.480032 g / cm^3
# Si number density = 24.856896 Si / 1000 Ang^3
#
#
#
# Elastic Constant Matrix: (Units=GPa)
#
#
# Indices 1 2 3 4 5 6 
#
# 1 18.6360 5.1049 3.4971 0.0000 1.8171 0.0000
# 2 5.1049 125.1551 16.1261 0.0000 11.2198 0.0000
# 3 3.4971 16.1261 58.5466 0.0000 3.8686 0.0000
# 4 0.0000 0.0000 0.0000 58.3874 0.0000 11.6853
# 5 1.8171 11.2198 3.8686 0.0000 29.7555 0.0000
# 6 0.0000 0.0000 0.0000 11.6853 0.0000 19.4077
#
#
#
# Elastic Compliance Matrix: (Units=1/GPa)
#
#
# Indices 1 2 3 4 5 6 
#
# 1 0.054850 -0.001683 -0.002656 0.000000 -0.002370 0.000000
# 2 -0.001683 0.008583 -0.002074 0.000000 -0.002864 0.000000
# 3 -0.002656 -0.002074 0.017902 0.000000 -0.001383 0.000000
# 4 0.000000 0.000000 0.000000 0.019474 0.000000 -0.011725
# 5 -0.002370 -0.002864 -0.001383 0.000000 0.035012 0.000000
# 6 0.000000 0.000000 0.000000 -0.011725 0.000000 0.058585
#
#
# Mechanical properties :
#
#
# Convention : Reuss Voigt Hill
#
# Bulk Modulus (GPa) = 14.59677 27.97710 21.28693
# Shear Modulus (GPa) = 21.73276 33.35075 27.54175
#
# Velocity S-wave (km/s) = 2.96009 3.66691 3.33229
# Velocity P-wave (km/s) = 4.19141 5.40444 4.83611
#
# Compressibility (1/GPa) = 0.06850832
#
# Stress axis : x y z
#
# Youngs Moduli (GPa) = 18.23153 116.51311 55.86026
#
# Poissons Ratio (x) = 0.19604 0.14838
# Poissons Ratio (y) = 0.03068 0.11587
# Poissons Ratio (z) = 0.04843 0.24168
#
# Static dielectric constant tensor:
#      x y z
#    x 2.029810 0.000000 0.019960 
#    y 0.000000 1.956230 0.000000 
#    z 0.019960 0.000000 1.982600 
# 
# From -- ./inp_files/11332.got.cif
#   From: 2010.05.17/outbox.cif.g08.bks.cpg/sg9_6_cif.got.tgz:11332.got - 2010.06.03 20:04:27.
