data_PCOD9136458
_publ_section_title
;
Structure prediction by ZEFSAII (Michael W. Deem and Ramdas Pophale) SiO2 
 PCOD9136458
Probable space group: C C
;
_chemical_formula_sum "Si O2"
_cell_formula_units_Z 32
_cell_length_a 18.431593
_cell_length_b 14.179528
_cell_length_c 12.557772
_cell_angle_alpha 90.000000
_cell_angle_beta 23.557571
_cell_angle_gamma 90.000000
_cell_volume 1311.713995
_symmetry_space_group_name_H-M "C C"
_symmetry_group_IT_number 9
_symmetry_cell_setting 'monoclinic'
loop_
_space_group_symop_operation_xyz
x,y,z
x,-y,1/2+z
1/2+x,1/2+y,z
1/2+x,1/2-y,1/2+z
loop_
_atom_site_type_symbol
_atom_site_label
_atom_site_fract_x
_atom_site_fract_y
_atom_site_fract_z
Si Si1 0.036690 0.414816 0.038360
Si Si2 0.531127 0.152858 0.766457
Si Si3 0.203396 0.253913 0.216736
Si Si4 0.027278 0.309599 0.836391
Si Si5 0.933923 0.104147 0.056935
Si Si6 0.861100 0.921959 0.897395
Si Si7 0.372568 0.217742 0.319656
Si Si8 0.684250 0.462185 0.056939
O O1 0.039219 0.336984 0.129364
O O2 0.872349 0.482113 0.293075
O O3 0.995574 0.377834 0.977155
O O4 0.247743 0.445518 0.765004
O O5 0.628221 0.238409 0.697794
O O6 0.646299 0.062917 0.653604
O O7 0.323095 0.162859 0.076958
O O8 0.040733 0.264739 0.517190
O O9 0.331073 0.347485 0.034348
O O10 0.956212 0.207227 0.973540
O O11 0.243377 0.304525 0.522717
O O12 0.935898 0.326797 0.846099
O O13 0.104450 0.045806 0.783771
O O14 0.927413 0.115770 0.192495
O O15 0.013552 0.996012 0.723144
O O16 0.236498 0.142775 0.449343
#
# Coordination Sequence:
#
# PCOD9136458 Si02
#       8
#     4   4   4   4   4   4   4   4
#     4  11  24  43  72 106 141 195 248 298 379 450
#     4   9  22  38  70 100 138 182 244 309 358 438
#     4  10  21  41  66 105 143 185 249 306 371 433
#     4  11  23  45  76 104 142 200 249 313 358 452
#     4  10  23  49  69 107 143 186 261 306 373 442
#     4   9  23  43  68  99 145 194 235 308 375 456
#     4  11  25  45  69 108 149 192 250 308 374 436
#     4  11  27  42  70 103 147 194 238 306 378 451
#
# _framework density 24.395562000000002
#
# number of rings (size 3 to 8) (size 9 to 14) (size 15 to 20)
#    0.750    1.000    1.250    1.500    7.000    1.000 
#    4.500    0.000    0.000    0.000    0.000    0.000 
#    0.000    0.000    0.000    0.000    0.000    0.000 
#
# Total GULP energy -89191.524831 kJ/mol
# GULP energy per Si atom -5574.470302 kJ/mol
# Density = 2.434004 g / cm^3
# Si number density = 24.395562 Si / 1000 Ang^3
#
#
#
# Elastic Constant Matrix: (Units=GPa)
#
#
# Indices 1 2 3 4 5 6 
#
# 1 72.5991 17.0439 35.7243 -0.0002 19.9464 -0.0002
# 2 17.0439 42.2530 54.7483 -0.0005 8.8273 -0.0001
# 3 35.7243 54.7483 199.0366 -0.0015 21.0201 -0.0001
# 4 -0.0002 -0.0005 -0.0015 50.8815 0.0002 -7.3814
# 5 19.9464 8.8273 21.0201 0.0002 30.9223 0.0001
# 6 -0.0002 -0.0001 -0.0001 -7.3814 0.0001 25.4081
#
#
#
# Elastic Compliance Matrix: (Units=1/GPa)
#
#
# Indices 1 2 3 4 5 6 
#
# 1 0.017874 -0.003659 -0.001179 0.000000 -0.009684 0.000000
# 2 -0.003659 0.037965 -0.009578 0.000000 -0.001966 0.000000
# 3 -0.001179 -0.009578 0.008082 0.000000 -0.001999 0.000000
# 4 0.000000 0.000000 0.000000 0.020518 0.000000 0.005961
# 5 -0.009684 -0.001966 -0.001999 0.000000 0.040506 0.000000
# 6 0.000000 0.000000 0.000000 0.005961 0.000000 0.041089
#
#
# Mechanical properties :
#
#
# Convention : Reuss Voigt Hill
#
# Bulk Modulus (GPa) = 28.50055 58.76906 43.63480
# Shear Modulus (GPa) = 24.20572 35.20051 29.70312
#
# Velocity S-wave (km/s) = 3.15337 3.80268 3.49314
# Velocity P-wave (km/s) = 4.99663 6.58960 5.84762
#
# Compressibility (1/GPa) = 0.03508704
#
# Stress axis : x y z
#
# Youngs Moduli (GPa) = 55.94705 26.34017 123.73805
#
# Poissons Ratio (x) = 0.09639 0.14587
# Poissons Ratio (y) = 0.20474 1.18521
# Poissons Ratio (z) = 0.06595 0.25230
#
# Static dielectric constant tensor:
#      x y z
#    x 1.946730 0.000000 -0.033140 
#    y 0.000000 2.043020 0.000000 
#    z -0.033140 0.000000 1.999690 
# 
# From -- ./inp_files/27456.got.cif
#   From: 2010.05.17/outbox.cif.g08.bks.cpg/sg9_14_cif.got.tgz:27456.got - 2010.06.03 20:04:27.
