data_PCOD9136239
_publ_section_title
;
Structure prediction by ZEFSAII (Michael W. Deem and Ramdas Pophale) SiO2 
 PCOD9136239
Probable space group: C C
;
_chemical_formula_sum "Si O2"
_cell_formula_units_Z 32
_cell_length_a 14.374793
_cell_length_b 22.414508
_cell_length_c 9.767990
_cell_angle_alpha 90.000000
_cell_angle_beta 29.881162
_cell_angle_gamma 90.000000
_cell_volume 1567.985653
_symmetry_space_group_name_H-M "C C"
_symmetry_group_IT_number 9
_symmetry_cell_setting 'monoclinic'
loop_
_space_group_symop_operation_xyz
x,y,z
x,-y,1/2+z
1/2+x,1/2+y,z
1/2+x,1/2-y,1/2+z
loop_
_atom_site_type_symbol
_atom_site_label
_atom_site_fract_x
_atom_site_fract_y
_atom_site_fract_z
Si Si1 0.378680 0.186996 0.242070
Si Si2 0.263618 0.679375 0.897393
Si Si3 0.358574 0.436787 0.113176
Si Si4 0.898632 0.471245 0.028088
Si Si5 0.547379 0.100279 0.808727
Si Si6 0.704893 0.935546 0.833931
Si Si7 0.997634 0.122356 0.805248
Si Si8 0.173095 0.004049 0.562466
O O1 0.343102 0.256273 0.256435
O O2 0.187988 0.159134 0.545293
O O3 0.546198 0.178953 0.137315
O O4 0.450235 0.154092 0.012904
O O5 0.357385 0.623118 0.701909
O O6 0.334547 0.665507 0.958409
O O7 0.247012 0.494649 0.316190
O O8 0.246602 0.415062 0.121564
O O9 0.554327 0.462630 0.814751
O O10 0.752243 0.464465 0.338761
O O11 0.824988 0.462647 0.967817
O O12 0.930093 0.541984 0.994127
O O13 0.087802 0.439921 0.840370
O O14 0.581061 0.098048 0.604063
O O15 0.903524 0.902906 0.563621
O O16 0.042740 0.058045 0.676310
#
# Coordination Sequence:
#
# PCOD9136239 Si02
#       8
#     4   4   4   4   4   4   4   4
#     4  11  23  43  71  92 122 171 228 269 317 386
#     4  11  23  42  68  96 122 169 223 276 318 385
#     4   9  23  35  62  90 131 164 209 268 327 394
#     4  11  21  35  60  96 136 171 213 266 332 399
#     4  10  21  40  60  92 131 170 214 266 328 389
#     4  10  23  38  61  94 135 168 205 270 345 387
#     4  11  24  39  65  92 128 165 217 268 323 389
#     4  11  22  36  61  98 133 172 217 265 334 397
#
# _framework density 20.408352000000001
#
# number of rings (size 3 to 8) (size 9 to 14) (size 15 to 20)
#    0.000    1.500    3.750    0.750   10.500    0.000 
#    0.000    0.000    5.500    0.000    0.000    0.000 
#    0.000    0.000    0.000    0.000    0.000    0.000 
#
# Total GULP energy -89154.637555 kJ/mol
# GULP energy per Si atom -5572.164847 kJ/mol
# Density = 2.036190 g / cm^3
# Si number density = 20.408352 Si / 1000 Ang^3
#
#
#
# Elastic Constant Matrix: (Units=GPa)
#
#
# Indices 1 2 3 4 5 6 
#
# 1 71.0898 39.1540 24.2156 -0.0012 -3.6928 -0.0012
# 2 39.1540 119.1147 45.4139 -0.0010 -9.7743 0.0010
# 3 24.2156 45.4139 103.6413 -0.0012 -12.4836 -0.0017
# 4 -0.0012 -0.0010 -0.0012 25.7905 0.0015 -4.4804
# 5 -3.6928 -9.7743 -12.4836 0.0015 21.7027 0.0016
# 6 -0.0012 0.0010 -0.0017 -4.4804 0.0016 23.9405
#
#
#
# Elastic Compliance Matrix: (Units=1/GPa)
#
#
# Indices 1 2 3 4 5 6 
#
# 1 0.017480 -0.005046 -0.001922 0.000001 -0.000404 0.000001
# 2 -0.005046 0.011630 -0.003642 0.000000 0.002284 -0.000001
# 3 -0.001922 -0.003642 0.012309 0.000000 0.005113 0.000001
# 4 0.000001 0.000000 0.000000 0.040077 -0.000003 0.007500
# 5 -0.000404 0.002284 0.005113 -0.000003 0.049979 -0.000004
# 6 0.000001 -0.000001 0.000001 0.007500 -0.000004 0.043174
#
#
# Mechanical properties :
#
#
# Convention : Reuss Voigt Hill
#
# Bulk Modulus (GPa) = 49.50584 56.82364 53.16474
# Shear Modulus (GPa) = 24.67910 26.62422 25.65166
#
# Velocity S-wave (km/s) = 3.48122 3.61581 3.54915
# Velocity P-wave (km/s) = 6.36151 6.73319 6.54999
#
# Compressibility (1/GPa) = 0.02019964
#
# Stress axis : x y z
#
# Youngs Moduli (GPa) = 57.20969 85.98488 81.23916
#
# Poissons Ratio (x) = 0.43390 0.15610
# Poissons Ratio (y) = 0.28869 0.29586
# Poissons Ratio (z) = 0.10993 0.31315
#
# Static dielectric constant tensor:
#      x y z
#    x 1.923160 0.000000 0.008360 
#    y 0.000000 1.709610 0.000000 
#    z 0.008360 0.000000 1.790240 
# 
# From -- ./inp_files/10149.got.cif
#   From: 2010.05.17/outbox.cif.g08.bks.cpg/sg9_6_cif.got.tgz:10149.got - 2010.06.03 20:04:27.
