data_PCOD9136656
_publ_section_title
;
Structure prediction by ZEFSAII (Michael W. Deem and Ramdas Pophale) SiO2 
 PCOD9136656
Probable space group: C C
;
_chemical_formula_sum "Si O2"
_cell_formula_units_Z 32
_cell_length_a 15.367720
_cell_length_b 9.374826
_cell_length_c 10.671745
_cell_angle_alpha 90.000000
_cell_angle_beta 65.923171
_cell_angle_gamma 90.000000
_cell_volume 1403.713602
_symmetry_space_group_name_H-M "C C"
_symmetry_group_IT_number 9
_symmetry_cell_setting 'monoclinic'
loop_
_space_group_symop_operation_xyz
x,y,z
x,-y,1/2+z
1/2+x,1/2+y,z
1/2+x,1/2-y,1/2+z
loop_
_atom_site_type_symbol
_atom_site_label
_atom_site_fract_x
_atom_site_fract_y
_atom_site_fract_z
Si Si1 0.176820 0.148199 0.520860
Si Si2 0.799441 0.086743 0.550121
Si Si3 0.246623 0.376774 0.807477
Si Si4 0.830297 0.564798 0.708700
Si Si5 0.884279 0.378479 0.898324
Si Si6 0.072329 0.779004 0.337543
Si Si7 0.183525 0.124993 0.155243
Si Si8 0.523314 0.403507 0.918583
O O1 0.283452 0.203221 0.437295
O O2 0.139968 0.193372 0.678516
O O3 0.091638 0.177037 0.476370
O O4 0.193119 0.977172 0.529758
O O5 0.779391 0.048626 0.416713
O O6 0.736243 0.227516 0.609040
O O7 0.911845 0.121848 0.496502
O O8 0.769528 0.972316 0.672591
O O9 0.301761 0.225805 0.759733
O O10 0.134954 0.331554 0.880898
O O11 0.888150 0.496855 0.788342
O O12 0.880766 0.564617 0.543322
O O13 0.739096 0.462014 0.733096
O O14 0.975350 0.281107 0.839533
O O15 0.042873 0.926684 0.420225
O O16 0.072733 0.135871 0.257177
#
# Coordination Sequence:
#
# PCOD9136656 Si02
#       8
#     4   4   4   4   4   4   4   4
#     4  10  21  42  71 103 142 197 252 296 371 465
#     4  12  30  44  77 113 158 190 259 325 377 442
#     4  12  26  54  68 111 158 198 246 326 383 447
#     4  11  22  47  76  98 150 194 246 303 375 452
#     4  11  22  41  75 109 138 189 257 305 367 453
#     4  11  24  44  75 103 147 205 248 306 387 455
#     4  10  22  45  70 106 143 195 247 303 367 462
#     4  11  23  43  74 105 146 206 245 304 385 456
#
# _framework density 22.796673999999999
#
# number of rings (size 3 to 8) (size 9 to 14) (size 15 to 20)
#    0.000    1.000    5.000    3.000    5.250    3.000 
#    9.000    0.000    0.000    0.000    0.000    0.000 
#    0.000    0.000    0.000    0.000    0.000    0.000 
#
# Total GULP energy -89420.014570 kJ/mol
# GULP energy per Si atom -5588.750911 kJ/mol
# Density = 2.274479 g / cm^3
# Si number density = 22.796674 Si / 1000 Ang^3
#
#
#
# Elastic Constant Matrix: (Units=GPa)
#
#
# Indices 1 2 3 4 5 6 
#
# 1 140.1534 38.5068 36.5879 0.0000 -9.9292 0.0000
# 2 38.5068 85.9625 39.3161 0.0000 0.1262 0.0000
# 3 36.5879 39.3161 88.1398 0.0000 17.8908 0.0000
# 4 0.0000 0.0000 0.0000 27.3227 0.0000 5.8397
# 5 -9.9292 0.1262 17.8908 0.0000 46.4125 0.0000
# 6 0.0000 0.0000 0.0000 5.8397 0.0000 36.7322
#
#
#
# Elastic Compliance Matrix: (Units=1/GPa)
#
#
# Indices 1 2 3 4 5 6 
#
# 1 0.008886 -0.002521 -0.003202 0.000000 0.003142 0.000000
# 2 -0.002521 0.015644 -0.006307 0.000000 0.001850 0.000000
# 3 -0.003202 -0.006307 0.016950 0.000000 -0.007202 0.000000
# 4 0.000000 0.000000 0.000000 0.037887 0.000000 -0.006023
# 5 0.003142 0.001850 -0.007202 0.000000 0.024989 0.000000
# 6 0.000000 0.000000 0.000000 -0.006023 0.000000 0.028182
#
#
# Mechanical properties :
#
#
# Convention : Reuss Voigt Hill
#
# Bulk Modulus (GPa) = 57.40498 60.34193 58.87346
# Shear Modulus (GPa) = 30.78714 35.41647 33.10181
#
# Velocity S-wave (km/s) = 3.67892 3.94582 3.81471
# Velocity P-wave (km/s) = 6.57890 6.87652 6.72935
#
# Compressibility (1/GPa) = 0.01742009
#
# Stress axis : x y z
#
# Youngs Moduli (GPa) = 112.53489 63.92173 58.99619
#
# Poissons Ratio (x) = 0.16112 0.18892
# Poissons Ratio (y) = 0.28365 0.37211
# Poissons Ratio (z) = 0.36036 0.40318
#
# Static dielectric constant tensor:
#      x y z
#    x 1.860090 0.000000 0.027350 
#    y 0.000000 1.879880 0.000000 
#    z 0.027350 0.000000 1.932950 
# 
# From -- ./inp_files/17926.got.cif
#   From: 2010.05.17/outbox.cif.g08.bks.cpg/sg9_9_cif.got.tgz:17926.got - 2010.06.03 20:04:27.
