data_PCOD9136999
_publ_section_title
;
Structure prediction by ZEFSAII (Michael W. Deem and Ramdas Pophale) SiO2 
 PCOD9136999
Probable space group: C C
;
_chemical_formula_sum "Si O2"
_cell_formula_units_Z 32
_cell_length_a 13.671418
_cell_length_b 15.653503
_cell_length_c 5.809373
_cell_angle_alpha 90.000000
_cell_angle_beta 82.965751
_cell_angle_gamma 90.000000
_cell_volume 1233.880556
_symmetry_space_group_name_H-M "C C"
_symmetry_group_IT_number 9
_symmetry_cell_setting 'monoclinic'
loop_
_space_group_symop_operation_xyz
x,y,z
x,-y,1/2+z
1/2+x,1/2+y,z
1/2+x,1/2-y,1/2+z
loop_
_atom_site_type_symbol
_atom_site_label
_atom_site_fract_x
_atom_site_fract_y
_atom_site_fract_z
Si Si1 0.303800 0.198331 0.720160
Si Si2 0.554322 0.166749 0.286239
Si Si3 0.688469 0.482011 0.299357
Si Si4 0.898496 0.541794 0.213566
Si Si5 0.414032 0.458337 0.720044
Si Si6 0.011529 0.224607 0.165974
Si Si7 0.230476 0.374718 0.948924
Si Si8 0.202822 0.708211 0.866896
O O1 0.245631 0.110217 0.781522
O O2 0.421895 0.205904 0.726111
O O3 0.257774 0.275430 0.880831
O O4 0.278953 0.229786 0.469376
O O5 0.456202 0.128838 0.218650
O O6 0.537288 0.260905 0.389692
O O7 0.612224 0.114560 0.469965
O O8 0.639282 0.161179 0.077490
O O9 0.638747 0.502084 0.562405
O O10 0.781006 0.546708 0.258059
O O11 0.923285 0.496989 0.454481
O O12 0.434272 0.491441 0.454447
O O13 0.468428 0.367100 0.728167
O O14 0.298024 0.434895 0.781432
O O15 0.113045 0.240574 0.270315
O O16 0.255801 0.366512 0.209591
#
# Coordination Sequence:
#
# PCOD9136999 Si02
#       8
#     4   4   4   4   4   4   4   4
#     4  10  22  41  67  95 133 181 232 286 337 420
#     4  10  22  39  68  98 136 176 233 285 349 424
#     4  10  22  37  59  94 131 170 211 263 337 402
#     4  10  22  36  55  93 138 168 209 261 338 410
#     4  11  27  46  71 102 142 184 240 297 363 426
#     4  10  23  43  71 100 130 186 236 293 349 415
#     4   9  23  43  66  97 130 180 236 286 353 412
#     4  10  23  41  69  97 134 177 247 285 344 413
#
# _framework density 25.934439000000001
#
# number of rings (size 3 to 8) (size 9 to 14) (size 15 to 20)
#    0.000    2.000    0.000    1.500   15.750    2.000 
#    0.000    1.250    0.000    0.000    0.000    0.000 
#    0.000    0.000    0.000    0.000    0.000    0.000 
#
# Total GULP energy -89226.463196 kJ/mol
# GULP energy per Si atom -5576.653950 kJ/mol
# Density = 2.587541 g / cm^3
# Si number density = 25.934439 Si / 1000 Ang^3
#
#
#
# Elastic Constant Matrix: (Units=GPa)
#
#
# Indices 1 2 3 4 5 6 
#
# 1 107.9510 16.2371 17.0870 0.0000 23.0186 0.0000
# 2 16.2371 57.5974 46.2039 0.0000 13.2171 0.0000
# 3 17.0870 46.2039 165.2366 0.0000 11.6629 0.0000
# 4 0.0000 0.0000 0.0000 44.6501 0.0000 -0.2033
# 5 23.0186 13.2171 11.6629 0.0000 22.3024 0.0000
# 6 0.0000 0.0000 0.0000 -0.2033 0.0000 27.4869
#
#
#
# Elastic Compliance Matrix: (Units=1/GPa)
#
#
# Indices 1 2 3 4 5 6 
#
# 1 0.011907 -0.000401 -0.000279 0.000000 -0.011905 0.000000
# 2 -0.000401 0.024974 -0.006154 0.000000 -0.011169 0.000000
# 3 -0.000279 -0.006154 0.007812 0.000000 -0.000151 0.000000
# 4 0.000000 0.000000 0.000000 0.022397 0.000000 0.000166
# 5 -0.011905 -0.011169 -0.000151 0.000000 0.063824 0.000000
# 6 0.000000 0.000000 0.000000 0.000166 0.000000 0.036382
#
#
# Mechanical properties :
#
#
# Convention : Reuss Voigt Hill
#
# Bulk Modulus (GPa) = 32.23082 54.42678 43.32880
# Shear Modulus (GPa) = 26.13637 35.63835 30.88736
#
# Velocity S-wave (km/s) = 3.17801 3.71100 3.45480
# Velocity P-wave (km/s) = 5.09128 6.27646 5.71467
#
# Compressibility (1/GPa) = 0.03102620
#
# Stress axis : x y z
#
# Youngs Moduli (GPa) = 83.98766 40.04139 128.00693
#
# Poissons Ratio (x) = 0.01605 0.03569
# Poissons Ratio (y) = 0.03367 0.78770
# Poissons Ratio (z) = 0.02342 0.24640
#
# Static dielectric constant tensor:
#      x y z
#    x 2.084970 0.000000 0.085790 
#    y 0.000000 2.048450 0.000000 
#    z 0.085790 0.000000 2.367960 
# 
# From -- ./inp_files/2531.got.cif
#   From: 2010.05.17/outbox.cif.g08.bks.cpg/sg9_2_cif.got.tgz:2531.got - 2010.06.03 20:04:27.
