data_PCOD9136773
_publ_section_title
;
Structure prediction by ZEFSAII (Michael W. Deem and Ramdas Pophale) SiO2 
 PCOD9136773
Probable space group: C C
;
_chemical_formula_sum "Si O2"
_cell_formula_units_Z 32
_cell_length_a 5.259571
_cell_length_b 22.951424
_cell_length_c 12.584616
_cell_angle_alpha 90.000000
_cell_angle_beta 58.905003
_cell_angle_gamma 90.000000
_cell_volume 1300.864464
_symmetry_space_group_name_H-M "C C"
_symmetry_group_IT_number 9
_symmetry_cell_setting 'monoclinic'
loop_
_space_group_symop_operation_xyz
x,y,z
x,-y,1/2+z
1/2+x,1/2+y,z
1/2+x,1/2-y,1/2+z
loop_
_atom_site_type_symbol
_atom_site_label
_atom_site_fract_x
_atom_site_fract_y
_atom_site_fract_z
Si Si1 0.220760 0.397994 0.951910
Si Si2 0.783252 0.587791 0.026945
Si Si3 0.043773 0.822511 0.418391
Si Si4 0.873377 0.680289 0.146421
Si Si5 0.307524 0.693741 0.608978
Si Si6 0.481596 0.195447 0.371793
Si Si7 0.118831 0.962025 0.029590
Si Si8 0.848964 0.892144 0.280456
O O1 0.212263 0.355508 0.851822
O O2 0.154683 0.347941 0.055538
O O3 0.486684 0.434213 0.949776
O O4 0.954309 0.441997 0.982460
O O5 0.679016 0.645606 0.988970
O O6 0.104585 0.577364 0.906171
O O7 0.593843 0.531382 0.041871
O O8 0.785177 0.612638 0.145312
O O9 0.124233 0.756918 0.373348
O O10 0.694082 0.818808 0.519467
O O11 0.088424 0.866723 0.310588
O O12 0.908087 0.692466 0.263566
O O13 0.720509 0.738631 0.131197
O O14 0.250879 0.665512 0.736342
O O15 0.662514 0.688724 0.502258
O O16 0.944509 0.934902 0.166904
#
# Coordination Sequence:
#
# PCOD9136773 Si02
#       8
#     4   4   4   4   4   4   4   4
#     4  11  23  46  73 107 143 192 247 303 353 439
#     4  11  26  48  69 107 149 198 248 308 365 434
#     4  10  23  43  71 107 147 190 242 300 377 442
#     4  10  23  44  69 112 151 188 235 310 369 441
#     4  10  21  43  73 110 142 187 249 290 379 443
#     4  11  21  43  74 111 151 189 240 311 371 440
#     4  11  27  49  75 107 146 194 260 294 361 442
#     4  10  22  46  74  99 143 192 243 300 373 433
#
# _framework density 24.599025000000001
#
# number of rings (size 3 to 8) (size 9 to 14) (size 15 to 20)
#    0.000    1.500    3.750    0.750    7.000    1.000 
#    9.000    0.000    0.000    0.000    0.000    0.000 
#    0.000    0.000    0.000    0.000    0.000    0.000 
#
# Total GULP energy -89380.896446 kJ/mol
# GULP energy per Si atom -5586.306028 kJ/mol
# Density = 2.454304 g / cm^3
# Si number density = 24.599025 Si / 1000 Ang^3
#
#
#
# Elastic Constant Matrix: (Units=GPa)
#
#
# Indices 1 2 3 4 5 6 
#
# 1 87.2856 43.0526 8.2106 0.0000 4.5158 0.0000
# 2 43.0526 174.5952 46.0589 0.0000 14.5073 0.0000
# 3 8.2106 46.0589 56.0218 0.0000 -1.7212 0.0000
# 4 0.0000 0.0000 0.0000 18.4688 0.0000 5.3553
# 5 4.5158 14.5073 -1.7212 0.0000 41.9250 0.0000
# 6 0.0000 0.0000 0.0000 5.3553 0.0000 39.2502
#
#
#
# Elastic Compliance Matrix: (Units=1/GPa)
#
#
# Indices 1 2 3 4 5 6 
#
# 1 0.013083 -0.003453 0.000916 0.000000 -0.000177 0.000000
# 2 -0.003453 0.008564 -0.006623 0.000000 -0.002863 0.000000
# 3 0.000916 -0.006623 0.023258 0.000000 0.003148 0.000000
# 4 0.000000 0.000000 0.000000 0.056376 0.000000 -0.007692
# 5 -0.000177 -0.002863 0.003148 0.000000 0.024991 0.000000
# 6 0.000000 0.000000 0.000000 -0.007692 0.000000 0.026527
#
#
# Mechanical properties :
#
#
# Convention : Reuss Voigt Hill
#
# Bulk Modulus (GPa) = 37.61538 56.94964 47.28251
# Shear Modulus (GPa) = 27.78087 34.63416 31.20752
#
# Velocity S-wave (km/s) = 3.36422 3.75633 3.56567
# Velocity P-wave (km/s) = 5.51500 6.48189 6.01789
#
# Compressibility (1/GPa) = 0.02658487
#
# Stress axis : x y z
#
# Youngs Moduli (GPa) = 76.43645 116.76687 42.99634
#
# Poissons Ratio (x) = 0.40319 -0.03939
# Poissons Ratio (y) = 0.26393 0.28476
# Poissons Ratio (z) = -0.07002 0.77334
#
# Static dielectric constant tensor:
#      x y z
#    x 2.091830 0.000000 0.002430 
#    y 0.000000 1.973000 0.000000 
#    z 0.002430 0.000000 2.011990 
# 
# From -- ./inp_files/13724.got.cif
#   From: 2010.05.17/outbox.cif.g08.bks.cpg/sg9_7_cif.got.tgz:13724.got - 2010.06.03 20:04:27.
