data_PCOD9136620
_publ_section_title
;
Structure prediction by ZEFSAII (Michael W. Deem and Ramdas Pophale) SiO2 
 PCOD9136620
Probable space group: C C
;
_chemical_formula_sum "Si O2"
_cell_formula_units_Z 32
_cell_length_a 17.286284
_cell_length_b 13.572552
_cell_length_c 8.184121
_cell_angle_alpha 90.000000
_cell_angle_beta 129.291065
_cell_angle_gamma 90.000000
_cell_volume 1486.079067
_symmetry_space_group_name_H-M "C C"
_symmetry_group_IT_number 9
_symmetry_cell_setting 'monoclinic'
loop_
_space_group_symop_operation_xyz
x,y,z
x,-y,1/2+z
1/2+x,1/2+y,z
1/2+x,1/2-y,1/2+z
loop_
_atom_site_type_symbol
_atom_site_label
_atom_site_fract_x
_atom_site_fract_y
_atom_site_fract_z
Si Si1 0.464590 0.737847 0.867370
Si Si2 0.621785 0.609886 0.916391
Si Si3 0.531637 0.293228 0.976324
Si Si4 0.275938 0.774311 0.817795
Si Si5 0.695394 0.386554 0.009390
Si Si6 0.834307 0.239241 0.365345
Si Si7 0.139944 0.609318 0.603427
Si Si8 0.157299 0.609027 0.243331
O O1 0.535033 0.641669 0.930612
O O2 0.385798 0.746128 0.907628
O O3 0.401267 0.749011 0.616146
O O4 0.538310 0.829964 0.980253
O O5 0.573512 0.634146 0.675663
O O6 0.712145 0.685124 0.076681
O O7 0.665606 0.500372 0.984252
O O8 0.590653 0.327636 0.894454
O O9 0.570796 0.185363 0.078543
O O10 0.412557 0.288298 0.827012
O O11 0.221639 0.675228 0.805625
O O12 0.252275 0.858482 0.918601
O O13 0.770793 0.337691 0.242403
O O14 0.756052 0.152025 0.290778
O O15 0.171042 0.607433 0.455678
O O16 0.131844 0.499937 0.654921
#
# Coordination Sequence:
#
# PCOD9136620 Si02
#       8
#     4   4   4   4   4   4   4   4
#     4  10  21  45  70  88 130 180 211 260 333 394
#     4  10  21  43  67  90 131 181 212 267 333 398
#     4  10  21  44  64  90 134 172 210 264 334 384
#     4  11  22  42  64  97 136 167 217 274 328 388
#     4  11  24  37  66 103 130 167 221 276 321 391
#     4  10  21  42  68  92 132 173 211 267 326 390
#     4  11  24  41  68  92 130 173 216 269 329 390
#     4  11  22  42  65  94 129 169 214 265 330 389
#
# _framework density 21.533173000000001
#
# number of rings (size 3 to 8) (size 9 to 14) (size 15 to 20)
#    0.000    1.500    5.000    1.500    3.500    4.000 
#    2.250    1.250    0.000    0.000    0.000    0.000 
#    0.000    0.000    0.000    0.000    0.000    0.000 
#
# Total GULP energy -89387.658143 kJ/mol
# GULP energy per Si atom -5586.728634 kJ/mol
# Density = 2.148416 g / cm^3
# Si number density = 21.533173 Si / 1000 Ang^3
#
#
#
# Elastic Constant Matrix: (Units=GPa)
#
#
# Indices 1 2 3 4 5 6 
#
# 1 236.0578 126.5679 63.8967 0.0000 48.4815 0.0000
# 2 126.5679 269.1287 71.4153 0.0000 48.3895 0.0000
# 3 63.8967 71.4153 67.4279 0.0000 19.6723 0.0000
# 4 0.0000 0.0000 0.0000 25.7026 0.0000 -6.0146
# 5 48.4815 48.3895 19.6723 0.0000 49.5675 0.0000
# 6 0.0000 0.0000 0.0000 -6.0146 0.0000 20.4105
#
#
#
# Elastic Compliance Matrix: (Units=1/GPa)
#
#
# Indices 1 2 3 4 5 6 
#
# 1 0.006847 -0.001560 -0.003762 0.000000 -0.003681 0.000000
# 2 -0.001560 0.006032 -0.004114 0.000000 -0.002730 0.000000
# 3 -0.003762 -0.004114 0.023193 0.000000 -0.001509 0.000000
# 4 0.000000 0.000000 0.000000 0.041788 0.000000 0.012314
# 5 -0.003681 -0.002730 -0.001509 0.000000 0.027039 0.000000
# 6 0.000000 0.000000 0.000000 0.012314 0.000000 0.052623
#
#
# Mechanical properties :
#
#
# Convention : Reuss Voigt Hill
#
# Bulk Modulus (GPa) = 58.13947 121.81934 89.97941
# Shear Modulus (GPa) = 27.45321 39.85175 33.65248
#
# Velocity S-wave (km/s) = 3.57448 4.30666 3.95754
# Velocity P-wave (km/s) = 6.64037 9.02360 7.92212
#
# Compressibility (1/GPa) = 0.01720002
#
# Stress axis : x y z
#
# Youngs Moduli (GPa) = 146.04903 165.78902 43.11580
#
# Poissons Ratio (x) = 0.25860 0.16222
# Poissons Ratio (y) = 0.22781 0.17737
# Poissons Ratio (z) = 0.54950 0.68202
#
# Static dielectric constant tensor:
#      x y z
#    x 1.818940 0.000000 -0.055600 
#    y 0.000000 1.733450 0.000000 
#    z -0.055600 0.000000 1.836670 
# 
# From -- ./inp_files/10750.got.cif
#   From: 2010.05.17/outbox.cif.g08.bks.cpg/sg9_6_cif.got.tgz:10750.got - 2010.06.03 20:04:27.
