data_PCOD9136940
_publ_section_title
;
Structure prediction by ZEFSAII (Michael W. Deem and Ramdas Pophale) SiO2 
 PCOD9136940
Probable space group: C C
;
_chemical_formula_sum "Si O2"
_cell_formula_units_Z 32
_cell_length_a 7.304190
_cell_length_b 12.230523
_cell_length_c 25.288863
_cell_angle_alpha 90.000000
_cell_angle_beta 31.289946
_cell_angle_gamma 90.000000
_cell_volume 1173.336438
_symmetry_space_group_name_H-M "C C"
_symmetry_group_IT_number 9
_symmetry_cell_setting 'monoclinic'
loop_
_space_group_symop_operation_xyz
x,y,z
x,-y,1/2+z
1/2+x,1/2+y,z
1/2+x,1/2-y,1/2+z
loop_
_atom_site_type_symbol
_atom_site_label
_atom_site_fract_x
_atom_site_fract_y
_atom_site_fract_z
Si Si1 0.858370 0.404897 0.087230
Si Si2 0.238389 0.787263 0.471990
Si Si3 0.115863 0.794592 0.322913
Si Si4 0.782792 0.901301 0.501952
Si Si5 0.440760 0.067745 0.333681
Si Si6 0.724015 0.261204 0.752484
Si Si7 0.820961 0.478410 0.979375
Si Si8 0.034381 0.500384 0.197223
O O1 0.507613 0.336854 0.184178
O O2 0.924505 0.420788 0.007818
O O3 0.932283 0.525077 0.092086
O O4 0.150111 0.314176 0.030502
O O5 0.480646 0.760400 0.363037
O O6 0.887934 0.830760 0.526967
O O7 0.367646 0.891639 0.471986
O O8 0.479205 0.754769 0.261438
O O9 0.842792 0.821796 0.437552
O O10 0.966251 0.698756 0.323387
O O11 0.240925 0.906381 0.264355
O O12 0.086818 0.993768 0.417746
O O13 0.521706 0.053193 0.376265
O O14 0.641816 0.020818 0.232797
O O15 0.867997 0.383611 0.723205
O O16 0.395806 0.463590 0.079961
#
# Coordination Sequence:
#
# PCOD9136940 Si02
#       8
#     4   4   4   4   4   4   4   4
#     4  12  23  43  69 103 133 184 236 276 356 418
#     4  10  22  45  66  96 141 178 226 291 345 410
#     4  10  21  46  69  97 139 181 236 289 344 414
#     4   9  22  41  67  95 137 178 226 284 341 411
#     4  10  23  44  70  98 136 184 226 285 347 407
#     4  11  23  44  74  99 139 188 228 293 352 412
#     4  11  23  42  72  98 139 182 223 286 349 410
#     4  11  23  47  67 106 138 175 233 288 342 418
#
# _framework density 27.272656000000001
#
# number of rings (size 3 to 8) (size 9 to 14) (size 15 to 20)
#    0.000    1.500    2.500    3.750    0.000    2.000 
#    6.750    6.250    0.000    0.000    0.000    0.000 
#    0.000    0.000    0.000    0.000    0.000    0.000 
#
# Total GULP energy -89568.786176 kJ/mol
# GULP energy per Si atom -5598.049136 kJ/mol
# Density = 2.721058 g / cm^3
# Si number density = 27.272656 Si / 1000 Ang^3
#
#
#
# Elastic Constant Matrix: (Units=GPa)
#
#
# Indices 1 2 3 4 5 6 
#
# 1 83.3087 22.5492 14.5824 -0.0864 -1.9322 0.0607
# 2 22.5492 170.3989 27.3054 -0.0421 1.9567 0.0261
# 3 14.5824 27.3054 91.5275 -0.0801 14.7761 0.0730
# 4 -0.0864 -0.0421 -0.0801 44.8198 0.0680 -4.7828
# 5 -1.9322 1.9567 14.7761 0.0680 25.1175 -0.0561
# 6 0.0607 0.0261 0.0730 -4.7828 -0.0561 63.7960
#
#
#
# Elastic Compliance Matrix: (Units=1/GPa)
#
#
# Indices 1 2 3 4 5 6 
#
# 1 0.012782 -0.001400 -0.001984 0.000016 0.002259 -0.000006
# 2 -0.001400 0.006327 -0.001732 0.000000 0.000418 0.000001
# 3 -0.001984 -0.001732 0.012996 0.000028 -0.007663 -0.000017
# 4 0.000016 0.000000 0.000028 0.022492 -0.000072 0.001686
# 5 0.002259 0.000418 -0.007663 -0.000072 0.044462 0.000040
# 6 -0.000006 0.000001 -0.000017 0.001686 0.000040 0.015801
#
#
# Mechanical properties :
#
#
# Convention : Reuss Voigt Hill
#
# Bulk Modulus (GPa) = 45.71685 52.67881 49.19783
# Shear Modulus (GPa) = 37.76978 45.46652 41.61815
#
# Velocity S-wave (km/s) = 3.72546 4.08746 3.91065
# Velocity P-wave (km/s) = 5.94177 6.45244 6.20236
#
# Compressibility (1/GPa) = 0.02187377
#
# Stress axis : x y z
#
# Youngs Moduli (GPa) = 78.23503 158.06492 76.94955
#
# Poissons Ratio (x) = 0.22122 0.15264
# Poissons Ratio (y) = 0.10949 0.13327
# Poissons Ratio (z) = 0.15519 0.27376
#
# Static dielectric constant tensor:
#      x y z
#    x 2.189260 -0.000020 -0.069090 
#    y -0.000020 2.097690 0.000020 
#    z -0.069090 0.000020 2.168970 
# 
# From -- ./inp_files/37199.got.cif
#   From: 2010.05.17/outbox.cif.g08.bks.cpg/sg9_19_cif.got.tgz:37199.got - 2010.06.03 20:04:27.
