data_PCOD9136517
_publ_section_title
;
Structure prediction by ZEFSAII (Michael W. Deem and Ramdas Pophale) SiO2 
 PCOD9136517
Probable space group: C C
;
_chemical_formula_sum "Si O2"
_cell_formula_units_Z 32
_cell_length_a 7.469200
_cell_length_b 13.029441
_cell_length_c 24.165217
_cell_angle_alpha 90.000000
_cell_angle_beta 147.727797
_cell_angle_gamma 90.000000
_cell_volume 1255.696908
_symmetry_space_group_name_H-M "C C"
_symmetry_group_IT_number 9
_symmetry_cell_setting 'monoclinic'
loop_
_space_group_symop_operation_xyz
x,y,z
x,-y,1/2+z
1/2+x,1/2+y,z
1/2+x,1/2-y,1/2+z
loop_
_atom_site_type_symbol
_atom_site_label
_atom_site_fract_x
_atom_site_fract_y
_atom_site_fract_z
Si Si1 0.304590 0.710860 0.750000
Si Si2 0.804621 0.839757 0.988624
Si Si3 0.868768 0.818110 0.830750
Si Si4 0.850210 0.265647 0.044300
Si Si5 0.192437 0.705450 0.162802
Si Si6 0.661160 0.540450 0.274443
Si Si7 0.922358 0.969380 0.594190
Si Si8 0.159926 0.037877 0.886483
O O1 0.574627 0.788525 0.795655
O O2 0.459111 0.641937 0.839287
O O3 0.141821 0.668247 0.649739
O O4 0.978364 0.757458 0.694614
O O5 0.029756 0.799776 0.997209
O O6 0.855991 0.752018 0.049225
O O7 0.962916 0.941347 0.059555
O O8 0.442365 0.877988 0.871591
O O9 0.769558 0.767789 0.746241
O O10 0.934501 0.939884 0.841226
O O11 0.219226 0.781292 0.948465
O O12 0.952644 0.146123 0.078442
O O13 0.286413 0.585467 0.186557
O O14 0.659679 0.515008 0.209486
O O15 0.720222 0.453116 0.335213
O O16 0.526345 0.973746 0.507387
#
# Coordination Sequence:
#
# PCOD9136517 Si02
#       8
#     4   4   4   4   4   4   4   4
#     4  11  23  45  69  99 149 185 235 314 360 444
#     4  10  23  41  69 107 143 193 246 300 375 442
#     4  11  25  46  72 105 142 194 244 307 376 446
#     4  11  24  44  68 105 146 192 243 311 374 434
#     4  10  23  44  70 104 137 191 240 294 375 436
#     4  10  21  41  69  97 145 190 234 308 366 432
#     4  11  22  41  72 102 143 196 239 306 376 437
#     4  10  25  42  65 105 141 187 249 302 374 439
#
# _framework density 25.483857
#
# number of rings (size 3 to 8) (size 9 to 14) (size 15 to 20)
#    0.000    1.500    3.750    0.750    3.500    4.000 
#    2.250    1.250    0.000    0.000    0.000    0.000 
#    0.000    0.000    0.000    0.000    0.000    0.000 
#
# Total GULP energy -89197.154637 kJ/mol
# GULP energy per Si atom -5574.822165 kJ/mol
# Density = 2.542585 g / cm^3
# Si number density = 25.483857 Si / 1000 Ang^3
#
#
#
# Elastic Constant Matrix: (Units=GPa)
#
#
# Indices 1 2 3 4 5 6 
#
# 1 72.2537 3.8586 41.7843 -0.0009 -13.6899 -0.0007
# 2 3.8586 67.6378 23.1366 -0.0007 -5.3876 -0.0004
# 3 41.7843 23.1366 196.5665 -0.0005 -35.9642 -0.0004
# 4 -0.0009 -0.0007 -0.0005 43.9065 -0.0007 -0.7280
# 5 -13.6899 -5.3876 -35.9642 -0.0007 48.6231 -0.0004
# 6 -0.0007 -0.0004 -0.0004 -0.7280 -0.0004 24.5364
#
#
#
# Elastic Compliance Matrix: (Units=1/GPa)
#
#
# Indices 1 2 3 4 5 6 
#
# 1 0.016005 0.000302 -0.003015 0.000000 0.002310 0.000000
# 2 0.000302 0.015418 -0.001794 0.000000 0.000467 0.000000
# 3 -0.003015 -0.001794 0.006647 0.000000 0.003869 0.000000
# 4 0.000000 0.000000 0.000000 0.022787 0.000000 0.000676
# 5 0.002310 0.000467 0.003869 0.000000 0.024130 0.000001
# 6 0.000000 0.000000 0.000000 0.000676 0.000001 0.040776
#
#
# Mechanical properties :
#
#
# Convention : Reuss Voigt Hill
#
# Bulk Modulus (GPa) = 34.41444 52.66855 43.54150
# Shear Modulus (GPa) = 34.61107 41.25844 37.93475
#
# Velocity S-wave (km/s) = 3.68932 4.02805 3.86240
# Velocity P-wave (km/s) = 5.62866 6.50737 6.08390
#
# Compressibility (1/GPa) = 0.02905757
#
# Stress axis : x y z
#
# Youngs Moduli (GPa) = 62.47931 64.85878 150.43731
#
# Poissons Ratio (x) = -0.01961 0.45361
# Poissons Ratio (y) = -0.01889 0.26983
# Poissons Ratio (z) = 0.18839 0.11633
#
# Static dielectric constant tensor:
#      x y z
#    x 2.050180 0.000000 -0.027090 
#    y 0.000000 2.163250 0.000000 
#    z -0.027090 0.000000 2.170170 
# 
# From -- ./inp_files/36407.got.cif
#   From: 2010.05.17/outbox.cif.g08.bks.cpg/sg9_19_cif.got.tgz:36407.got - 2010.06.03 20:04:27.
