data_PCOD9136530
_publ_section_title
;
Structure prediction by ZEFSAII (Michael W. Deem and Ramdas Pophale) SiO2 
 PCOD9136530
Probable space group: C C
;
_chemical_formula_sum "Si O2"
_cell_formula_units_Z 32
_cell_length_a 12.159983
_cell_length_b 11.624844
_cell_length_c 9.916037
_cell_angle_alpha 90.000000
_cell_angle_beta 117.955994
_cell_angle_gamma 90.000000
_cell_volume 1238.141725
_symmetry_space_group_name_H-M "C C"
_symmetry_group_IT_number 9
_symmetry_cell_setting 'monoclinic'
loop_
_space_group_symop_operation_xyz
x,y,z
x,-y,1/2+z
1/2+x,1/2+y,z
1/2+x,1/2-y,1/2+z
loop_
_atom_site_type_symbol
_atom_site_label
_atom_site_fract_x
_atom_site_fract_y
_atom_site_fract_z
Si Si1 0.404440 0.792956 0.717510
Si Si2 0.021387 0.366643 0.261022
Si Si3 0.262426 0.799869 0.214826
Si Si4 0.700178 0.320149 0.795101
Si Si5 0.324563 0.618695 0.454939
Si Si6 0.067038 0.997704 0.031228
Si Si7 0.588935 0.928574 0.990880
Si Si8 0.770792 0.537181 0.965236
O O1 0.289557 0.753607 0.744380
O O2 0.408139 0.708749 0.592360
O O3 0.354657 0.917952 0.635117
O O4 0.522710 0.819351 0.877343
O O5 0.124641 0.267709 0.340690
O O6 0.059824 0.417842 0.134160
O O7 0.034823 0.456834 0.390255
O O8 0.886763 0.304683 0.195731
O O9 0.252290 0.677116 0.285564
O O10 0.147197 0.878439 0.095716
O O11 0.296369 0.877618 0.362072
O O12 0.606394 0.404820 0.660990
O O13 0.787767 0.410356 0.920955
O O14 0.422879 0.528344 0.453548
O O15 0.227686 0.571836 0.508748
O O16 0.126845 0.045367 0.928098
#
# Coordination Sequence:
#
# PCOD9136530 Si02
#       8
#     4   4   4   4   4   4   4   4
#     4  10  22  42  76  99 142 190 242 285 365 433
#     4  12  27  49  72 109 147 192 242 302 376 432
#     4  10  23  41  75 105 134 186 247 291 351 434
#     4  10  21  44  68 107 134 189 246 294 348 436
#     4  11  23  48  67 109 147 189 230 304 378 425
#     4  10  21  41  72 101 142 185 242 298 348 429
#     4  12  28  48  70 105 152 190 235 308 370 437
#     4   9  19  39  72 105 130 175 242 300 336 410
#
# _framework density 25.845182999999999
#
# number of rings (size 3 to 8) (size 9 to 14) (size 15 to 20)
#    0.000    1.500    1.250    3.750    8.750    0.000 
#   11.250    0.000    0.000    0.000    0.000    0.000 
#    0.000    0.000    0.000    0.000    0.000    0.000 
#
# Total GULP energy -89383.296825 kJ/mol
# GULP energy per Si atom -5586.456052 kJ/mol
# Density = 2.578636 g / cm^3
# Si number density = 25.845183 Si / 1000 Ang^3
#
#
#
# Elastic Constant Matrix: (Units=GPa)
#
#
# Indices 1 2 3 4 5 6 
#
# 1 149.3907 14.6368 -0.0691 0.0000 -10.2899 0.0000
# 2 14.6368 40.0802 0.5538 0.0000 -2.7632 0.0000
# 3 -0.0691 0.5538 41.3507 0.0000 -21.1220 0.0000
# 4 0.0000 0.0000 0.0000 30.3344 0.0000 -2.6129
# 5 -10.2899 -2.7632 -21.1220 0.0000 36.1192 0.0000
# 6 0.0000 0.0000 0.0000 -2.6129 0.0000 38.8246
#
#
#
# Elastic Compliance Matrix: (Units=1/GPa)
#
#
# Indices 1 2 3 4 5 6 
#
# 1 0.007116 -0.002435 0.001404 0.000000 0.002662 0.000000
# 2 -0.002435 0.025940 0.000439 0.000000 0.001548 0.000000
# 3 0.001404 0.000439 0.034795 0.000000 0.020781 0.000000
# 4 0.000000 0.000000 0.000000 0.033158 0.000000 0.002232
# 5 0.002662 0.001548 0.020781 0.000000 0.040716 0.000000
# 6 0.000000 0.000000 0.000000 0.002232 0.000000 0.025907
#
#
# Mechanical properties :
#
#
# Convention : Reuss Voigt Hill
#
# Bulk Modulus (GPa) = 14.99954 29.00720 22.00337
# Shear Modulus (GPa) = 26.17289 35.43563 30.80426
#
# Velocity S-wave (km/s) = 3.18572 3.70682 3.45610
# Velocity P-wave (km/s) = 4.39863 5.43769 4.94552
#
# Compressibility (1/GPa) = 0.06666871
#
# Stress axis : x y z
#
# Youngs Moduli (GPa) = 140.51976 38.55089 28.73976
#
# Poissons Ratio (x) = 0.09386 -0.04036
# Poissons Ratio (y) = 0.34212 -0.01262
# Poissons Ratio (z) = -0.19736 -0.01692
#
# Static dielectric constant tensor:
#      x y z
#    x 2.014910 0.000000 0.010130 
#    y 0.000000 2.081330 0.000000 
#    z 0.010130 0.000000 2.099940 
# 
# From -- ./inp_files/16580.got.cif
#   From: 2010.05.17/outbox.cif.g08.bks.cpg/sg9_9_cif.got.tgz:16580.got - 2010.06.03 20:04:27.
