data_PCOD9136006
_publ_section_title
;
Structure prediction by ZEFSAII (Michael W. Deem and Ramdas Pophale) SiO2 
 PCOD9136006
Probable space group: C C
;
_chemical_formula_sum "Si O2"
_cell_formula_units_Z 28
_cell_length_a 5.043492
_cell_length_b 19.150934
_cell_length_c 12.355786
_cell_angle_alpha 90.000000
_cell_angle_beta 107.585085
_cell_angle_gamma 90.000000
_cell_volume 1137.646413
_symmetry_space_group_name_H-M "C C"
_symmetry_group_IT_number 9
_symmetry_cell_setting 'monoclinic'
loop_
_space_group_symop_operation_xyz
x,y,z
x,-y,1/2+z
1/2+x,1/2+y,z
1/2+x,1/2-y,1/2+z
loop_
_atom_site_type_symbol
_atom_site_label
_atom_site_fract_x
_atom_site_fract_y
_atom_site_fract_z
Si Si1 0.584300 0.566473 0.107990
Si Si2 0.692023 0.300729 0.771282
Si Si3 0.808893 0.890219 0.101970
Si Si4 0.729148 0.464705 0.292373
Si Si5 0.502539 0.888429 0.493339
Si Si6 0.694406 0.406496 0.956786
Si Si7 0.614440 0.755344 0.658245
O O1 0.618803 0.633337 0.187932
O O2 0.772427 0.507466 0.186279
O O3 0.253069 0.560412 0.059659
O O4 0.712743 0.588505 0.010757
O O5 0.675022 0.333631 0.887848
O O6 0.444114 0.246659 0.716324
O O7 0.989343 0.279491 0.759678
O O8 0.944190 0.926108 0.223804
O O9 0.934282 0.812361 0.111821
O O10 0.481446 0.897472 0.056112
O O11 0.938693 0.920104 0.005456
O O12 0.709876 0.528428 0.375731
O O13 0.943907 0.406385 0.361054
O O14 0.566150 0.813385 0.556753
#
# Coordination Sequence:
#
# PCOD9136006 Si02
#       7
#     4   4   4   4   4   4   4
#     4   9  20  37  58  86 116 153 205 252 298 363
#     4   9  19  39  66  86 120 166 202 245 312 376
#     4  12  26  42  64  97 130 161 215 271 305 378
#     4  11  24  40  63  90 121 166 211 256 315 374
#     4  10  21  38  61  86 123 163 198 253 312 367
#     4  11  25  43  65  93 129 169 209 266 323 364
#     4  10  21  41  63  94 125 160 206 253 311 378
#
# _framework density 24.612214000000002
#
# number of rings (size 3 to 8) (size 9 to 14) (size 15 to 20)
#    0.000    1.714    0.000    3.429    0.000    9.143 
#    0.000    0.000    0.000    0.000    0.000    0.000 
#    0.000    0.000    0.000    0.000    0.000    0.000 
#
# Total GULP energy -78131.415635 kJ/mol
# GULP energy per Si atom -5580.815403 kJ/mol
# Density = 2.455620 g / cm^3
# Si number density = 24.612214 Si / 1000 Ang^3
#
#
#
# Elastic Constant Matrix: (Units=GPa)
#
#
# Indices 1 2 3 4 5 6 
#
# 1 88.5801 8.2307 11.2242 0.0000 10.6339 0.0000
# 2 8.2307 104.4004 30.9977 0.0000 4.2540 0.0000
# 3 11.2242 30.9977 64.6691 0.0000 7.8401 0.0000
# 4 0.0000 0.0000 0.0000 32.4526 0.0000 1.0812
# 5 10.6339 4.2540 7.8401 0.0000 9.2145 0.0000
# 6 0.0000 0.0000 0.0000 1.0812 0.0000 25.2911
#
#
#
# Elastic Compliance Matrix: (Units=1/GPa)
#
#
# Indices 1 2 3 4 5 6 
#
# 1 0.013129 -0.000336 -0.000334 0.000000 -0.014712 0.000000
# 2 -0.000336 0.011180 -0.005265 0.000000 -0.000294 0.000000
# 3 -0.000334 -0.005265 0.019740 0.000000 -0.013979 0.000000
# 4 0.000000 0.000000 0.000000 0.030858 0.000000 -0.001319
# 5 -0.014712 -0.000294 -0.013979 0.000000 0.137532 0.000000
# 6 0.000000 0.000000 0.000000 -0.001319 0.000000 0.039596
#
#
# Mechanical properties :
#
#
# Convention : Reuss Voigt Hill
#
# Bulk Modulus (GPa) = 31.07695 39.83944 35.45819
# Shear Modulus (GPa) = 18.20618 27.20476 22.70547
#
# Velocity S-wave (km/s) = 2.72273 3.32827 3.04061
# Velocity P-wave (km/s) = 4.74746 5.56703 5.17350
#
# Compressibility (1/GPa) = 0.03217819
#
# Stress axis : x y z
#
# Youngs Moduli (GPa) = 76.16779 89.44348 50.65923
#
# Poissons Ratio (x) = 0.03009 0.01691
# Poissons Ratio (y) = 0.02563 0.26672
# Poissons Ratio (z) = 0.02543 0.47092
#
# Static dielectric constant tensor:
#      x y z
#    x 1.985370 0.000000 -0.121010 
#    y 0.000000 2.063540 0.000000 
#    z -0.121010 0.000000 2.037180 
# 
# From -- ./inp_files/13202.got.cif
#   From: 2010.05.17/outbox.cif.g08.bks.cpg/sg9_7_cif.got.tgz:13202.got - 2010.06.03 20:04:27.
