data_PCOD9136073
_publ_section_title
;
Structure prediction by ZEFSAII (Michael W. Deem and Ramdas Pophale) SiO2 
 PCOD9136073
Probable space group: C C
;
_chemical_formula_sum "Si O2"
_cell_formula_units_Z 32
_cell_length_a 16.087551
_cell_length_b 8.877018
_cell_length_c 11.092030
_cell_angle_alpha 90.000000
_cell_angle_beta 79.184189
_cell_angle_gamma 90.000000
_cell_volume 1555.907238
_symmetry_space_group_name_H-M "C C"
_symmetry_group_IT_number 9
_symmetry_cell_setting 'monoclinic'
loop_
_space_group_symop_operation_xyz
x,y,z
x,-y,1/2+z
1/2+x,1/2+y,z
1/2+x,1/2-y,1/2+z
loop_
_atom_site_type_symbol
_atom_site_label
_atom_site_fract_x
_atom_site_fract_y
_atom_site_fract_z
Si Si1 0.906410 0.721362 0.258720
Si Si2 0.122714 0.508119 0.041563
Si Si3 0.853542 0.007063 0.177654
Si Si4 0.855346 0.717876 0.858732
Si Si5 0.019962 0.491881 0.322115
Si Si6 0.789134 0.492938 0.186024
Si Si7 0.236266 0.278638 0.104958
Si Si8 0.787331 0.782123 0.504945
O O1 0.877216 0.586497 0.178040
O O2 0.825250 0.751616 0.364757
O O3 0.975079 0.655222 0.329999
O O4 0.921803 0.876179 0.184079
O O5 0.071338 0.528049 0.931840
O O6 0.071339 0.500001 0.181840
O O7 0.167597 0.344778 0.033679
O O8 0.196627 0.635035 0.026606
O O9 0.856474 0.126576 0.284432
O O10 0.852495 0.106882 0.057501
O O11 0.765460 0.913503 0.185637
O O12 0.790181 0.606882 0.806177
O O13 0.946050 0.635035 0.837071
O O14 0.817426 0.748382 0.998920
O O15 0.720873 0.623822 0.179600
O O16 0.786202 0.373424 0.079246
#
# Coordination Sequence:
#
# PCOD9136073 Si02
#       8
#     4   4   4   4   4   4   4   4
#     4  10  21  38  67  93 125 173 225 265 317 398
#     4  11  27  44  66  96 141 173 210 276 350 381
#     4   9  19  34  64  90 121 154 236 259 312 361
#     4  10  21  38  67  93 125 173 225 265 317 398
#     4  11  27  44  66  96 141 173 210 276 350 381
#     4   9  19  34  64  90 121 154 236 259 312 361
#     4  10  21  38  67  93 125 173 225 265 317 398
#     4  10  21  38  67  93 125 173 225 265 317 398
#
# _framework density 20.566777999999999
#
# number of rings (size 3 to 8) (size 9 to 14) (size 15 to 20)
#    0.000    2.000    0.000    3.000   21.000    0.000 
#    0.000    2.500    0.000    0.000    0.000    0.000 
#    0.000    0.000    0.000    0.000    0.000    0.000 
#
# Total GULP energy -89096.943345 kJ/mol
# GULP energy per Si atom -5568.558959 kJ/mol
# Density = 2.051997 g / cm^3
# Si number density = 20.566778 Si / 1000 Ang^3
#
#
#
# Elastic Constant Matrix: (Units=GPa)
#
#
# Indices 1 2 3 4 5 6 
#
# 1 76.9183 43.0424 66.2400 0.0000 9.6617 0.0000
# 2 43.0424 141.6244 33.2364 0.0000 23.4747 0.0000
# 3 66.2400 33.2364 110.9728 0.0000 17.2821 0.0000
# 4 0.0000 0.0000 0.0000 26.0940 0.0000 10.1190
# 5 9.6617 23.4747 17.2821 0.0000 39.5885 0.0000
# 6 0.0000 0.0000 0.0000 10.1190 0.0000 32.6429
#
#
#
# Elastic Compliance Matrix: (Units=1/GPa)
#
#
# Indices 1 2 3 4 5 6 
#
# 1 0.030439 -0.005842 -0.016955 0.000000 0.003437 0.000000
# 2 -0.005842 0.009278 0.001441 0.000000 -0.004705 0.000000
# 3 -0.016955 0.001441 0.019515 0.000000 -0.005236 0.000000
# 4 0.000000 0.000000 0.000000 0.043559 0.000000 -0.013503
# 5 0.003437 -0.004705 -0.005236 0.000000 0.029497 0.000000
# 6 0.000000 0.000000 0.000000 -0.013503 0.000000 0.034820
#
#
# Mechanical properties :
#
#
# Convention : Reuss Voigt Hill
#
# Bulk Modulus (GPa) = 60.52796 68.28366 64.40581
# Shear Modulus (GPa) = 23.22046 32.13152 27.67599
#
# Velocity S-wave (km/s) = 3.36375 3.95688 3.67231
# Velocity P-wave (km/s) = 6.67684 7.35860 7.02599
#
# Compressibility (1/GPa) = 0.01652129
#
# Stress axis : x y z
#
# Youngs Moduli (GPa) = 32.85251 107.78126 51.24148
#
# Poissons Ratio (x) = 0.62963 0.86879
# Poissons Ratio (y) = 0.19192 -0.07383
# Poissons Ratio (z) = 0.55701 -0.15530
#
# Static dielectric constant tensor:
#      x y z
#    x 1.808870 0.000000 0.023480 
#    y 0.000000 1.809040 0.000000 
#    z 0.023480 0.000000 1.762000 
# 
# From -- ./inp_files/19039.got.cif
#   From: 2010.05.17/outbox.cif.g08.bks.cpg/sg9_10_cif.got.tgz:19039.got - 2010.06.03 20:04:27.
