data_PCOD9136644
_publ_section_title
;
Structure prediction by ZEFSAII (Michael W. Deem and Ramdas Pophale) SiO2 
 PCOD9136644
Probable space group: C C
;
_chemical_formula_sum "Si O2"
_cell_formula_units_Z 20
_cell_length_a 11.822858
_cell_length_b 11.432840
_cell_length_c 5.214135
_cell_angle_alpha 90.000000
_cell_angle_beta 101.595343
_cell_angle_gamma 90.000000
_cell_volume 690.404985
_symmetry_space_group_name_H-M "C C"
_symmetry_group_IT_number 9
_symmetry_cell_setting 'monoclinic'
loop_
_space_group_symop_operation_xyz
x,y,z
x,-y,1/2+z
1/2+x,1/2+y,z
1/2+x,1/2-y,1/2+z
loop_
_atom_site_type_symbol
_atom_site_label
_atom_site_fract_x
_atom_site_fract_y
_atom_site_fract_z
Si Si1 0.618830 0.881512 0.244050
Si Si2 0.222756 0.921010 0.239509
Si Si3 0.337301 0.665892 0.186913
Si Si4 0.956568 0.857983 0.248888
Si Si5 0.535784 0.139045 0.196895
O O1 0.543666 0.810132 0.412728
O O2 0.629631 0.166544 0.464342
O O3 0.548378 0.001691 0.167377
O O4 0.292120 0.800202 0.207279
O O5 0.085596 0.891097 0.216497
O O6 0.249464 0.008998 0.015002
O O7 0.369559 0.612947 0.478580
O O8 0.231352 0.609168 0.971304
O O9 0.439340 0.622208 0.042081
O O10 0.933312 0.714764 0.257358
#
# Coordination Sequence:
#
# PCOD9136644 Si02
#       5
#     4   4   4   4   4
#     4  10  21  42  70 101 140 182 233 308 379 411
#     4  12  28  54  72 108 164 206 238 314 386 456
#     4  12  26  48  77 109 144 198 256 307 369 454
#     4  12  26  48  77 109 144 198 256 307 369 454
#     4  10  21  42  70 101 140 182 233 308 379 411
#
# _framework density 28.968502999999998
#
# number of rings (size 3 to 8) (size 9 to 14) (size 15 to 20)
#    0.000    0.800    2.000    4.800    2.800    0.000 
#   43.200    0.000    0.000    0.000    0.000    0.000 
#    0.000    0.000    0.000    0.000    0.000    0.000 
#
# Total GULP energy -55672.604186 kJ/mol
# GULP energy per Si atom -5567.260419 kJ/mol
# Density = 2.890257 g / cm^3
# Si number density = 28.968503 Si / 1000 Ang^3
#
#
#
# Elastic Constant Matrix: (Units=GPa)
#
#
# Indices 1 2 3 4 5 6 
#
# 1 91.4244 32.6839 47.9607 0.0000 10.9894 0.0000
# 2 32.6839 182.4255 46.6029 0.0000 -0.7198 0.0000
# 3 47.9607 46.6029 278.9065 0.0000 10.4565 0.0000
# 4 0.0000 0.0000 0.0000 19.0212 0.0000 7.7894
# 5 10.9894 -0.7198 10.4565 0.0000 50.4404 0.0000
# 6 0.0000 0.0000 0.0000 7.7894 0.0000 38.9090
#
#
#
# Elastic Compliance Matrix: (Units=1/GPa)
#
#
# Indices 1 2 3 4 5 6 
#
# 1 0.012842 -0.001849 -0.001808 0.000000 -0.002449 0.000000
# 2 -0.001849 0.005996 -0.000708 0.000000 0.000635 0.000000
# 3 -0.001808 -0.000708 0.004031 0.000000 -0.000452 0.000000
# 4 0.000000 0.000000 0.000000 0.057268 0.000000 -0.011465
# 5 -0.002449 0.000635 -0.000452 0.000000 0.020462 0.000000
# 6 0.000000 0.000000 0.000000 -0.011465 0.000000 0.027996
#
#
# Mechanical properties :
#
#
# Convention : Reuss Voigt Hill
#
# Bulk Modulus (GPa) = 70.71508 89.69461 80.20485
# Shear Modulus (GPa) = 35.20215 50.04137 42.62176
#
# Velocity S-wave (km/s) = 3.48974 4.16076 3.83993
# Velocity P-wave (km/s) = 6.37979 7.35612 6.88528
#
# Compressibility (1/GPa) = 0.01414126
#
# Stress axis : x y z
#
# Youngs Moduli (GPa) = 77.87247 166.77144 248.04844
#
# Poissons Ratio (x) = 0.30830 0.44835
# Poissons Ratio (y) = 0.14396 0.17558
# Poissons Ratio (z) = 0.14075 0.11805
#
# Static dielectric constant tensor:
#      x y z
#    x 2.576970 0.000000 -0.153220 
#    y 0.000000 2.463530 0.000000 
#    z -0.153220 0.000000 2.342490 
# 
# From -- ./inp_files/1533.got.cif
#   From: 2010.05.17/outbox.cif.g08.bks.cpg/sg9_1_cif.got.tgz:1533.got - 2010.06.03 20:04:27.
