data_PCOD9136956
_publ_section_title
;
Structure prediction by ZEFSAII (Michael W. Deem and Ramdas Pophale) SiO2 
 PCOD9136956
Probable space group: C C
;
_chemical_formula_sum "Si O2"
_cell_formula_units_Z 24
_cell_length_a 10.242066
_cell_length_b 10.394060
_cell_length_c 10.147688
_cell_angle_alpha 90.000000
_cell_angle_beta 52.325732
_cell_angle_gamma 90.000000
_cell_volume 855.046571
_symmetry_space_group_name_H-M "C C"
_symmetry_group_IT_number 9
_symmetry_cell_setting 'monoclinic'
loop_
_space_group_symop_operation_xyz
x,y,z
x,-y,1/2+z
1/2+x,1/2+y,z
1/2+x,1/2-y,1/2+z
loop_
_atom_site_type_symbol
_atom_site_label
_atom_site_fract_x
_atom_site_fract_y
_atom_site_fract_z
Si Si1 0.063880 0.881025 0.741420
Si Si2 0.887978 0.314539 0.623348
Si Si3 0.217115 0.383839 0.858006
Si Si4 0.227054 0.776566 0.985683
Si Si5 0.153890 0.398222 0.202731
Si Si6 0.554086 0.362782 0.352671
O O1 0.262996 0.885155 0.599176
O O2 0.915278 0.903890 0.731553
O O3 0.823550 0.831772 0.147646
O O4 0.036667 0.728712 0.790364
O O5 0.817731 0.351750 0.812201
O O6 0.083146 0.313424 0.514429
O O7 0.163732 0.418554 0.039856
O O8 0.129870 0.473230 0.802140
O O9 0.163627 0.235489 0.869375
O O10 0.371098 0.694128 0.963110
O O11 0.133291 0.852566 0.156907
O O12 0.541996 0.484972 0.870993
#
# Coordination Sequence:
#
# PCOD9136956 Si02
#       6
#     4   4   4   4   4   4
#     4  10  26  51  77 118 162 216 272 347 403 503
#     4   9  21  46  78 110 162 205 277 329 417 485
#     4  12  26  51  80 119 164 217 280 342 417 495
#     4  10  21  46  75 118 153 220 259 341 413 494
#     4  10  27  48  81 116 165 215 273 342 411 497
#     4  11  27  46  79 115 168 215 277 337 415 494
#
# _framework density 28.068643999999999
#
# number of rings (size 3 to 8) (size 9 to 14) (size 15 to 20)
#    1.000    0.667    0.000    3.000    7.000    1.333 
#   15.000    0.000    0.000    0.000    0.000    0.000 
#    0.000    0.000    0.000    0.000    0.000    0.000 
#
# Total GULP energy -67037.167521 kJ/mol
# GULP energy per Si atom -5586.430627 kJ/mol
# Density = 2.800476 g / cm^3
# Si number density = 28.068644 Si / 1000 Ang^3
#
#
#
# Elastic Constant Matrix: (Units=GPa)
#
#
# Indices 1 2 3 4 5 6 
#
# 1 172.8191 54.2156 47.3694 0.0000 -13.3940 0.0000
# 2 54.2156 122.4816 27.4072 0.0000 -3.2687 0.0000
# 3 47.3694 27.4072 124.0252 0.0000 -4.3476 0.0000
# 4 0.0000 0.0000 0.0000 38.4343 0.0000 3.2107
# 5 -13.3940 -3.2687 -4.3476 0.0000 69.2295 0.0000
# 6 0.0000 0.0000 0.0000 3.2107 0.0000 47.9345
#
#
#
# Elastic Compliance Matrix: (Units=1/GPa)
#
#
# Indices 1 2 3 4 5 6 
#
# 1 0.007322 -0.002728 -0.002153 0.000000 0.001153 0.000000
# 2 -0.002728 0.009612 -0.001087 0.000000 -0.000142 0.000000
# 3 -0.002153 -0.001087 0.009129 0.000000 0.000105 0.000000
# 4 0.000000 0.000000 0.000000 0.026165 0.000000 -0.001753
# 5 0.001153 -0.000142 0.000105 0.000000 0.014668 0.000000
# 6 0.000000 0.000000 0.000000 -0.001753 0.000000 0.020979
#
#
# Mechanical properties :
#
#
# Convention : Reuss Voigt Hill
#
# Bulk Modulus (GPa) = 70.79303 75.25671 73.02487
# Shear Modulus (GPa) = 47.83792 50.47523 49.15658
#
# Velocity S-wave (km/s) = 4.13282 4.24521 4.18939
# Velocity P-wave (km/s) = 6.93179 7.13435 7.03380
#
# Compressibility (1/GPa) = 0.01412568
#
# Stress axis : x y z
#
# Youngs Moduli (GPa) = 136.57796 104.04080 109.53976
#
# Poissons Ratio (x) = 0.28387 0.23585
# Poissons Ratio (y) = 0.37264 0.11906
# Poissons Ratio (z) = 0.29407 0.11308
#
# Static dielectric constant tensor:
#      x y z
#    x 2.127680 0.000000 0.095860 
#    y 0.000000 2.241120 0.000000 
#    z 0.095860 0.000000 2.362650 
# 
# From -- ./inp_files/16770.got.cif
#   From: 2010.05.17/outbox.cif.g08.bks.cpg/sg9_9_cif.got.tgz:16770.got - 2010.06.03 20:04:27.
