data_PCOD9136652
_publ_section_title
;
Structure prediction by ZEFSAII (Michael W. Deem and Ramdas Pophale) SiO2 
 PCOD9136652
Probable space group: C C
;
_chemical_formula_sum "Si O2"
_cell_formula_units_Z 32
_cell_length_a 5.062906
_cell_length_b 24.244306
_cell_length_c 10.676439
_cell_angle_alpha 90.000000
_cell_angle_beta 82.721846
_cell_angle_gamma 90.000000
_cell_volume 1299.938126
_symmetry_space_group_name_H-M "C C"
_symmetry_group_IT_number 9
_symmetry_cell_setting 'monoclinic'
loop_
_space_group_symop_operation_xyz
x,y,z
x,-y,1/2+z
1/2+x,1/2+y,z
1/2+x,1/2-y,1/2+z
loop_
_atom_site_type_symbol
_atom_site_label
_atom_site_fract_x
_atom_site_fract_y
_atom_site_fract_z
Si Si1 0.152250 0.409470 0.278070
Si Si2 0.290566 0.842299 0.624036
Si Si3 0.277419 0.195743 0.747729
Si Si4 0.316856 0.598193 0.030954
Si Si5 0.815414 0.969718 0.762041
Si Si6 0.958800 0.862516 0.064545
Si Si7 0.187242 0.260969 0.007808
Si Si8 0.304613 0.909316 0.853640
O O1 0.358150 0.401339 0.381099
O O2 0.137607 0.475723 0.295494
O O3 0.260926 0.406872 0.130990
O O4 0.942316 0.358279 0.290554
O O5 0.507429 0.886290 0.564298
O O6 0.370692 0.782602 0.572514
O O7 0.266594 0.854703 0.770839
O O8 0.006763 0.856202 0.580040
O O9 0.034419 0.172574 0.681991
O O10 0.457214 0.226002 0.627390
O O11 0.172715 0.232785 0.870506
O O12 0.363046 0.543746 0.111619
O O13 0.610631 0.923999 0.823575
O O14 0.097800 0.955834 0.811950
O O15 0.823874 0.819794 0.980108
O O16 0.212116 0.892755 0.995466
#
# Coordination Sequence:
#
# PCOD9136652 Si02
#       8
#     4   4   4   4   4   4   4   4
#     4  11  25  43  68 102 139 182 239 294 357 424
#     4  10  21  42  70  99 133 180 239 279 348 420
#     4  11  26  44  70 103 144 186 243 301 362 436
#     4  10  22  42  68  98 137 176 235 289 341 421
#     4  10  25  43  73 102 137 191 232 290 360 424
#     4  11  27  44  69 101 146 181 239 301 356 427
#     4  11  24  44  68 102 136 193 237 295 371 422
#     4  10  24  46  68 103 140 185 230 295 353 430
#
# _framework density 24.616553
#
# number of rings (size 3 to 8) (size 9 to 14) (size 15 to 20)
#    0.000    1.500    1.250    1.500    8.750    3.000 
#    2.250    0.000    0.000    0.000    0.000    0.000 
#    0.000    0.000    0.000    0.000    0.000    0.000 
#
# Total GULP energy -89151.646262 kJ/mol
# GULP energy per Si atom -5571.977891 kJ/mol
# Density = 2.456052 g / cm^3
# Si number density = 24.616553 Si / 1000 Ang^3
#
#
#
# Elastic Constant Matrix: (Units=GPa)
#
#
# Indices 1 2 3 4 5 6 
#
# 1 67.6290 5.1456 15.3149 0.0000 1.3519 0.0000
# 2 5.1456 80.0877 28.3253 0.0000 8.5230 0.0000
# 3 15.3149 28.3253 105.4088 0.0000 -11.0578 0.0000
# 4 0.0000 0.0000 0.0000 21.5356 0.0000 -2.9010
# 5 1.3519 8.5230 -11.0578 0.0000 28.5876 0.0000
# 6 0.0000 0.0000 0.0000 -2.9010 0.0000 8.6260
#
#
#
# Elastic Compliance Matrix: (Units=1/GPa)
#
#
# Indices 1 2 3 4 5 6 
#
# 1 0.015365 0.000048 -0.002421 0.000000 -0.001677 0.000000
# 2 0.000048 0.014780 -0.004629 0.000000 -0.006199 0.000000
# 3 -0.002421 -0.004629 0.011715 0.000000 0.006026 0.000000
# 4 0.000000 0.000000 0.000000 0.048638 0.000000 0.016358
# 5 -0.001677 -0.006199 0.006026 0.000000 0.039239 0.000000
# 6 0.000000 0.000000 0.000000 0.016358 0.000000 0.121430
#
#
# Mechanical properties :
#
#
# Convention : Reuss Voigt Hill
#
# Bulk Modulus (GPa) = 35.90062 38.96634 37.43348
# Shear Modulus (GPa) = 18.21787 25.37250 21.79518
#
# Velocity S-wave (km/s) = 2.72337 3.21395 2.97877
# Velocity P-wave (km/s) = 4.95021 5.44392 5.20293
#
# Compressibility (1/GPa) = 0.02785467
#
# Stress axis : x y z
#
# Youngs Moduli (GPa) = 65.08416 67.65835 85.36322
#
# Poissons Ratio (x) = -0.00322 0.20667
# Poissons Ratio (y) = -0.00310 0.39514
# Poissons Ratio (z) = 0.15757 0.31319
#
# Static dielectric constant tensor:
#      x y z
#    x 1.961730 0.000000 -0.023770 
#    y 0.000000 2.070690 0.000000 
#    z -0.023770 0.000000 2.025740 
# 
# From -- ./inp_files/13475.got.cif
#   From: 2010.05.17/outbox.cif.g08.bks.cpg/sg9_7_cif.got.tgz:13475.got - 2010.06.03 20:04:27.
