data_PCOD9136694
_publ_section_title
;
Structure prediction by ZEFSAII (Michael W. Deem and Ramdas Pophale) SiO2 
 PCOD9136694
Probable space group: C C
;
_chemical_formula_sum "Si O2"
_cell_formula_units_Z 24
_cell_length_a 5.333404
_cell_length_b 11.453591
_cell_length_c 18.528750
_cell_angle_alpha 90.000000
_cell_angle_beta 61.160684
_cell_angle_gamma 90.000000
_cell_volume 991.481080
_symmetry_space_group_name_H-M "C C"
_symmetry_group_IT_number 9
_symmetry_cell_setting 'monoclinic'
loop_
_space_group_symop_operation_xyz
x,y,z
x,-y,1/2+z
1/2+x,1/2+y,z
1/2+x,1/2-y,1/2+z
loop_
_atom_site_type_symbol
_atom_site_label
_atom_site_fract_x
_atom_site_fract_y
_atom_site_fract_z
Si Si1 0.276980 0.392034 0.963440
Si Si2 0.931250 0.371689 0.664996
Si Si3 0.276511 0.105864 0.770081
Si Si4 0.018848 0.775779 0.616717
Si Si5 0.769599 0.749224 0.327330
Si Si6 0.383183 0.977036 0.894736
O O1 0.452465 0.290806 0.895222
O O2 0.541431 0.468748 0.956896
O O3 0.066000 0.464131 0.941338
O O4 0.106498 0.323425 0.048127
O O5 0.272032 0.358549 0.619584
O O6 0.817220 0.490274 0.716169
O O7 0.792142 0.346962 0.607189
O O8 0.823126 0.272631 0.735892
O O9 0.394598 0.208601 0.703746
O O10 0.418661 0.076019 0.827916
O O11 0.942561 0.863205 0.327699
O O12 0.944761 0.643480 0.343137
#
# Coordination Sequence:
#
# PCOD9136694 Si02
#       6
#     4   4   4   4   4   4
#     4  10  21  43  64  93 146 169 223 290 339 390
#     4  10  23  40  64  95 128 169 234 269 327 423
#     4  10  22  43  71  97 131 183 231 277 336 403
#     4  11  24  43  66  95 139 178 213 288 349 384
#     4   8  21  38  67  91 129 177 223 273 338 394
#     4   9  21  39  64  97 127 174 232 279 317 422
#
# _framework density 24.206209000000001
#
# number of rings (size 3 to 8) (size 9 to 14) (size 15 to 20)
#    1.000    1.333    0.000    1.000    7.000    5.333 
#    3.000    0.000    0.000    0.000    0.000    0.000 
#    0.000    0.000    0.000    0.000    0.000    0.000 
#
# Total GULP energy -66971.936621 kJ/mol
# GULP energy per Si atom -5580.994718 kJ/mol
# Density = 2.415111 g / cm^3
# Si number density = 24.206209 Si / 1000 Ang^3
#
#
#
# Elastic Constant Matrix: (Units=GPa)
#
#
# Indices 1 2 3 4 5 6 
#
# 1 215.6804 48.6375 51.4025 0.0000 11.3903 -0.0001
# 2 48.6375 67.6929 12.4043 0.0000 2.5980 -0.0001
# 3 51.4025 12.4043 82.0328 0.0000 2.7037 -0.0001
# 4 0.0000 0.0000 0.0000 50.3846 0.0000 -12.5150
# 5 11.3903 2.5980 2.7037 0.0000 14.4870 0.0001
# 6 -0.0001 -0.0001 -0.0001 -12.5150 0.0001 7.3307
#
#
#
# Elastic Compliance Matrix: (Units=1/GPa)
#
#
# Indices 1 2 3 4 5 6 
#
# 1 0.006525 -0.003925 -0.003370 0.000000 -0.003798 0.000000
# 2 -0.003925 0.017632 -0.000205 0.000000 -0.000038 0.000000
# 3 -0.003370 -0.000205 0.014333 0.000000 0.000012 0.000000
# 4 0.000000 0.000000 0.000000 0.034460 0.000000 0.058830
# 5 -0.003798 -0.000038 0.000012 0.000000 0.072018 -0.000002
# 6 0.000000 0.000000 0.000000 0.058830 -0.000002 0.236846
#
#
# Mechanical properties :
#
#
# Convention : Reuss Voigt Hill
#
# Bulk Modulus (GPa) = 42.57390 65.58832 54.08111
# Shear Modulus (GPa) = 12.35652 31.30458 21.83055
#
# Velocity S-wave (km/s) = 2.26181 3.60007 3.00635
# Velocity P-wave (km/s) = 4.94441 6.66597 5.86866
#
# Compressibility (1/GPa) = 0.02348857
#
# Stress axis : x y z
#
# Youngs Moduli (GPa) = 153.24689 56.71526 69.77052
#
# Poissons Ratio (x) = 0.22262 0.23514
# Poissons Ratio (y) = 0.60153 0.01433
# Poissons Ratio (z) = 0.51647 0.01165
#
# Static dielectric constant tensor:
#      x y z
#    x 2.025650 0.000000 -0.036940 
#    y 0.000000 1.988880 0.000000 
#    z -0.036940 0.000000 1.890510 
# 
# From -- ./inp_files/28437.got.cif
#   From: 2010.05.17/outbox.cif.g08.bks.cpg/sg9_15_cif.got.tgz:28437.got - 2010.06.03 20:04:27.
