data_PCOD9136949
_publ_section_title
;
Structure prediction by ZEFSAII (Michael W. Deem and Ramdas Pophale) SiO2 
 PCOD9136949
Probable space group: C C
;
_chemical_formula_sum "Si O2"
_cell_formula_units_Z 24
_cell_length_a 18.094420
_cell_length_b 9.113684
_cell_length_c 9.002125
_cell_angle_alpha 90.000000
_cell_angle_beta 39.957949
_cell_angle_gamma 90.000000
_cell_volume 953.390949
_symmetry_space_group_name_H-M "C C"
_symmetry_group_IT_number 9
_symmetry_cell_setting 'monoclinic'
loop_
_space_group_symop_operation_xyz
x,y,z
x,-y,1/2+z
1/2+x,1/2+y,z
1/2+x,1/2-y,1/2+z
loop_
_atom_site_type_symbol
_atom_site_label
_atom_site_fract_x
_atom_site_fract_y
_atom_site_fract_z
Si Si1 0.487710 0.533083 0.211880
Si Si2 0.413070 0.314762 0.117724
Si Si3 0.873383 0.531159 0.696349
Si Si4 0.218035 0.922062 0.176679
Si Si5 0.625721 0.872024 0.838666
Si Si6 0.257123 0.558093 0.417053
O O1 0.448528 0.365881 0.231346
O O2 0.489483 0.605126 0.371741
O O3 0.380217 0.612761 0.290399
O O4 0.610848 0.534970 0.944692
O O5 0.400222 0.142219 0.126735
O O6 0.295695 0.406324 0.277210
O O7 0.827430 0.598852 0.615139
O O8 0.991240 0.605070 0.564946
O O9 0.769606 0.531120 0.975121
O O10 0.167148 0.772399 0.186829
O O11 0.687283 0.854898 0.902535
O O12 0.674748 0.011843 0.676797
#
# Coordination Sequence:
#
# PCOD9136949 Si02
#       6
#     4   4   4   4   4   4
#     4  10  22  44  74 107 146 201 235 315 380 434
#     4  10  22  46  72 110 148 188 258 298 378 450
#     4  12  29  48  72 116 146 201 258 306 375 456
#     4  12  28  49  72 108 157 190 254 320 366 454
#     4  12  26  47  74 106 151 196 244 321 368 447
#     4  10  21  46  72 103 138 196 241 300 379 437
#
# _framework density 25.173303000000001
#
# number of rings (size 3 to 8) (size 9 to 14) (size 15 to 20)
#    1.000    0.000    3.333    2.000    7.000    1.333 
#    6.000    0.000    0.000    0.000    0.000    0.000 
#    0.000    0.000    0.000    0.000    0.000    0.000 
#
# Total GULP energy -66934.148755 kJ/mol
# GULP energy per Si atom -5577.845730 kJ/mol
# Density = 2.511601 g / cm^3
# Si number density = 25.173303 Si / 1000 Ang^3
#
#
#
# Elastic Constant Matrix: (Units=GPa)
#
#
# Indices 1 2 3 4 5 6 
#
# 1 87.2731 14.3189 26.2353 0.0000 -17.6655 0.0000
# 2 14.3189 96.4554 24.9766 0.0000 -14.2305 0.0000
# 3 26.2353 24.9766 151.6581 0.0000 -12.3903 0.0000
# 4 0.0000 0.0000 0.0000 34.2559 0.0000 -2.5132
# 5 -17.6655 -14.2305 -12.3903 0.0000 39.6959 0.0000
# 6 0.0000 0.0000 0.0000 -2.5132 0.0000 17.7480
#
#
#
# Elastic Compliance Matrix: (Units=1/GPa)
#
#
# Indices 1 2 3 4 5 6 
#
# 1 0.013121 -0.000757 -0.001735 0.000000 0.005026 0.000000
# 2 -0.000757 0.011343 -0.001470 0.000000 0.003271 0.000000
# 3 -0.001735 -0.001470 0.007214 0.000000 0.000953 0.000000
# 4 0.000000 0.000000 0.000000 0.029499 0.000000 0.004177
# 5 0.005026 0.003271 0.000953 0.000000 0.028898 0.000000
# 6 0.000000 0.000000 0.000000 0.004177 0.000000 0.056936
#
#
# Mechanical properties :
#
#
# Convention : Reuss Voigt Hill
#
# Bulk Modulus (GPa) = 42.09643 51.82758 46.96201
# Shear Modulus (GPa) = 30.70268 36.33035 33.51651
#
# Velocity S-wave (km/s) = 3.49614 3.80308 3.65284
# Velocity P-wave (km/s) = 5.74946 6.31804 6.04044
#
# Compressibility (1/GPa) = 0.02375498
#
# Stress axis : x y z
#
# Youngs Moduli (GPa) = 76.21162 88.15988 138.62413
#
# Poissons Ratio (x) = 0.06675 0.24044
# Poissons Ratio (y) = 0.05770 0.20376
# Poissons Ratio (z) = 0.13219 0.12959
#
# Static dielectric constant tensor:
#      x y z
#    x 1.983060 0.000000 0.049080 
#    y 0.000000 2.082880 0.000000 
#    z 0.049080 0.000000 2.031790 
# 
# From -- ./inp_files/10580.got.cif
#   From: 2010.05.17/outbox.cif.g08.bks.cpg/sg9_6_cif.got.tgz:10580.got - 2010.06.03 20:04:27.
