data_PCOD9136221
_publ_section_title
;
Structure prediction by ZEFSAII (Michael W. Deem and Ramdas Pophale) SiO2 
 PCOD9136221
Probable space group: C C
;
_chemical_formula_sum "Si O2"
_cell_formula_units_Z 28
_cell_length_a 14.298135
_cell_length_b 10.467736
_cell_length_c 7.936341
_cell_angle_alpha 90.000000
_cell_angle_beta 111.297309
_cell_angle_gamma 90.000000
_cell_volume 1106.706428
_symmetry_space_group_name_H-M "C C"
_symmetry_group_IT_number 9
_symmetry_cell_setting 'monoclinic'
loop_
_space_group_symop_operation_xyz
x,y,z
x,-y,1/2+z
1/2+x,1/2+y,z
1/2+x,1/2-y,1/2+z
loop_
_atom_site_type_symbol
_atom_site_label
_atom_site_fract_x
_atom_site_fract_y
_atom_site_fract_z
Si Si1 0.081840 0.198960 0.229000
Si Si2 0.603882 0.226173 0.097421
Si Si3 0.551202 0.581817 0.851785
Si Si4 0.873082 0.648843 0.925381
Si Si5 0.878296 0.638696 0.550117
Si Si6 0.323058 0.369502 0.313553
Si Si7 0.749743 0.107501 0.443053
O O1 0.140097 0.265931 0.426181
O O2 0.053613 0.069019 0.314790
O O3 0.104516 0.138923 0.056670
O O4 0.989950 0.297853 0.130620
O O5 0.597788 0.349942 0.217070
O O6 0.662435 0.126394 0.253050
O O7 0.489471 0.182972 0.006127
O O8 0.433283 0.612105 0.803485
O O9 0.836185 0.651598 0.709556
O O10 0.866683 0.507811 0.994283
O O11 0.814282 0.763101 0.972141
O O12 0.822345 0.727091 0.380839
O O13 0.313064 0.480879 0.444204
O O14 0.229961 0.393677 0.127759
#
# Coordination Sequence:
#
# PCOD9136221 Si02
#       7
#     4   4   4   4   4   4   4
#     4  10  21  39  70 103 134 183 240 286 354 432
#     4  11  25  44  69 106 141 186 238 296 360 432
#     4  11  19  42  75  96 137 187 234 294 352 428
#     4  11  23  46  67  99 146 182 231 296 366 421
#     4  10  23  40  72  97 136 189 228 292 361 425
#     4  11  22  44  70 102 135 188 242 288 359 431
#     4  12  25  45  73 103 143 185 241 300 354 431
#
# _framework density 25.300294999999998
#
# number of rings (size 3 to 8) (size 9 to 14) (size 15 to 20)
#    0.000    1.143    2.857    5.143    2.000    2.286 
#   10.286    0.000    0.000    0.000    0.000    0.000 
#    0.000    0.000    0.000    0.000    0.000    0.000 
#
# Total GULP energy -78210.915477 kJ/mol
# GULP energy per Si atom -5586.493963 kJ/mol
# Density = 2.524271 g / cm^3
# Si number density = 25.300295 Si / 1000 Ang^3
#
#
#
# Elastic Constant Matrix: (Units=GPa)
#
#
# Indices 1 2 3 4 5 6 
#
# 1 35.8723 -4.4054 -2.5731 0.0000 9.9746 0.0000
# 2 -4.4054 104.4367 -8.5971 0.0000 -10.1221 0.0000
# 3 -2.5731 -8.5971 172.1591 0.0000 -9.2381 0.0000
# 4 0.0000 0.0000 0.0000 47.6499 0.0000 -9.2971
# 5 9.9746 -10.1221 -9.2381 0.0000 28.7976 0.0000
# 6 0.0000 0.0000 0.0000 -9.2971 0.0000 23.5465
#
#
#
# Elastic Compliance Matrix: (Units=1/GPa)
#
#
# Indices 1 2 3 4 5 6 
#
# 1 0.030857 0.000264 -0.000096 0.000000 -0.010626 0.000000
# 2 0.000264 0.009997 0.000699 0.000000 0.003647 0.000000
# 3 -0.000096 0.000699 0.005960 0.000000 0.002191 0.000000
# 4 0.000000 0.000000 0.000000 0.022738 0.000000 0.008978
# 5 -0.010626 0.003647 0.002191 0.000000 0.040390 0.000000
# 6 0.000000 0.000000 0.000000 0.008978 0.000000 0.046014
#
#
# Mechanical properties :
#
#
# Convention : Reuss Voigt Hill
#
# Bulk Modulus (GPa) = 20.59842 31.25745 25.92793
# Shear Modulus (GPa) = 29.34195 41.86838 35.60517
#
# Velocity S-wave (km/s) = 3.40920 4.07241 3.75547
# Velocity P-wave (km/s) = 4.86376 5.87316 5.39213
#
# Compressibility (1/GPa) = 0.04854742
#
# Stress axis : x y z
#
# Youngs Moduli (GPa) = 32.40780 100.02710 167.79655
#
# Poissons Ratio (x) = -0.02639 0.01608
# Poissons Ratio (y) = -0.00855 -0.11727
# Poissons Ratio (z) = 0.00311 -0.06991
#
# Static dielectric constant tensor:
#      x y z
#    x 2.033860 0.000000 0.018000 
#    y 0.000000 2.087200 0.000000 
#    z 0.018000 0.000000 2.056040 
# 
# From -- ./inp_files/11298.got.cif
#   From: 2010.05.17/outbox.cif.g08.bks.cpg/sg9_6_cif.got.tgz:11298.got - 2010.06.03 20:04:27.
