data_PCOD9136682
_publ_section_title
;
Structure prediction by ZEFSAII (Michael W. Deem and Ramdas Pophale) SiO2 
 PCOD9136682
Probable space group: C C
;
_chemical_formula_sum "Si O2"
_cell_formula_units_Z 28
_cell_length_a 9.323174
_cell_length_b 24.275812
_cell_length_c 7.946102
_cell_angle_alpha 90.000000
_cell_angle_beta 51.866042
_cell_angle_gamma 90.000000
_cell_volume 1414.583591
_symmetry_space_group_name_H-M "C C"
_symmetry_group_IT_number 9
_symmetry_cell_setting 'monoclinic'
loop_
_space_group_symop_operation_xyz
x,y,z
x,-y,1/2+z
1/2+x,1/2+y,z
1/2+x,1/2-y,1/2+z
loop_
_atom_site_type_symbol
_atom_site_label
_atom_site_fract_x
_atom_site_fract_y
_atom_site_fract_z
Si Si1 0.887190 0.151185 0.219020
Si Si2 0.335817 0.171787 0.422975
Si Si3 0.443152 0.705330 0.833350
Si Si4 0.165208 0.891205 0.745149
Si Si5 0.517259 0.047737 0.972649
Si Si6 0.788633 0.134180 0.643816
Si Si7 0.098453 0.426318 0.796026
O O1 0.789058 0.167533 0.466328
O O2 0.788822 0.095766 0.227766
O O3 0.092192 0.137182 0.129047
O O4 0.879338 0.191052 0.067467
O O5 0.438018 0.229137 0.321391
O O6 0.147636 0.183557 0.655960
O O7 0.277894 0.150072 0.280970
O O8 0.455751 0.124075 0.421906
O O9 0.319599 0.674105 0.781344
O O10 0.301304 0.941093 0.619184
O O11 0.976019 0.901464 0.983271
O O12 0.622309 0.091969 0.779468
O O13 0.550613 0.984189 0.912691
O O14 0.595487 0.062286 0.099434
#
# Coordination Sequence:
#
# PCOD9136682 Si02
#       7
#     4   4   4   4   4   4   4
#     4  10  21  43  63 102 129 172 226 268 336 412
#     4  10  23  43  66  95 135 181 225 282 343 402
#     4  11  21  43  69  94 137 174 219 293 332 400
#     4   8  22  43  62  98 134 168 230 263 342 399
#     4  11  21  43  68  96 139 181 216 291 328 400
#     4   9  21  42  67  97 133 170 220 273 339 393
#     4  11  23  41  67  98 135 180 232 268 350 404
#
# _framework density 19.793807999999999
#
# number of rings (size 3 to 8) (size 9 to 14) (size 15 to 20)
#    0.857    1.143    1.429    1.714    2.000    2.286 
#   15.429    0.000    0.000    0.000    0.000    0.000 
#    0.000    0.000    0.000    0.000    0.000    0.000 
#
# Total GULP energy -78005.340756 kJ/mol
# GULP energy per Si atom -5571.810054 kJ/mol
# Density = 1.974876 g / cm^3
# Si number density = 19.793808 Si / 1000 Ang^3
#
#
#
# Elastic Constant Matrix: (Units=GPa)
#
#
# Indices 1 2 3 4 5 6 
#
# 1 80.4029 19.7110 28.4078 0.0000 18.2987 0.0000
# 2 19.7110 94.5289 35.9456 0.0000 -2.3310 0.0000
# 3 28.4078 35.9456 53.5412 0.0000 2.1197 0.0000
# 4 0.0000 0.0000 0.0000 33.3577 0.0000 -2.7973
# 5 18.2987 -2.3310 2.1197 0.0000 23.0524 0.0000
# 6 0.0000 0.0000 0.0000 -2.7973 0.0000 11.0933
#
#
#
# Elastic Compliance Matrix: (Units=1/GPa)
#
#
# Indices 1 2 3 4 5 6 
#
# 1 0.019114 -0.000944 -0.008936 0.000000 -0.014446 0.000000
# 2 -0.000944 0.014377 -0.009272 0.000000 0.003056 0.000000
# 3 -0.008936 -0.009272 0.029507 0.000000 0.003442 0.000000
# 4 0.000000 0.000000 0.000000 0.030626 0.000000 0.007723
# 5 -0.014446 0.003056 0.003442 0.000000 0.054839 0.000000
# 6 0.000000 0.000000 0.000000 0.007723 0.000000 0.092092
#
#
# Mechanical properties :
#
#
# Convention : Reuss Voigt Hill
#
# Bulk Modulus (GPa) = 40.49581 44.06688 42.28135
# Shear Modulus (GPa) = 17.41624 23.12793 20.27209
#
# Velocity S-wave (km/s) = 2.96950 3.42196 3.20373
# Velocity P-wave (km/s) = 5.67983 6.15827 5.92389
#
# Compressibility (1/GPa) = 0.02469391
#
# Stress axis : x y z
#
# Youngs Moduli (GPa) = 52.31872 69.55653 33.89024
#
# Poissons Ratio (x) = 0.06565 0.30283
# Poissons Ratio (y) = 0.04938 0.31424
# Poissons Ratio (z) = 0.46750 0.64494
#
# Static dielectric constant tensor:
#      x y z
#    x 1.715810 0.000000 -0.003840 
#    y 0.000000 1.667800 0.000000 
#    z -0.003840 0.000000 1.751460 
# 
# From -- ./inp_files/8473.got.cif
#   From: 2010.05.17/outbox.cif.g08.bks.cpg/sg9_5_cif.got.tgz:8473.got - 2010.06.03 20:04:27.
