data_PCOD9136700
_publ_section_title
;
Structure prediction by ZEFSAII (Michael W. Deem and Ramdas Pophale) SiO2 
 PCOD9136700
Probable space group: C C
;
_chemical_formula_sum "Si O2"
_cell_formula_units_Z 32
_cell_length_a 8.273413
_cell_length_b 12.279975
_cell_length_c 13.562613
_cell_angle_alpha 90.000000
_cell_angle_beta 57.995503
_cell_angle_gamma 90.000000
_cell_volume 1168.489297
_symmetry_space_group_name_H-M "C C"
_symmetry_group_IT_number 9
_symmetry_cell_setting 'monoclinic'
loop_
_space_group_symop_operation_xyz
x,y,z
x,-y,1/2+z
1/2+x,1/2+y,z
1/2+x,1/2-y,1/2+z
loop_
_atom_site_type_symbol
_atom_site_label
_atom_site_fract_x
_atom_site_fract_y
_atom_site_fract_z
Si Si1 0.916990 0.740721 0.437520
Si Si2 0.345725 0.133547 0.644129
Si Si3 0.683875 0.118300 0.884995
Si Si4 0.357540 0.895042 0.652633
Si Si5 0.046303 0.944326 0.522918
Si Si6 0.476688 0.305247 0.743147
Si Si7 0.792914 0.082522 0.473775
Si Si8 0.469490 0.027756 0.327386
O O1 0.811201 0.779007 0.372678
O O2 0.030116 0.631563 0.373324
O O3 0.776639 0.697590 0.570064
O O4 0.015142 0.841653 0.459488
O O5 0.255914 0.014673 0.675846
O O6 0.349874 0.209599 0.737199
O O7 0.574689 0.113234 0.562167
O O8 0.799415 0.017810 0.894988
O O9 0.605093 0.073853 0.807409
O O10 0.502267 0.123491 0.017105
O O11 0.202667 0.800820 0.694643
O O12 0.464255 0.922553 0.720095
O O13 0.988907 0.893554 0.647805
O O14 0.258967 0.990825 0.433407
O O15 0.904259 0.039349 0.532790
O O16 0.396538 0.325231 0.878437
#
# Coordination Sequence:
#
# PCOD9136700 Si02
#       8
#     4   4   4   4   4   4   4   4
#     4  10  22  44  64  95 131 183 219 274 350 390
#     4  10  23  43  67  97 143 179 227 288 338 412
#     4  10  23  44  67  99 139 172 229 289 334 410
#     4  11  23  43  65 101 137 178 221 283 346 403
#     4  10  22  41  69  96 138 176 226 285 338 412
#     4  11  22  41  71 100 131 189 227 271 356 413
#     4  10  21  43  65 101 142 172 230 292 338 404
#     4  12  22  43  70  95 141 175 223 286 336 404
#
# _framework density 27.385787000000001
#
# number of rings (size 3 to 8) (size 9 to 14) (size 15 to 20)
#    0.000    1.500    5.000    0.000    0.000    8.000 
#    2.250    2.500    0.000    0.000    0.000    0.000 
#    0.000    0.000    0.000    0.000    0.000    0.000 
#
# Total GULP energy -89462.144393 kJ/mol
# GULP energy per Si atom -5591.384025 kJ/mol
# Density = 2.732346 g / cm^3
# Si number density = 27.385787 Si / 1000 Ang^3
#
#
#
# Elastic Constant Matrix: (Units=GPa)
#
#
# Indices 1 2 3 4 5 6 
#
# 1 104.6135 33.7620 35.0507 0.0000 27.1396 0.0000
# 2 33.7620 125.3113 31.0883 0.0000 5.0099 0.0000
# 3 35.0507 31.0883 107.7316 0.0000 14.0859 0.0000
# 4 0.0000 0.0000 0.0000 33.2857 0.0000 3.7273
# 5 27.1396 5.0099 14.0859 0.0000 49.9985 0.0000
# 6 0.0000 0.0000 0.0000 3.7273 0.0000 53.4171
#
#
#
# Elastic Compliance Matrix: (Units=1/GPa)
#
#
# Indices 1 2 3 4 5 6 
#
# 1 0.012818 -0.002557 -0.002654 0.000000 -0.005954 0.000000
# 2 -0.002557 0.009107 -0.001929 0.000000 0.001019 0.000000
# 3 -0.002654 -0.001929 0.010890 0.000000 -0.001434 0.000000
# 4 0.000000 0.000000 0.000000 0.030280 0.000000 -0.002113
# 5 -0.005954 0.001019 -0.001434 0.000000 0.023534 0.000000
# 6 0.000000 0.000000 0.000000 -0.002113 0.000000 0.018868
#
#
# Mechanical properties :
#
#
# Convention : Reuss Voigt Hill
#
# Bulk Modulus (GPa) = 53.95393 59.71761 56.83577
# Shear Modulus (GPa) = 39.69646 43.19060 41.44353
#
# Velocity S-wave (km/s) = 3.81140 3.97560 3.89437
# Velocity P-wave (km/s) = 6.25405 6.55189 6.40470
#
# Compressibility (1/GPa) = 0.01853433
#
# Stress axis : x y z
#
# Youngs Moduli (GPa) = 78.01499 109.80613 91.82679
#
# Poissons Ratio (x) = 0.28078 0.24371
# Poissons Ratio (y) = 0.19949 0.17716
# Poissons Ratio (z) = 0.20705 0.21185
#
# Static dielectric constant tensor:
#      x y z
#    x 2.169640 0.000000 0.038920 
#    y 0.000000 2.212710 0.000000 
#    z 0.038920 0.000000 2.165850 
# 
# From -- ./inp_files/23387.got.cif
#   From: 2010.05.17/outbox.cif.g08.bks.cpg/sg9_12_cif.got.tgz:23387.got - 2010.06.03 20:04:27.
