data_PCOD9136129
_publ_section_title
;
Structure prediction by ZEFSAII (Michael W. Deem and Ramdas Pophale) SiO2 
 PCOD9136129
Probable space group: C C
;
_chemical_formula_sum "Si O2"
_cell_formula_units_Z 32
_cell_length_a 10.324928
_cell_length_b 17.726999
_cell_length_c 11.586091
_cell_angle_alpha 90.000000
_cell_angle_beta 137.765269
_cell_angle_gamma 90.000000
_cell_volume 1425.404095
_symmetry_space_group_name_H-M "C C"
_symmetry_group_IT_number 9
_symmetry_cell_setting 'monoclinic'
loop_
_space_group_symop_operation_xyz
x,y,z
x,-y,1/2+z
1/2+x,1/2+y,z
1/2+x,1/2-y,1/2+z
loop_
_atom_site_type_symbol
_atom_site_label
_atom_site_fract_x
_atom_site_fract_y
_atom_site_fract_z
Si Si1 0.157410 0.295156 0.747200
Si Si2 0.872582 0.653521 0.881032
Si Si3 0.426415 0.974901 0.896547
Si Si4 0.213485 0.388930 0.238560
Si Si5 0.957851 0.855263 0.761750
Si Si6 0.771479 0.106042 0.521546
Si Si7 0.991761 0.029009 0.102157
Si Si8 0.684963 0.225213 0.913163
O O1 0.184548 0.205928 0.745586
O O2 0.319306 0.339509 0.777289
O O3 0.959898 0.322435 0.562009
O O4 0.195867 0.323492 0.900271
O O5 0.892903 0.564183 0.886463
O O6 0.014969 0.687410 0.877250
O O7 0.211918 0.947609 0.724445
O O8 0.522195 0.936021 0.073563
O O9 0.588823 0.952505 0.910260
O O10 0.314740 0.374511 0.182488
O O11 0.348659 0.436761 0.413128
O O12 0.177775 0.311499 0.282748
O O13 0.953029 0.938151 0.706135
O O14 0.873597 0.804685 0.601599
O O15 0.161537 0.814780 0.913970
O O16 0.944231 0.059247 0.578423
#
# Coordination Sequence:
#
# PCOD9136129 Si02
#       8
#     4   4   4   4   4   4   4   4
#     4  10  21  41  63  89 138 164 216 277 331 398
#     4  10  21  39  62  97 120 175 218 266 331 390
#     4  10  23  42  66  97 126 174 225 262 343 388
#     4   9  22  42  62  94 131 170 216 282 330 388
#     4   9  20  35  64  94 117 169 215 273 328 383
#     4  10  23  42  63  94 136 173 209 281 338 385
#     4  11  22  42  66  94 128 166 227 269 328 403
#     4   9  18  37  62  87 126 159 216 274 321 387
#
# _framework density 22.449774999999999
#
# number of rings (size 3 to 8) (size 9 to 14) (size 15 to 20)
#    0.750    1.500    0.000    3.000    5.250    0.000 
#    6.750    3.750    0.000    0.000    0.000    0.000 
#    0.000    0.000    0.000    0.000    0.000    0.000 
#
# Total GULP energy -89201.150148 kJ/mol
# GULP energy per Si atom -5575.071884 kJ/mol
# Density = 2.239868 g / cm^3
# Si number density = 22.449775 Si / 1000 Ang^3
#
#
#
# Elastic Constant Matrix: (Units=GPa)
#
#
# Indices 1 2 3 4 5 6 
#
# 1 30.6880 1.3781 25.0720 0.0000 -5.1664 0.0000
# 2 1.3781 74.5349 9.2121 0.0000 -3.2467 0.0000
# 3 25.0720 9.2121 67.9168 0.0000 -1.5946 0.0000
# 4 0.0000 0.0000 0.0000 25.6369 0.0000 -4.2040
# 5 -5.1664 -3.2467 -1.5946 0.0000 39.7777 0.0000
# 6 0.0000 0.0000 0.0000 -4.2040 0.0000 22.8734
#
#
#
# Elastic Compliance Matrix: (Units=1/GPa)
#
#
# Indices 1 2 3 4 5 6 
#
# 1 0.048012 0.001559 -0.017803 0.000000 0.005649 0.000000
# 2 0.001559 0.013739 -0.002410 0.000000 0.001227 0.000000
# 3 -0.017803 -0.002410 0.021584 0.000000 -0.001644 0.000000
# 4 0.000000 0.000000 0.000000 0.040218 0.000000 0.007392
# 5 0.005649 0.001227 -0.001644 0.000000 0.025908 0.000000
# 6 0.000000 0.000000 0.000000 0.007392 0.000000 0.045078
#
#
# Mechanical properties :
#
#
# Convention : Reuss Voigt Hill
#
# Bulk Modulus (GPa) = 21.72643 27.16267 24.44455
# Shear Modulus (GPa) = 20.22739 26.82277 23.52508
#
# Velocity S-wave (km/s) = 3.00493 3.46032 3.24064
# Velocity P-wave (km/s) = 4.66244 5.30007 4.99144
#
# Compressibility (1/GPa) = 0.04602690
#
# Stress axis : x y z
#
# Youngs Moduli (GPa) = 20.82813 72.78526 46.33016
#
# Poissons Ratio (x) = -0.11345 0.82480
# Poissons Ratio (y) = -0.03246 0.11166
# Poissons Ratio (z) = 0.37080 0.17542
#
# Static dielectric constant tensor:
#      x y z
#    x 1.841600 0.000000 0.039270 
#    y 0.000000 1.877550 0.000000 
#    z 0.039270 0.000000 1.885270 
# 
# From -- ./inp_files/17044.got.cif
#   From: 2010.05.17/outbox.cif.g08.bks.cpg/sg9_9_cif.got.tgz:17044.got - 2010.06.03 20:04:27.
