data_PCOD9136219
_publ_section_title
;
Structure prediction by ZEFSAII (Michael W. Deem and Ramdas Pophale) SiO2 
 PCOD9136219
Probable space group: C C
;
_chemical_formula_sum "Si O2"
_cell_formula_units_Z 28
_cell_length_a 9.127731
_cell_length_b 12.006498
_cell_length_c 12.401808
_cell_angle_alpha 90.000000
_cell_angle_beta 79.538983
_cell_angle_gamma 90.000000
_cell_volume 1336.549269
_symmetry_space_group_name_H-M "C C"
_symmetry_group_IT_number 9
_symmetry_cell_setting 'monoclinic'
loop_
_space_group_symop_operation_xyz
x,y,z
x,-y,1/2+z
1/2+x,1/2+y,z
1/2+x,1/2-y,1/2+z
loop_
_atom_site_type_symbol
_atom_site_label
_atom_site_fract_x
_atom_site_fract_y
_atom_site_fract_z
Si Si1 0.618510 0.851852 0.221810
Si Si2 0.168961 0.296905 0.670898
Si Si3 0.891269 0.326941 0.862178
Si Si4 0.348913 0.521071 0.266830
Si Si5 0.866173 0.416482 0.091060
Si Si6 0.187037 0.383446 0.438953
Si Si7 0.178808 0.095591 0.211832
O O1 0.494815 0.904180 0.162621
O O2 0.573891 0.859975 0.355089
O O3 0.645549 0.724022 0.188043
O O4 0.772864 0.922509 0.205211
O O5 0.291519 0.366258 0.720609
O O6 0.241387 0.178693 0.631686
O O7 0.131408 0.364466 0.566204
O O8 0.025848 0.296201 0.765949
O O9 0.811952 0.212642 0.907393
O O10 0.771553 0.397541 0.810368
O O11 0.932826 0.392289 0.964633
O O12 0.272306 0.496341 0.393127
O O13 0.525285 0.528785 0.247031
O O14 0.781639 0.532771 0.112673
#
# Coordination Sequence:
#
# PCOD9136219 Si02
#       7
#     4   4   4   4   4   4   4
#     4   9  21  45  65  98 131 167 226 269 324 400
#     4  11  21  41  70  92 131 180 212 273 335 381
#     4  10  23  42  64  96 134 172 223 270 325 397
#     4  10  21  39  69  95 133 169 218 270 326 392
#     4  11  23  43  67  98 133 173 224 269 330 395
#     4   8  21  41  64  92 131 165 223 266 323 396
#     4  11  22  43  67  95 137 170 220 271 329 389
#
# _framework density 20.949470000000002
#
# number of rings (size 3 to 8) (size 9 to 14) (size 15 to 20)
#    0.857    1.143    1.429    1.714    0.000    3.429 
#    2.571    2.857    0.000    0.000    0.000    0.000 
#    0.000    0.000    0.000    0.000    0.000    0.000 
#
# Total GULP energy -78107.135570 kJ/mol
# GULP energy per Si atom -5579.081112 kJ/mol
# Density = 2.090179 g / cm^3
# Si number density = 20.949470 Si / 1000 Ang^3
#
#
#
# Elastic Constant Matrix: (Units=GPa)
#
#
# Indices 1 2 3 4 5 6 
#
# 1 116.1559 21.1387 38.9786 0.0000 -5.8380 0.0000
# 2 21.1387 83.5321 16.8007 0.0000 -17.3933 0.0000
# 3 38.9786 16.8007 99.0933 0.0000 -21.2179 0.0000
# 4 0.0000 0.0000 0.0000 43.2696 0.0000 22.4340
# 5 -5.8380 -17.3933 -21.2179 0.0000 22.0254 0.0000
# 6 0.0000 0.0000 0.0000 22.4340 0.0000 53.2613
#
#
#
# Elastic Compliance Matrix: (Units=1/GPa)
#
#
# Indices 1 2 3 4 5 6 
#
# 1 0.010356 -0.002450 -0.004390 0.000000 -0.003419 0.000000
# 2 -0.002450 0.014907 0.001030 0.000000 0.012115 0.000000
# 3 -0.004390 0.001030 0.014575 0.000000 0.013691 0.000000
# 4 0.000000 0.000000 0.000000 0.029568 0.000000 -0.012454
# 5 -0.003419 0.012115 0.013691 0.000000 0.067252 0.000000
# 6 0.000000 0.000000 0.000000 -0.012454 0.000000 0.024021
#
#
# Mechanical properties :
#
#
# Convention : Reuss Voigt Hill
#
# Bulk Modulus (GPa) = 35.43731 50.29081 42.86406
# Shear Modulus (GPa) = 27.51702 38.50214 33.00958
#
# Velocity S-wave (km/s) = 3.62815 4.29167 3.97379
# Velocity P-wave (km/s) = 5.87398 6.97251 6.44668
#
# Compressibility (1/GPa) = 0.02821885
#
# Stress axis : x y z
#
# Youngs Moduli (GPa) = 96.55867 67.08364 68.60916
#
# Poissons Ratio (x) = 0.16433 0.30123
# Poissons Ratio (y) = 0.23654 -0.07069
# Poissons Ratio (z) = 0.42394 -0.06912
#
# Static dielectric constant tensor:
#      x y z
#    x 1.744420 0.000000 -0.002080 
#    y 0.000000 1.781760 0.000000 
#    z -0.002080 0.000000 1.768500 
# 
# From -- ./inp_files/14381.got.cif
#   From: 2010.05.17/outbox.cif.g08.bks.cpg/sg9_8_cif.got.tgz:14381.got - 2010.06.03 20:04:27.
