data_PCOD9136758
_publ_section_title
;
Structure prediction by ZEFSAII (Michael W. Deem and Ramdas Pophale) SiO2 
 PCOD9136758
Probable space group: C C
;
_chemical_formula_sum "Si O2"
_cell_formula_units_Z 24
_cell_length_a 7.741287
_cell_length_b 11.864550
_cell_length_c 10.720594
_cell_angle_alpha 90.000000
_cell_angle_beta 110.950786
_cell_angle_gamma 90.000000
_cell_volume 919.555693
_symmetry_space_group_name_H-M "C C"
_symmetry_group_IT_number 9
_symmetry_cell_setting 'monoclinic'
loop_
_space_group_symop_operation_xyz
x,y,z
x,-y,1/2+z
1/2+x,1/2+y,z
1/2+x,1/2-y,1/2+z
loop_
_atom_site_type_symbol
_atom_site_label
_atom_site_fract_x
_atom_site_fract_y
_atom_site_fract_z
Si Si1 0.216960 0.008671 0.601800
Si Si2 0.605085 0.317382 0.263628
Si Si3 0.342483 0.779589 0.543729
Si Si4 0.278022 0.406775 0.704496
Si Si5 0.798269 0.931379 0.435694
Si Si6 0.625205 0.304654 0.900932
O O1 0.206179 0.072787 0.732602
O O2 0.251337 0.106916 0.508745
O O3 0.345453 0.900994 0.613703
O O4 0.010440 0.967794 0.512521
O O5 0.393227 0.313878 0.160878
O O6 0.650427 0.288632 0.416981
O O7 0.680436 0.211318 0.205792
O O8 0.471620 0.743497 0.459305
O O9 0.219059 0.450044 0.554209
O O10 0.236588 0.489854 0.807052
O O11 0.497240 0.370340 0.767662
O O12 0.741535 0.803226 0.390624
#
# Coordination Sequence:
#
# PCOD9136758 Si02
#       6
#     4   4   4   4   4   4
#     4  10  22  40  69  92 137 180 224 278 349 402
#     4  10  22  45  68  94 145 174 227 291 355 394
#     4  10  21  43  70  96 132 186 220 282 353 409
#     4  10  22  43  73  96 137 185 224 285 351 407
#     4  11  22  44  71  98 137 184 225 287 351 407
#     4   9  21  45  63  94 142 177 220 283 345 405
#
# _framework density 26.09956
#
# number of rings (size 3 to 8) (size 9 to 14) (size 15 to 20)
#    0.000    2.000    3.333    1.000    4.667    2.667 
#    3.000    6.667    0.000    0.000    0.000    0.000 
#    0.000    0.000    0.000    0.000    0.000    0.000 
#
# Total GULP energy -66963.147978 kJ/mol
# GULP energy per Si atom -5580.262331 kJ/mol
# Density = 2.604016 g / cm^3
# Si number density = 26.099560 Si / 1000 Ang^3
#
#
#
# Elastic Constant Matrix: (Units=GPa)
#
#
# Indices 1 2 3 4 5 6 
#
# 1 41.1857 26.6340 19.0444 0.0000 -10.7871 0.0000
# 2 26.6340 133.6621 27.3585 0.0000 -20.0397 0.0000
# 3 19.0444 27.3585 164.5671 0.0000 -6.4991 0.0000
# 4 0.0000 0.0000 0.0000 25.8729 0.0000 -12.3923
# 5 -10.7871 -20.0397 -6.4991 0.0000 29.4139 0.0000
# 6 0.0000 0.0000 0.0000 -12.3923 0.0000 57.3666
#
#
#
# Elastic Compliance Matrix: (Units=1/GPa)
#
#
# Indices 1 2 3 4 5 6 
#
# 1 0.030239 -0.004387 -0.002472 0.000000 0.007555 0.000000
# 2 -0.004387 0.009199 -0.000845 0.000000 0.004472 0.000000
# 3 -0.002472 -0.000845 0.006501 0.000000 -0.000046 0.000000
# 4 0.000000 0.000000 0.000000 0.043111 0.000000 0.009313
# 5 0.007555 0.004472 -0.000046 0.000000 0.039805 0.000000
# 6 0.000000 0.000000 0.000000 0.009313 0.000000 0.019444
#
#
# Mechanical properties :
#
#
# Convention : Reuss Voigt Hill
#
# Bulk Modulus (GPa) = 32.75270 53.94319 43.34795
# Shear Modulus (GPa) = 28.75499 40.28921 34.52210
#
# Velocity S-wave (km/s) = 3.32285 3.93322 3.64085
# Velocity P-wave (km/s) = 5.22477 6.42963 5.85825
#
# Compressibility (1/GPa) = 0.03053183
#
# Stress axis : x y z
#
# Youngs Moduli (GPa) = 33.07015 108.70607 153.81630
#
# Poissons Ratio (x) = 0.47688 0.38019
# Poissons Ratio (y) = 0.14508 0.12998
# Poissons Ratio (z) = 0.08174 0.09186
#
# Static dielectric constant tensor:
#      x y z
#    x 2.175320 0.000000 0.113710 
#    y 0.000000 2.027000 0.000000 
#    z 0.113710 0.000000 2.192540 
# 
# From -- ./inp_files/14165.got.cif
#   From: 2010.05.17/outbox.cif.g08.bks.cpg/sg9_8_cif.got.tgz:14165.got - 2010.06.03 20:04:27.
