data_PCOD9136684
_publ_section_title
;
Structure prediction by ZEFSAII (Michael W. Deem and Ramdas Pophale) SiO2 
 PCOD9136684
Probable space group: C C
;
_chemical_formula_sum "Si O2"
_cell_formula_units_Z 32
_cell_length_a 8.209949
_cell_length_b 13.242292
_cell_length_c 23.567867
_cell_angle_alpha 90.000000
_cell_angle_beta 35.407249
_cell_angle_gamma 90.000000
_cell_volume 1484.535605
_symmetry_space_group_name_H-M "C C"
_symmetry_group_IT_number 9
_symmetry_cell_setting 'monoclinic'
loop_
_space_group_symop_operation_xyz
x,y,z
x,-y,1/2+z
1/2+x,1/2+y,z
1/2+x,1/2-y,1/2+z
loop_
_atom_site_type_symbol
_atom_site_label
_atom_site_fract_x
_atom_site_fract_y
_atom_site_fract_z
Si Si1 0.088760 0.534102 0.268890
Si Si2 0.807669 0.623358 0.633473
Si Si3 0.735218 0.565680 0.081998
Si Si4 0.807462 0.269695 0.478510
Si Si5 0.653001 0.993079 0.626078
Si Si6 0.224158 0.311907 0.267792
Si Si7 0.085009 0.308441 0.574583
Si Si8 0.651147 0.641454 0.474006
O O1 0.403149 0.577149 0.185387
O O2 0.011806 0.544895 0.224319
O O3 0.106202 0.414984 0.275332
O O4 0.890907 0.585730 0.370890
O O5 0.808058 0.548820 0.578593
O O6 0.486407 0.656635 0.734131
O O7 0.000799 0.719713 0.566014
O O8 0.941739 0.560270 0.647525
O O9 0.902651 0.632664 0.079640
O O10 0.804608 0.614856 0.001640
O O11 0.975138 0.260708 0.372865
O O12 0.979354 0.205080 0.475935
O O13 0.745907 0.896430 0.562538
O O14 0.923034 0.062206 0.563433
O O15 0.369123 0.244276 0.178938
O O16 0.246544 0.220233 0.495211
#
# Coordination Sequence:
#
# PCOD9136684 Si02
#       8
#     4   4   4   4   4   4   4   4
#     4  11  23  40  65  92 131 165 214 273 328 387
#     4   9  22  43  63  89 132 170 210 271 320 387
#     4   9  22  43  61  89 129 168 208 274 320 383
#     4  10  22  40  66  90 127 169 218 262 326 393
#     4  10  21  43  65  88 130 175 207 272 330 376
#     4  11  23  40  64  98 123 169 217 265 329 395
#     4  10  21  43  63  89 129 165 219 263 323 399
#     4  10  22  42  61  97 125 167 221 266 322 398
#
# _framework density 21.555562999999999
#
# number of rings (size 3 to 8) (size 9 to 14) (size 15 to 20)
#    0.000    2.000    1.250    0.750    5.250    0.000 
#   20.250    0.000    0.000    0.000    0.000    0.000 
#    0.000    0.000    0.000    0.000    0.000    0.000 
#
# Total GULP energy -89396.338238 kJ/mol
# GULP energy per Si atom -5587.271140 kJ/mol
# Density = 2.150650 g / cm^3
# Si number density = 21.555563 Si / 1000 Ang^3
#
#
#
# Elastic Constant Matrix: (Units=GPa)
#
#
# Indices 1 2 3 4 5 6 
#
# 1 66.1765 24.5791 9.1607 -0.0040 5.2919 -0.0004
# 2 24.5791 67.2694 9.3019 0.0027 5.7690 0.0187
# 3 9.1607 9.3019 67.0658 -0.0103 19.2507 0.0426
# 4 -0.0040 0.0027 -0.0103 31.0480 0.0125 0.8154
# 5 5.2919 5.7690 19.2507 0.0125 24.3459 -0.0002
# 6 -0.0004 0.0187 0.0426 0.8154 -0.0002 27.3839
#
#
#
# Elastic Compliance Matrix: (Units=1/GPa)
#
#
# Indices 1 2 3 4 5 6 
#
# 1 0.017681 -0.006176 -0.001132 0.000003 -0.001484 0.000006
# 2 -0.006176 0.017432 -0.001001 -0.000002 -0.001997 -0.000010
# 3 -0.001132 -0.001001 0.019489 0.000013 -0.014927 -0.000030
# 4 0.000003 -0.000002 0.000013 0.032233 -0.000027 -0.000960
# 5 -0.001484 -0.001997 -0.014927 -0.000027 0.053674 0.000026
# 6 0.000006 -0.000010 -0.000030 -0.000960 0.000026 0.036546
#
#
# Mechanical properties :
#
#
# Convention : Reuss Voigt Hill
#
# Bulk Modulus (GPa) = 26.32823 31.84391 29.08607
# Shear Modulus (GPa) = 24.23246 27.05355 25.64300
#
# Velocity S-wave (km/s) = 3.35653 3.54653 3.45283
# Velocity P-wave (km/s) = 5.22133 5.61921 5.42392
#
# Compressibility (1/GPa) = 0.03798205
#
# Stress axis : x y z
#
# Youngs Moduli (GPa) = 56.55946 57.36589 51.31120
#
# Poissons Ratio (x) = 0.35431 0.05810
# Poissons Ratio (y) = 0.34933 0.05136
# Poissons Ratio (z) = 0.06405 0.05742
#
# Static dielectric constant tensor:
#      x y z
#    x 1.803620 0.000000 0.015510 
#    y 0.000000 1.815980 0.000000 
#    z 0.015510 0.000000 1.732080 
# 
# From -- ./inp_files/14622.got.cif
#   From: 2010.05.17/outbox.cif.g08.bks.cpg/sg9_8_cif.got.tgz:14622.got - 2010.06.03 20:04:27.
