data_PCOD9136580
_publ_section_title
;
Structure prediction by ZEFSAII (Michael W. Deem and Ramdas Pophale) SiO2 
 PCOD9136580
Probable space group: C C
;
_chemical_formula_sum "Si O2"
_cell_formula_units_Z 28
_cell_length_a 12.719942
_cell_length_b 5.346709
_cell_length_c 18.672417
_cell_angle_alpha 90.000000
_cell_angle_beta 47.835416
_cell_angle_gamma 90.000000
_cell_volume 941.280687
_symmetry_space_group_name_H-M "C C"
_symmetry_group_IT_number 9
_symmetry_cell_setting 'monoclinic'
loop_
_space_group_symop_operation_xyz
x,y,z
x,-y,1/2+z
1/2+x,1/2+y,z
1/2+x,1/2-y,1/2+z
loop_
_atom_site_type_symbol
_atom_site_label
_atom_site_fract_x
_atom_site_fract_y
_atom_site_fract_z
Si Si1 0.466300 0.137935 0.245700
Si Si2 0.168941 0.573082 0.478097
Si Si3 0.668684 0.354520 0.234582
Si Si4 0.391626 0.103702 0.041713
Si Si5 0.733775 0.114792 0.727728
Si Si6 0.899338 0.892775 0.752202
Si Si7 0.245576 0.930943 0.972281
O O1 0.475561 0.871013 0.201871
O O2 0.330582 0.122949 0.361463
O O3 0.540899 0.427748 0.225710
O O4 0.379429 0.323545 0.220003
O O5 0.309561 0.620085 0.367314
O O6 0.126475 0.856561 0.517605
O O7 0.054879 0.440900 0.479595
O O8 0.197445 0.344863 0.520477
O O9 0.808414 0.388862 0.122408
O O10 0.652036 0.622744 0.282740
O O11 0.597874 0.067049 0.250109
O O12 0.324284 0.338493 0.112826
O O13 0.348694 0.066370 0.980577
O O14 0.751487 0.833799 0.762151
#
# Coordination Sequence:
#
# PCOD9136580 Si02
#       7
#     4   4   4   4   4   4   4
#     4  10  21  42  65  95 127 170 223 281 327 394
#     4  10  24  43  68  96 130 175 226 271 332 398
#     4  10  23  40  59  98 127 169 220 263 343 398
#     4  10  26  44  66  96 138 176 218 274 344 390
#     4  10  23  40  59  98 127 169 220 263 343 398
#     4  10  21  42  65  95 127 170 223 281 327 394
#     4  10  24  43  68  96 130 175 226 271 332 398
#
# _framework density 29.746704999999999
#
# number of rings (size 3 to 8) (size 9 to 14) (size 15 to 20)
#    0.857    1.143    0.000    1.714    6.000    1.143 
#    0.000    0.000    0.000    0.000    0.000    0.000 
#    0.000    0.000    0.000    0.000    0.000    0.000 
#
# Total GULP energy -78115.104750 kJ/mol
# GULP energy per Si atom -5579.650339 kJ/mol
# Density = 2.967900 g / cm^3
# Si number density = 29.746705 Si / 1000 Ang^3
#
#
#
# Elastic Constant Matrix: (Units=GPa)
#
#
# Indices 1 2 3 4 5 6 
#
# 1 230.7595 73.4384 3.4087 -0.0006 19.9705 0.0041
# 2 73.4384 373.0600 29.9327 -0.0023 -2.5709 0.0111
# 3 3.4087 29.9327 87.0574 -0.0006 -1.4593 0.0008
# 4 -0.0006 -0.0023 -0.0006 38.5958 -0.0009 1.5643
# 5 19.9705 -2.5709 -1.4593 -0.0009 52.3085 0.0004
# 6 0.0041 0.0111 0.0008 1.5643 0.0004 78.8544
#
#
#
# Elastic Compliance Matrix: (Units=1/GPa)
#
#
# Indices 1 2 3 4 5 6 
#
# 1 0.004802 -0.000967 0.000113 0.000000 -0.001878 0.000000
# 2 -0.000967 0.002952 -0.000969 0.000000 0.000487 0.000000
# 3 0.000113 -0.000969 0.011819 0.000000 0.000239 0.000000
# 4 0.000000 0.000000 0.000000 0.025930 0.000000 -0.000514
# 5 -0.001878 0.000487 0.000239 0.000000 0.019865 0.000000
# 6 0.000000 0.000000 0.000000 -0.000514 0.000000 0.012692
#
#
# Mechanical properties :
#
#
# Convention : Reuss Voigt Hill
#
# Bulk Modulus (GPa) = 62.78543 100.49293 81.63918
# Shear Modulus (GPa) = 57.46055 72.89157 65.17606
#
# Velocity S-wave (km/s) = 4.39983 4.95553 4.68593
# Velocity P-wave (km/s) = 6.85302 8.16084 7.53536
#
# Compressibility (1/GPa) = 0.01592726
#
# Stress axis : x y z
#
# Youngs Moduli (GPa) = 208.23744 338.74607 84.60669
#
# Poissons Ratio (x) = 0.32769 -0.00957
# Poissons Ratio (y) = 0.20144 0.08198
# Poissons Ratio (z) = -0.02355 0.32823
#
# Static dielectric constant tensor:
#      x y z
#    x 2.681990 0.000000 0.100730 
#    y 0.000000 2.439430 0.000000 
#    z 0.100730 0.000000 2.051520 
# 
# From -- ./inp_files/33459.got.cif
#   From: 2010.05.17/outbox.cif.g08.bks.cpg/sg9_17_cif.got.tgz:33459.got - 2010.06.03 20:04:27.
