data_PCOD9136325
_publ_section_title
;
Structure prediction by ZEFSAII (Michael W. Deem and Ramdas Pophale) SiO2 
 PCOD9136325
Probable space group: C C
;
_chemical_formula_sum "Si O2"
_cell_formula_units_Z 32
_cell_length_a 5.436293
_cell_length_b 23.911580
_cell_length_c 9.753515
_cell_angle_alpha 90.000000
_cell_angle_beta 79.335218
_cell_angle_gamma 90.000000
_cell_volume 1245.962745
_symmetry_space_group_name_H-M "C C"
_symmetry_group_IT_number 9
_symmetry_cell_setting 'monoclinic'
loop_
_space_group_symop_operation_xyz
x,y,z
x,-y,1/2+z
1/2+x,1/2+y,z
1/2+x,1/2-y,1/2+z
loop_
_atom_site_type_symbol
_atom_site_label
_atom_site_fract_x
_atom_site_fract_y
_atom_site_fract_z
Si Si1 0.111820 0.058268 0.153850
Si Si2 0.884215 0.805329 0.527802
Si Si3 0.447617 0.530561 0.472765
Si Si4 0.400564 0.954287 0.121530
Si Si5 0.304945 0.851578 0.282377
Si Si6 0.213334 0.276041 0.163948
Si Si7 0.913262 0.339084 0.702239
Si Si8 0.164605 0.810088 0.993290
O O1 0.216083 0.121066 0.143847
O O2 0.965293 0.041432 0.308642
O O3 0.361168 0.020056 0.148196
O O4 0.976094 0.032572 0.033402
O O5 0.007060 0.768542 0.636148
O O6 0.688334 0.849275 0.612712
O O7 0.750917 0.753859 0.462343
O O8 0.096461 0.830267 0.407139
O O9 0.683105 0.556986 0.530995
O O10 0.183121 0.555366 0.547486
O O11 0.341369 0.917699 0.262022
O O12 0.574652 0.821793 0.270526
O O13 0.226195 0.831738 0.138300
O O14 0.407987 0.228649 0.189741
O O15 0.360722 0.307548 0.024707
O O16 0.820118 0.345114 0.866959
#
# Coordination Sequence:
#
# PCOD9136325 Si02
#       8
#     4   4   4   4   4   4   4   4
#     4  10  26  45  75 104 147 191 248 309 374 444
#     4  10  22  41  60 102 139 179 233 289 362 432
#     4  10  25  50  71 111 137 192 245 308 373 443
#     4  10  26  45  73 105 138 192 242 305 365 448
#     4  11  23  41  67  96 139 185 233 304 357 445
#     4  10  22  37  64 100 135 185 231 295 359 437
#     4  11  23  43  68 100 138 187 237 302 366 439
#     4  10  21  40  66  98 135 183 237 290 362 438
#
# _framework density 25.682952
#
# number of rings (size 3 to 8) (size 9 to 14) (size 15 to 20)
#    0.750    1.000    0.000    3.750    5.250    5.000 
#    2.250    0.000    0.000    0.000    0.000    0.000 
#    0.000    0.000    0.000    0.000    0.000    0.000 
#
# Total GULP energy -89182.930011 kJ/mol
# GULP energy per Si atom -5573.933126 kJ/mol
# Density = 2.562450 g / cm^3
# Si number density = 25.682952 Si / 1000 Ang^3
#
#
#
# Elastic Constant Matrix: (Units=GPa)
#
#
# Indices 1 2 3 4 5 6 
#
# 1 78.1960 11.0936 24.6113 0.0000 -40.2984 0.0000
# 2 11.0936 74.7991 31.4920 0.0000 -14.4219 0.0000
# 3 24.6113 31.4920 129.1108 0.0000 -44.6111 0.0000
# 4 0.0000 0.0000 0.0000 22.9174 0.0000 1.7901
# 5 -40.2984 -14.4219 -44.6111 0.0000 44.1676 0.0000
# 6 0.0000 0.0000 0.0000 1.7901 0.0000 -2.2397
#
#
#
# Elastic Compliance Matrix: (Units=1/GPa)
#
#
# Indices 1 2 3 4 5 6 
#
# 1 0.026092 -0.000460 0.005088 0.000000 0.028795 0.000000
# 2 -0.000460 0.015005 -0.003110 0.000000 0.001339 0.000000
# 3 0.005088 -0.003110 0.013498 0.000000 0.017260 0.000000
# 4 0.000000 0.000000 0.000000 0.041071 0.000000 0.032826
# 5 0.028795 0.001339 0.017260 0.000000 0.066784 0.000000
# 6 0.000000 0.000000 0.000000 0.032826 0.000000 -0.420243
#
#
# Mechanical properties :
#
#
# Convention : Reuss Voigt Hill
#
# Bulk Modulus (GPa) = 17.35184 46.27775 31.81479
# Shear Modulus (GPa) = -20.69350 27.29634 3.30142
#
# Velocity S-wave (km/s) = -2.84162 3.26363 1.13501
# Velocity P-wave (km/s) = 1.99889 5.67976 3.75926
#
# Compressibility (1/GPa) = 0.05763079
#
# Stress axis : x y z
#
# Youngs Moduli (GPa) = 38.32652 66.64577 74.08694
#
# Poissons Ratio (x) = 0.03065 -0.37694
# Poissons Ratio (y) = 0.01763 0.23037
# Poissons Ratio (z) = -0.19500 0.20724
#
# Static dielectric constant tensor:
#      x y z
#    x 2.297730 0.000000 0.022030 
#    y 0.000000 2.076200 0.000000 
#    z 0.022030 0.000000 2.079520 
# 
# From -- ./inp_files/13874.got.cif
#   From: 2010.05.17/outbox.cif.g08.bks.cpg/sg9_7_cif.got.tgz:13874.got - 2010.06.03 20:04:27.
