data_PCOD9136309
_publ_section_title
;
Structure prediction by ZEFSAII (Michael W. Deem and Ramdas Pophale) SiO2 
 PCOD9136309
Probable space group: C C
;
_chemical_formula_sum "Si O2"
_cell_formula_units_Z 32
_cell_length_a 8.520840
_cell_length_b 21.623563
_cell_length_c 10.058354
_cell_angle_alpha 90.000000
_cell_angle_beta 63.788076
_cell_angle_gamma 90.000000
_cell_volume 1662.683609
_symmetry_space_group_name_H-M "C C"
_symmetry_group_IT_number 9
_symmetry_cell_setting 'monoclinic'
loop_
_space_group_symop_operation_xyz
x,y,z
x,-y,1/2+z
1/2+x,1/2+y,z
1/2+x,1/2-y,1/2+z
loop_
_atom_site_type_symbol
_atom_site_label
_atom_site_fract_x
_atom_site_fract_y
_atom_site_fract_z
Si Si1 0.366840 0.183862 0.024670
Si Si2 0.948890 0.103154 0.536266
Si Si3 0.032225 0.493590 0.821885
Si Si4 0.169793 0.301361 0.213904
Si Si5 0.099701 0.961526 0.223781
Si Si6 0.257170 0.497006 0.493344
Si Si7 0.273728 0.086608 0.267114
Si Si8 0.866010 0.380416 0.270313
O O1 0.252322 0.239274 0.125582
O O2 0.381686 0.130534 0.129409
O O3 0.555835 0.203567 0.892352
O O4 0.274908 0.153589 0.929171
O O5 0.833579 0.151628 0.660258
O O6 0.820406 0.067474 0.485345
O O7 0.028827 0.050901 0.603468
O O8 0.113004 0.125367 0.389075
O O9 0.188293 0.476832 0.662309
O O10 0.103026 0.502437 0.942886
O O11 0.886690 0.442686 0.844317
O O12 0.959019 0.559175 0.798354
O O13 0.022333 0.333477 0.173587
O O14 0.232237 0.906918 0.214173
O O15 0.194019 0.027336 0.216488
O O16 0.925773 0.960508 0.379426
#
# Coordination Sequence:
#
# PCOD9136309 Si02
#       8
#     4   4   4   4   4   4   4   4
#     4  10  21  40  66  91 115 171 208 264 307 382
#     4  11  22  37  58  91 125 172 203 262 310 376
#     4  11  21  36  61  94 132 166 210 255 329 381
#     4  10  21  40  66  84 125 166 218 253 320 372
#     4  10  22  36  59  93 130 163 205 261 319 380
#     4  11  20  35  57  92 128 170 204 258 315 385
#     4  10  24  33  63  92 130 161 211 254 321 384
#     4   9  21  37  64  85 123 165 207 259 317 366
#
# _framework density 19.245995000000001
#
# number of rings (size 3 to 8) (size 9 to 14) (size 15 to 20)
#    0.750    1.000    2.500    1.500   10.500    0.000 
#    0.000    0.000    8.250    0.000    0.000    0.000 
#    0.000    0.000    0.000    0.000    0.000    0.000 
#
# Total GULP energy -89135.981234 kJ/mol
# GULP energy per Si atom -5570.998827 kJ/mol
# Density = 1.920219 g / cm^3
# Si number density = 19.245995 Si / 1000 Ang^3
#
#
#
# Elastic Constant Matrix: (Units=GPa)
#
#
# Indices 1 2 3 4 5 6 
#
# 1 79.1468 39.3059 23.9273 0.0000 -6.2574 0.0000
# 2 39.3059 77.2467 31.2959 0.0000 -13.1653 0.0000
# 3 23.9273 31.2959 85.2315 0.0000 -28.2275 0.0000
# 4 0.0000 0.0000 0.0000 32.9084 0.0000 -8.9874
# 5 -6.2574 -13.1653 -28.2275 0.0000 41.2861 0.0000
# 6 0.0000 0.0000 0.0000 -8.9874 0.0000 27.0464
#
#
#
# Elastic Compliance Matrix: (Units=1/GPa)
#
#
# Indices 1 2 3 4 5 6 
#
# 1 0.017245 -0.008073 -0.002410 0.000000 -0.001608 0.000000
# 2 -0.008073 0.019044 -0.004034 0.000000 0.002091 0.000000
# 3 -0.002410 -0.004034 0.017249 0.000000 0.010142 0.000000
# 4 0.000000 0.000000 0.000000 0.033420 0.000000 0.011105
# 5 -0.001608 0.002091 0.010142 0.000000 0.031578 0.000000
# 6 0.000000 0.000000 0.000000 0.011105 0.000000 0.040664
#
#
# Mechanical properties :
#
#
# Convention : Reuss Voigt Hill
#
# Bulk Modulus (GPa) = 40.80641 47.85367 44.33004
# Shear Modulus (GPa) = 25.45799 30.05457 27.75628
#
# Velocity S-wave (km/s) = 3.64093 3.95600 3.80173
# Velocity P-wave (km/s) = 6.23889 6.76644 6.50802
#
# Compressibility (1/GPa) = 0.02450595
#
# Stress axis : x y z
#
# Youngs Moduli (GPa) = 57.98708 52.51005 57.97366
#
# Poissons Ratio (x) = 0.42390 0.13969
# Poissons Ratio (y) = 0.46812 0.23385
# Poissons Ratio (z) = 0.13973 0.21181
#
# Static dielectric constant tensor:
#      x y z
#    x 1.687200 0.000000 -0.045410 
#    y 0.000000 1.677060 0.000000 
#    z -0.045410 0.000000 1.725080 
# 
# From -- ./inp_files/6028.got.cif
#   From: 2010.05.17/outbox.cif.g08.bks.cpg/sg9_4_cif.got.tgz:6028.got - 2010.06.03 20:04:27.
