data_PCOD9136068
_publ_section_title
;
Structure prediction by ZEFSAII (Michael W. Deem and Ramdas Pophale) SiO2 
 PCOD9136068
Probable space group: C C
;
_chemical_formula_sum "Si O2"
_cell_formula_units_Z 32
_cell_length_a 11.917239
_cell_length_b 10.054566
_cell_length_c 15.458745
_cell_angle_alpha 90.000000
_cell_angle_beta 39.770261
_cell_angle_gamma 90.000000
_cell_volume 1184.941533
_symmetry_space_group_name_H-M "C C"
_symmetry_group_IT_number 9
_symmetry_cell_setting 'monoclinic'
loop_
_space_group_symop_operation_xyz
x,y,z
x,-y,1/2+z
1/2+x,1/2+y,z
1/2+x,1/2-y,1/2+z
loop_
_atom_site_type_symbol
_atom_site_label
_atom_site_fract_x
_atom_site_fract_y
_atom_site_fract_z
Si Si1 0.737270 0.828264 0.156550
Si Si2 0.358594 0.734746 0.402270
Si Si3 0.502843 0.236686 0.278516
Si Si4 0.265219 0.475378 0.390183
Si Si5 0.411603 0.559462 0.134079
Si Si6 0.746446 0.580264 0.523831
Si Si7 0.372168 0.942718 0.627491
Si Si8 0.244741 0.186846 0.782497
O O1 0.539049 0.813368 0.307341
O O2 0.838112 0.969309 0.099635
O O3 0.844594 0.714746 0.144622
O O4 0.740302 0.774488 0.056715
O O5 0.394713 0.579323 0.359456
O O6 0.265025 0.783930 0.370938
O O7 0.344277 0.331595 0.347135
O O8 0.655230 0.285330 0.121111
O O9 0.400286 0.101444 0.361666
O O10 0.572121 0.272852 0.333299
O O11 0.262919 0.520454 0.292712
O O12 0.069126 0.477112 0.538517
O O13 0.588513 0.499637 0.070351
O O14 0.390008 0.718901 0.147323
O O15 0.821457 0.501955 0.563029
O O16 0.259202 0.030240 0.759379
#
# Coordination Sequence:
#
# PCOD9136068 Si02
#       8
#     4   4   4   4   4   4   4   4
#     4  12  25  44  67 101 139 180 225 286 349 413
#     4  11  24  42  67  99 137 180 229 282 347 414
#     4  10  21  38  66  98 134 174 223 280 343 408
#     4  10  21  42  67  99 136 177 224 286 345 414
#     4  10  22  42  67  96 135 178 229 282 343 411
#     4  10  21  39  65  97 133 177 224 280 343 413
#     4  11  22  42  70  97 137 180 225 282 347 413
#     4  10  22  45  71 101 135 182 233 286 343 416
#
# _framework density 27.005552000000002
#
# number of rings (size 3 to 8) (size 9 to 14) (size 15 to 20)
#    0.000    1.500    0.000    6.750    0.000    4.000 
#    0.000   16.250    0.000    0.000    0.000    0.000 
#    0.000    0.000    0.000    0.000    0.000    0.000 
#
# Total GULP energy -89468.249555 kJ/mol
# GULP energy per Si atom -5591.765597 kJ/mol
# Density = 2.694409 g / cm^3
# Si number density = 27.005552 Si / 1000 Ang^3
#
#
#
# Elastic Constant Matrix: (Units=GPa)
#
#
# Indices 1 2 3 4 5 6 
#
# 1 94.1347 21.2442 14.1252 0.0000 -3.8193 0.0000
# 2 21.2442 83.6187 20.8937 0.0000 17.9751 0.0000
# 3 14.1252 20.8937 80.3063 -0.0001 -11.9345 0.0001
# 4 0.0000 0.0000 -0.0001 32.4807 0.0001 6.1289
# 5 -3.8193 17.9751 -11.9345 0.0001 35.8724 0.0000
# 6 0.0000 0.0000 0.0001 6.1289 0.0000 39.3588
#
#
#
# Elastic Compliance Matrix: (Units=1/GPa)
#
#
# Indices 1 2 3 4 5 6 
#
# 1 0.011596 -0.003316 -0.000785 0.000000 0.002635 0.000000
# 2 -0.003316 0.016297 -0.005179 0.000000 -0.010243 0.000000
# 3 -0.000785 -0.005179 0.015056 0.000000 0.007520 0.000000
# 4 0.000000 0.000000 0.000000 0.031720 0.000000 -0.004939
# 5 0.002635 -0.010243 0.007520 0.000000 0.035792 0.000000
# 6 0.000000 0.000000 0.000000 -0.004939 0.000000 0.026176
#
#
# Mechanical properties :
#
#
# Convention : Reuss Voigt Hill
#
# Bulk Modulus (GPa) = 41.00389 41.17619 41.09004
# Shear Modulus (GPa) = 30.61335 34.99548 32.80442
#
# Velocity S-wave (km/s) = 3.37054 3.60371 3.48908
# Velocity P-wave (km/s) = 5.51034 5.70930 5.61070
#
# Compressibility (1/GPa) = 0.02438793
#
# Stress axis : x y z
#
# Youngs Moduli (GPa) = 86.23469 61.35916 66.42088
#
# Poissons Ratio (x) = 0.20349 0.05215
# Poissons Ratio (y) = 0.28599 0.34400
# Poissons Ratio (z) = 0.06771 0.31778
#
# Static dielectric constant tensor:
#      x y z
#    x 2.052900 0.000000 0.039300 
#    y 0.000000 2.195130 0.000000 
#    z 0.039300 0.000000 2.088610 
# 
# From -- ./inp_files/30064.got.cif
#   From: 2010.05.17/outbox.cif.g08.bks.cpg/sg9_16_cif.got.tgz:30064.got - 2010.06.03 20:04:27.
