data_PCOD9136485
_publ_section_title
;
Structure prediction by ZEFSAII (Michael W. Deem and Ramdas Pophale) SiO2 
 PCOD9136485
Probable space group: C C
;
_chemical_formula_sum "Si O2"
_cell_formula_units_Z 24
_cell_length_a 8.097668
_cell_length_b 12.387207
_cell_length_c 9.610596
_cell_angle_alpha 90.000000
_cell_angle_beta 100.461115
_cell_angle_gamma 90.000000
_cell_volume 947.991252
_symmetry_space_group_name_H-M "C C"
_symmetry_group_IT_number 9
_symmetry_cell_setting 'monoclinic'
loop_
_space_group_symop_operation_xyz
x,y,z
x,-y,1/2+z
1/2+x,1/2+y,z
1/2+x,1/2-y,1/2+z
loop_
_atom_site_type_symbol
_atom_site_label
_atom_site_fract_x
_atom_site_fract_y
_atom_site_fract_z
Si Si1 0.391640 0.538324 0.242940
Si Si2 0.219696 0.215818 0.431276
Si Si3 0.177246 0.450932 0.436770
Si Si4 0.467777 0.135079 0.247977
Si Si5 0.720372 0.525259 0.630444
Si Si6 0.799206 0.739377 0.731882
O O1 0.338793 0.458992 0.357776
O O2 0.557768 0.519531 0.181203
O O3 0.394212 0.659281 0.309243
O O4 0.240798 0.531268 0.104354
O O5 0.114465 0.327201 0.407367
O O6 0.320938 0.195124 0.308100
O O7 0.349847 0.248522 0.576334
O O8 0.173013 0.099358 0.491665
O O9 0.062159 0.549605 0.364878
O O10 0.363804 0.062313 0.122421
O O11 0.603891 0.221378 0.216903
O O12 0.794762 0.612711 0.752400
#
# Coordination Sequence:
#
# PCOD9136485 Si02
#       6
#     4   4   4   4   4   4
#     4  10  21  41  67  93 129 172 209 272 321 382
#     4   9  22  39  62  93 129 158 224 261 311 390
#     4  10  23  43  68  92 136 169 216 264 332 382
#     4  11  22  41  68  89 128 176 209 266 326 383
#     4  10  23  39  65  92 130 164 221 262 320 379
#     4   8  21  41  60  93 128 157 217 259 320 382
#
# _framework density 25.316689
#
# number of rings (size 3 to 8) (size 9 to 14) (size 15 to 20)
#    1.000    1.333    0.000    1.000    9.333    1.333 
#    3.000    3.333    0.000    0.000    0.000    0.000 
#    0.000    0.000    0.000    0.000    0.000    0.000 
#
# Total GULP energy -66852.833669 kJ/mol
# GULP energy per Si atom -5571.069472 kJ/mol
# Density = 2.525907 g / cm^3
# Si number density = 25.316689 Si / 1000 Ang^3
#
#
#
# Elastic Constant Matrix: (Units=GPa)
#
#
# Indices 1 2 3 4 5 6 
#
# 1 50.9531 9.4852 9.0306 0.0000 -3.2171 0.0000
# 2 9.4852 94.7578 2.6561 0.0000 -6.8666 0.0000
# 3 9.0306 2.6561 67.5937 0.0000 -3.4566 0.0000
# 4 0.0000 0.0000 0.0000 33.3919 0.0000 -6.7263
# 5 -3.2171 -6.8666 -3.4566 0.0000 34.5562 0.0000
# 6 0.0000 0.0000 0.0000 -6.7263 0.0000 30.3273
#
#
#
# Elastic Compliance Matrix: (Units=1/GPa)
#
#
# Indices 1 2 3 4 5 6 
#
# 1 0.020519 -0.001889 -0.002602 0.000000 0.001275 0.000000
# 2 -0.001889 0.010888 -0.000074 0.000000 0.001980 0.000000
# 3 -0.002602 -0.000074 0.015209 0.000000 0.001264 0.000000
# 4 0.000000 0.000000 0.000000 0.031348 0.000000 0.006953
# 5 0.001275 0.001980 0.001264 0.000000 0.029577 0.000000
# 6 0.000000 0.000000 0.000000 0.006953 0.000000 0.034516
#
#
# Mechanical properties :
#
#
# Convention : Reuss Voigt Hill
#
# Bulk Modulus (GPa) = 26.67611 28.40536 27.54074
# Shear Modulus (GPa) = 30.54698 32.46391 31.50544
#
# Velocity S-wave (km/s) = 3.47738 3.58482 3.53151
# Velocity P-wave (km/s) = 5.16553 5.32719 5.24698
#
# Compressibility (1/GPa) = 0.03748672
#
# Stress axis : x y z
#
# Youngs Moduli (GPa) = 48.73508 91.84546 65.74843
#
# Poissons Ratio (x) = 0.17346 0.17108
# Poissons Ratio (y) = 0.09204 0.00488
# Poissons Ratio (z) = 0.12681 0.00682
#
# Static dielectric constant tensor:
#      x y z
#    x 2.180990 0.000000 0.154760 
#    y 0.000000 2.024380 0.000000 
#    z 0.154760 0.000000 2.055310 
# 
# From -- ./inp_files/14200.got.cif
#   From: 2010.05.17/outbox.cif.g08.bks.cpg/sg9_8_cif.got.tgz:14200.got - 2010.06.03 20:04:27.
