data_PCOD9136841
_publ_section_title
;
Structure prediction by ZEFSAII (Michael W. Deem and Ramdas Pophale) SiO2 
 PCOD9136841
Probable space group: C C
;
_chemical_formula_sum "Si O2"
_cell_formula_units_Z 32
_cell_length_a 6.522274
_cell_length_b 15.598688
_cell_length_c 13.451941
_cell_angle_alpha 90.000000
_cell_angle_beta 77.209321
_cell_angle_gamma 90.000000
_cell_volume 1334.624977
_symmetry_space_group_name_H-M "C C"
_symmetry_group_IT_number 9
_symmetry_cell_setting 'monoclinic'
loop_
_space_group_symop_operation_xyz
x,y,z
x,-y,1/2+z
1/2+x,1/2+y,z
1/2+x,1/2-y,1/2+z
loop_
_atom_site_type_symbol
_atom_site_label
_atom_site_fract_x
_atom_site_fract_y
_atom_site_fract_z
Si Si1 0.373760 0.875657 0.009300
Si Si2 0.550422 0.787727 0.183291
Si Si3 0.154279 0.286435 0.812782
Si Si4 0.482005 0.526103 0.581579
Si Si5 0.260830 0.129473 0.057552
Si Si6 0.037192 0.545564 0.894362
Si Si7 0.911398 0.118718 0.772830
Si Si8 0.550845 0.952656 0.692229
O O1 0.418305 0.842737 0.116152
O O2 0.121883 0.896157 0.017346
O O3 0.511556 0.814798 0.922175
O O4 0.472377 0.967643 0.971748
O O5 0.399890 0.738338 0.277565
O O6 0.670114 0.717935 0.103437
O O7 0.728081 0.839511 0.223256
O O8 0.138036 0.367667 0.739446
O O9 0.046612 0.197786 0.792057
O O10 0.583216 0.436358 0.541764
O O11 0.526416 0.549700 0.692177
O O12 0.235005 0.503402 0.613740
O O13 0.378717 0.085618 0.137745
O O14 0.422223 0.129131 0.948855
O O15 0.283743 0.565473 0.868137
O O16 0.974825 0.513707 0.790706
#
# Coordination Sequence:
#
# PCOD9136841 Si02
#       8
#     4   4   4   4   4   4   4   4
#     4  10  24  46  67 101 141 181 241 288 353 430
#     4  12  25  43  71 100 141 186 228 300 354 411
#     4  11  23  45  66 102 139 180 234 293 346 424
#     4  10  22  42  67  96 135 179 230 277 351 414
#     4  11  23  44  69 101 135 185 231 287 354 417
#     4   9  24  41  64 102 133 176 238 276 344 438
#     4  11  24  43  67  97 137 183 227 287 359 415
#     4  10  21  44  69  95 143 178 227 294 345 413
#
# _framework density 23.976773000000001
#
# number of rings (size 3 to 8) (size 9 to 14) (size 15 to 20)
#    0.000    1.500    3.750    0.000    8.750    2.000 
#    0.000    6.250    0.000    0.000    0.000    0.000 
#    0.000    0.000    0.000    0.000    0.000    0.000 
#
# Total GULP energy -89216.397724 kJ/mol
# GULP energy per Si atom -5576.024858 kJ/mol
# Density = 2.392220 g / cm^3
# Si number density = 23.976773 Si / 1000 Ang^3
#
#
#
# Elastic Constant Matrix: (Units=GPa)
#
#
# Indices 1 2 3 4 5 6 
#
# 1 57.7990 12.6136 26.3275 0.0000 -1.7736 0.0000
# 2 12.6136 69.3682 20.1756 0.0000 -6.0839 0.0000
# 3 26.3275 20.1756 95.3668 0.0000 -19.0672 0.0000
# 4 0.0000 0.0000 0.0000 49.3209 0.0000 -7.5460
# 5 -1.7736 -6.0839 -19.0672 0.0000 38.7976 0.0000
# 6 0.0000 0.0000 0.0000 -7.5460 0.0000 42.4624
#
#
#
# Elastic Compliance Matrix: (Units=1/GPa)
#
#
# Indices 1 2 3 4 5 6 
#
# 1 0.020254 -0.002259 -0.005544 0.000000 -0.002153 0.000000
# 2 -0.002259 0.015641 -0.002457 0.000000 0.001142 0.000000
# 3 -0.005544 -0.002457 0.013760 0.000000 0.006124 0.000000
# 4 0.000000 0.000000 0.000000 0.020842 0.000000 0.003704
# 5 -0.002153 0.001142 0.006124 0.000000 0.028865 0.000000
# 6 0.000000 0.000000 0.000000 0.003704 0.000000 0.024208
#
#
# Mechanical properties :
#
#
# Convention : Reuss Voigt Hill
#
# Bulk Modulus (GPa) = 34.32269 37.86307 36.09288
# Shear Modulus (GPa) = 32.50914 37.01064 34.75989
#
# Velocity S-wave (km/s) = 3.68619 3.93314 3.81167
# Velocity P-wave (km/s) = 5.69767 6.03754 5.87007
#
# Compressibility (1/GPa) = 0.02913524
#
# Stress axis : x y z
#
# Youngs Moduli (GPa) = 49.37416 63.93280 72.67189
#
# Poissons Ratio (x) = 0.14444 0.40288
# Poissons Ratio (y) = 0.11155 0.17856
# Poissons Ratio (z) = 0.27372 0.15709
#
# Static dielectric constant tensor:
#      x y z
#    x 1.983900 0.000000 -0.045900 
#    y 0.000000 1.900530 0.000000 
#    z -0.045900 0.000000 1.995590 
# 
# From -- ./inp_files/21936.got.cif
#   From: 2010.05.17/outbox.cif.g08.bks.cpg/sg9_11_cif.got.tgz:21936.got - 2010.06.03 20:04:27.
