data_PCOD9136465
_publ_section_title
;
Structure prediction by ZEFSAII (Michael W. Deem and Ramdas Pophale) SiO2 
 PCOD9136465
Probable space group: C C
;
_chemical_formula_sum "Si O2"
_cell_formula_units_Z 24
_cell_length_a 24.854370
_cell_length_b 5.229336
_cell_length_c 18.169718
_cell_angle_alpha 90.000000
_cell_angle_beta 151.211123
_cell_angle_gamma 90.000000
_cell_volume 1137.284533
_symmetry_space_group_name_H-M "C C"
_symmetry_group_IT_number 9
_symmetry_cell_setting 'monoclinic'
loop_
_space_group_symop_operation_xyz
x,y,z
x,-y,1/2+z
1/2+x,1/2+y,z
1/2+x,1/2-y,1/2+z
loop_
_atom_site_type_symbol
_atom_site_label
_atom_site_fract_x
_atom_site_fract_y
_atom_site_fract_z
Si Si1 0.763890 0.724329 0.298600
Si Si2 0.685284 0.715643 0.455621
Si Si3 0.352646 0.877928 0.598421
Si Si4 0.747390 0.777766 0.106059
Si Si5 0.171669 0.270323 0.763751
Si Si6 0.495494 0.967138 0.141427
O O1 0.768982 0.734631 0.216831
O O2 0.688095 0.490588 0.238330
O O3 0.886873 0.668343 0.478331
O O4 0.716003 0.991547 0.269921
O O5 0.803286 0.662332 0.555490
O O6 0.670908 0.453076 0.483188
O O7 0.590872 0.772607 0.282784
O O8 0.696471 0.949405 0.524903
O O9 0.356521 0.753120 0.683522
O O10 0.251636 0.749344 0.431425
O O11 0.455173 0.889329 0.666983
O O12 0.049872 0.339598 0.648262
#
# Coordination Sequence:
#
# PCOD9136465 Si02
#       6
#     4   4   4   4   4   4
#     4  11  26  43  64  95 136 163 211 273 317 376
#     4  10  21  41  66  93 123 166 211 258 314 376
#     4   9  23  40  69  90 129 159 221 260 308 376
#     4  10  22  46  61  92 135 161 202 277 321 355
#     4  11  23  42  65  96 128 172 212 261 318 384
#     4  11  21  42  69  94 121 173 221 251 316 385
#
# _framework density 21.102900000000002
#
# number of rings (size 3 to 8) (size 9 to 14) (size 15 to 20)
#    1.000    0.667    1.667    3.000    0.000    8.000 
#    6.000    0.000    0.000    0.000    0.000    0.000 
#    0.000    0.000    0.000    0.000    0.000    0.000 
#
# Total GULP energy -66967.758511 kJ/mol
# GULP energy per Si atom -5580.646543 kJ/mol
# Density = 2.105487 g / cm^3
# Si number density = 21.102900 Si / 1000 Ang^3
#
#
#
# Elastic Constant Matrix: (Units=GPa)
#
#
# Indices 1 2 3 4 5 6 
#
# 1 151.3886 37.1615 37.6794 -0.0001 -28.7675 0.0000
# 2 37.1615 129.0971 22.3673 -0.0002 -15.3326 0.0000
# 3 37.6794 22.3673 44.0434 -0.0001 -6.6097 0.0000
# 4 -0.0001 -0.0002 -0.0001 21.1881 0.0000 -1.9870
# 5 -28.7675 -15.3326 -6.6097 0.0000 35.3450 0.0000
# 6 0.0000 0.0000 0.0000 -1.9870 0.0000 36.3476
#
#
#
# Elastic Compliance Matrix: (Units=1/GPa)
#
#
# Indices 1 2 3 4 5 6 
#
# 1 0.009734 -0.000855 -0.006956 0.000000 0.006251 0.000000
# 2 -0.000855 0.008881 -0.003401 0.000000 0.002521 0.000000
# 3 -0.006956 -0.003401 0.030158 0.000000 -0.001497 0.000000
# 4 0.000000 0.000000 0.000000 0.047440 0.000000 0.002593
# 5 0.006251 0.002521 -0.001497 0.000000 0.034194 0.000000
# 6 0.000000 0.000000 0.000000 0.002593 0.000000 0.027654
#
#
# Mechanical properties :
#
#
# Convention : Reuss Voigt Hill
#
# Bulk Modulus (GPa) = 37.94884 57.66060 47.80472
# Shear Modulus (GPa) = 26.41778 33.73085 30.07432
#
# Velocity S-wave (km/s) = 3.54200 4.00234 3.77918
# Velocity P-wave (km/s) = 5.89487 6.98148 6.46106
#
# Compressibility (1/GPa) = 0.02635127
#
# Stress axis : x y z
#
# Youngs Moduli (GPa) = 102.72818 112.60381 33.15877
#
# Poissons Ratio (x) = 0.09622 0.23064
# Poissons Ratio (y) = 0.08778 0.11276
# Poissons Ratio (z) = 0.71455 0.38293
#
# Static dielectric constant tensor:
#      x y z
#    x 1.805820 0.000000 0.037710 
#    y 0.000000 1.793150 0.000000 
#    z 0.037710 0.000000 1.736590 
# 
# From -- ./inp_files/19625.got.cif
#   From: 2010.05.17/outbox.cif.g08.bks.cpg/sg9_10_cif.got.tgz:19625.got - 2010.06.03 20:04:27.
