data_PCOD9136113
_publ_section_title
;
Structure prediction by ZEFSAII (Michael W. Deem and Ramdas Pophale) SiO2 
 PCOD9136113
Probable space group: C C
;
_chemical_formula_sum "Si O2"
_cell_formula_units_Z 32
_cell_length_a 24.373052
_cell_length_b 5.482864
_cell_length_c 25.810321
_cell_angle_alpha 90.000000
_cell_angle_beta 157.453647
_cell_angle_gamma 90.000000
_cell_volume 1322.506207
_symmetry_space_group_name_H-M "C C"
_symmetry_group_IT_number 9
_symmetry_cell_setting 'monoclinic'
loop_
_space_group_symop_operation_xyz
x,y,z
x,-y,1/2+z
1/2+x,1/2+y,z
1/2+x,1/2-y,1/2+z
loop_
_atom_site_type_symbol
_atom_site_label
_atom_site_fract_x
_atom_site_fract_y
_atom_site_fract_z
Si Si1 0.060950 0.146487 0.404150
Si Si2 0.472587 0.244318 0.080287
Si Si3 0.525703 0.017382 0.013714
Si Si4 0.363832 0.372694 0.416854
Si Si5 0.479451 0.470090 0.228032
Si Si6 0.696676 0.506875 0.334956
Si Si7 0.325837 0.674862 0.282253
Si Si8 0.667905 0.155504 0.459882
O O1 0.969626 0.127943 0.271368
O O2 0.120870 0.421854 0.453043
O O3 0.953173 0.087159 0.356503
O O4 0.168517 0.914089 0.492206
O O5 0.502677 0.155235 0.048216
O O6 0.611832 0.277420 0.235921
O O7 0.406657 0.506721 0.008656
O O8 0.345734 0.076174 0.990340
O O9 0.673933 0.128019 0.122607
O O10 0.391424 0.066983 0.858422
O O11 0.507498 0.742095 0.016497
O O12 0.308858 0.535927 0.321972
O O13 0.243425 0.179351 0.328647
O O14 0.583905 0.598733 0.278400
O O15 0.559337 0.226160 0.318910
O O16 0.322760 0.407793 0.072365
#
# Coordination Sequence:
#
# PCOD9136113 Si02
#       8
#     4   4   4   4   4   4   4   4
#     4  10  27  44  72 100 139 180 232 290 347 409
#     4  10  21  39  61  95 132 170 220 265 335 401
#     4  10  22  39  62  92 133 170 222 270 334 404
#     4  10  22  39  63 100 131 173 223 274 338 409
#     4  10  25  43  71 101 138 183 236 286 349 413
#     4  11  22  41  67  95 133 178 215 283 334 411
#     4  11  24  40  67  95 129 179 221 283 338 407
#     4  10  25  47  69 102 137 179 235 289 343 414
#
# _framework density 24.196483000000001
#
# number of rings (size 3 to 8) (size 9 to 14) (size 15 to 20)
#    0.750    1.000    0.000    3.750    5.250    4.000 
#    0.000    0.000    0.000    0.000    0.000    0.000 
#    0.000    0.000    0.000    0.000    0.000    0.000 
#
# Total GULP energy -89170.748576 kJ/mol
# GULP energy per Si atom -5573.171786 kJ/mol
# Density = 2.414141 g / cm^3
# Si number density = 24.196483 Si / 1000 Ang^3
#
#
#
# Elastic Constant Matrix: (Units=GPa)
#
#
# Indices 1 2 3 4 5 6 
#
# 1 93.6694 6.5932 9.9714 0.0015 16.0140 -0.0006
# 2 6.5932 67.9074 15.4454 -0.0134 6.4686 0.0155
# 3 9.9714 15.4454 95.2203 -0.0025 20.7233 0.0005
# 4 0.0015 -0.0134 -0.0025 13.7518 -0.0020 -0.9164
# 5 16.0140 6.4686 20.7233 -0.0020 35.5745 0.0005
# 6 -0.0006 0.0155 0.0005 -0.9164 0.0005 19.9645
#
#
#
# Elastic Compliance Matrix: (Units=1/GPa)
#
#
# Indices 1 2 3 4 5 6 
#
# 1 0.011593 -0.000640 0.000000 -0.000003 -0.005103 0.000001
# 2 -0.000640 0.015398 -0.002158 0.000014 -0.001255 -0.000011
# 3 0.000000 -0.002158 0.012330 -0.000001 -0.006790 0.000002
# 4 -0.000003 0.000014 -0.000001 0.072941 0.000003 0.003348
# 5 -0.005103 -0.001255 -0.006790 0.000003 0.034591 0.000000
# 6 0.000001 -0.000011 0.000002 0.003348 0.000000 0.050243
#
#
# Mechanical properties :
#
#
# Convention : Reuss Voigt Hill
#
# Bulk Modulus (GPa) = 29.64956 35.64634 32.64795
# Shear Modulus (GPa) = 23.37196 28.84397 26.10796
#
# Velocity S-wave (km/s) = 3.11130 3.45639 3.28837
# Velocity P-wave (km/s) = 5.01869 5.54011 5.28583
#
# Compressibility (1/GPa) = 0.03372731
#
# Stress axis : x y z
#
# Youngs Moduli (GPa) = 86.25759 64.94204 81.10491
#
# Poissons Ratio (x) = 0.04154 -0.00002
# Poissons Ratio (y) = 0.05517 0.17499
# Poissons Ratio (z) = -0.00002 0.14012
#
# Static dielectric constant tensor:
#      x y z
#    x 1.925720 -0.000010 0.000840 
#    y -0.000010 2.078930 0.000000 
#    z 0.000840 0.000000 1.966970 
# 
# From -- ./inp_files/37752.got.cif
#   From: 2010.05.17/outbox.cif.g08.bks.cpg/sg9_19_cif.got.tgz:37752.got - 2010.06.03 20:04:27.
