data_PCOD9136905
_publ_section_title
;
Structure prediction by ZEFSAII (Michael W. Deem and Ramdas Pophale) SiO2 
 PCOD9136905
Probable space group: C C
;
_chemical_formula_sum "Si O2"
_cell_formula_units_Z 28
_cell_length_a 12.279281
_cell_length_b 19.543502
_cell_length_c 5.527148
_cell_angle_alpha 90.000000
_cell_angle_beta 64.968290
_cell_angle_gamma 90.000000
_cell_volume 1201.821500
_symmetry_space_group_name_H-M "C C"
_symmetry_group_IT_number 9
_symmetry_cell_setting 'monoclinic'
loop_
_space_group_symop_operation_xyz
x,y,z
x,-y,1/2+z
1/2+x,1/2+y,z
1/2+x,1/2-y,1/2+z
loop_
_atom_site_type_symbol
_atom_site_label
_atom_site_fract_x
_atom_site_fract_y
_atom_site_fract_z
Si Si1 0.606860 0.240929 0.569620
Si Si2 0.426216 0.041167 0.849427
Si Si3 0.968864 0.040673 0.022449
Si Si4 0.204003 0.117386 0.882021
Si Si5 0.594005 0.132402 0.937070
Si Si6 0.799674 0.162389 0.045223
Si Si7 0.895524 0.699060 0.427155
O O1 0.629275 0.320805 0.566784
O O2 0.617849 0.208079 0.819053
O O3 0.708794 0.202383 0.312490
O O4 0.477001 0.221855 0.581115
O O5 0.307132 0.087612 0.957185
O O6 0.548943 0.084399 0.765177
O O7 0.424849 0.005257 0.589962
O O8 0.893722 0.111312 0.077834
O O9 0.944236 0.002726 0.300811
O O10 0.110346 0.060713 0.886083
O O11 0.277430 0.156555 0.603507
O O12 0.713827 0.114231 0.963628
O O13 0.479255 0.145132 0.211817
O O14 0.864067 0.226292 0.847103
#
# Coordination Sequence:
#
# PCOD9136905 Si02
#       7
#     4   4   4   4   4   4   4
#     4  10  22  44  72 108 137 182 241 312 371 418
#     4  12  27  46  71 102 143 192 239 291 349 429
#     4  12  29  50  73 106 152 204 240 289 358 448
#     4  11  23  47  75 105 146 183 248 305 367 431
#     4  11  25  42  74 107 140 190 245 303 371 425
#     4  10  25  44  70 106 147 190 242 297 371 435
#     4  10  21  45  71 108 141 181 237 317 369 420
#
# _framework density 23.297967
#
# number of rings (size 3 to 8) (size 9 to 14) (size 15 to 20)
#    0.000    1.143    2.857    1.714    6.000    3.429 
#    2.571    0.000    0.000    0.000    0.000    0.000 
#    0.000    0.000    0.000    0.000    0.000    0.000 
#
# Total GULP energy -78199.824652 kJ/mol
# GULP energy per Si atom -5585.701761 kJ/mol
# Density = 2.324494 g / cm^3
# Si number density = 23.297967 Si / 1000 Ang^3
#
#
#
# Elastic Constant Matrix: (Units=GPa)
#
#
# Indices 1 2 3 4 5 6 
#
# 1 130.7872 43.8911 11.3241 0.0000 6.4229 0.0000
# 2 43.8911 87.2496 17.5239 0.0000 20.1294 0.0000
# 3 11.3241 17.5239 39.5197 0.0000 15.4617 0.0000
# 4 0.0000 0.0000 0.0000 27.3481 0.0000 -2.1176
# 5 6.4229 20.1294 15.4617 0.0000 25.4032 0.0000
# 6 0.0000 0.0000 0.0000 -2.1176 0.0000 52.1753
#
#
#
# Elastic Compliance Matrix: (Units=1/GPa)
#
#
# Indices 1 2 3 4 5 6 
#
# 1 0.009315 -0.004964 -0.001425 0.000000 0.002445 0.000000
# 2 -0.004964 0.016855 -0.001729 0.000000 -0.011048 0.000000
# 3 -0.001425 -0.001729 0.033866 0.000000 -0.018883 0.000000
# 4 0.000000 0.000000 0.000000 0.036681 0.000000 0.001489
# 5 0.002445 -0.011048 -0.018883 0.000000 0.058994 0.000000
# 6 0.000000 0.000000 0.000000 0.001489 0.000000 0.019227
#
#
# Mechanical properties :
#
#
# Convention : Reuss Voigt Hill
#
# Bulk Modulus (GPa) = 22.83051 44.78163 33.80607
# Shear Modulus (GPa) = 24.29853 33.30649 28.80251
#
# Velocity S-wave (km/s) = 3.23297 3.78509 3.51987
# Velocity P-wave (km/s) = 4.87409 6.19399 5.57325
#
# Compressibility (1/GPa) = 0.04380104
#
# Stress axis : x y z
#
# Youngs Moduli (GPa) = 107.35185 59.33058 29.52777
#
# Poissons Ratio (x) = 0.29452 0.04207
# Poissons Ratio (y) = 0.53290 0.05105
# Poissons Ratio (z) = 0.15296 0.10257
#
# Static dielectric constant tensor:
#      x y z
#    x 1.900400 0.000000 -0.031640 
#    y 0.000000 1.893520 0.000000 
#    z -0.031640 0.000000 1.937090 
# 
# From -- ./inp_files/1659.got.cif
#   From: 2010.05.17/outbox.cif.g08.bks.cpg/sg9_1_cif.got.tgz:1659.got - 2010.06.03 20:04:27.
