data_PCOD9136794
_publ_section_title
;
Structure prediction by ZEFSAII (Michael W. Deem and Ramdas Pophale) SiO2 
 PCOD9136794
Probable space group: C C
;
_chemical_formula_sum "Si O2"
_cell_formula_units_Z 32
_cell_length_a 11.404419
_cell_length_b 10.630929
_cell_length_c 12.412409
_cell_angle_alpha 90.000000
_cell_angle_beta 94.416533
_cell_angle_gamma 90.000000
_cell_volume 1500.406497
_symmetry_space_group_name_H-M "C C"
_symmetry_group_IT_number 9
_symmetry_cell_setting 'monoclinic'
loop_
_space_group_symop_operation_xyz
x,y,z
x,-y,1/2+z
1/2+x,1/2+y,z
1/2+x,1/2-y,1/2+z
loop_
_atom_site_type_symbol
_atom_site_label
_atom_site_fract_x
_atom_site_fract_y
_atom_site_fract_z
Si Si1 0.093160 0.977478 0.278840
Si Si2 0.832455 0.627884 0.811965
Si Si3 0.424955 0.771293 0.523495
Si Si4 0.196709 0.507916 0.772955
Si Si5 0.374760 0.498329 0.102904
Si Si6 0.412073 0.369360 0.407954
Si Si7 0.466339 0.130778 0.268709
Si Si8 0.556200 0.749241 0.323533
O O1 0.202083 0.889310 0.259729
O O2 0.122043 0.123351 0.296220
O O3 0.034926 0.934071 0.386184
O O4 0.987109 0.973523 0.187087
O O5 0.898342 0.498369 0.788043
O O6 0.917591 0.741600 0.779297
O O7 0.836945 0.647138 0.942054
O O8 0.374114 0.631312 0.534696
O O9 0.448069 0.828078 0.642965
O O10 0.539505 0.765116 0.452000
O O11 0.255861 0.488858 0.661705
O O12 0.306595 0.543046 0.856157
O O13 0.105122 0.398691 0.797036
O O14 0.120641 0.634919 0.773976
O O15 0.396575 0.621665 0.033462
O O16 0.417466 0.238393 0.344834
#
# Coordination Sequence:
#
# PCOD9136794 Si02
#       8
#     4   4   4   4   4   4   4   4
#     4  11  21  41  64  95 135 173 224 275 341 412
#     4   9  23  41  67  93 132 180 218 282 337 410
#     4  10  21  44  64  93 134 177 221 286 348 399
#     4  10  23  42  68  94 133 181 224 287 337 409
#     4  11  24  43  66  98 135 180 225 285 349 409
#     4  11  23  42  64  97 137 176 223 281 339 411
#     4  11  22  44  67  99 136 175 232 278 346 416
#     4   9  21  43  64  95 136 170 227 286 333 412
#
# _framework density 21.327553000000002
#
# number of rings (size 3 to 8) (size 9 to 14) (size 15 to 20)
#    0.750    1.000    3.750    0.750    1.750    4.000 
#    6.750    0.000    0.000    0.000    0.000    0.000 
#    0.000    0.000    0.000    0.000    0.000    0.000 
#
# Total GULP energy -89159.211370 kJ/mol
# GULP energy per Si atom -5572.450711 kJ/mol
# Density = 2.127901 g / cm^3
# Si number density = 21.327553 Si / 1000 Ang^3
#
#
#
# Elastic Constant Matrix: (Units=GPa)
#
#
# Indices 1 2 3 4 5 6 
#
# 1 100.8669 8.3065 18.6515 0.0000 -3.7770 0.0000
# 2 8.3065 63.5037 14.1109 0.0000 -1.0768 0.0000
# 3 18.6515 14.1109 59.6770 0.0000 -18.4903 0.0000
# 4 0.0000 0.0000 0.0000 36.9325 0.0000 -5.2464
# 5 -3.7770 -1.0768 -18.4903 0.0000 21.4066 0.0000
# 6 0.0000 0.0000 0.0000 -5.2464 0.0000 14.8382
#
#
#
# Elastic Compliance Matrix: (Units=1/GPa)
#
#
# Indices 1 2 3 4 5 6 
#
# 1 0.010573 -0.000618 -0.003537 0.000000 -0.001220 0.000000
# 2 -0.000618 0.016850 -0.004864 0.000000 -0.003463 0.000000
# 3 -0.003537 -0.004864 0.025592 0.000000 0.021237 0.000000
# 4 0.000000 0.000000 0.000000 0.028508 0.000000 0.010080
# 5 -0.001220 -0.003463 0.021237 0.000000 0.064669 0.000000
# 6 0.000000 0.000000 0.000000 0.010080 0.000000 0.070957
#
#
# Mechanical properties :
#
#
# Convention : Reuss Voigt Hill
#
# Bulk Modulus (GPa) = 28.58883 34.02060 31.30471
# Shear Modulus (GPa) = 20.25544 26.83403 23.54473
#
# Velocity S-wave (km/s) = 3.08511 3.55094 3.32619
# Velocity P-wave (km/s) = 5.11120 5.72698 5.42783
#
# Compressibility (1/GPa) = 0.03497870
#
# Stress axis : x y z
#
# Youngs Moduli (GPa) = 94.57876 59.34700 39.07399
#
# Poissons Ratio (x) = 0.03667 0.13819
# Poissons Ratio (y) = 0.05844 0.19006
# Poissons Ratio (z) = 0.33448 0.28867
#
# Static dielectric constant tensor:
#      x y z
#    x 1.797780 0.000000 0.012350 
#    y 0.000000 1.799850 0.000000 
#    z 0.012350 0.000000 1.804970 
# 
# From -- ./inp_files/16263.got.cif
#   From: 2010.05.17/outbox.cif.g08.bks.cpg/sg9_9_cif.got.tgz:16263.got - 2010.06.03 20:04:27.
