data_PCOD9136786
_publ_section_title
;
Structure prediction by ZEFSAII (Michael W. Deem and Ramdas Pophale) SiO2 
 PCOD9136786
Probable space group: C C
;
_chemical_formula_sum "Si O2"
_cell_formula_units_Z 32
_cell_length_a 11.550066
_cell_length_b 7.230047
_cell_length_c 17.901536
_cell_angle_alpha 90.000000
_cell_angle_beta 92.369251
_cell_angle_gamma 90.000000
_cell_volume 1493.634964
_symmetry_space_group_name_H-M "C C"
_symmetry_group_IT_number 9
_symmetry_cell_setting 'monoclinic'
loop_
_space_group_symop_operation_xyz
x,y,z
x,-y,1/2+z
1/2+x,1/2+y,z
1/2+x,1/2-y,1/2+z
loop_
_atom_site_type_symbol
_atom_site_label
_atom_site_fract_x
_atom_site_fract_y
_atom_site_fract_z
Si Si1 0.258360 0.671312 0.442980
Si Si2 0.299300 0.189825 0.192503
Si Si3 0.322258 0.086851 0.815838
Si Si4 0.620203 0.694179 0.069713
Si Si5 0.018046 0.574427 0.101668
Si Si6 0.725977 0.929137 0.718111
Si Si7 0.018116 0.132608 0.468547
Si Si8 0.594075 0.104278 0.854231
O O1 0.260880 0.851922 0.390540
O O2 0.227436 0.720215 0.526151
O O3 0.091934 0.201236 0.399071
O O4 0.158580 0.536986 0.411315
O O5 0.179804 0.135362 0.148123
O O6 0.312208 0.412052 0.191378
O O7 0.292718 0.103026 0.274456
O O8 0.408416 0.105441 0.151985
O O9 0.288092 0.255073 0.758181
O O10 0.458021 0.074838 0.837285
O O11 0.530488 0.858562 0.081909
O O12 0.569369 0.534337 0.017365
O O13 0.134922 0.624535 0.151236
O O14 0.009256 0.696071 0.026658
O O15 0.654075 0.048345 0.777914
O O16 0.386773 0.587147 0.439732
#
# Coordination Sequence:
#
# PCOD9136786 Si02
#       8
#     4   4   4   4   4   4   4   4
#     4  10  22  43  61  93 131 162 217 264 305 379
#     4  11  23  42  67  94 126 168 209 259 321 374
#     4  10  22  43  64  91 127 168 209 263 316 370
#     4  11  24  41  66  95 124 171 211 257 319 374
#     4  11  22  43  63  94 133 160 213 268 307 378
#     4  10  23  42  63  93 127 164 212 265 310 375
#     4  11  23  40  65  92 126 172 211 260 319 370
#     4  10  21  44  63  90 134 163 210 268 305 372
#
# _framework density 21.424244000000002
#
# number of rings (size 3 to 8) (size 9 to 14) (size 15 to 20)
#    0.000    1.500    3.750    0.750    1.750    2.000 
#    9.000    0.000    0.000    0.000    0.000    0.000 
#    0.000    0.000    0.000    0.000    0.000    0.000 
#
# Total GULP energy -89318.161614 kJ/mol
# GULP energy per Si atom -5582.385101 kJ/mol
# Density = 2.137548 g / cm^3
# Si number density = 21.424244 Si / 1000 Ang^3
#
#
#
# Elastic Constant Matrix: (Units=GPa)
#
#
# Indices 1 2 3 4 5 6 
#
# 1 81.6927 42.1700 8.6726 0.0000 13.5290 0.0000
# 2 42.1700 47.7891 -9.5444 0.0000 15.5517 0.0000
# 3 8.6726 -9.5444 51.8570 0.0000 15.7258 0.0000
# 4 0.0000 0.0000 0.0000 33.9367 0.0000 3.0916
# 5 13.5290 15.5517 15.7258 0.0000 42.1898 0.0000
# 6 0.0000 0.0000 0.0000 3.0916 0.0000 26.3149
#
#
#
# Elastic Compliance Matrix: (Units=1/GPa)
#
#
# Indices 1 2 3 4 5 6 
#
# 1 0.026908 -0.027968 -0.011452 0.000000 0.005949 0.000000
# 2 -0.027968 0.056139 0.020932 0.000000 -0.019527 0.000000
# 3 -0.011452 0.020932 0.029626 0.000000 -0.015086 0.000000
# 4 0.000000 0.000000 0.000000 0.029785 0.000000 -0.003499
# 5 0.005949 -0.019527 -0.015086 0.000000 0.034616 0.000000
# 6 0.000000 0.000000 0.000000 -0.003499 0.000000 0.038412
#
#
# Mechanical properties :
#
#
# Convention : Reuss Voigt Hill
#
# Bulk Modulus (GPa) = 13.21021 29.32613 21.26817
# Shear Modulus (GPa) = 18.00528 29.82435 23.91481
#
# Velocity S-wave (km/s) = 2.90214 3.73511 3.34466
# Velocity P-wave (km/s) = 4.17244 5.68502 4.98642
#
# Compressibility (1/GPa) = 0.07569904
#
# Stress axis : x y z
#
# Youngs Moduli (GPa) = 37.16307 17.81280 33.75364
#
# Poissons Ratio (x) = 0.49818 0.38654
# Poissons Ratio (y) = 1.03936 -0.70652
# Poissons Ratio (z) = 0.42558 -0.37285
#
# Static dielectric constant tensor:
#      x y z
#    x 1.750060 0.000000 -0.016610 
#    y 0.000000 1.776500 0.000000 
#    z -0.016610 0.000000 1.796820 
# 
# From -- ./inp_files/32984.got.cif
#   From: 2010.05.17/outbox.cif.g08.bks.cpg/sg9_17_cif.got.tgz:32984.got - 2010.06.03 20:04:27.
