data_PCOD9136510
_publ_section_title
;
Structure prediction by ZEFSAII (Michael W. Deem and Ramdas Pophale) SiO2 
 PCOD9136510
Probable space group: C C
;
_chemical_formula_sum "Si O2"
_cell_formula_units_Z 32
_cell_length_a 24.648564
_cell_length_b 7.318132
_cell_length_c 21.841825
_cell_angle_alpha 90.000000
_cell_angle_beta 159.452776
_cell_angle_gamma 90.000000
_cell_volume 1382.809213
_symmetry_space_group_name_H-M "C C"
_symmetry_group_IT_number 9
_symmetry_cell_setting 'monoclinic'
loop_
_space_group_symop_operation_xyz
x,y,z
x,-y,1/2+z
1/2+x,1/2+y,z
1/2+x,1/2-y,1/2+z
loop_
_atom_site_type_symbol
_atom_site_label
_atom_site_fract_x
_atom_site_fract_y
_atom_site_fract_z
Si Si1 0.270650 0.359730 0.768880
Si Si2 0.931301 0.516498 0.440229
Si Si3 0.863399 0.905402 0.001219
Si Si4 0.604167 0.198214 0.440283
Si Si5 0.512071 0.011309 0.162426
Si Si6 0.902569 0.145038 0.819884
Si Si7 0.066691 0.027684 0.318731
Si Si8 0.921996 0.367979 0.198595
O O1 0.301451 0.142552 0.799882
O O2 0.352238 0.432642 0.917028
O O3 0.355576 0.458729 0.802800
O O4 0.091814 0.422056 0.585798
O O5 0.961428 0.570877 0.543136
O O6 0.892013 0.692274 0.358501
O O7 0.694011 0.943618 0.849370
O O8 0.910977 0.695246 0.059858
O O9 0.991194 0.020793 0.171983
O O10 0.784004 0.165253 0.638193
O O11 0.563519 0.318407 0.456971
O O12 0.568305 0.321032 0.344177
O O13 0.508590 0.010798 0.334302
O O14 0.482963 0.905105 0.194131
O O15 0.966105 0.158663 0.256033
O O16 0.240524 0.098806 0.506156
#
# Coordination Sequence:
#
# PCOD9136510 Si02
#       8
#     4   4   4   4   4   4   4   4
#     4  10  24  44  69 103 138 179 227 281 340 403
#     4  10  24  44  69 104 136 181 226 281 342 400
#     4  10  21  41  69 102 141 179 223 283 346 403
#     4  12  28  48  70  97 139 184 232 279 336 406
#     4  10  21  41  69 102 142 176 226 283 344 407
#     4  12  26  48  70  99 137 186 228 279 335 412
#     4  12  27  45  70 102 136 182 229 286 345 404
#     4  12  27  45  70 103 135 181 231 286 344 407
#
# _framework density 23.141297999999999
#
# number of rings (size 3 to 8) (size 9 to 14) (size 15 to 20)
#    0.000    1.000    3.750    1.500    7.000    3.000 
#    0.000    0.000    0.000    0.000    0.000    0.000 
#    0.000    0.000    0.000    0.000    0.000    0.000 
#
# Total GULP energy -89508.170396 kJ/mol
# GULP energy per Si atom -5594.260650 kJ/mol
# Density = 2.308863 g / cm^3
# Si number density = 23.141298 Si / 1000 Ang^3
#
#
#
# Elastic Constant Matrix: (Units=GPa)
#
#
# Indices 1 2 3 4 5 6 
#
# 1 61.3419 -11.3117 -4.4144 0.0000 -3.5458 0.0000
# 2 -11.3117 44.1353 9.1712 -0.0001 -13.0405 0.0000
# 3 -4.4144 9.1712 95.6464 -0.0001 -7.2552 0.0000
# 4 0.0000 -0.0001 -0.0001 15.0929 0.0000 9.6766
# 5 -3.5458 -13.0405 -7.2552 0.0000 23.6264 0.0000
# 6 0.0000 0.0000 0.0000 9.6766 0.0000 29.5176
#
#
#
# Elastic Compliance Matrix: (Units=1/GPa)
#
#
# Indices 1 2 3 4 5 6 
#
# 1 0.017889 0.006328 0.000704 0.000000 0.006393 0.000000
# 2 0.006328 0.029522 -0.001260 0.000000 0.016857 0.000000
# 3 0.000704 -0.001260 0.010816 0.000000 0.002731 0.000000
# 4 0.000000 0.000000 0.000000 0.083888 0.000000 -0.027500
# 5 0.006393 0.016857 0.002731 0.000000 0.053428 0.000000
# 6 0.000000 0.000000 0.000000 -0.027500 0.000000 0.042893
#
#
# Mechanical properties :
#
#
# Convention : Reuss Voigt Hill
#
# Bulk Modulus (GPa) = 14.33285 20.89041 17.61163
# Shear Modulus (GPa) = 19.98807 27.49262 23.74034
#
# Velocity S-wave (km/s) = 2.94213 3.45052 3.20642
# Velocity P-wave (km/s) = 4.21291 4.99217 4.61900
#
# Compressibility (1/GPa) = 0.06976979
#
# Stress axis : x y z
#
# Youngs Moduli (GPa) = 55.89979 33.87318 92.45839
#
# Poissons Ratio (x) = -0.21434 -0.06508
# Poissons Ratio (y) = -0.35372 0.11650
# Poissons Ratio (z) = -0.03935 0.04268
#
# Static dielectric constant tensor:
#      x y z
#    x 1.863520 0.000000 -0.016310 
#    y 0.000000 1.892230 0.000000 
#    z -0.016310 0.000000 1.818500 
# 
# From -- ./inp_files/34509.got.cif
#   From: 2010.05.17/outbox.cif.g08.bks.cpg/sg9_18_cif.got.tgz:34509.got - 2010.06.03 20:04:27.
