data_PCOD9136919
_publ_section_title
;
Structure prediction by ZEFSAII (Michael W. Deem and Ramdas Pophale) SiO2 
 PCOD9136919
Probable space group: C C
;
_chemical_formula_sum "Si O2"
_cell_formula_units_Z 32
_cell_length_a 16.499172
_cell_length_b 6.850153
_cell_length_c 12.655441
_cell_angle_alpha 90.000000
_cell_angle_beta 78.287415
_cell_angle_gamma 90.000000
_cell_volume 1400.559169
_symmetry_space_group_name_H-M "C C"
_symmetry_group_IT_number 9
_symmetry_cell_setting 'monoclinic'
loop_
_space_group_symop_operation_xyz
x,y,z
x,-y,1/2+z
1/2+x,1/2+y,z
1/2+x,1/2-y,1/2+z
loop_
_atom_site_type_symbol
_atom_site_label
_atom_site_fract_x
_atom_site_fract_y
_atom_site_fract_z
Si Si1 0.577810 0.106981 0.414820
Si Si2 0.277841 0.630599 0.192906
Si Si3 0.009312 0.268589 0.305140
Si Si4 0.661604 0.514311 0.339578
Si Si5 0.823618 0.829893 0.917714
Si Si6 0.932634 0.634843 0.607451
Si Si7 0.205183 0.332105 0.500278
Si Si8 0.798728 0.677320 0.149891
O O1 0.628775 0.299653 0.376295
O O2 0.490480 0.141987 0.492290
O O3 0.552855 0.972519 0.323544
O O4 0.632339 0.973639 0.478882
O O5 0.356750 0.720706 0.114430
O O6 0.288160 0.396861 0.196147
O O7 0.230191 0.052294 0.230101
O O8 0.205437 0.678294 0.127879
O O9 0.922104 0.212589 0.385488
O O10 0.985903 0.286139 0.190051
O O11 0.078326 0.114498 0.317613
O O12 0.788735 0.210563 0.309448
O O13 0.693272 0.635943 0.434677
O O14 0.788886 0.047744 0.948284
O O15 0.789851 0.702811 0.025313
O O16 0.887853 0.426796 0.642409
#
# Coordination Sequence:
#
# PCOD9136919 Si02
#       8
#     4   4   4   4   4   4   4   4
#     4  11  26  46  71 107 150 201 249 314 385 454
#     4  10  24  44  74 104 148 194 252 312 375 456
#     4  10  25  47  71 105 152 193 251 316 379 453
#     4  11  26  46  73 112 148 198 255 316 389 455
#     4  10  21  45  75 104 148 199 249 309 380 457
#     4  11  26  44  74 107 145 201 252 312 381 455
#     4  10  24  43  73 104 156 189 249 311 378 453
#     4  11  24  45  73 109 153 195 255 312 383 459
#
# _framework density 22.848016999999999
#
# number of rings (size 3 to 8) (size 9 to 14) (size 15 to 20)
#    0.000    1.500    2.500    0.000   10.500    5.000 
#    0.000    0.000    0.000    0.000    0.000    0.000 
#    0.000    0.000    0.000    0.000    0.000    0.000 
#
# Total GULP energy -89346.481592 kJ/mol
# GULP energy per Si atom -5584.155100 kJ/mol
# Density = 2.279601 g / cm^3
# Si number density = 22.848017 Si / 1000 Ang^3
#
#
#
# Elastic Constant Matrix: (Units=GPa)
#
#
# Indices 1 2 3 4 5 6 
#
# 1 98.2314 41.2513 39.8607 0.0000 -3.9915 0.0000
# 2 41.2513 70.7244 -7.0293 0.0000 -3.6354 0.0000
# 3 39.8607 -7.0293 86.0977 0.0000 4.5825 0.0000
# 4 0.0000 0.0000 0.0000 24.1166 0.0000 6.6815
# 5 -3.9915 -3.6354 4.5825 0.0000 48.1440 0.0000
# 6 0.0000 0.0000 0.0000 6.6815 0.0000 11.3770
#
#
#
# Elastic Compliance Matrix: (Units=1/GPa)
#
#
# Indices 1 2 3 4 5 6 
#
# 1 0.019532 -0.012315 -0.010136 0.000000 0.001654 0.000000
# 2 -0.012315 0.022065 0.007506 0.000000 -0.000069 0.000000
# 3 -0.010136 0.007506 0.017021 0.000000 -0.001894 0.000000
# 4 0.000000 0.000000 0.000000 0.049523 0.000000 -0.029084
# 5 0.001654 -0.000069 -0.001894 0.000000 0.021083 0.000000
# 6 0.000000 0.000000 0.000000 -0.029084 0.000000 0.104977
#
#
# Mechanical properties :
#
#
# Convention : Reuss Voigt Hill
#
# Bulk Modulus (GPa) = 34.80821 44.80210 39.80515
# Shear Modulus (GPa) = 18.27054 28.79225 23.53139
#
# Velocity S-wave (km/s) = 2.83089 3.55373 3.21270
# Velocity P-wave (km/s) = 5.09441 6.04069 5.58762
#
# Compressibility (1/GPa) = 0.02872885
#
# Stress axis : x y z
#
# Youngs Moduli (GPa) = 51.19885 45.32145 58.75087
#
# Poissons Ratio (x) = 0.55812 0.59550
# Poissons Ratio (y) = 0.63049 -0.44101
# Poissons Ratio (z) = 0.51895 -0.34020
#
# Static dielectric constant tensor:
#      x y z
#    x 1.839240 0.000000 -0.020960 
#    y 0.000000 1.942150 0.000000 
#    z -0.020960 0.000000 1.868790 
# 
# From -- ./inp_files/26360.got.cif
#   From: 2010.05.17/outbox.cif.g08.bks.cpg/sg9_14_cif.got.tgz:26360.got - 2010.06.03 20:04:27.
