data_PCOD9136158
_publ_section_title
;
Structure prediction by ZEFSAII (Michael W. Deem and Ramdas Pophale) SiO2 
 PCOD9136158
Probable space group: C C
;
_chemical_formula_sum "Si O2"
_cell_formula_units_Z 32
_cell_length_a 20.019383
_cell_length_b 10.283993
_cell_length_c 11.183579
_cell_angle_alpha 90.000000
_cell_angle_beta 142.308955
_cell_angle_gamma 90.000000
_cell_volume 1407.735615
_symmetry_space_group_name_H-M "C C"
_symmetry_group_IT_number 9
_symmetry_cell_setting 'monoclinic'
loop_
_space_group_symop_operation_xyz
x,y,z
x,-y,1/2+z
1/2+x,1/2+y,z
1/2+x,1/2-y,1/2+z
loop_
_atom_site_type_symbol
_atom_site_label
_atom_site_fract_x
_atom_site_fract_y
_atom_site_fract_z
Si Si1 0.245350 0.844943 0.000000
Si Si2 0.871006 0.295532 0.803506
Si Si3 0.057533 0.318267 0.253779
Si Si4 0.025231 0.144089 0.436280
Si Si5 0.147545 0.066690 0.013151
Si Si6 0.403707 0.414772 0.162703
Si Si7 0.375207 0.256674 0.912135
Si Si8 0.425773 0.027114 0.162795
O O1 0.165897 0.732306 0.840377
O O2 0.297927 0.784489 0.194548
O O3 0.342533 0.906006 0.060727
O O4 0.173216 0.969549 0.939230
O O5 0.753947 0.348225 0.679575
O O6 0.853627 0.168775 0.698096
O O7 0.924806 0.405193 0.791530
O O8 0.957398 0.271955 0.029670
O O9 0.057944 0.246371 0.382431
O O10 0.034522 0.466838 0.257889
O O11 0.987761 0.208768 0.504185
O O12 0.924368 0.061290 0.234897
O O13 0.118578 0.034017 0.579330
O O14 0.030921 0.135268 0.829147
O O15 0.347281 0.379441 0.957755
O O16 0.382435 0.134876 0.010591
#
# Coordination Sequence:
#
# PCOD9136158 Si02
#       8
#     4   4   4   4   4   4   4   4
#     4  10  21  40  62  99 129 178 221 257 334 405
#     4  10  21  39  64  97 127 170 221 280 314 399
#     4  11  22  38  64  95 135 168 221 273 324 389
#     4   9  21  39  62  95 132 172 217 274 326 398
#     4   8  19  41  63  94 122 173 226 250 330 399
#     4   9  22  40  64  96 129 170 225 273 321 391
#     4  11  21  42  67  93 139 169 223 275 332 395
#     4  10  21  41  66  93 129 180 222 272 331 396
#
# _framework density 22.731542999999999
#
# number of rings (size 3 to 8) (size 9 to 14) (size 15 to 20)
#    0.750    1.500    1.250    1.500    1.750    2.000 
#   18.000    3.750    0.000    0.000    0.000    0.000 
#    0.000    0.000    0.000    0.000    0.000    0.000 
#
# Total GULP energy -89206.268379 kJ/mol
# GULP energy per Si atom -5575.391774 kJ/mol
# Density = 2.267980 g / cm^3
# Si number density = 22.731543 Si / 1000 Ang^3
#
#
#
# Elastic Constant Matrix: (Units=GPa)
#
#
# Indices 1 2 3 4 5 6 
#
# 1 80.6539 14.4127 30.3416 0.0000 -3.5235 0.0000
# 2 14.4127 38.7000 7.1383 0.0000 10.8188 0.0000
# 3 30.3416 7.1383 59.3693 0.0000 -1.1988 0.0000
# 4 0.0000 0.0000 0.0000 22.0018 0.0000 12.9852
# 5 -3.5235 10.8188 -1.1988 0.0000 31.4159 0.0000
# 6 0.0000 0.0000 0.0000 12.9852 0.0000 36.9497
#
#
#
# Elastic Compliance Matrix: (Units=1/GPa)
#
#
# Indices 1 2 3 4 5 6 
#
# 1 0.016448 -0.005697 -0.007650 0.000000 0.003515 0.000000
# 2 -0.005697 0.031374 -0.001092 0.000000 -0.011485 0.000000
# 3 -0.007650 -0.001092 0.020891 0.000000 0.000315 0.000000
# 4 0.000000 0.000000 0.000000 0.057345 0.000000 -0.020153
# 5 0.003515 -0.011485 0.000315 0.000000 0.036192 0.000000
# 6 0.000000 0.000000 0.000000 -0.020153 0.000000 0.034146
#
#
# Mechanical properties :
#
#
# Convention : Reuss Voigt Hill
#
# Bulk Modulus (GPa) = 25.10450 31.38981 28.24716
# Shear Modulus (GPa) = 20.95964 26.52884 23.74424
#
# Velocity S-wave (km/s) = 3.03982 3.41992 3.23546
# Velocity P-wave (km/s) = 4.83617 5.42525 5.13916
#
# Compressibility (1/GPa) = 0.03983349
#
# Stress axis : x y z
#
# Youngs Moduli (GPa) = 60.79676 31.87379 47.86707
#
# Poissons Ratio (x) = 0.18159 0.36619
# Poissons Ratio (y) = 0.34637 0.05229
# Poissons Ratio (z) = 0.46510 0.03482
#
# Static dielectric constant tensor:
#      x y z
#    x 1.891600 0.000000 0.029510 
#    y 0.000000 1.873700 0.000000 
#    z 0.029510 0.000000 1.859450 
# 
# From -- ./inp_files/20235.got.cif
#   From: 2010.05.17/outbox.cif.g08.bks.cpg/sg9_11_cif.got.tgz:20235.got - 2010.06.03 20:04:27.
