data_PCOD9136387
_publ_section_title
;
Structure prediction by ZEFSAII (Michael W. Deem and Ramdas Pophale) SiO2 
 PCOD9136387
Probable space group: C C
;
_chemical_formula_sum "Si O2"
_cell_formula_units_Z 28
_cell_length_a 12.197312
_cell_length_b 7.773638
_cell_length_c 15.492012
_cell_angle_alpha 90.000000
_cell_angle_beta 120.698405
_cell_angle_gamma 90.000000
_cell_volume 1263.069626
_symmetry_space_group_name_H-M "C C"
_symmetry_group_IT_number 9
_symmetry_cell_setting 'monoclinic'
loop_
_space_group_symop_operation_xyz
x,y,z
x,-y,1/2+z
1/2+x,1/2+y,z
1/2+x,1/2-y,1/2+z
loop_
_atom_site_type_symbol
_atom_site_label
_atom_site_fract_x
_atom_site_fract_y
_atom_site_fract_z
Si Si1 0.846490 0.792572 0.877080
Si Si2 0.202932 0.085678 0.681743
Si Si3 0.101624 0.897246 0.789471
Si Si4 0.344418 0.726223 0.102554
Si Si5 0.600898 0.893443 0.423311
Si Si6 0.638410 0.269594 0.415248
Si Si7 0.986028 0.907656 0.504010
O O1 0.745500 0.745336 0.760491
O O2 0.784308 0.747164 0.944297
O O3 0.969215 0.676270 0.907911
O O4 0.890767 0.989405 0.903027
O O5 0.293536 0.107427 0.634477
O O6 0.199480 0.929027 0.749645
O O7 0.060046 0.058754 0.587175
O O8 0.142035 0.745609 0.868635
O O9 0.958973 0.852043 0.703557
O O10 0.092191 0.073988 0.838013
O O11 0.217182 0.611295 0.038266
O O12 0.412462 0.724583 0.036211
O O13 0.583430 0.080440 0.376155
O O14 0.596190 0.315316 0.494322
#
# Coordination Sequence:
#
# PCOD9136387 Si02
#       7
#     4   4   4   4   4   4   4
#     4  11  22  44  67  98 141 175 229 284 335 408
#     4  10  21  40  71  95 134 186 218 279 351 390
#     4  10  23  44  67 100 146 175 226 291 336 398
#     4  11  21  42  72 101 138 179 228 290 335 406
#     4  12  23  42  73 102 135 183 230 273 346 415
#     4  11  24  44  69 104 133 186 228 275 349 399
#     4  11  22  42  69  96 145 178 223 296 334 394
#
# _framework density 22.168215
#
# number of rings (size 3 to 8) (size 9 to 14) (size 15 to 20)
#    0.000    1.143    5.714    0.000    0.000    3.429 
#    2.571    5.714    3.143    0.000    0.000    0.000 
#    0.000    0.000    0.000    0.000    0.000    0.000 
#
# Total GULP energy -77970.766531 kJ/mol
# GULP energy per Si atom -5569.340466 kJ/mol
# Density = 2.211776 g / cm^3
# Si number density = 22.168215 Si / 1000 Ang^3
#
#
#
# Elastic Constant Matrix: (Units=GPa)
#
#
# Indices 1 2 3 4 5 6 
#
# 1 217.8594 32.3296 42.6549 0.0000 -14.2269 0.0000
# 2 32.3296 115.5106 31.4223 0.0000 -11.4215 0.0000
# 3 42.6549 31.4223 63.6665 0.0000 0.6707 0.0000
# 4 0.0000 0.0000 0.0000 51.7553 0.0000 -2.9291
# 5 -14.2269 -11.4215 0.6707 0.0000 24.0231 0.0000
# 6 0.0000 0.0000 0.0000 -2.9291 0.0000 39.3424
#
#
#
# Elastic Compliance Matrix: (Units=1/GPa)
#
#
# Indices 1 2 3 4 5 6 
#
# 1 0.005551 -0.000241 -0.003635 0.000000 0.003274 0.000000
# 2 -0.000241 0.010620 -0.005133 0.000000 0.005050 0.000000
# 3 -0.003635 -0.005133 0.020730 0.000000 -0.005172 0.000000
# 4 0.000000 0.000000 0.000000 0.019403 0.000000 0.001445
# 5 0.003274 0.005050 -0.005172 0.000000 0.046111 0.000000
# 6 0.000000 0.000000 0.000000 0.001445 0.000000 0.025525
#
#
# Mechanical properties :
#
#
# Convention : Reuss Voigt Hill
#
# Bulk Modulus (GPa) = 52.95650 67.76113 60.35882
# Shear Modulus (GPa) = 32.83972 42.39946 37.61959
#
# Velocity S-wave (km/s) = 3.85306 4.37810 4.12394
# Velocity P-wave (km/s) = 6.61325 7.49601 7.06842
#
# Compressibility (1/GPa) = 0.01888342
#
# Stress axis : x y z
#
# Youngs Moduli (GPa) = 180.13507 94.15797 48.23922
#
# Poissons Ratio (x) = 0.02271 0.17534
# Poissons Ratio (y) = 0.04345 0.24762
# Poissons Ratio (z) = 0.65474 0.48334
#
# Static dielectric constant tensor:
#      x y z
#    x 1.846300 0.000000 -0.049560 
#    y 0.000000 1.758570 0.000000 
#    z -0.049560 0.000000 1.864360 
# 
# From -- ./inp_files/24418.got.cif
#   From: 2010.05.17/outbox.cif.g08.bks.cpg/sg9_13_cif.got.tgz:24418.got - 2010.06.03 20:04:27.
