data_PCOD9136431
_publ_section_title
;
Structure prediction by ZEFSAII (Michael W. Deem and Ramdas Pophale) SiO2 
 PCOD9136431
Probable space group: C C
;
_chemical_formula_sum "Si O2"
_cell_formula_units_Z 32
_cell_length_a 5.070009
_cell_length_b 22.732319
_cell_length_c 12.435382
_cell_angle_alpha 90.000000
_cell_angle_beta 109.208302
_cell_angle_gamma 90.000000
_cell_volume 1353.426874
_symmetry_space_group_name_H-M "C C"
_symmetry_group_IT_number 9
_symmetry_cell_setting 'monoclinic'
loop_
_space_group_symop_operation_xyz
x,y,z
x,-y,1/2+z
1/2+x,1/2+y,z
1/2+x,1/2-y,1/2+z
loop_
_atom_site_type_symbol
_atom_site_label
_atom_site_fract_x
_atom_site_fract_y
_atom_site_fract_z
Si Si1 0.615040 0.207455 0.876020
Si Si2 0.680314 0.172585 0.126656
Si Si3 0.861282 0.778345 0.180666
Si Si4 0.618668 0.479105 0.043793
Si Si5 0.852955 0.688492 0.489081
Si Si6 0.697022 0.404297 0.665872
Si Si7 0.208706 0.124293 0.688661
Si Si8 0.515035 0.930382 0.913945
O O1 0.813948 0.225609 0.801774
O O2 0.405956 0.159645 0.796859
O O3 0.691815 0.177429 0.999176
O O4 0.583143 0.274603 0.915005
O O5 0.612145 0.236307 0.172654
O O6 0.415620 0.135340 0.130189
O O7 0.963182 0.137150 0.189779
O O8 0.595182 0.767796 0.067873
O O9 0.909606 0.848434 0.175663
O O10 0.852844 0.466474 0.985359
O O11 0.334028 0.450156 0.962326
O O12 0.574775 0.546760 0.069031
O O13 0.702587 0.444034 0.164761
O O14 0.768667 0.651127 0.580492
O O15 0.978285 0.640103 0.426645
O O16 0.869460 0.438432 0.780261
#
# Coordination Sequence:
#
# PCOD9136431 Si02
#       8
#     4   4   4   4   4   4   4   4
#     4  11  25  40  70 105 145 195 227 308 379 425
#     4  12  27  48  70 113 156 185 248 308 371 442
#     4  11  23  42  67 103 147 191 240 295 371 452
#     4  11  25  49  75 102 149 190 258 297 357 442
#     4  10  21  41  64 102 148 186 245 293 363 450
#     4  12  28  49  74 109 148 195 247 315 360 433
#     4  10  23  41  67 103 137 192 240 297 355 449
#     4  11  24  46  75 107 136 204 239 301 368 437
#
# _framework density 23.643685999999999
#
# number of rings (size 3 to 8) (size 9 to 14) (size 15 to 20)
#    0.000    1.000    2.500    3.000    7.000    2.000 
#    0.000    0.000    0.000    0.000    0.000    0.000 
#    0.000    0.000    0.000    0.000    0.000    0.000 
#
# Total GULP energy -89238.608300 kJ/mol
# GULP energy per Si atom -5577.413019 kJ/mol
# Density = 2.358987 g / cm^3
# Si number density = 23.643686 Si / 1000 Ang^3
#
#
#
# Elastic Constant Matrix: (Units=GPa)
#
#
# Indices 1 2 3 4 5 6 
#
# 1 98.5048 27.4592 11.3763 0.0000 1.9055 0.0000
# 2 27.4592 104.6294 20.1985 0.0000 -2.7717 0.0000
# 3 11.3763 20.1985 84.2290 0.0000 0.0793 0.0000
# 4 0.0000 0.0000 0.0000 25.3038 0.0000 -1.6550
# 5 1.9055 -2.7717 0.0793 0.0000 16.7487 0.0000
# 6 0.0000 0.0000 0.0000 -1.6550 0.0000 24.4895
#
#
#
# Elastic Compliance Matrix: (Units=1/GPa)
#
#
# Indices 1 2 3 4 5 6 
#
# 1 0.011057 -0.002788 -0.000823 0.000000 -0.001716 0.000000
# 2 -0.002788 0.010772 -0.002208 0.000000 0.002110 0.000000
# 3 -0.000823 -0.002208 0.012513 0.000000 -0.000331 0.000000
# 4 0.000000 0.000000 0.000000 0.039695 0.000000 0.002683
# 5 -0.001716 0.002110 -0.000331 0.000000 0.060252 0.000000
# 6 0.000000 0.000000 0.000000 0.002683 0.000000 0.041015
#
#
# Mechanical properties :
#
#
# Convention : Reuss Voigt Hill
#
# Bulk Modulus (GPa) = 44.04836 45.04791 44.54813
# Shear Modulus (GPa) = 25.70530 28.53035 27.11783
#
# Velocity S-wave (km/s) = 3.30084 3.47750 3.39032
# Velocity P-wave (km/s) = 5.76176 5.93449 5.84876
#
# Compressibility (1/GPa) = 0.02270232
#
# Stress axis : x y z
#
# Youngs Moduli (GPa) = 90.43756 92.83677 79.91384
#
# Poissons Ratio (x) = 0.25887 0.06578
# Poissons Ratio (y) = 0.25218 0.17649
# Poissons Ratio (z) = 0.07444 0.20503
#
# Static dielectric constant tensor:
#      x y z
#    x 1.957080 0.000000 0.043310 
#    y 0.000000 1.943370 0.000000 
#    z 0.043310 0.000000 1.950680 
# 
# From -- ./inp_files/13544.got.cif
#   From: 2010.05.17/outbox.cif.g08.bks.cpg/sg9_7_cif.got.tgz:13544.got - 2010.06.03 20:04:27.
