data_PCOD9136839
_publ_section_title
;
Structure prediction by ZEFSAII (Michael W. Deem and Ramdas Pophale) SiO2 
 PCOD9136839
Probable space group: C C
;
_chemical_formula_sum "Si O2"
_cell_formula_units_Z 28
_cell_length_a 20.684874
_cell_length_b 10.868764
_cell_length_c 12.875183
_cell_angle_alpha 90.000000
_cell_angle_beta 23.563785
_cell_angle_gamma 90.000000
_cell_volume 1157.167889
_symmetry_space_group_name_H-M "C C"
_symmetry_group_IT_number 9
_symmetry_cell_setting 'monoclinic'
loop_
_space_group_symop_operation_xyz
x,y,z
x,-y,1/2+z
1/2+x,1/2+y,z
1/2+x,1/2-y,1/2+z
loop_
_atom_site_type_symbol
_atom_site_label
_atom_site_fract_x
_atom_site_fract_y
_atom_site_fract_z
Si Si1 0.598640 0.025692 0.248930
Si Si2 0.988787 0.750426 0.543719
Si Si3 0.968891 0.570656 0.743545
Si Si4 0.395782 0.485975 0.184606
Si Si5 0.762854 0.350050 0.004071
Si Si6 0.587367 0.319318 0.040377
Si Si7 0.247631 0.405146 0.220929
O O1 0.491941 0.940669 0.332332
O O2 0.713966 0.948451 0.155145
O O3 0.490890 0.128890 0.465589
O O4 0.736451 0.079407 0.969501
O O5 0.976104 0.701470 0.678785
O O6 0.871824 0.867535 0.707888
O O7 0.155938 0.809769 0.259332
O O8 0.114568 0.494146 0.473235
O O9 0.814265 0.491439 0.939191
O O10 0.537035 0.442434 0.053303
O O11 0.408552 0.436347 0.048115
O O12 0.661835 0.337917 0.045279
O O13 0.926594 0.268329 0.775135
O O14 0.709610 0.236695 0.793603
#
# Coordination Sequence:
#
# PCOD9136839 Si02
#       7
#     4   4   4   4   4   4   4
#     4  10  21  44  69  92 140 177 222 288 355 402
#     4  11  23  44  70 101 138 184 229 286 349 413
#     4   9  22  42  64 105 129 177 236 279 337 428
#     4  11  23  42  67 105 131 180 244 280 341 430
#     4  11  22  43  72  96 138 184 226 285 356 405
#     4  11  21  44  68 101 136 179 238 282 339 433
#     4   9  20  41  68  92 136 183 217 288 359 397
#
# _framework density 24.197006999999999
#
# number of rings (size 3 to 8) (size 9 to 14) (size 15 to 20)
#    0.000    1.714    2.857    1.714    2.000    4.571 
#   23.143    0.000    0.000    0.000    0.000    0.000 
#    0.000    0.000    0.000    0.000    0.000    0.000 
#
# Total GULP energy -78052.761105 kJ/mol
# GULP energy per Si atom -5575.197222 kJ/mol
# Density = 2.414193 g / cm^3
# Si number density = 24.197007 Si / 1000 Ang^3
#
#
#
# Elastic Constant Matrix: (Units=GPa)
#
#
# Indices 1 2 3 4 5 6 
#
# 1 190.9067 67.8093 30.8294 0.0000 -16.4438 0.0000
# 2 67.8093 100.8469 22.8032 0.0000 0.7645 0.0000
# 3 30.8294 22.8032 37.0494 0.0000 -5.8894 0.0000
# 4 0.0000 0.0000 0.0000 34.2630 0.0000 9.7735
# 5 -16.4438 0.7645 -5.8894 0.0000 25.6623 0.0000
# 6 0.0000 0.0000 0.0000 9.7735 0.0000 -0.9006
#
#
#
# Elastic Compliance Matrix: (Units=1/GPa)
#
#
# Indices 1 2 3 4 5 6 
#
# 1 0.007706 -0.004558 -0.002907 0.000000 0.004407 0.000000
# 2 -0.004558 0.014319 -0.005763 0.000000 -0.004670 0.000000
# 3 -0.002907 -0.005763 0.033925 0.000000 0.006095 0.000000
# 4 0.000000 0.000000 0.000000 0.007126 0.000000 0.077335
# 5 0.004407 -0.004670 0.006095 0.000000 0.043329 0.000000
# 6 0.000000 0.000000 0.000000 0.077335 0.000000 -0.271113
#
#
# Mechanical properties :
#
#
# Convention : Reuss Voigt Hill
#
# Bulk Modulus (GPa) = 33.90279 63.52077 48.71178
# Shear Modulus (GPa) = -38.93456 25.62902 -6.65277
#
# Velocity S-wave (km/s) = -4.01567 3.25804 -1.65994
# Velocity P-wave (km/s) = 2.73116 6.36094 4.06216
#
# Compressibility (1/GPa) = 0.02949610
#
# Stress axis : x y z
#
# Youngs Moduli (GPa) = 129.76955 69.83700 29.47639
#
# Poissons Ratio (x) = 0.31829 0.08568
# Poissons Ratio (y) = 0.59144 0.16987
# Poissons Ratio (z) = 0.37719 0.40246
#
# Static dielectric constant tensor:
#      x y z
#    x 2.044290 0.000000 -0.022740 
#    y 0.000000 1.998730 0.000000 
#    z -0.022740 0.000000 2.004860 
# 
# From -- ./inp_files/19298.got.cif
#   From: 2010.05.17/outbox.cif.g08.bks.cpg/sg9_10_cif.got.tgz:19298.got - 2010.06.03 20:04:27.
