data_PCOD9136945
_publ_section_title
;
Structure prediction by ZEFSAII (Michael W. Deem and Ramdas Pophale) SiO2 
 PCOD9136945
Probable space group: C C
;
_chemical_formula_sum "Si O2"
_cell_formula_units_Z 24
_cell_length_a 7.056701
_cell_length_b 11.868749
_cell_length_c 14.414488
_cell_angle_alpha 90.000000
_cell_angle_beta 50.643227
_cell_angle_gamma 90.000000
_cell_volume 933.479095
_symmetry_space_group_name_H-M "C C"
_symmetry_group_IT_number 9
_symmetry_cell_setting 'monoclinic'
loop_
_space_group_symop_operation_xyz
x,y,z
x,-y,1/2+z
1/2+x,1/2+y,z
1/2+x,1/2-y,1/2+z
loop_
_atom_site_type_symbol
_atom_site_label
_atom_site_fract_x
_atom_site_fract_y
_atom_site_fract_z
Si Si1 0.663820 0.149462 0.932670
Si Si2 0.854110 0.561768 0.533866
Si Si3 0.394876 0.337003 0.089328
Si Si4 0.979690 0.819263 0.494840
Si Si5 0.521924 0.191681 0.227176
Si Si6 0.867615 0.554685 0.750355
O O1 0.759768 0.118028 0.005757
O O2 0.914889 0.209369 0.824260
O O3 0.475899 0.254407 0.981098
O O4 0.529776 0.037262 0.943106
O O5 0.600712 0.572448 0.555230
O O6 0.981360 0.683657 0.480412
O O7 0.792911 0.545747 0.663144
O O8 0.414917 0.246854 0.165821
O O9 0.133651 0.389218 0.162076
O O10 0.819689 0.819963 0.641156
O O11 0.213655 0.876852 0.376112
O O12 0.398082 0.071985 0.278475
#
# Coordination Sequence:
#
# PCOD9136945 Si02
#       6
#     4   4   4   4   4   4
#     4  10  21  46  71 101 149 185 243 305 349 436
#     4  10  22  50  72 101 150 189 238 304 363 422
#     4  10  25  44  68 116 134 189 254 287 363 436
#     4  10  23  43  69 110 137 191 243 287 367 429
#     4  10  23  45  68 104 149 178 241 308 342 432
#     4  12  24  46  76 100 149 194 235 299 368 429
#
# _framework density 25.710269
#
# number of rings (size 3 to 8) (size 9 to 14) (size 15 to 20)
#    0.000    2.000    3.333    2.000    2.333    5.333 
#   15.000    0.000    0.000    0.000    0.000    0.000 
#    0.000    0.000    0.000    0.000    0.000    0.000 
#
# Total GULP energy -66809.284880 kJ/mol
# GULP energy per Si atom -5567.440407 kJ/mol
# Density = 2.565175 g / cm^3
# Si number density = 25.710269 Si / 1000 Ang^3
#
#
#
# Elastic Constant Matrix: (Units=GPa)
#
#
# Indices 1 2 3 4 5 6 
#
# 1 64.6972 38.8759 23.6948 -0.0002 -5.6031 0.0003
# 2 38.8759 168.8481 85.4961 -0.0002 -30.1680 0.0002
# 3 23.6948 85.4961 123.8857 -0.0003 -10.7206 0.0002
# 4 -0.0002 -0.0002 -0.0003 54.8860 0.0002 -2.9819
# 5 -5.6031 -30.1680 -10.7206 0.0002 23.1157 -0.0002
# 6 0.0003 0.0002 0.0002 -2.9819 -0.0002 29.3813
#
#
#
# Elastic Compliance Matrix: (Units=1/GPa)
#
#
# Indices 1 2 3 4 5 6 
#
# 1 0.018026 -0.003935 -0.000832 0.000000 -0.001152 0.000000
# 2 -0.003935 0.012422 -0.006772 0.000000 0.012118 0.000000
# 3 -0.000832 -0.006772 0.012629 0.000000 -0.003182 0.000000
# 4 0.000000 0.000000 0.000000 0.018321 0.000000 0.001859
# 5 -0.001152 0.012118 -0.003182 0.000000 0.057321 0.000000
# 6 0.000000 0.000000 0.000000 0.001859 0.000000 0.034224
#
#
# Mechanical properties :
#
#
# Convention : Reuss Voigt Hill
#
# Bulk Modulus (GPa) = 49.99890 72.61827 61.30858
# Shear Modulus (GPa) = 27.36931 35.43421 31.40176
#
# Velocity S-wave (km/s) = 3.26625 3.71646 3.49860
# Velocity P-wave (km/s) = 5.80636 6.83537 6.34177
#
# Compressibility (1/GPa) = 0.02000044
#
# Stress axis : x y z
#
# Youngs Moduli (GPa) = 55.47555 80.49931 79.18286
#
# Poissons Ratio (x) = 0.31676 0.06586
# Poissons Ratio (y) = 0.21829 0.53621
# Poissons Ratio (z) = 0.04614 0.54512
#
# Static dielectric constant tensor:
#      x y z
#    x 2.157460 0.000000 0.272460 
#    y 0.000000 2.145470 0.000000 
#    z 0.272460 0.000000 2.745550 
# 
# From -- ./inp_files/29121.got.cif
#   From: 2010.05.17/outbox.cif.g08.bks.cpg/sg9_15_cif.got.tgz:29121.got - 2010.06.03 20:04:27.
