data_PCOD9136777
_publ_section_title
;
Structure prediction by ZEFSAII (Michael W. Deem and Ramdas Pophale) SiO2 
 PCOD9136777
Probable space group: C C
;
_chemical_formula_sum "Si O2"
_cell_formula_units_Z 28
_cell_length_a 11.980033
_cell_length_b 12.248478
_cell_length_c 8.814427
_cell_angle_alpha 90.000000
_cell_angle_beta 57.677984
_cell_angle_gamma 90.000000
_cell_volume 1092.999453
_symmetry_space_group_name_H-M "C C"
_symmetry_group_IT_number 9
_symmetry_cell_setting 'monoclinic'
loop_
_space_group_symop_operation_xyz
x,y,z
x,-y,1/2+z
1/2+x,1/2+y,z
1/2+x,1/2-y,1/2+z
loop_
_atom_site_type_symbol
_atom_site_label
_atom_site_fract_x
_atom_site_fract_y
_atom_site_fract_z
Si Si1 0.457410 0.475767 0.155990
Si Si2 0.444941 0.920295 0.746416
Si Si3 0.359923 0.774622 0.048372
Si Si4 0.143149 0.949181 0.259059
Si Si5 0.309039 0.373892 0.997542
Si Si6 0.841821 0.615936 0.007669
Si Si7 0.138671 0.641650 0.354050
O O1 0.514292 0.777065 0.978276
O O2 0.553830 0.399915 0.187399
O O3 0.408891 0.558428 0.319568
O O4 0.341882 0.417232 0.143143
O O5 0.448633 0.904982 0.564933
O O6 0.572047 0.921087 0.762403
O O7 0.364529 0.813832 0.869496
O O8 0.373941 0.030741 0.851269
O O9 0.268273 0.870777 0.182656
O O10 0.276853 0.675177 0.173272
O O11 0.054030 0.964818 0.469285
O O12 0.204941 0.067630 0.173849
O O13 0.176148 0.395973 0.996102
O O14 0.331850 0.243177 0.976613
#
# Coordination Sequence:
#
# PCOD9136777 Si02
#       7
#     4   4   4   4   4   4   4
#     4  10  25  47  73 116 157 202 267 343 391 483
#     4   9  24  44  75 114 160 198 272 327 385 488
#     4   9  22  41  74 110 157 200 268 314 403 455
#     4  10  21  43  76 106 159 204 264 325 392 488
#     4  11  27  48  77 117 161 212 265 334 418 477
#     4  11  23  47  78 116 153 218 267 326 402 490
#     4  10  24  44  75 115 157 210 261 339 393 481
#
# _framework density 25.617581999999999
#
# number of rings (size 3 to 8) (size 9 to 14) (size 15 to 20)
#    0.857    1.143    0.000    1.714   10.000    2.286 
#    2.571    2.857    0.000    0.000    0.000    0.000 
#    0.000    0.000    0.000    0.000    0.000    0.000 
#
# Total GULP energy -78054.062149 kJ/mol
# GULP energy per Si atom -5575.290154 kJ/mol
# Density = 2.555927 g / cm^3
# Si number density = 25.617582 Si / 1000 Ang^3
#
#
#
# Elastic Constant Matrix: (Units=GPa)
#
#
# Indices 1 2 3 4 5 6 
#
# 1 116.6643 20.5456 38.0385 0.0000 20.9533 0.0000
# 2 20.5456 101.1068 29.0629 0.0000 10.7194 0.0000
# 3 38.0385 29.0629 89.6178 0.0000 33.4421 0.0000
# 4 0.0000 0.0000 0.0000 43.8998 0.0000 1.3170
# 5 20.9533 10.7194 33.4421 0.0000 63.1831 0.0000
# 6 0.0000 0.0000 0.0000 1.3170 0.0000 28.1673
#
#
#
# Elastic Compliance Matrix: (Units=1/GPa)
#
#
# Indices 1 2 3 4 5 6 
#
# 1 0.010113 -0.000907 -0.003494 0.000000 -0.001350 0.000000
# 2 -0.000907 0.010989 -0.003234 0.000000 0.000148 0.000000
# 3 -0.003494 -0.003234 0.016266 0.000000 -0.006902 0.000000
# 4 0.000000 0.000000 0.000000 0.022811 0.000000 -0.001067
# 5 -0.001350 0.000148 -0.006902 0.000000 0.019903 0.000000
# 6 0.000000 0.000000 0.000000 -0.001067 0.000000 0.035552
#
#
# Mechanical properties :
#
#
# Convention : Reuss Voigt Hill
#
# Bulk Modulus (GPa) = 45.25566 53.63142 49.44354
# Shear Modulus (GPa) = 36.16090 41.69950 38.93020
#
# Velocity S-wave (km/s) = 3.76116 4.03894 3.90252
# Velocity P-wave (km/s) = 6.04698 6.53694 6.29673
#
# Compressibility (1/GPa) = 0.02209668
#
# Stress axis : x y z
#
# Youngs Moduli (GPa) = 98.87967 91.00214 61.47810
#
# Poissons Ratio (x) = 0.08258 0.21483
# Poissons Ratio (y) = 0.08973 0.19881
# Poissons Ratio (z) = 0.34553 0.29428
#
# Static dielectric constant tensor:
#      x y z
#    x 2.153380 0.000000 0.041150 
#    y 0.000000 2.193630 0.000000 
#    z 0.041150 0.000000 2.036300 
# 
# From -- ./inp_files/7000.got.cif
#   From: 2010.05.17/outbox.cif.g08.bks.cpg/sg9_4_cif.got.tgz:7000.got - 2010.06.03 20:04:27.
