data_PCOD9136683
_publ_section_title
;
Structure prediction by ZEFSAII (Michael W. Deem and Ramdas Pophale) SiO2 
 PCOD9136683
Probable space group: C C
;
_chemical_formula_sum "Si O2"
_cell_formula_units_Z 24
_cell_length_a 15.739505
_cell_length_b 13.445890
_cell_length_c 5.079722
_cell_angle_alpha 90.000000
_cell_angle_beta 110.952707
_cell_angle_gamma 90.000000
_cell_volume 1003.944587
_symmetry_space_group_name_H-M "C C"
_symmetry_group_IT_number 9
_symmetry_cell_setting 'monoclinic'
loop_
_space_group_symop_operation_xyz
x,y,z
x,-y,1/2+z
1/2+x,1/2+y,z
1/2+x,1/2-y,1/2+z
loop_
_atom_site_type_symbol
_atom_site_label
_atom_site_fract_x
_atom_site_fract_y
_atom_site_fract_z
Si Si1 0.170320 0.449028 0.763400
Si Si2 0.698869 0.263636 0.042435
Si Si3 0.538501 0.681154 0.962477
Si Si4 0.383586 0.799599 0.966758
Si Si5 0.185412 0.060923 0.922155
Si Si6 0.980940 0.369737 0.597115
O O1 0.201542 0.534052 0.595073
O O2 0.197230 0.346638 0.656346
O O3 0.059791 0.450092 0.658233
O O4 0.712599 0.338672 0.302495
O O5 0.782140 0.276554 0.934400
O O6 0.608969 0.291485 0.774112
O O7 0.437287 0.696212 0.961939
O O8 0.577439 0.583765 0.862387
O O9 0.537557 0.771463 0.751833
O O10 0.432347 0.849208 0.270499
O O11 0.405768 0.872645 0.745468
O O12 0.213102 0.977819 0.739873
#
# Coordination Sequence:
#
# PCOD9136683 Si02
#       6
#     4   4   4   4   4   4
#     4  12  24  41  72 102 134 185 230 275 349 417
#     4  12  24  46  74  96 146 181 227 299 338 412
#     4  10  21  45  69  97 130 185 227 274 353 402
#     4  10  23  39  73  98 131 186 227 277 358 399
#     4  12  25  40  71 101 131 181 231 280 349 412
#     4  10  21  43  63 102 130 178 228 273 343 406
#
# _framework density 23.905705000000001
#
# number of rings (size 3 to 8) (size 9 to 14) (size 15 to 20)
#    1.000    0.000    5.000    2.000    2.333    0.000 
#    0.000    6.667    0.000    0.000    0.000    0.000 
#    0.000    0.000    0.000    0.000    0.000    0.000 
#
# Total GULP energy -66960.324389 kJ/mol
# GULP energy per Si atom -5580.027032 kJ/mol
# Density = 2.385129 g / cm^3
# Si number density = 23.905705 Si / 1000 Ang^3
#
#
#
# Elastic Constant Matrix: (Units=GPa)
#
#
# Indices 1 2 3 4 5 6 
#
# 1 120.4802 38.9213 30.8024 0.0000 -36.2392 0.0000
# 2 38.9213 63.7308 23.6442 0.0000 -15.8494 0.0000
# 3 30.8024 23.6442 139.8661 0.0000 -33.7486 0.0000
# 4 0.0000 0.0000 0.0000 31.2641 0.0000 -17.5805
# 5 -36.2392 -15.8494 -33.7486 0.0000 41.5990 0.0000
# 6 0.0000 0.0000 0.0000 -17.5805 0.0000 34.1161
#
#
#
# Elastic Compliance Matrix: (Units=1/GPa)
#
#
# Indices 1 2 3 4 5 6 
#
# 1 0.012840 -0.005661 0.000383 0.000000 0.009340 0.000000
# 2 -0.005661 0.020146 -0.001861 0.000000 0.001234 0.000000
# 3 0.000383 -0.001861 0.009064 0.000000 0.006978 0.000000
# 4 0.000000 0.000000 0.000000 0.045036 0.000000 0.023208
# 5 0.009340 0.001234 0.006978 0.000000 0.038306 0.000000
# 6 0.000000 0.000000 0.000000 0.023208 0.000000 0.041271
#
#
# Mechanical properties :
#
#
# Convention : Reuss Voigt Hill
#
# Bulk Modulus (GPa) = 36.00906 56.75697 46.38302
# Shear Modulus (GPa) = 26.28836 36.77644 31.53240
#
# Velocity S-wave (km/s) = 3.31972 3.92649 3.63579
# Velocity P-wave (km/s) = 5.45800 6.65958 6.08850
#
# Compressibility (1/GPa) = 0.02777079
#
# Stress axis : x y z
#
# Youngs Moduli (GPa) = 77.87959 49.63839 110.33081
#
# Poissons Ratio (x) = 0.28101 -0.04223
# Poissons Ratio (y) = 0.44088 0.20534
# Poissons Ratio (z) = -0.02981 0.09238
#
# Static dielectric constant tensor:
#      x y z
#    x 1.977840 0.000000 -0.014650 
#    y 0.000000 1.928750 0.000000 
#    z -0.014650 0.000000 1.913190 
# 
# From -- ./inp_files/2411.got.cif
#   From: 2010.05.17/outbox.cif.g08.bks.cpg/sg9_2_cif.got.tgz:2411.got - 2010.06.03 20:04:27.
