data_PCOD9136266
_publ_section_title
;
Structure prediction by ZEFSAII (Michael W. Deem and Ramdas Pophale) SiO2 
 PCOD9136266
Probable space group: C C
;
_chemical_formula_sum "Si O2"
_cell_formula_units_Z 24
_cell_length_a 5.072040
_cell_length_b 18.218091
_cell_length_c 11.614574
_cell_angle_alpha 90.000000
_cell_angle_beta 63.463198
_cell_angle_gamma 90.000000
_cell_volume 960.153816
_symmetry_space_group_name_H-M "C C"
_symmetry_group_IT_number 9
_symmetry_cell_setting 'monoclinic'
loop_
_space_group_symop_operation_xyz
x,y,z
x,-y,1/2+z
1/2+x,1/2+y,z
1/2+x,1/2-y,1/2+z
loop_
_atom_site_type_symbol
_atom_site_label
_atom_site_fract_x
_atom_site_fract_y
_atom_site_fract_z
Si Si1 0.720880 0.289904 0.159090
Si Si2 0.226199 0.366559 0.568042
Si Si3 0.258544 0.494877 0.422200
Si Si4 0.145307 0.298379 0.895553
Si Si5 0.675434 0.416038 0.012016
Si Si6 0.093310 0.905677 0.707585
O O1 0.633356 0.217983 0.099501
O O2 0.663706 0.269274 0.302890
O O3 0.585755 0.365423 0.138410
O O4 0.064675 0.291288 0.046366
O O5 0.287380 0.408747 0.438685
O O6 0.500623 0.380939 0.598144
O O7 0.935720 0.410489 0.664509
O O8 0.426391 0.542214 0.489118
O O9 0.420988 0.521088 0.275369
O O10 0.923380 0.522597 0.488344
O O11 0.440345 0.342528 0.814119
O O12 0.879479 0.353103 0.909888
#
# Coordination Sequence:
#
# PCOD9136266 Si02
#       6
#     4   4   4   4   4   4
#     4   9  19  40  61  91 120 162 206 251 301 360
#     4  11  23  39  63  90 121 159 205 258 300 361
#     4  11  20  41  60  89 117 160 205 242 310 367
#     4   8  18  38  63  87 121 162 202 245 304 361
#     4   9  21  36  64  83 123 162 202 243 307 363
#     4  10  21  40  63  84 124 169 192 245 328 366
#
# _framework density 24.995996000000002
#
# number of rings (size 3 to 8) (size 9 to 14) (size 15 to 20)
#    1.000    1.333    0.000    4.000    0.000    2.667 
#    6.000    0.000    0.000    0.000    0.000    0.000 
#    0.000    0.000    0.000    0.000    0.000    0.000 
#
# Total GULP energy -66842.051183 kJ/mol
# GULP energy per Si atom -5570.170932 kJ/mol
# Density = 2.493910 g / cm^3
# Si number density = 24.995996 Si / 1000 Ang^3
#
#
#
# Elastic Constant Matrix: (Units=GPa)
#
#
# Indices 1 2 3 4 5 6 
#
# 1 90.1959 -0.1280 -3.5703 0.0000 3.1197 0.0000
# 2 -0.1280 99.2676 7.8161 0.0000 4.8081 0.0000
# 3 -3.5703 7.8161 56.3846 0.0000 -2.6709 0.0000
# 4 0.0000 0.0000 0.0000 52.4773 0.0000 10.5749
# 5 3.1197 4.8081 -2.6709 0.0000 16.7155 0.0000
# 6 0.0000 0.0000 0.0000 10.5749 0.0000 17.0836
#
#
#
# Elastic Compliance Matrix: (Units=1/GPa)
#
#
# Indices 1 2 3 4 5 6 
#
# 1 0.011180 0.000064 0.000604 0.000000 -0.002009 0.000000
# 2 0.000064 0.010356 -0.001585 0.000000 -0.003244 0.000000
# 3 0.000604 -0.001585 0.018147 0.000000 0.003243 0.000000
# 4 0.000000 0.000000 0.000000 0.021772 0.000000 -0.013477
# 5 -0.002009 -0.003244 0.003243 0.000000 0.061651 0.000000
# 6 0.000000 0.000000 0.000000 -0.013477 0.000000 0.066878
#
#
# Mechanical properties :
#
#
# Convention : Reuss Voigt Hill
#
# Bulk Modulus (GPa) = 26.42076 28.23153 27.32615
# Shear Modulus (GPa) = 24.45774 33.37063 28.91419
#
# Velocity S-wave (km/s) = 3.13144 3.65778 3.40480
# Velocity P-wave (km/s) = 4.86492 5.39982 5.13934
#
# Compressibility (1/GPa) = 0.03784902
#
# Stress axis : x y z
#
# Youngs Moduli (GPa) = 89.44186 96.56427 55.10572
#
# Poissons Ratio (x) = -0.00619 -0.03328
# Poissons Ratio (y) = -0.00574 0.08735
# Poissons Ratio (z) = -0.05402 0.15307
#
# Static dielectric constant tensor:
#      x y z
#    x 1.928330 0.000000 0.006540 
#    y 0.000000 2.078140 0.000000 
#    z 0.006540 0.000000 2.132150 
# 
# From -- ./inp_files/22116.got.cif
#   From: 2010.05.17/outbox.cif.g08.bks.cpg/sg9_12_cif.got.tgz:22116.got - 2010.06.03 20:04:27.
