data_PCOD9136206
_publ_section_title
;
Structure prediction by ZEFSAII (Michael W. Deem and Ramdas Pophale) SiO2 
 PCOD9136206
Probable space group: C C
;
_chemical_formula_sum "Si O2"
_cell_formula_units_Z 32
_cell_length_a 11.474018
_cell_length_b 12.043209
_cell_length_c 9.965576
_cell_angle_alpha 90.000000
_cell_angle_beta 67.527363
_cell_angle_gamma 90.000000
_cell_volume 1272.510442
_symmetry_space_group_name_H-M "C C"
_symmetry_group_IT_number 9
_symmetry_cell_setting 'monoclinic'
loop_
_space_group_symop_operation_xyz
x,y,z
x,-y,1/2+z
1/2+x,1/2+y,z
1/2+x,1/2-y,1/2+z
loop_
_atom_site_type_symbol
_atom_site_label
_atom_site_fract_x
_atom_site_fract_y
_atom_site_fract_z
Si Si1 0.825320 0.333279 0.101400
Si Si2 0.173791 0.056636 0.204833
Si Si3 0.382207 0.694248 0.826813
Si Si4 0.639220 0.902885 0.305309
Si Si5 0.408400 0.619666 0.220498
Si Si6 0.581131 0.954042 0.051583
Si Si7 0.446724 0.166581 0.076475
Si Si8 0.452818 0.520112 0.463321
O O1 0.717771 0.428481 0.157298
O O2 0.829395 0.219662 0.188960
O O3 0.951911 0.390412 0.096671
O O4 0.856692 0.297548 0.935763
O O5 0.099228 0.054431 0.380638
O O6 0.302607 0.126044 0.142131
O O7 0.065116 0.114558 0.158729
O O8 0.244825 0.660114 0.839220
O O9 0.457092 0.723434 0.658557
O O10 0.443680 0.598308 0.888451
O O11 0.655929 0.905173 0.141252
O O12 0.506253 0.842997 0.402614
O O13 0.633871 0.023360 0.380288
O O14 0.381526 0.600328 0.389388
O O15 0.393108 0.511067 0.131478
O O16 0.536265 0.077966 0.112953
#
# Coordination Sequence:
#
# PCOD9136206 Si02
#       8
#     4   4   4   4   4   4   4   4
#     4  10  21  39  68  92 131 177 224 275 340 409
#     4   9  21  37  68  88 129 174 218 282 324 411
#     4  11  23  40  65  98 136 176 221 281 353 418
#     4  10  23  38  70  93 138 173 224 281 352 406
#     4   9  21  40  64  95 128 167 223 273 336 408
#     4   9  21  43  63  98 128 174 228 281 340 415
#     4   9  22  39  64  95 127 172 226 274 330 411
#     4   9  22  40  60  91 129 171 218 275 339 398
#
# _framework density 25.147141000000001
#
# number of rings (size 3 to 8) (size 9 to 14) (size 15 to 20)
#    1.500    1.000    0.000    0.750    5.250    3.000 
#    2.250    2.500    2.750    0.000    0.000    0.000 
#    0.000    0.000    0.000    0.000    0.000    0.000 
#
# Total GULP energy -89162.928054 kJ/mol
# GULP energy per Si atom -5572.683003 kJ/mol
# Density = 2.508991 g / cm^3
# Si number density = 25.147141 Si / 1000 Ang^3
#
#
#
# Elastic Constant Matrix: (Units=GPa)
#
#
# Indices 1 2 3 4 5 6 
#
# 1 90.1770 6.6979 38.7098 0.0000 -7.9329 0.0000
# 2 6.6979 87.4490 7.6417 0.0000 -4.7747 0.0000
# 3 38.7098 7.6417 119.7386 0.0000 -10.5578 0.0000
# 4 0.0000 0.0000 0.0000 27.4254 0.0000 -1.3728
# 5 -7.9329 -4.7747 -10.5578 0.0000 37.8283 0.0000
# 6 0.0000 0.0000 0.0000 -1.3728 0.0000 15.8534
#
#
#
# Elastic Compliance Matrix: (Units=1/GPa)
#
#
# Indices 1 2 3 4 5 6 
#
# 1 0.012996 -0.000560 -0.004031 0.000000 0.001530 0.000000
# 2 -0.000560 0.011584 -0.000451 0.000000 0.001219 0.000000
# 3 -0.004031 -0.000451 0.009846 0.000000 0.001846 0.000000
# 4 0.000000 0.000000 0.000000 0.036621 0.000000 0.003171
# 5 0.001530 0.001219 0.001846 0.000000 0.027425 0.000000
# 6 0.000000 0.000000 0.000000 0.003171 0.000000 0.063353
#
#
# Mechanical properties :
#
#
# Convention : Reuss Voigt Hill
#
# Bulk Modulus (GPa) = 41.07895 44.82928 42.95411
# Shear Modulus (GPa) = 27.77438 32.50908 30.14173
#
# Velocity S-wave (km/s) = 3.32697 3.59939 3.46586
# Velocity P-wave (km/s) = 5.57935 5.92787 5.75625
#
# Compressibility (1/GPa) = 0.02434337
#
# Stress axis : x y z
#
# Youngs Moduli (GPa) = 76.94866 86.32560 101.56271
#
# Poissons Ratio (x) = 0.04831 0.40937
# Poissons Ratio (y) = 0.04306 0.04579
# Poissons Ratio (z) = 0.31016 0.03892
#
# Static dielectric constant tensor:
#      x y z
#    x 2.003070 0.000000 -0.036880 
#    y 0.000000 2.124810 0.000000 
#    z -0.036880 0.000000 2.023560 
# 
# From -- ./inp_files/16703.got.cif
#   From: 2010.05.17/outbox.cif.g08.bks.cpg/sg9_9_cif.got.tgz:16703.got - 2010.06.03 20:04:27.
