data_PCOD9136920
_publ_section_title
;
Structure prediction by ZEFSAII (Michael W. Deem and Ramdas Pophale) SiO2 
 PCOD9136920
Probable space group: C C
;
_chemical_formula_sum "Si O2"
_cell_formula_units_Z 32
_cell_length_a 10.026685
_cell_length_b 28.063762
_cell_length_c 9.583372
_cell_angle_alpha 90.000000
_cell_angle_beta 149.319428
_cell_angle_gamma 90.000000
_cell_volume 1375.959813
_symmetry_space_group_name_H-M "C C"
_symmetry_group_IT_number 9
_symmetry_cell_setting 'monoclinic'
loop_
_space_group_symop_operation_xyz
x,y,z
x,-y,1/2+z
1/2+x,1/2+y,z
1/2+x,1/2-y,1/2+z
loop_
_atom_site_type_symbol
_atom_site_label
_atom_site_fract_x
_atom_site_fract_y
_atom_site_fract_z
Si Si1 0.381070 0.280904 0.362390
Si Si2 0.641005 0.572139 0.349046
Si Si3 0.323093 0.515379 0.685731
Si Si4 0.770877 0.776989 0.592831
Si Si5 0.408621 0.892182 0.552487
Si Si6 0.552752 0.384773 0.470978
Si Si7 0.013495 0.505424 0.156057
Si Si8 0.976708 0.864261 0.959389
O O1 0.639565 0.248466 0.582767
O O2 0.339127 0.286949 0.492138
O O3 0.416690 0.333655 0.333388
O O4 0.917817 0.548807 0.560181
O O5 0.604724 0.604157 0.451561
O O6 0.492483 0.523244 0.255486
O O7 0.560616 0.601619 0.141096
O O8 0.424128 0.568801 0.784758
O O9 0.269940 0.495097 0.790656
O O10 0.056759 0.515056 0.358109
O O11 0.461903 0.766322 0.312019
O O12 0.864639 0.818367 0.778857
O O13 0.356658 0.947949 0.465836
O O14 0.713025 0.884981 0.792607
O O15 0.331112 0.881869 0.642564
O O16 0.207237 0.860805 0.280183
#
# Coordination Sequence:
#
# PCOD9136920 Si02
#       8
#     4   4   4   4   4   4   4   4
#     4  10  24  47  76 109 144 189 256 315 363 438
#     4  12  26  44  70 101 142 196 252 286 358 449
#     4  12  25  44  67 102 149 193 250 298 362 444
#     4  10  21  45  76 106 140 180 245 310 363 433
#     4  12  27  43  72 102 156 182 241 296 367 430
#     4  12  26  49  74 109 145 206 244 310 379 443
#     4  12  25  42  65 100 146 197 239 304 351 434
#     4  12  26  48  72 109 140 193 237 299 369 439
#
# _framework density 23.256492000000001
#
# number of rings (size 3 to 8) (size 9 to 14) (size 15 to 20)
#    0.000    0.500    5.000    3.000    1.750    3.000 
#    2.250    3.750    0.000    0.000    0.000    0.000 
#    0.000    0.000    0.000    0.000    0.000    0.000 
#
# Total GULP energy -89373.576640 kJ/mol
# GULP energy per Si atom -5585.848540 kJ/mol
# Density = 2.320356 g / cm^3
# Si number density = 23.256492 Si / 1000 Ang^3
#
#
#
# Elastic Constant Matrix: (Units=GPa)
#
#
# Indices 1 2 3 4 5 6 
#
# 1 100.1894 28.3576 10.7451 0.0000 4.7030 0.0000
# 2 28.3576 85.1854 -13.3620 0.0000 -1.9258 0.0000
# 3 10.7451 -13.3620 51.2543 0.0000 3.4935 0.0000
# 4 0.0000 0.0000 0.0000 27.0072 0.0000 -1.5758
# 5 4.7030 -1.9258 3.4935 0.0000 28.0128 0.0000
# 6 0.0000 0.0000 0.0000 -1.5758 0.0000 28.0896
#
#
#
# Elastic Compliance Matrix: (Units=1/GPa)
#
#
# Indices 1 2 3 4 5 6 
#
# 1 0.011714 -0.004490 -0.003501 0.000000 -0.001839 0.000000
# 2 -0.004490 0.013966 0.004504 0.000000 0.001152 0.000000
# 3 -0.003501 0.004504 0.021541 0.000000 -0.001789 0.000000
# 4 0.000000 0.000000 0.000000 0.037149 0.000000 0.002084
# 5 -0.001839 0.001152 -0.001789 0.000000 0.036309 0.000000
# 6 0.000000 0.000000 0.000000 0.002084 0.000000 0.035717
#
#
# Mechanical properties :
#
#
# Convention : Reuss Voigt Hill
#
# Bulk Modulus (GPa) = 24.84712 32.01228 28.42970
# Shear Modulus (GPa) = 28.28284 30.68116 29.48200
#
# Velocity S-wave (km/s) = 3.49108 3.63609 3.56432
# Velocity P-wave (km/s) = 5.19205 5.60562 5.40279
#
# Compressibility (1/GPa) = 0.04024612
#
# Stress axis : x y z
#
# Youngs Moduli (GPa) = 85.36965 71.60064 46.42397
#
# Poissons Ratio (x) = 0.32150 0.16253
# Poissons Ratio (y) = 0.38332 -0.20909
# Poissons Ratio (z) = 0.29888 -0.32248
#
# Static dielectric constant tensor:
#      x y z
#    x 1.895850 0.000000 0.064950 
#    y 0.000000 1.865730 0.000000 
#    z 0.064950 0.000000 1.950480 
# 
# From -- ./inp_files/6441.got.cif
#   From: 2010.05.17/outbox.cif.g08.bks.cpg/sg9_4_cif.got.tgz:6441.got - 2010.06.03 20:04:27.
