data_PCOD9136225
_publ_section_title
;
Structure prediction by ZEFSAII (Michael W. Deem and Ramdas Pophale) SiO2 
 PCOD9136225
Probable space group: C C
;
_chemical_formula_sum "Si O2"
_cell_formula_units_Z 32
_cell_length_a 11.477885
_cell_length_b 13.579131
_cell_length_c 14.730866
_cell_angle_alpha 90.000000
_cell_angle_beta 30.264292
_cell_angle_gamma 90.000000
_cell_volume 1157.133753
_symmetry_space_group_name_H-M "C C"
_symmetry_group_IT_number 9
_symmetry_cell_setting 'monoclinic'
loop_
_space_group_symop_operation_xyz
x,y,z
x,-y,1/2+z
1/2+x,1/2+y,z
1/2+x,1/2-y,1/2+z
loop_
_atom_site_type_symbol
_atom_site_label
_atom_site_fract_x
_atom_site_fract_y
_atom_site_fract_z
Si Si1 0.435970 0.046388 0.836180
Si Si2 0.040311 0.106568 0.992679
Si Si3 0.516200 0.356914 0.240025
Si Si4 0.313806 0.583723 0.694149
Si Si5 0.899052 0.316494 0.103341
Si Si6 0.797327 0.168086 0.469395
Si Si7 0.049446 0.638813 0.143399
Si Si8 0.809095 0.690658 0.122817
O O1 0.544502 0.053331 0.863648
O O2 0.623216 0.106631 0.649109
O O3 0.441056 0.941081 0.783112
O O4 0.189206 0.092787 0.983520
O O5 0.867214 0.198114 0.118329
O O6 0.932229 0.999503 0.052641
O O7 0.231039 0.138576 0.791844
O O8 0.430178 0.421513 0.214033
O O9 0.782400 0.363015 0.092348
O O10 0.487442 0.244134 0.227090
O O11 0.326097 0.373529 0.446663
O O12 0.333120 0.697727 0.652433
O O13 0.160435 0.327064 0.965529
O O14 0.839049 0.268324 0.499524
O O15 0.061759 0.136068 0.284385
O O16 0.954400 0.634147 0.103538
#
# Coordination Sequence:
#
# PCOD9136225 Si02
#       8
#     4   4   4   4   4   4   4   4
#     4  10  23  41  71 102 142 189 248 293 366 433
#     4  11  25  45  73 103 145 195 236 304 371 448
#     4  11  24  42  70 103 144 192 240 302 372 436
#     4  10  22  43  67 103 139 185 243 300 357 438
#     4  11  22  45  69 101 144 194 241 294 380 438
#     4  10  21  41  66  96 133 189 234 293 350 425
#     4  11  24  42  71 108 147 192 239 308 363 439
#     4  10  21  39  71  96 138 184 243 286 359 423
#
# _framework density 27.654540000000001
#
# number of rings (size 3 to 8) (size 9 to 14) (size 15 to 20)
#    0.000    1.500    0.000    6.000    7.000    0.000 
#    9.000    0.000    0.000    0.000    0.000    0.000 
#    0.000    0.000    0.000    0.000    0.000    0.000 
#
# Total GULP energy -89382.770990 kJ/mol
# GULP energy per Si atom -5586.423187 kJ/mol
# Density = 2.759160 g / cm^3
# Si number density = 27.654540 Si / 1000 Ang^3
#
#
#
# Elastic Constant Matrix: (Units=GPa)
#
#
# Indices 1 2 3 4 5 6 
#
# 1 215.6721 30.4353 22.3612 -0.0055 -50.2864 -0.0004
# 2 30.4353 94.0487 15.9220 -0.0071 -3.1844 0.0015
# 3 22.3612 15.9220 60.8619 -0.0133 -28.4568 0.0068
# 4 -0.0055 -0.0071 -0.0133 42.9213 0.0034 -0.2009
# 5 -50.2864 -3.1844 -28.4568 0.0034 55.2745 -0.0018
# 6 -0.0004 0.0015 0.0068 -0.2009 -0.0018 28.2874
#
#
#
# Elastic Compliance Matrix: (Units=1/GPa)
#
#
# Indices 1 2 3 4 5 6 
#
# 1 0.006231 -0.001994 0.001092 0.000000 0.006116 0.000000
# 2 -0.001994 0.011818 -0.003805 0.000001 -0.003092 0.000000
# 3 0.001092 -0.003805 0.022899 0.000006 0.012563 -0.000004
# 4 0.000000 0.000001 0.000006 0.023299 0.000002 0.000165
# 5 0.006116 -0.003092 0.012563 0.000002 0.029945 -0.000001
# 6 0.000000 0.000000 -0.000004 0.000165 -0.000001 0.035353
#
#
# Mechanical properties :
#
#
# Convention : Reuss Voigt Hill
#
# Bulk Modulus (GPa) = 31.71230 56.44664 44.07947
# Shear Modulus (GPa) = 33.45175 45.42094 39.43635
#
# Velocity S-wave (km/s) = 3.48175 4.05710 3.78038
# Velocity P-wave (km/s) = 5.25886 6.51171 5.91853
#
# Compressibility (1/GPa) = 0.03153351
#
# Stress axis : x y z
#
# Youngs Moduli (GPa) = 160.49188 84.62003 43.67037
#
# Poissons Ratio (x) = 0.16875 -0.04769
# Poissons Ratio (y) = 0.32005 0.16615
# Poissons Ratio (z) = -0.17525 0.32195
#
# Static dielectric constant tensor:
#      x y z
#    x 2.294830 -0.000010 0.017550 
#    y -0.000010 2.169720 0.000000 
#    z 0.017550 0.000000 2.283270 
# 
# From -- ./inp_files/30146.got.cif
#   From: 2010.05.17/outbox.cif.g08.bks.cpg/sg9_16_cif.got.tgz:30146.got - 2010.06.03 20:04:27.
