data_PCOD9136130
_publ_section_title
;
Structure prediction by ZEFSAII (Michael W. Deem and Ramdas Pophale) SiO2 
 PCOD9136130
Probable space group: C C
;
_chemical_formula_sum "Si O2"
_cell_formula_units_Z 32
_cell_length_a 12.990631
_cell_length_b 5.251174
_cell_length_c 20.182367
_cell_angle_alpha 90.000000
_cell_angle_beta 112.744346
_cell_angle_gamma 90.000000
_cell_volume 1269.703449
_symmetry_space_group_name_H-M "C C"
_symmetry_group_IT_number 9
_symmetry_cell_setting 'monoclinic'
loop_
_space_group_symop_operation_xyz
x,y,z
x,-y,1/2+z
1/2+x,1/2+y,z
1/2+x,1/2-y,1/2+z
loop_
_atom_site_type_symbol
_atom_site_label
_atom_site_fract_x
_atom_site_fract_y
_atom_site_fract_z
Si Si1 0.926730 0.749629 0.178000
Si Si2 0.389098 0.100004 0.841019
Si Si3 0.988265 0.379638 0.079353
Si Si4 0.510295 0.264426 0.720704
Si Si5 0.300143 0.903874 0.456588
Si Si6 0.755788 0.075347 0.811530
Si Si7 0.210492 0.424988 0.054919
Si Si8 0.646349 0.810555 0.412648
O O1 0.806820 0.881224 0.134199
O O2 0.982717 0.638888 0.123250
O O3 0.925945 0.470950 0.215082
O O4 0.993355 0.948802 0.240719
O O5 0.307836 0.321539 0.793065
O O6 0.520013 0.134388 0.860564
O O7 0.339209 0.815414 0.824875
O O8 0.381102 0.173036 0.917751
O O9 0.985087 0.175647 0.136662
O O10 0.096703 0.349078 0.062508
O O11 0.877441 0.373404 0.008811
O O12 0.635505 0.160002 0.753982
O O13 0.262081 0.741708 0.509026
O O14 0.186260 0.029852 0.402475
O O15 0.723825 0.028254 0.881403
O O16 0.169048 0.658535 0.996942
#
# Coordination Sequence:
#
# PCOD9136130 Si02
#       8
#     4   4   4   4   4   4   4   4
#     4   9  22  40  63  92 124 163 206 261 316 368
#     4  11  24  42  64  96 126 169 213 261 317 372
#     4   9  21  38  65  95 125 168 204 262 320 379
#     4  10  21  46  61  87 129 168 208 267 307 366
#     4  10  21  39  62  97 131 161 205 268 318 382
#     4  11  25  44  65  89 131 169 218 263 308 375
#     4  11  20  39  65  98 125 165 207 259 328 382
#     4  11  24  38  67  94 129 169 211 261 326 374
#
# _framework density 25.202736000000002
#
# number of rings (size 3 to 8) (size 9 to 14) (size 15 to 20)
#    0.750    1.000    2.500    1.500    1.750    1.000 
#    4.500    0.000    0.000    0.000    0.000    0.000 
#    0.000    0.000    0.000    0.000    0.000    0.000 
#
# Total GULP energy -89068.024173 kJ/mol
# GULP energy per Si atom -5566.751511 kJ/mol
# Density = 2.514537 g / cm^3
# Si number density = 25.202736 Si / 1000 Ang^3
#
#
#
# Elastic Constant Matrix: (Units=GPa)
#
#
# Indices 1 2 3 4 5 6 
#
# 1 130.3682 29.6850 12.3645 0.0000 22.0226 0.0000
# 2 29.6850 95.8979 8.4817 0.0000 16.8864 0.0000
# 3 12.3645 8.4817 61.7467 0.0000 24.3575 0.0000
# 4 0.0000 0.0000 0.0000 28.1046 0.0000 0.3239
# 5 22.0226 16.8864 24.3575 0.0000 37.9306 0.0000
# 6 0.0000 0.0000 0.0000 0.3239 0.0000 24.7983
#
#
#
# Elastic Compliance Matrix: (Units=1/GPa)
#
#
# Indices 1 2 3 4 5 6 
#
# 1 0.008844 -0.001983 0.000239 0.000000 -0.004406 0.000000
# 2 -0.001983 0.011775 0.000527 0.000000 -0.004429 0.000000
# 3 0.000239 0.000527 0.021726 0.000000 -0.014325 0.000000
# 4 0.000000 0.000000 0.000000 0.035587 0.000000 -0.000465
# 5 -0.004406 -0.004429 -0.014325 0.000000 0.040092 0.000000
# 6 0.000000 0.000000 0.000000 -0.000465 0.000000 0.040331
#
#
# Mechanical properties :
#
#
# Convention : Reuss Voigt Hill
#
# Bulk Modulus (GPa) = 25.05594 43.23055 34.14325
# Shear Modulus (GPa) = 28.72049 33.99883 31.35966
#
# Velocity S-wave (km/s) = 3.37943 3.67688 3.53128
# Velocity P-wave (km/s) = 5.01903 5.93433 5.49577
#
# Compressibility (1/GPa) = 0.03991070
#
# Stress axis : x y z
#
# Youngs Moduli (GPa) = 113.07594 84.92656 46.02841
#
# Poissons Ratio (x) = 0.16840 -0.01102
# Poissons Ratio (y) = 0.22422 -0.02425
# Poissons Ratio (z) = -0.02707 -0.04474
#
# Static dielectric constant tensor:
#      x y z
#    x 1.974100 0.000000 -0.084080 
#    y 0.000000 2.244830 0.000000 
#    z -0.084080 0.000000 2.166660 
# 
# From -- ./inp_files/33030.got.cif
#   From: 2010.05.17/outbox.cif.g08.bks.cpg/sg9_17_cif.got.tgz:33030.got - 2010.06.03 20:04:27.
