data_PCOD9136772
_publ_section_title
;
Structure prediction by ZEFSAII (Michael W. Deem and Ramdas Pophale) SiO2 
 PCOD9136772
Probable space group: C C
;
_chemical_formula_sum "Si O2"
_cell_formula_units_Z 20
_cell_length_a 8.334350
_cell_length_b 22.321963
_cell_length_c 4.872560
_cell_angle_alpha 90.000000
_cell_angle_beta 55.319255
_cell_angle_gamma 90.000000
_cell_volume 745.435810
_symmetry_space_group_name_H-M "C C"
_symmetry_group_IT_number 9
_symmetry_cell_setting 'monoclinic'
loop_
_space_group_symop_operation_xyz
x,y,z
x,-y,1/2+z
1/2+x,1/2+y,z
1/2+x,1/2-y,1/2+z
loop_
_atom_site_type_symbol
_atom_site_label
_atom_site_fract_x
_atom_site_fract_y
_atom_site_fract_z
Si Si1 0.994070 0.036403 0.132420
Si Si2 0.525151 0.036647 0.655487
Si Si3 0.530567 0.332823 0.567151
Si Si4 0.590043 0.204971 0.413544
Si Si5 0.371160 0.843858 0.605405
O O1 0.759832 0.040957 0.398484
O O2 0.054273 0.017820 0.377773
O O3 0.064700 0.098950 0.938086
O O4 0.444755 0.095092 0.885425
O O5 0.468390 0.980367 0.902806
O O6 0.299105 0.323378 0.774277
O O7 0.642404 0.336112 0.752675
O O8 0.611646 0.275267 0.324267
O O9 0.471545 0.167405 0.300864
O O10 0.471568 0.205841 0.812136
#
# Coordination Sequence:
#
# PCOD9136772 Si02
#       5
#     4   4   4   4   4
#     4  10  24  43  75 110 148 197 246 311 375 442
#     4  10  21  43  73 105 149 197 247 309 375 442
#     4  12  28  51  79 110 159 196 259 310 379 452
#     4  12  29  47  75 112 151 199 253 312 378 440
#     4  12  28  48  74 113 149 199 253 314 373 452
#
# _framework density 26.829943
#
# number of rings (size 3 to 8) (size 9 to 14) (size 15 to 20)
#    0.000    0.800    4.000    1.200    8.400    6.400 
#    0.000    0.000    0.000    0.000    0.000    0.000 
#    0.000    0.000    0.000    0.000    0.000    0.000 
#
# Total GULP energy -55899.720484 kJ/mol
# GULP energy per Si atom -5589.972048 kJ/mol
# Density = 2.676888 g / cm^3
# Si number density = 26.829943 Si / 1000 Ang^3
#
#
#
# Elastic Constant Matrix: (Units=GPa)
#
#
# Indices 1 2 3 4 5 6 
#
# 1 199.5768 21.6396 57.6767 0.0000 -18.0991 0.0000
# 2 21.6396 188.6760 35.2755 0.0000 8.0791 0.0000
# 3 57.6767 35.2755 57.6672 0.0000 20.4997 0.0000
# 4 0.0000 0.0000 0.0000 56.8084 0.0000 0.9387
# 5 -18.0991 8.0791 20.4997 0.0000 51.2903 0.0000
# 6 0.0000 0.0000 0.0000 0.9387 0.0000 23.7786
#
#
#
# Elastic Compliance Matrix: (Units=1/GPa)
#
#
# Indices 1 2 3 4 5 6 
#
# 1 0.009418 0.000992 -0.013000 0.000000 0.008363 0.000000
# 2 0.000992 0.006105 -0.005256 0.000000 0.001489 0.000000
# 3 -0.013000 -0.005256 0.040673 0.000000 -0.020016 0.000000
# 4 0.000000 0.000000 0.000000 0.017615 0.000000 -0.000695
# 5 0.008363 0.001489 -0.020016 0.000000 0.030213 0.000000
# 6 0.000000 0.000000 0.000000 -0.000695 0.000000 0.042082
#
#
# Mechanical properties :
#
#
# Convention : Reuss Voigt Hill
#
# Bulk Modulus (GPa) = 46.14870 75.01152 60.58011
# Shear Modulus (GPa) = 26.61596 48.46398 37.53997
#
# Velocity S-wave (km/s) = 3.15306 4.25472 3.74462
# Velocity P-wave (km/s) = 5.52209 7.22189 6.42842
#
# Compressibility (1/GPa) = 0.02166908
#
# Stress axis : x y z
#
# Youngs Moduli (GPa) = 106.17681 163.79259 24.58622
#
# Poissons Ratio (x) = -0.16251 0.31961
# Poissons Ratio (y) = -0.10534 0.12923
# Poissons Ratio (z) = 1.38025 0.86096
#
# Static dielectric constant tensor:
#      x y z
#    x 2.090310 0.000000 -0.071810 
#    y 0.000000 2.117610 0.000000 
#    z -0.071810 0.000000 2.029240 
# 
# From -- ./inp_files/594.got.cif
#   From: 2010.05.17/outbox.cif.g08.bks.cpg/sg9_1_cif.got.tgz:594.got - 2010.06.03 20:04:27.
