data_PCOD9136570
_publ_section_title
;
Structure prediction by ZEFSAII (Michael W. Deem and Ramdas Pophale) SiO2 
 PCOD9136570
Probable space group: C C
;
_chemical_formula_sum "Si O2"
_cell_formula_units_Z 28
_cell_length_a 5.113051
_cell_length_b 27.956538
_cell_length_c 7.495990
_cell_angle_alpha 90.000000
_cell_angle_beta 81.915974
_cell_angle_gamma 90.000000
_cell_volume 1060.853224
_symmetry_space_group_name_H-M "C C"
_symmetry_group_IT_number 9
_symmetry_cell_setting 'monoclinic'
loop_
_space_group_symop_operation_xyz
x,y,z
x,-y,1/2+z
1/2+x,1/2+y,z
1/2+x,1/2-y,1/2+z
loop_
_atom_site_type_symbol
_atom_site_label
_atom_site_fract_x
_atom_site_fract_y
_atom_site_fract_z
Si Si1 0.723320 0.319872 0.654190
Si Si2 0.036762 0.432047 0.044584
Si Si3 0.592400 0.772993 0.325796
Si Si4 0.520644 0.624005 0.604716
Si Si5 0.913564 0.702591 0.482328
Si Si6 0.453509 0.590010 0.021745
Si Si7 0.969925 0.461802 0.461411
O O1 0.526214 0.280151 0.758308
O O2 0.567581 0.367202 0.626982
O O3 0.884505 0.299361 0.470228
O O4 0.943438 0.323635 0.790011
O O5 0.273375 0.394305 0.014216
O O6 0.007422 0.443057 0.258143
O O7 0.067072 0.483942 0.956888
O O8 0.762280 0.409056 0.015765
O O9 0.843223 0.756838 0.420992
O O10 0.605865 0.799503 0.133727
O O11 0.648709 0.676666 0.583180
O O12 0.470535 0.610917 0.817200
O O13 0.157938 0.570480 0.068470
O O14 0.661329 0.546532 0.029620
#
# Coordination Sequence:
#
# PCOD9136570 Si02
#       7
#     4   4   4   4   4   4   4
#     4  10  24  42  66 100 136 184 234 287 356 413
#     4  10  22  39  65  95 133 177 224 283 347 413
#     4  10  24  42  66  96 140 180 236 296 340 428
#     4  10  21  42  64  97 136 178 227 288 345 414
#     4  10  24  42  66 100 136 184 234 287 356 413
#     4  10  21  42  64  97 136 178 227 288 345 414
#     4  10  22  39  65  95 133 177 224 283 347 413
#
# _framework density 26.393851000000002
#
# number of rings (size 3 to 8) (size 9 to 14) (size 15 to 20)
#    0.857    1.143    1.429    0.857    2.000    4.571 
#    5.143    0.000    0.000    0.000    0.000    0.000 
#    0.000    0.000    0.000    0.000    0.000    0.000 
#
# Total GULP energy -78197.344428 kJ/mol
# GULP energy per Si atom -5585.524602 kJ/mol
# Density = 2.633378 g / cm^3
# Si number density = 26.393851 Si / 1000 Ang^3
#
#
#
# Elastic Constant Matrix: (Units=GPa)
#
#
# Indices 1 2 3 4 5 6 
#
# 1 78.1970 8.0586 22.6173 0.0000 8.0409 0.0000
# 2 8.0586 83.9030 30.1304 0.0000 1.4401 0.0000
# 3 22.6173 30.1304 105.7396 0.0000 21.8816 0.0000
# 4 0.0000 0.0000 0.0000 40.6986 0.0000 6.7573
# 5 8.0409 1.4401 21.8816 0.0000 23.4632 0.0000
# 6 0.0000 0.0000 0.0000 6.7573 0.0000 31.2682
#
#
#
# Elastic Compliance Matrix: (Units=1/GPa)
#
#
# Indices 1 2 3 4 5 6 
#
# 1 0.013759 -0.000458 -0.002283 0.000000 -0.002558 0.000000
# 2 -0.000458 0.013510 -0.004477 0.000000 0.003502 0.000000
# 3 -0.002283 -0.004477 0.013634 0.000000 -0.011657 0.000000
# 4 0.000000 0.000000 0.000000 0.025485 0.000000 -0.005508
# 5 -0.002558 0.003502 -0.011657 0.000000 0.054153 0.000000
# 6 0.000000 0.000000 0.000000 -0.005508 0.000000 0.033172
#
#
# Mechanical properties :
#
#
# Convention : Reuss Voigt Hill
#
# Bulk Modulus (GPa) = 37.78241 43.27246 40.52744
# Shear Modulus (GPa) = 28.25346 32.88821 30.57084
#
# Velocity S-wave (km/s) = 3.27533 3.53378 3.40701
# Velocity P-wave (km/s) = 5.35254 5.75158 5.55564
#
# Compressibility (1/GPa) = 0.02646734
#
# Stress axis : x y z
#
# Youngs Moduli (GPa) = 72.68083 74.01951 73.34866
#
# Poissons Ratio (x) = 0.03388 0.16747
# Poissons Ratio (y) = 0.03326 0.32835
# Poissons Ratio (z) = 0.16595 0.33135
#
# Static dielectric constant tensor:
#      x y z
#    x 2.068600 0.000000 0.017950 
#    y 0.000000 2.071690 0.000000 
#    z 0.017950 0.000000 2.093710 
# 
# From -- ./inp_files/4160.got.cif
#   From: 2010.05.17/outbox.cif.g08.bks.cpg/sg9_3_cif.got.tgz:4160.got - 2010.06.03 20:04:27.
