data_PCOD9136348
_publ_section_title
;
Structure prediction by ZEFSAII (Michael W. Deem and Ramdas Pophale) SiO2 
 PCOD9136348
Probable space group: C C
;
_chemical_formula_sum "Si O2"
_cell_formula_units_Z 32
_cell_length_a 11.573777
_cell_length_b 25.811861
_cell_length_c 5.323536
_cell_angle_alpha 90.000000
_cell_angle_beta 66.911532
_cell_angle_gamma 90.000000
_cell_volume 1462.970107
_symmetry_space_group_name_H-M "C C"
_symmetry_group_IT_number 9
_symmetry_cell_setting 'monoclinic'
loop_
_space_group_symop_operation_xyz
x,y,z
x,-y,1/2+z
1/2+x,1/2+y,z
1/2+x,1/2-y,1/2+z
loop_
_atom_site_type_symbol
_atom_site_label
_atom_site_fract_x
_atom_site_fract_y
_atom_site_fract_z
Si Si1 0.444010 0.693827 0.396270
Si Si2 0.963486 0.471534 0.079385
Si Si3 0.041978 0.291851 0.184133
Si Si4 0.255283 0.277220 0.651152
Si Si5 0.715508 0.324403 0.853836
Si Si6 0.243458 0.514934 0.843249
Si Si7 0.341700 0.859936 0.226812
Si Si8 0.208912 0.636351 0.845926
O O1 0.475166 0.753568 0.437745
O O2 0.388884 0.705961 0.161609
O O3 0.575218 0.668820 0.362917
O O4 0.335810 0.660575 0.618433
O O5 0.919774 0.505598 0.352061
O O6 0.913301 0.414113 0.155810
O O7 0.115914 0.479572 0.949926
O O8 0.097688 0.341895 0.271936
O O9 0.939295 0.313706 0.081384
O O10 0.158163 0.261352 0.955711
O O11 0.240304 0.234769 0.441755
O O12 0.199898 0.332476 0.611438
O O13 0.796922 0.344866 0.546844
O O14 0.740637 0.356860 0.088438
O O15 0.314974 0.499917 0.031964
O O16 0.209573 0.575233 0.869859
#
# Coordination Sequence:
#
# PCOD9136348 Si02
#       8
#     4   4   4   4   4   4   4   4
#     4  11  25  44  63  99 146 193 239 282 332 435
#     4  10  21  40  68 101 139 167 224 299 359 414
#     4  11  23  39  65 103 145 184 237 283 347 421
#     4  11  25  40  68 100 144 193 238 289 343 422
#     4  12  26  46  66 103 146 196 240 281 345 438
#     4  10  23  42  68 100 136 165 225 299 363 409
#     4  12  26  42  72 105 142 190 233 291 369 415
#     4  11  25  41  72  99 142 188 234 292 362 412
#
# _framework density 21.873308999999999
#
# number of rings (size 3 to 8) (size 9 to 14) (size 15 to 20)
#    0.000    1.000    2.500    3.750   12.250    0.000 
#    0.000    0.000    0.000    4.500    0.000    0.000 
#    0.000    0.000    0.000    0.000    0.000    0.000 
#
# Total GULP energy -89188.048156 kJ/mol
# GULP energy per Si atom -5574.253010 kJ/mol
# Density = 2.182352 g / cm^3
# Si number density = 21.873309 Si / 1000 Ang^3
#
#
#
# Elastic Constant Matrix: (Units=GPa)
#
#
# Indices 1 2 3 4 5 6 
#
# 1 108.8156 10.0898 29.1102 0.0000 4.6334 0.0000
# 2 10.0898 92.3804 29.9032 0.0000 -5.1409 0.0000
# 3 29.1102 29.9032 110.8522 0.0000 23.5111 0.0000
# 4 0.0000 0.0000 0.0000 29.1749 0.0000 4.9581
# 5 4.6334 -5.1409 23.5111 0.0000 28.2545 0.0000
# 6 0.0000 0.0000 0.0000 4.9581 0.0000 21.7787
#
#
#
# Elastic Compliance Matrix: (Units=1/GPa)
#
#
# Indices 1 2 3 4 5 6 
#
# 1 0.009897 -0.000186 -0.002668 0.000000 0.000564 0.000000
# 2 -0.000186 0.012719 -0.004711 0.000000 0.006265 0.000000
# 3 -0.002668 -0.004711 0.013456 0.000000 -0.011617 0.000000
# 4 0.000000 0.000000 0.000000 0.035655 0.000000 -0.008117
# 5 0.000564 0.006265 -0.011617 0.000000 0.046106 0.000000
# 6 0.000000 0.000000 0.000000 -0.008117 0.000000 0.047764
#
#
# Mechanical properties :
#
#
# Convention : Reuss Voigt Hill
#
# Bulk Modulus (GPa) = 47.75125 50.02829 48.88977
# Shear Modulus (GPa) = 26.63700 32.03797 29.33748
#
# Velocity S-wave (km/s) = 3.49346 3.83130 3.66628
# Velocity P-wave (km/s) = 6.17662 6.51869 6.34996
#
# Compressibility (1/GPa) = 0.02094186
#
# Stress axis : x y z
#
# Youngs Moduli (GPa) = 101.04137 78.62503 74.31413
#
# Poissons Ratio (x) = 0.01461 0.19830
# Poissons Ratio (y) = 0.01878 0.35008
# Poissons Ratio (z) = 0.26962 0.37039
#
# Static dielectric constant tensor:
#      x y z
#    x 1.886610 0.000000 0.000100 
#    y 0.000000 1.781930 0.000000 
#    z 0.000100 0.000000 1.924330 
# 
# From -- ./inp_files/2087.got.cif
#   From: 2010.05.17/outbox.cif.g08.bks.cpg/sg9_2_cif.got.tgz:2087.got - 2010.06.03 20:04:27.
