data_PCOD9136558
_publ_section_title
;
Structure prediction by ZEFSAII (Michael W. Deem and Ramdas Pophale) SiO2 
 PCOD9136558
Probable space group: C C
;
_chemical_formula_sum "Si O2"
_cell_formula_units_Z 28
_cell_length_a 7.353484
_cell_length_b 12.215432
_cell_length_c 19.353808
_cell_angle_alpha 90.000000
_cell_angle_beta 136.768940
_cell_angle_gamma 90.000000
_cell_volume 1190.754747
_symmetry_space_group_name_H-M "C C"
_symmetry_group_IT_number 9
_symmetry_cell_setting 'monoclinic'
loop_
_space_group_symop_operation_xyz
x,y,z
x,-y,1/2+z
1/2+x,1/2+y,z
1/2+x,1/2-y,1/2+z
loop_
_atom_site_type_symbol
_atom_site_label
_atom_site_fract_x
_atom_site_fract_y
_atom_site_fract_z
Si Si1 0.127870 0.665492 0.879270
Si Si2 0.172560 0.537547 0.307133
Si Si3 0.259224 0.468134 0.185262
Si Si4 0.711883 0.990452 0.016759
Si Si5 0.041067 0.757881 0.251772
Si Si6 0.763323 0.506039 0.983260
Si Si7 0.703586 0.749067 0.016959
O O1 0.053844 0.577680 0.798502
O O2 0.853754 0.724306 0.822898
O O3 0.241877 0.589739 0.973285
O O4 0.382360 0.738929 0.930963
O O5 0.221229 0.548584 0.238297
O O6 0.016404 0.644781 0.286159
O O7 0.470605 0.530468 0.416067
O O8 0.337534 0.506860 0.129073
O O9 0.435166 0.367342 0.258635
O O10 0.955353 0.435675 0.085490
O O11 0.782955 0.869004 0.010622
O O12 0.395251 0.987062 0.945596
O O13 0.850086 0.749354 0.132005
O O14 0.791594 0.636209 0.005156
#
# Coordination Sequence:
#
# PCOD9136558 Si02
#       7
#     4   4   4   4   4   4   4
#     4  11  25  38  65  98 122 161 216 256 301 371
#     4  11  22  41  65  90 124 162 211 255 309 371
#     4   9  21  40  63  89 125 164 202 254 313 371
#     4   9  20  40  60  90 126 160 202 256 306 361
#     4  11  22  40  65  91 123 167 208 251 316 368
#     4   9  19  39  65  87 124 165 197 258 309 363
#     4  10  21  42  63  91 126 165 204 258 310 367
#
# _framework density 23.514496000000001
#
# number of rings (size 3 to 8) (size 9 to 14) (size 15 to 20)
#    0.857    1.143    1.429    1.714    0.000    5.714 
#    0.000    5.714    0.000    0.000    0.000    0.000 
#    0.000    0.000    0.000    0.000    0.000    0.000 
#
# Total GULP energy -77979.872373 kJ/mol
# GULP energy per Si atom -5569.990884 kJ/mol
# Density = 2.346098 g / cm^3
# Si number density = 23.514496 Si / 1000 Ang^3
#
#
#
# Elastic Constant Matrix: (Units=GPa)
#
#
# Indices 1 2 3 4 5 6 
#
# 1 35.4455 9.0753 1.7977 0.0000 -9.2279 0.0000
# 2 9.0753 100.3804 7.8287 0.0000 -13.0431 0.0000
# 3 1.7977 7.8287 58.2188 0.0000 -10.1043 0.0000
# 4 0.0000 0.0000 0.0000 36.1973 0.0000 -3.2827
# 5 -9.2279 -13.0431 -10.1043 0.0000 33.6871 0.0000
# 6 0.0000 0.0000 0.0000 -3.2827 0.0000 11.7589
#
#
#
# Elastic Compliance Matrix: (Units=1/GPa)
#
#
# Indices 1 2 3 4 5 6 
#
# 1 0.030699 -0.001799 0.000667 0.000000 0.007913 0.000000
# 2 -0.001799 0.010626 -0.000786 0.000000 0.003386 0.000000
# 3 0.000667 -0.000786 0.018187 0.000000 0.005334 0.000000
# 4 0.000000 0.000000 0.000000 0.028344 0.000000 0.007913
# 5 0.007913 0.003386 0.005334 0.000000 0.034763 0.000000
# 6 0.000000 0.000000 0.000000 0.007913 0.000000 0.087251
#
#
# Mechanical properties :
#
#
# Convention : Reuss Voigt Hill
#
# Bulk Modulus (GPa) = 17.96069 25.71645 21.83857
# Shear Modulus (GPa) = 21.52709 28.01819 24.77264
#
# Velocity S-wave (km/s) = 3.02898 3.45560 3.24930
# Velocity P-wave (km/s) = 4.45956 5.18476 4.83577
#
# Compressibility (1/GPa) = 0.05567715
#
# Stress axis : x y z
#
# Youngs Moduli (GPa) = 32.57411 94.10902 54.98330
#
# Poissons Ratio (x) = 0.16934 -0.03669
# Poissons Ratio (y) = 0.05861 0.04320
# Poissons Ratio (z) = -0.02174 0.07394
#
# Static dielectric constant tensor:
#      x y z
#    x 1.927060 0.000000 -0.064600 
#    y 0.000000 1.929770 0.000000 
#    z -0.064600 0.000000 1.947010 
# 
# From -- ./inp_files/34965.got.cif
#   From: 2010.05.17/outbox.cif.g08.bks.cpg/sg9_18_cif.got.tgz:34965.got - 2010.06.03 20:04:27.
