data_PCOD9136441
_publ_section_title
;
Structure prediction by ZEFSAII (Michael W. Deem and Ramdas Pophale) SiO2 
 PCOD9136441
Probable space group: C C
;
_chemical_formula_sum "Si O2"
_cell_formula_units_Z 32
_cell_length_a 10.867948
_cell_length_b 26.837830
_cell_length_c 5.328143
_cell_angle_alpha 90.000000
_cell_angle_beta 56.921242
_cell_angle_gamma 90.000000
_cell_volume 1302.188812
_symmetry_space_group_name_H-M "C C"
_symmetry_group_IT_number 9
_symmetry_cell_setting 'monoclinic'
loop_
_space_group_symop_operation_xyz
x,y,z
x,-y,1/2+z
1/2+x,1/2+y,z
1/2+x,1/2-y,1/2+z
loop_
_atom_site_type_symbol
_atom_site_label
_atom_site_fract_x
_atom_site_fract_y
_atom_site_fract_z
Si Si1 0.926280 0.115881 0.883700
Si Si2 0.732283 0.194987 0.332447
Si Si3 0.632857 0.028805 0.613968
Si Si4 0.485763 0.237978 0.302249
Si Si5 0.946089 0.995780 0.294263
Si Si6 0.745082 0.724737 0.209622
Si Si7 0.113555 0.127898 0.177937
Si Si8 0.826101 0.534824 0.065309
O O1 0.885862 0.059518 0.865109
O O2 0.992606 0.133285 0.539471
O O3 0.787656 0.142238 0.170378
O O4 0.045191 0.118421 0.978635
O O5 0.570344 0.203917 0.405186
O O6 0.740886 0.219057 0.599624
O O7 0.859615 0.229287 0.066756
O O8 0.613841 0.014713 0.345152
O O9 0.810365 0.034472 0.445681
O O10 0.491101 0.060286 0.850372
O O11 0.399806 0.213484 0.166669
O O12 0.615282 0.272917 0.056991
O O13 0.035862 0.999313 0.444665
O O14 0.699278 0.680658 0.074254
O O15 0.215289 0.081266 0.145067
O O16 0.820345 0.506347 0.342904
#
# Coordination Sequence:
#
# PCOD9136441 Si02
#       8
#     4   4   4   4   4   4   4   4
#     4  12  26  43  68 102 138 185 235 287 348 424
#     4  11  23  44  68 103 138 185 231 294 354 427
#     4   8  16  34  58  84 120 166 206 268 338 378
#     4  10  22  42  70  94 140 178 230 286 362 412
#     4  10  21  41  64  94 131 178 223 284 340 406
#     4  11  23  44  68 103 138 185 231 294 354 427
#     4  12  26  43  68 102 138 185 235 287 348 424
#     4  10  21  41  64  94 131 178 223 284 340 406
#
# _framework density 24.574010000000001
#
# number of rings (size 3 to 8) (size 9 to 14) (size 15 to 20)
#    0.000    1.500    1.250    3.750    3.500    3.000 
#    6.750    5.000    0.000    0.000    0.000    0.000 
#    0.000    0.000    0.000    0.000    0.000    0.000 
#
# Total GULP energy -89126.245819 kJ/mol
# GULP energy per Si atom -5570.390364 kJ/mol
# Density = 2.451808 g / cm^3
# Si number density = 24.574010 Si / 1000 Ang^3
#
#
#
# Elastic Constant Matrix: (Units=GPa)
#
#
# Indices 1 2 3 4 5 6 
#
# 1 129.5131 2.1725 19.2026 0.0000 5.7407 0.0000
# 2 2.1725 42.7388 6.8507 0.0000 7.0508 0.0000
# 3 19.2026 6.8507 111.9109 0.0000 15.7484 0.0000
# 4 0.0000 0.0000 0.0000 31.8785 0.0000 -7.1840
# 5 5.7407 7.0508 15.7484 0.0000 39.5348 0.0000
# 6 0.0000 0.0000 0.0000 -7.1840 0.0000 31.2474
#
#
#
# Elastic Compliance Matrix: (Units=1/GPa)
#
#
# Indices 1 2 3 4 5 6 
#
# 1 0.007939 -0.000096 -0.001268 0.000000 -0.000631 0.000000
# 2 -0.000096 0.024199 -0.000910 0.000000 -0.003939 0.000000
# 3 -0.001268 -0.000910 0.009704 0.000000 -0.003519 0.000000
# 4 0.000000 0.000000 0.000000 0.033083 0.000000 0.007606
# 5 -0.000631 -0.003939 -0.003519 0.000000 0.027490 0.000000
# 6 0.000000 0.000000 0.000000 0.007606 0.000000 0.033751
#
#
# Mechanical properties :
#
#
# Convention : Reuss Voigt Hill
#
# Bulk Modulus (GPa) = 26.81485 37.84603 32.33044
# Shear Modulus (GPa) = 32.64865 37.59462 35.12164
#
# Velocity S-wave (km/s) = 3.64893 3.91558 3.78460
# Velocity P-wave (km/s) = 5.35616 5.98971 5.68177
#
# Compressibility (1/GPa) = 0.03729277
#
# Stress axis : x y z
#
# Youngs Moduli (GPa) = 125.96474 41.32465 103.04885
#
# Poissons Ratio (x) = 0.00398 0.13062
# Poissons Ratio (y) = 0.01213 0.09383
# Poissons Ratio (z) = 0.15967 0.03763
#
# Static dielectric constant tensor:
#      x y z
#    x 2.037560 0.000000 0.016400 
#    y 0.000000 2.033280 0.000000 
#    z 0.016400 0.000000 2.064220 
# 
# From -- ./inp_files/2184.got.cif
#   From: 2010.05.17/outbox.cif.g08.bks.cpg/sg9_2_cif.got.tgz:2184.got - 2010.06.03 20:04:27.
