data_PCOD9136675
_publ_section_title
;
Structure prediction by ZEFSAII (Michael W. Deem and Ramdas Pophale) SiO2 
 PCOD9136675
Probable space group: C C
;
_chemical_formula_sum "Si O2"
_cell_formula_units_Z 28
_cell_length_a 21.918542
_cell_length_b 7.787997
_cell_length_c 11.046503
_cell_angle_alpha 90.000000
_cell_angle_beta 38.985129
_cell_angle_gamma 90.000000
_cell_volume 1186.300795
_symmetry_space_group_name_H-M "C C"
_symmetry_group_IT_number 9
_symmetry_cell_setting 'monoclinic'
loop_
_space_group_symop_operation_xyz
x,y,z
x,-y,1/2+z
1/2+x,1/2+y,z
1/2+x,1/2-y,1/2+z
loop_
_atom_site_type_symbol
_atom_site_label
_atom_site_fract_x
_atom_site_fract_y
_atom_site_fract_z
Si Si1 0.168630 0.854929 0.105980
Si Si2 0.859867 0.213118 0.815452
Si Si3 0.953529 0.322490 0.317029
Si Si4 0.323738 0.343692 0.820480
Si Si5 0.819584 0.500503 0.700559
Si Si6 0.619466 0.281103 0.747642
Si Si7 0.547008 0.832195 0.613882
O O1 0.098289 0.713864 0.160671
O O2 0.130453 0.012750 0.240944
O O3 0.257810 0.760704 0.034160
O O4 0.213720 0.947096 0.914077
O O5 0.879233 0.381448 0.703639
O O6 0.953340 0.207487 0.753078
O O7 0.838101 0.044088 0.770062
O O8 0.905279 0.194722 0.296443
O O9 0.859972 0.426357 0.514528
O O10 0.024955 0.245443 0.308402
O O11 0.018522 0.469769 0.157617
O O12 0.337463 0.199914 0.696367
O O13 0.216572 0.301668 0.039155
O O14 0.606101 0.205110 0.901299
#
# Coordination Sequence:
#
# PCOD9136675 Si02
#       7
#     4   4   4   4   4   4   4
#     4   9  21  40  61  91 126 166 204 264 311 369
#     4  10  21  43  59  92 121 162 212 256 304 381
#     4  12  21  40  63  95 128 169 207 262 316 372
#     4  11  22  41  67  88 127 168 209 259 319 366
#     4   9  21  43  59  89 129 160 210 259 303 378
#     4  11  22  40  63  92 127 164 209 264 307 378
#     4  12  22  39  66  91 128 165 209 258 314 374
#
# _framework density 23.602782000000001
#
# number of rings (size 3 to 8) (size 9 to 14) (size 15 to 20)
#    0.857    0.571    2.857    2.571    0.000    1.143 
#    2.571    5.714    0.000    0.000    0.000    0.000 
#    0.000    0.000    0.000    0.000    0.000    0.000 
#
# Total GULP energy -78111.683879 kJ/mol
# GULP energy per Si atom -5579.405991 kJ/mol
# Density = 2.354906 g / cm^3
# Si number density = 23.602782 Si / 1000 Ang^3
#
#
#
# Elastic Constant Matrix: (Units=GPa)
#
#
# Indices 1 2 3 4 5 6 
#
# 1 54.6127 -6.0426 -1.0719 0.0000 -17.0899 0.0000
# 2 -6.0426 86.2282 5.1226 0.0000 -3.7189 0.0000
# 3 -1.0719 5.1226 51.7740 0.0000 -0.5324 0.0000
# 4 0.0000 0.0000 0.0000 17.8949 0.0000 -1.9448
# 5 -17.0899 -3.7189 -0.5324 0.0000 30.4895 0.0000
# 6 0.0000 0.0000 0.0000 -1.9448 0.0000 28.8270
#
#
#
# Elastic Compliance Matrix: (Units=1/GPa)
#
#
# Indices 1 2 3 4 5 6 
#
# 1 0.022600 0.002118 0.000391 0.000000 0.012933 0.000000
# 2 0.002118 0.011925 -0.001109 0.000000 0.002622 0.000000
# 3 0.000391 -0.001109 0.019437 0.000000 0.000423 0.000000
# 4 0.000000 0.000000 0.000000 0.056294 0.000000 0.003798
# 5 0.012933 0.002622 0.000423 0.000000 0.040374 0.000000
# 6 0.000000 0.000000 0.000000 0.003798 0.000000 0.034946
#
#
# Mechanical properties :
#
#
# Convention : Reuss Voigt Hill
#
# Bulk Modulus (GPa) = 17.61730 20.95901 19.28815
# Shear Modulus (GPa) = 24.78981 28.41608 26.60295
#
# Velocity S-wave (km/s) = 3.24434 3.47353 3.36089
# Velocity P-wave (km/s) = 4.63838 4.99864 4.82188
#
# Compressibility (1/GPa) = 0.05676239
#
# Stress axis : x y z
#
# Youngs Moduli (GPa) = 44.24812 83.86050 51.44855
#
# Poissons Ratio (x) = -0.17764 -0.02013
# Poissons Ratio (y) = -0.09373 0.05706
# Poissons Ratio (z) = -0.01732 0.09300
#
# Static dielectric constant tensor:
#      x y z
#    x 1.942350 0.000000 -0.012970 
#    y 0.000000 1.888110 0.000000 
#    z -0.012970 0.000000 1.965690 
# 
# From -- ./inp_files/20699.got.cif
#   From: 2010.05.17/outbox.cif.g08.bks.cpg/sg9_11_cif.got.tgz:20699.got - 2010.06.03 20:04:27.
