data_PCOD9136398
_publ_section_title
;
Structure prediction by ZEFSAII (Michael W. Deem and Ramdas Pophale) SiO2 
 PCOD9136398
Probable space group: C C
;
_chemical_formula_sum "Si O2"
_cell_formula_units_Z 28
_cell_length_a 5.516063
_cell_length_b 18.730283
_cell_length_c 15.337613
_cell_angle_alpha 90.000000
_cell_angle_beta 125.949787
_cell_angle_gamma 90.000000
_cell_volume 1282.818605
_symmetry_space_group_name_H-M "C C"
_symmetry_group_IT_number 9
_symmetry_cell_setting 'monoclinic'
loop_
_space_group_symop_operation_xyz
x,y,z
x,-y,1/2+z
1/2+x,1/2+y,z
1/2+x,1/2-y,1/2+z
loop_
_atom_site_type_symbol
_atom_site_label
_atom_site_fract_x
_atom_site_fract_y
_atom_site_fract_z
Si Si1 0.435830 0.894835 0.180310
Si Si2 0.470196 0.714090 0.780744
Si Si3 0.129772 0.251226 0.642227
Si Si4 0.231685 0.804778 0.865332
Si Si5 0.768511 0.543131 0.460972
Si Si6 0.618791 0.180276 0.961098
Si Si7 0.164150 0.464315 0.396680
O O1 0.733862 0.846602 0.252662
O O2 0.184309 0.831861 0.126720
O O3 0.452495 0.946295 0.268121
O O4 0.422737 0.937011 0.086400
O O5 0.396105 0.746639 0.671257
O O6 0.484482 0.780091 0.850703
O O7 0.790655 0.676834 0.848369
O O8 0.430451 0.282971 0.750201
O O9 0.066144 0.304033 0.550518
O O10 0.220763 0.883358 0.898580
O O11 0.264463 0.750608 0.952002
O O12 0.450130 0.507728 0.420397
O O13 0.975010 0.498633 0.436773
O O14 0.782372 0.109662 0.964333
#
# Coordination Sequence:
#
# PCOD9136398 Si02
#       7
#     4   4   4   4   4   4   4
#     4  11  24  47  70 101 143 202 233 298 389 430
#     4  10  21  40  73 103 136 187 248 308 348 438
#     4  10  22  39  75 102 137 184 248 303 355 426
#     4  10  23  42  67 105 134 185 252 292 349 436
#     4  12  30  46  76 105 149 198 235 304 367 453
#     4  11  22  42  73 102 139 187 250 300 359 432
#     4  12  28  48  70 108 152 185 244 305 367 441
#
# _framework density 21.826936
#
# number of rings (size 3 to 8) (size 9 to 14) (size 15 to 20)
#    0.000    1.143    5.714    0.857    8.000    2.286 
#    0.000    0.000    0.000    0.000    0.000    0.000 
#    0.000    0.000    0.000    0.000    0.000    0.000 
#
# Total GULP energy -78127.792923 kJ/mol
# GULP energy per Si atom -5580.556637 kJ/mol
# Density = 2.177726 g / cm^3
# Si number density = 21.826936 Si / 1000 Ang^3
#
#
#
# Elastic Constant Matrix: (Units=GPa)
#
#
# Indices 1 2 3 4 5 6 
#
# 1 94.5247 45.4399 28.3163 0.0000 -28.6113 0.0000
# 2 45.4399 119.3103 39.3889 0.0000 -19.5659 0.0000
# 3 28.3163 39.3889 113.7634 0.0000 -30.2517 0.0000
# 4 0.0000 0.0000 0.0000 38.3082 0.0000 -18.5631
# 5 -28.6113 -19.5659 -30.2517 0.0000 42.3058 0.0000
# 6 0.0000 0.0000 0.0000 -18.5631 0.0000 40.4322
#
#
#
# Elastic Compliance Matrix: (Units=1/GPa)
#
#
# Indices 1 2 3 4 5 6 
#
# 1 0.015206 -0.004424 -0.000077 0.000000 0.008182 0.000000
# 2 -0.004424 0.010971 -0.002647 0.000000 0.000189 0.000000
# 3 -0.000077 -0.002647 0.011590 0.000000 0.007011 0.000000
# 4 0.000000 0.000000 0.000000 0.033573 0.000000 0.015414
# 5 0.008182 0.000189 0.007011 0.000000 0.034272 0.000000
# 6 0.000000 0.000000 0.000000 0.015414 0.000000 0.031810
#
#
# Mechanical properties :
#
#
# Convention : Reuss Voigt Hill
#
# Bulk Modulus (GPa) = 42.60595 61.54319 52.07457
# Shear Modulus (GPa) = 31.33956 38.50614 34.92285
#
# Velocity S-wave (km/s) = 3.79333 4.20474 4.00433
# Velocity P-wave (km/s) = 6.22480 7.19933 6.72973
#
# Compressibility (1/GPa) = 0.02347090
#
# Stress axis : x y z
#
# Youngs Moduli (GPa) = 65.76487 91.14669 86.27812
#
# Poissons Ratio (x) = 0.40322 0.00667
# Poissons Ratio (y) = 0.29093 0.22840
# Poissons Ratio (z) = 0.00508 0.24128
#
# Static dielectric constant tensor:
#      x y z
#    x 1.919350 0.000000 -0.013660 
#    y 0.000000 1.798820 0.000000 
#    z -0.013660 0.000000 1.859060 
# 
# From -- ./inp_files/13118.got.cif
#   From: 2010.05.17/outbox.cif.g08.bks.cpg/sg9_7_cif.got.tgz:13118.got - 2010.06.03 20:04:27.
