data_PCOD9136340
_publ_section_title
;
Structure prediction by ZEFSAII (Michael W. Deem and Ramdas Pophale) SiO2 
 PCOD9136340
Probable space group: C C
;
_chemical_formula_sum "Si O2"
_cell_formula_units_Z 32
_cell_length_a 19.258754
_cell_length_b 6.518238
_cell_length_c 14.038246
_cell_angle_alpha 90.000000
_cell_angle_beta 127.255008
_cell_angle_gamma 90.000000
_cell_volume 1402.673333
_symmetry_space_group_name_H-M "C C"
_symmetry_group_IT_number 9
_symmetry_cell_setting 'monoclinic'
loop_
_space_group_symop_operation_xyz
x,y,z
x,-y,1/2+z
1/2+x,1/2+y,z
1/2+x,1/2-y,1/2+z
loop_
_atom_site_type_symbol
_atom_site_label
_atom_site_fract_x
_atom_site_fract_y
_atom_site_fract_z
Si Si1 0.075280 0.094196 0.771180
Si Si2 0.283668 0.172401 0.202688
Si Si3 0.145875 0.863138 0.995324
Si Si4 0.910306 0.683236 0.805225
Si Si5 0.590882 0.054259 0.435298
Si Si6 0.350484 0.460453 0.400239
Si Si7 0.544642 0.397658 0.545151
Si Si8 0.368494 0.481491 0.125557
O O1 0.101446 0.305844 0.849110
O O2 0.970884 0.082849 0.702534
O O3 0.084219 0.020224 0.668926
O O4 0.131837 0.928367 0.875709
O O5 0.277137 0.327801 0.286014
O O6 0.319082 0.315938 0.148087
O O7 0.211372 0.015526 0.103677
O O8 0.359299 0.018369 0.293387
O O9 0.055026 0.933361 0.970429
O O10 0.162284 0.622197 0.014005
O O11 0.003340 0.581514 0.854554
O O12 0.881269 0.844776 0.863397
O O13 0.873403 0.797537 0.680436
O O14 0.582809 0.196905 0.522974
O O15 0.444732 0.346127 0.486439
O O16 0.326498 0.514599 0.487043
#
# Coordination Sequence:
#
# PCOD9136340 Si02
#       8
#     4   4   4   4   4   4   4   4
#     4  10  21  40  67  96 129 171 226 277 330 402
#     4  11  23  41  65  97 139 176 212 287 346 401
#     4  11  23  41  63  93 137 177 218 271 344 406
#     4  11  19  38  64  92 129 176 221 271 341 392
#     4  11  19  38  68  98 133 175 219 281 333 405
#     4  10  21  40  67  98 130 174 231 273 329 412
#     4  10  21  40  67  96 129 171 226 277 330 402
#     4  10  21  40  67  98 130 174 231 273 329 412
#
# _framework density 22.813580999999999
#
# number of rings (size 3 to 8) (size 9 to 14) (size 15 to 20)
#    0.000    1.500    5.000    1.500    0.000    6.000 
#    4.500    0.000    0.000    0.000    0.000    0.000 
#    0.000    0.000    0.000    0.000    0.000    0.000 
#
# Total GULP energy -89101.206228 kJ/mol
# GULP energy per Si atom -5568.825389 kJ/mol
# Density = 2.276166 g / cm^3
# Si number density = 22.813581 Si / 1000 Ang^3
#
#
#
# Elastic Constant Matrix: (Units=GPa)
#
#
# Indices 1 2 3 4 5 6 
#
# 1 25.1116 34.3175 25.8665 0.0000 -12.4071 0.0000
# 2 34.3175 162.1544 59.8875 0.0000 -11.8772 0.0000
# 3 25.8665 59.8875 119.5230 0.0000 -32.6405 0.0000
# 4 0.0000 0.0000 0.0000 29.2528 0.0000 12.7587
# 5 -12.4071 -11.8772 -32.6405 0.0000 36.2555 0.0000
# 6 0.0000 0.0000 0.0000 12.7587 0.0000 17.2264
#
#
#
# Elastic Compliance Matrix: (Units=1/GPa)
#
#
# Indices 1 2 3 4 5 6 
#
# 1 0.067988 -0.011502 -0.004808 0.000000 0.015170 0.000000
# 2 -0.011502 0.009555 -0.003340 0.000000 -0.003813 0.000000
# 3 -0.004808 -0.003340 0.013701 0.000000 0.009595 0.000000
# 4 0.000000 0.000000 0.000000 0.050497 0.000000 -0.037400
# 5 0.015170 -0.003813 0.009595 0.000000 0.040163 0.000000
# 6 0.000000 0.000000 0.000000 -0.037400 0.000000 0.085751
#
#
# Mechanical properties :
#
#
# Convention : Reuss Voigt Hill
#
# Bulk Modulus (GPa) = 19.25092 60.77020 40.01056
# Shear Modulus (GPa) = 15.41929 28.99478 22.20704
#
# Velocity S-wave (km/s) = 2.60259 3.56890 3.12334
# Velocity P-wave (km/s) = 4.18187 6.60895 5.53020
#
# Compressibility (1/GPa) = 0.05194557
#
# Stress axis : x y z
#
# Youngs Moduli (GPa) = 14.70846 104.65346 72.98819
#
# Poissons Ratio (x) = 1.20371 0.35091
# Poissons Ratio (y) = 0.16917 0.24376
# Poissons Ratio (z) = 0.07071 0.34952
#
# Static dielectric constant tensor:
#      x y z
#    x 1.950040 0.000000 0.108660 
#    y 0.000000 1.844730 0.000000 
#    z 0.108660 0.000000 1.902540 
# 
# From -- ./inp_files/27138.got.cif
#   From: 2010.05.17/outbox.cif.g08.bks.cpg/sg9_14_cif.got.tgz:27138.got - 2010.06.03 20:04:27.
