data_PCOD9136805
_publ_section_title
;
Structure prediction by ZEFSAII (Michael W. Deem and Ramdas Pophale) SiO2 
 PCOD9136805
Probable space group: C C
;
_chemical_formula_sum "Si O2"
_cell_formula_units_Z 28
_cell_length_a 11.217892
_cell_length_b 19.141623
_cell_length_c 8.452313
_cell_angle_alpha 90.000000
_cell_angle_beta 39.947707
_cell_angle_gamma 90.000000
_cell_volume 1165.360417
_symmetry_space_group_name_H-M "C C"
_symmetry_group_IT_number 9
_symmetry_cell_setting 'monoclinic'
loop_
_space_group_symop_operation_xyz
x,y,z
x,-y,1/2+z
1/2+x,1/2+y,z
1/2+x,1/2-y,1/2+z
loop_
_atom_site_type_symbol
_atom_site_label
_atom_site_fract_x
_atom_site_fract_y
_atom_site_fract_z
Si Si1 0.884080 0.489947 0.484560
Si Si2 0.634629 0.242887 0.375716
Si Si3 0.435866 0.653333 0.200543
Si Si4 0.495273 0.802306 0.675002
Si Si5 0.190937 0.086923 0.463656
Si Si6 0.599107 0.088153 0.495446
Si Si7 0.360924 0.338264 0.150222
O O1 0.714480 0.524617 0.562253
O O2 0.796710 0.438540 0.699601
O O3 0.000125 0.551253 0.450709
O O4 0.020143 0.450517 0.227312
O O5 0.638975 0.322699 0.443887
O O6 0.860322 0.221561 0.175976
O O7 0.595943 0.224974 0.231183
O O8 0.574388 0.171770 0.534054
O O9 0.324751 0.586997 0.250842
O O10 0.401300 0.655586 0.422353
O O11 0.316178 0.848714 0.896007
O O12 0.427211 0.738356 0.637137
O O13 0.648208 0.844734 0.418597
O O14 0.986866 0.109485 0.623649
#
# Coordination Sequence:
#
# PCOD9136805 Si02
#       7
#     4   4   4   4   4   4   4
#     4  10  21  44  66  92 129 185 220 261 323 395
#     4  10  22  39  63  98 133 166 210 272 339 381
#     4  10  22  40  62 101 133 165 215 275 337 393
#     4  12  23  42  67 104 134 170 216 278 340 393
#     4  11  24  43  70  93 135 174 222 270 327 395
#     4   9  21  38  68  93 127 177 221 265 328 389
#     4  12  25  40  68 103 135 167 220 275 344 392
#
# _framework density 24.026900000000001
#
# number of rings (size 3 to 8) (size 9 to 14) (size 15 to 20)
#    0.857    0.571    2.857    2.571    2.000    0.000 
#    0.000   10.000    0.000    0.000    0.000    0.000 
#    0.000    0.000    0.000    0.000    0.000    0.000 
#
# Total GULP energy -78121.378037 kJ/mol
# GULP energy per Si atom -5580.098431 kJ/mol
# Density = 2.397221 g / cm^3
# Si number density = 24.026900 Si / 1000 Ang^3
#
#
#
# Elastic Constant Matrix: (Units=GPa)
#
#
# Indices 1 2 3 4 5 6 
#
# 1 69.3824 11.6880 17.3051 0.0000 19.1351 0.0000
# 2 11.6880 65.3492 14.0701 0.0000 0.4859 0.0000
# 3 17.3051 14.0701 50.3569 0.0000 11.1015 0.0000
# 4 0.0000 0.0000 0.0000 19.3761 0.0000 -0.5723
# 5 19.1351 0.4859 11.1015 0.0000 28.0281 0.0000
# 6 0.0000 0.0000 0.0000 -0.5723 0.0000 22.4114
#
#
#
# Elastic Compliance Matrix: (Units=1/GPa)
#
#
# Indices 1 2 3 4 5 6 
#
# 1 0.018832 -0.002593 -0.003202 0.000000 -0.011543 0.000000
# 2 -0.002593 0.016710 -0.004497 0.000000 0.003262 0.000000
# 3 -0.003202 -0.004497 0.023794 0.000000 -0.007160 0.000000
# 4 0.000000 0.000000 0.000000 0.051649 0.000000 0.001319
# 5 -0.011543 0.003262 -0.007160 0.000000 0.046339 0.000000
# 6 0.000000 0.000000 0.000000 0.001319 0.000000 0.044654
#
#
# Mechanical properties :
#
#
# Convention : Reuss Voigt Hill
#
# Bulk Modulus (GPa) = 25.80543 30.13500 27.97022
# Shear Modulus (GPa) = 21.23333 23.43148 22.33241
#
# Velocity S-wave (km/s) = 2.97599 3.12624 3.05204
# Velocity P-wave (km/s) = 4.75102 5.05970 4.90779
#
# Compressibility (1/GPa) = 0.03875153
#
# Stress axis : x y z
#
# Youngs Moduli (GPa) = 53.10116 59.84397 42.02791
#
# Poissons Ratio (x) = 0.15517 0.13459
# Poissons Ratio (y) = 0.13769 0.18900
# Poissons Ratio (z) = 0.17005 0.26912
#
# Static dielectric constant tensor:
#      x y z
#    x 2.099560 0.000000 -0.255590 
#    y 0.000000 1.636480 0.000000 
#    z -0.255590 0.000000 2.144280 
# 
# From -- ./inp_files/8363.got.cif
#   From: 2010.05.17/outbox.cif.g08.bks.cpg/sg9_5_cif.got.tgz:8363.got - 2010.06.03 20:04:27.
