data_PCOD9136420
_publ_section_title
;
Structure prediction by ZEFSAII (Michael W. Deem and Ramdas Pophale) SiO2 
 PCOD9136420
Probable space group: C C
;
_chemical_formula_sum "Si O2"
_cell_formula_units_Z 28
_cell_length_a 11.622873
_cell_length_b 11.844041
_cell_length_c 7.847767
_cell_angle_alpha 90.000000
_cell_angle_beta 96.428800
_cell_angle_gamma 90.000000
_cell_volume 1073.544190
_symmetry_space_group_name_H-M "C C"
_symmetry_group_IT_number 9
_symmetry_cell_setting 'monoclinic'
loop_
_space_group_symop_operation_xyz
x,y,z
x,-y,1/2+z
1/2+x,1/2+y,z
1/2+x,1/2-y,1/2+z
loop_
_atom_site_type_symbol
_atom_site_label
_atom_site_fract_x
_atom_site_fract_y
_atom_site_fract_z
Si Si1 0.908750 0.217653 0.864740
Si Si2 0.573860 0.331565 0.927247
Si Si3 0.253770 0.705794 0.164402
Si Si4 0.274117 0.542306 0.632077
Si Si5 0.026079 0.948594 0.566402
Si Si6 0.904693 0.649564 0.864332
Si Si7 0.005825 0.569540 0.521773
O O1 0.811013 0.157596 0.735066
O O2 0.958727 0.343412 0.868392
O O3 0.860338 0.213429 0.049813
O O4 0.013945 0.129656 0.897139
O O5 0.571854 0.375726 0.732500
O O6 0.452151 0.269991 0.937037
O O7 0.653026 0.233543 0.015854
O O8 0.602413 0.443904 0.035405
O O9 0.252879 0.577681 0.230111
O O10 0.275963 0.809324 0.295718
O O11 0.396739 0.505733 0.564599
O O12 0.144952 0.558106 0.534969
O O13 0.977112 0.614504 0.706756
O O14 0.932403 0.545268 0.988879
#
# Coordination Sequence:
#
# PCOD9136420 Si02
#       7
#     4   4   4   4   4   4   4
#     4  10  21  41  62  94 128 169 220 268 324 390
#     4  12  22  43  67  97 133 173 222 273 331 385
#     4  10  22  41  69  88 130 181 209 272 334 382
#     4  11  21  41  68  95 123 178 222 261 331 395
#     4  11  23  40  67  94 132 169 223 274 321 393
#     4  11  23  44  63  99 133 169 222 276 321 393
#     4  11  24  40  70  93 133 175 214 272 330 384
#
# _framework density 26.081833
#
# number of rings (size 3 to 8) (size 9 to 14) (size 15 to 20)
#    0.000    1.143    7.143    0.857    2.000    3.429 
#    0.000    0.000    0.000    0.000    0.000    0.000 
#    0.000    0.000    0.000    0.000    0.000    0.000 
#
# Total GULP energy -77969.510505 kJ/mol
# GULP energy per Si atom -5569.250750 kJ/mol
# Density = 2.602247 g / cm^3
# Si number density = 26.081833 Si / 1000 Ang^3
#
#
#
# Elastic Constant Matrix: (Units=GPa)
#
#
# Indices 1 2 3 4 5 6 
#
# 1 41.6596 1.0635 33.1495 0.0000 10.5450 0.0000
# 2 1.0635 144.4063 57.1465 0.0000 23.3482 0.0000
# 3 33.1495 57.1465 90.6989 0.0000 32.6144 0.0000
# 4 0.0000 0.0000 0.0000 50.8969 0.0000 13.9438
# 5 10.5450 23.3482 32.6144 0.0000 38.1045 0.0000
# 6 0.0000 0.0000 0.0000 13.9438 0.0000 31.6344
#
#
#
# Elastic Compliance Matrix: (Units=1/GPa)
#
#
# Indices 1 2 3 4 5 6 
#
# 1 0.038624 0.007030 -0.019002 0.000000 0.001268 0.000000
# 2 0.007030 0.010530 -0.008934 0.000000 -0.000751 0.000000
# 3 -0.019002 -0.008934 0.028517 0.000000 -0.013676 0.000000
# 4 0.000000 0.000000 0.000000 0.022346 0.000000 -0.009850
# 5 0.001268 -0.000751 -0.013676 0.000000 0.038058 0.000000
# 6 0.000000 0.000000 0.000000 -0.009850 0.000000 0.035953
#
#
# Mechanical properties :
#
#
# Convention : Reuss Voigt Hill
#
# Bulk Modulus (GPa) = 27.88656 51.05375 39.47016
# Shear Modulus (GPa) = 21.94969 36.48750 29.21859
#
# Velocity S-wave (km/s) = 2.90413 3.74433 3.35067
# Velocity P-wave (km/s) = 4.68620 6.18953 5.48957
#
# Compressibility (1/GPa) = 0.03585956
#
# Stress axis : x y z
#
# Youngs Moduli (GPa) = 25.89050 94.96582 35.06637
#
# Poissons Ratio (x) = -0.66765 0.66634
# Poissons Ratio (y) = -0.18202 0.31329
# Poissons Ratio (z) = 0.49198 0.84845
#
# Static dielectric constant tensor:
#      x y z
#    x 2.213220 0.000000 0.039640 
#    y 0.000000 2.190770 0.000000 
#    z 0.039640 0.000000 2.155840 
# 
# From -- ./inp_files/9306.got.cif
#   From: 2010.05.17/outbox.cif.g08.bks.cpg/sg9_5_cif.got.tgz:9306.got - 2010.06.03 20:04:27.
