data_PCOD9136633
_publ_section_title
;
Structure prediction by ZEFSAII (Michael W. Deem and Ramdas Pophale) SiO2 
 PCOD9136633
Probable space group: C C
;
_chemical_formula_sum "Si O2"
_cell_formula_units_Z 28
_cell_length_a 19.211552
_cell_length_b 12.010986
_cell_length_c 9.489662
_cell_angle_alpha 90.000000
_cell_angle_beta 146.011045
_cell_angle_gamma 90.000000
_cell_volume 1224.135130
_symmetry_space_group_name_H-M "C C"
_symmetry_group_IT_number 9
_symmetry_cell_setting 'monoclinic'
loop_
_space_group_symop_operation_xyz
x,y,z
x,-y,1/2+z
1/2+x,1/2+y,z
1/2+x,1/2-y,1/2+z
loop_
_atom_site_type_symbol
_atom_site_label
_atom_site_fract_x
_atom_site_fract_y
_atom_site_fract_z
Si Si1 0.400140 0.568211 0.485640
Si Si2 0.352453 0.859980 0.731508
Si Si3 0.718512 0.978174 0.935449
Si Si4 0.296915 0.999876 0.906373
Si Si5 0.098301 0.708595 0.659973
Si Si6 0.103660 0.746609 0.348114
Si Si7 0.635842 0.403061 0.894842
O O1 0.309390 0.568360 0.467156
O O2 0.476117 0.685983 0.602955
O O3 0.507831 0.473030 0.683328
O O4 0.311740 0.530566 0.208759
O O5 0.392561 0.931097 0.662262
O O6 0.451399 0.763791 0.908029
O O7 0.214240 0.820658 0.469023
O O8 0.357332 0.921337 0.889974
O O9 0.628106 0.878665 0.836324
O O10 0.636825 0.081063 0.740999
O O11 0.207549 0.072446 0.658101
O O12 0.214521 0.943465 0.890146
O O13 0.138934 0.748314 0.573868
O O14 0.135727 0.772827 0.863117
#
# Coordination Sequence:
#
# PCOD9136633 Si02
#       7
#     4   4   4   4   4   4   4
#     4  12  24  49  82 106 150 198 252 319 379 450
#     4  11  24  43  73 102 142 189 238 314 365 447
#     4  12  29  49  71 115 154 196 256 307 382 467
#     4  10  21  42  69 108 135 175 255 294 359 454
#     4  12  27  46  70 106 158 191 244 322 372 448
#     4  12  24  49  74 105 146 200 252 309 384 441
#     4  11  21  44  75 106 139 187 247 305 369 445
#
# _framework density 22.873293
#
# number of rings (size 3 to 8) (size 9 to 14) (size 15 to 20)
#    0.000    0.571    5.714    3.429    2.000    2.286 
#    2.571    0.000    0.000    0.000    0.000    0.000 
#    0.000    0.000    0.000    0.000    0.000    0.000 
#
# Total GULP energy -78135.158296 kJ/mol
# GULP energy per Si atom -5581.082735 kJ/mol
# Density = 2.282123 g / cm^3
# Si number density = 22.873293 Si / 1000 Ang^3
#
#
#
# Elastic Constant Matrix: (Units=GPa)
#
#
# Indices 1 2 3 4 5 6 
#
# 1 99.6060 26.3021 57.7276 0.0000 -9.8793 0.0000
# 2 26.3021 100.6868 33.9477 0.0000 5.8212 0.0000
# 3 57.7276 33.9477 86.0719 0.0000 -11.4569 0.0000
# 4 0.0000 0.0000 0.0000 22.6887 0.0000 -5.8497
# 5 -9.8793 5.8212 -11.4569 0.0000 37.3439 0.0000
# 6 0.0000 0.0000 0.0000 -5.8497 0.0000 34.3008
#
#
#
# Elastic Compliance Matrix: (Units=1/GPa)
#
#
# Indices 1 2 3 4 5 6 
#
# 1 0.016516 -0.000816 -0.010589 0.000000 0.001248 0.000000
# 2 -0.000816 0.011901 -0.004610 0.000000 -0.003486 0.000000
# 3 -0.010589 -0.004610 0.021124 0.000000 0.004398 0.000000
# 4 0.000000 0.000000 0.000000 0.046102 0.000000 0.007862
# 5 0.001248 -0.003486 0.004398 0.000000 0.029001 0.000000
# 6 0.000000 0.000000 0.000000 0.007862 0.000000 0.030495
#
#
# Mechanical properties :
#
#
# Convention : Reuss Voigt Hill
#
# Bulk Modulus (GPa) = 57.11188 58.03550 57.57369
# Shear Modulus (GPa) = 25.90599 30.09250 27.99925
#
# Velocity S-wave (km/s) = 3.36904 3.63108 3.50251
# Velocity P-wave (km/s) = 6.33695 6.55800 6.44842
#
# Compressibility (1/GPa) = 0.01750949
#
# Stress axis : x y z
#
# Youngs Moduli (GPa) = 60.54820 84.02671 47.33983
#
# Poissons Ratio (x) = 0.06859 0.50128
# Poissons Ratio (y) = 0.04943 0.21825
# Poissons Ratio (z) = 0.64114 0.38739
#
# Static dielectric constant tensor:
#      x y z
#    x 1.839370 0.000000 0.007140 
#    y 0.000000 2.020570 0.000000 
#    z 0.007140 0.000000 1.873590 
# 
# From -- ./inp_files/7007.got.cif
#   From: 2010.05.17/outbox.cif.g08.bks.cpg/sg9_4_cif.got.tgz:7007.got - 2010.06.03 20:04:27.
