data_PCOD9136535
_publ_section_title
;
Structure prediction by ZEFSAII (Michael W. Deem and Ramdas Pophale) SiO2 
 PCOD9136535
Probable space group: C C
;
_chemical_formula_sum "Si O2"
_cell_formula_units_Z 32
_cell_length_a 23.024702
_cell_length_b 5.146689
_cell_length_c 11.222510
_cell_angle_alpha 90.000000
_cell_angle_beta 120.184125
_cell_angle_gamma 90.000000
_cell_volume 1149.565728
_symmetry_space_group_name_H-M "C C"
_symmetry_group_IT_number 9
_symmetry_cell_setting 'monoclinic'
loop_
_space_group_symop_operation_xyz
x,y,z
x,-y,1/2+z
1/2+x,1/2+y,z
1/2+x,1/2-y,1/2+z
loop_
_atom_site_type_symbol
_atom_site_label
_atom_site_fract_x
_atom_site_fract_y
_atom_site_fract_z
Si Si1 0.586910 0.994434 0.911630
Si Si2 0.742068 0.815352 0.835545
Si Si3 0.515456 0.400183 0.003678
Si Si4 0.988927 0.717533 0.646886
Si Si5 0.417721 0.422950 0.253369
Si Si6 0.888783 0.634013 0.986631
Si Si7 0.268221 0.381507 0.611070
Si Si8 0.671580 0.496973 0.439418
O O1 0.555036 0.156690 0.991278
O O2 0.534240 0.988527 0.746174
O O3 0.636198 0.226490 0.915984
O O4 0.628363 0.725773 0.962075
O O5 0.729577 0.951607 0.695794
O O6 0.811169 0.659083 0.882716
O O7 0.685556 0.618294 0.822978
O O8 0.754899 0.993095 0.965777
O O9 0.490805 0.633912 0.890442
O O10 0.537482 0.568013 0.139263
O O11 0.440485 0.310011 0.965760
O O12 0.948879 0.833540 0.715115
O O13 0.924417 0.638388 0.500779
O O14 0.399931 0.207376 0.136294
O O15 0.343984 0.522892 0.216041
O O16 0.245729 0.078292 0.568338
#
# Coordination Sequence:
#
# PCOD9136535 Si02
#       8
#     4   4   4   4   4   4   4   4
#     4  11  28  49  75 107 159 212 275 328 403 494
#     4  11  25  50  82 120 160 212 274 349 420 494
#     4  10  22  42  71 109 148 199 258 334 411 488
#     4  10  23  41  70 110 153 204 263 333 410 496
#     4   9  20  41  69 108 153 192 254 330 420 482
#     4  10  21  41  72 110 145 197 254 333 413 488
#     4  11  24  50  82 119 164 212 279 346 418 501
#     4  12  27  54  73 113 156 222 275 337 401 495
#
# _framework density 27.836600000000001
#
# number of rings (size 3 to 8) (size 9 to 14) (size 15 to 20)
#    0.000    1.500    2.500    0.750    7.000    3.000 
#    6.750    0.000    0.000    0.000    0.000    0.000 
#    0.000    0.000    0.000    0.000    0.000    0.000 
#
# Total GULP energy -89112.527340 kJ/mol
# GULP energy per Si atom -5569.532959 kJ/mol
# Density = 2.777324 g / cm^3
# Si number density = 27.836600 Si / 1000 Ang^3
#
#
#
# Elastic Constant Matrix: (Units=GPa)
#
#
# Indices 1 2 3 4 5 6 
#
# 1 160.0651 47.8834 37.9279 0.0000 -5.4568 0.0000
# 2 47.8834 107.8846 25.7901 0.0000 2.8828 0.0000
# 3 37.9279 25.7901 70.3581 0.0000 -8.3525 0.0000
# 4 0.0000 0.0000 0.0000 28.8500 0.0000 11.6731
# 5 -5.4568 2.8828 -8.3525 0.0000 38.2847 0.0000
# 6 0.0000 0.0000 0.0000 11.6731 0.0000 50.0576
#
#
#
# Elastic Compliance Matrix: (Units=1/GPa)
#
#
# Indices 1 2 3 4 5 6 
#
# 1 0.007834 -0.002743 -0.003142 0.000000 0.000638 0.000000
# 2 -0.002743 0.011219 -0.002854 0.000000 -0.001858 0.000000
# 3 -0.003142 -0.002854 0.017375 0.000000 0.003558 0.000000
# 4 0.000000 0.000000 0.000000 0.038273 0.000000 -0.008925
# 5 0.000638 -0.001858 0.003558 0.000000 0.027127 0.000000
# 6 0.000000 0.000000 0.000000 -0.008925 0.000000 0.022058
#
#
# Mechanical properties :
#
#
# Convention : Reuss Voigt Hill
#
# Bulk Modulus (GPa) = 52.77121 62.39006 57.58063
# Shear Modulus (GPa) = 33.85652 38.55223 36.20438
#
# Velocity S-wave (km/s) = 3.49127 3.72553 3.61030
# Velocity P-wave (km/s) = 5.93723 6.40060 6.17326
#
# Compressibility (1/GPa) = 0.01894973
#
# Stress axis : x y z
#
# Youngs Moduli (GPa) = 127.64368 89.13770 57.55280
#
# Poissons Ratio (x) = 0.24451 0.18083
# Poissons Ratio (y) = 0.35014 0.16426
# Poissons Ratio (z) = 0.40106 0.25441
#
# Static dielectric constant tensor:
#      x y z
#    x 2.218760 0.000000 -0.094840 
#    y 0.000000 2.431140 0.000000 
#    z -0.094840 0.000000 2.833610 
# 
# From -- ./inp_files/20666.got.cif
#   From: 2010.05.17/outbox.cif.g08.bks.cpg/sg9_11_cif.got.tgz:20666.got - 2010.06.03 20:04:27.
