data_PCOD9136030
_publ_section_title
;
Structure prediction by ZEFSAII (Michael W. Deem and Ramdas Pophale) SiO2 
 PCOD9136030
Probable space group: C C
;
_chemical_formula_sum "Si O2"
_cell_formula_units_Z 32
_cell_length_a 7.874459
_cell_length_b 21.901963
_cell_length_c 10.945059
_cell_angle_alpha 90.000000
_cell_angle_beta 55.130538
_cell_angle_gamma 90.000000
_cell_volume 1548.736535
_symmetry_space_group_name_H-M "C C"
_symmetry_group_IT_number 9
_symmetry_cell_setting 'monoclinic'
loop_
_space_group_symop_operation_xyz
x,y,z
x,-y,1/2+z
1/2+x,1/2+y,z
1/2+x,1/2-y,1/2+z
loop_
_atom_site_type_symbol
_atom_site_label
_atom_site_fract_x
_atom_site_fract_y
_atom_site_fract_z
Si Si1 0.609930 0.809650 0.426790
Si Si2 0.102266 0.510051 0.439710
Si Si3 0.853720 0.906682 0.474827
Si Si4 0.103984 0.067445 0.384351
Si Si5 0.675451 0.913384 0.202300
Si Si6 0.275580 0.953103 0.235314
Si Si7 0.892824 0.894608 0.746484
Si Si8 0.699347 0.312886 0.750057
O O1 0.739946 0.845404 0.477112
O O2 0.641730 0.854261 0.298798
O O3 0.676758 0.744034 0.348812
O O4 0.378644 0.805785 0.576336
O O5 0.216605 0.467439 0.497866
O O6 0.528304 0.559016 0.273889
O O7 0.155349 0.471040 0.299570
O O8 0.866873 0.514789 0.578006
O O9 0.906109 0.900790 0.596483
O O10 0.067688 0.914411 0.312060
O O11 0.899090 0.082940 0.545611
O O12 0.243710 0.127322 0.315448
O O13 0.219633 0.004894 0.359293
O O14 0.476992 0.916734 0.196849
O O15 0.172847 0.579162 0.379214
O O16 0.986639 0.831925 0.764702
#
# Coordination Sequence:
#
# PCOD9136030 Si02
#       8
#     4   4   4   4   4   4   4   4
#     4  11  24  43  65  91 117 164 210 263 313 366
#     4  11  22  36  59  98 133 168 199 255 310 375
#     4  11  23  38  61  93 131 163 209 256 310 375
#     4  10  21  38  63  93 122 167 205 252 310 370
#     4  11  23  37  62  90 131 165 207 249 310 376
#     4  12  20  36  59  95 127 164 204 250 312 366
#     4  10  21  42  60  93 125 168 204 251 310 374
#     4  10  22  42  69  85 118 161 212 256 317 368
#
# _framework density 20.662002999999999
#
# number of rings (size 3 to 8) (size 9 to 14) (size 15 to 20)
#    0.750    0.500    2.500    4.500    1.750    2.000 
#    0.000    3.750    0.000    0.000    0.000    0.000 
#    0.000    0.000    0.000    0.000    0.000    0.000 
#
# Total GULP energy -89068.895086 kJ/mol
# GULP energy per Si atom -5566.805943 kJ/mol
# Density = 2.061498 g / cm^3
# Si number density = 20.662003 Si / 1000 Ang^3
#
#
#
# Elastic Constant Matrix: (Units=GPa)
#
#
# Indices 1 2 3 4 5 6 
#
# 1 45.7597 19.5875 38.9374 0.0000 12.5573 0.0000
# 2 19.5875 85.6538 38.2099 0.0000 -5.0165 0.0000
# 3 38.9374 38.2099 133.2118 0.0000 -18.0178 0.0000
# 4 0.0000 0.0000 0.0000 27.0001 0.0000 0.0819
# 5 12.5573 -5.0165 -18.0178 0.0000 34.9193 0.0000
# 6 0.0000 0.0000 0.0000 0.0819 0.0000 20.3430
#
#
#
# Elastic Compliance Matrix: (Units=1/GPa)
#
#
# Indices 1 2 3 4 5 6 
#
# 1 0.042252 -0.004715 -0.014130 0.000000 -0.023163 0.000000
# 2 -0.004715 0.013914 -0.002272 0.000000 0.002522 0.000000
# 3 -0.014130 -0.002272 0.013902 0.000000 0.011928 0.000000
# 4 0.000000 0.000000 0.000000 0.037037 0.000000 -0.000149
# 5 -0.023163 0.002522 0.011928 0.000000 0.043484 0.000000
# 6 0.000000 0.000000 0.000000 -0.000149 0.000000 0.049157
#
#
# Mechanical properties :
#
#
# Convention : Reuss Voigt Hill
#
# Bulk Modulus (GPa) = 35.92807 50.89944 43.41376
# Shear Modulus (GPa) = 19.89975 27.64520 23.77247
#
# Velocity S-wave (km/s) = 3.10677 3.66180 3.39564
# Velocity P-wave (km/s) = 5.50414 6.52428 6.03580
#
# Compressibility (1/GPa) = 0.02783339
#
# Stress axis : x y z
#
# Youngs Moduli (GPa) = 23.66772 71.86841 71.93144
#
# Poissons Ratio (x) = 0.33887 1.01642
# Poissons Ratio (y) = 0.11160 0.16341
# Poissons Ratio (z) = 0.33444 0.16326
#
# Static dielectric constant tensor:
#      x y z
#    x 1.839500 0.000000 0.020550 
#    y 0.000000 1.772420 0.000000 
#    z 0.020550 0.000000 1.773890 
# 
# From -- ./inp_files/15635.got.cif
#   From: 2010.05.17/outbox.cif.g08.bks.cpg/sg9_8_cif.got.tgz:15635.got - 2010.06.03 20:04:27.
