data_PCOD9136450
_publ_section_title
;
Structure prediction by ZEFSAII (Michael W. Deem and Ramdas Pophale) SiO2 
 PCOD9136450
Probable space group: C C
;
_chemical_formula_sum "Si O2"
_cell_formula_units_Z 32
_cell_length_a 8.071076
_cell_length_b 21.170106
_cell_length_c 9.427487
_cell_angle_alpha 90.000000
_cell_angle_beta 74.012899
_cell_angle_gamma 90.000000
_cell_volume 1548.531601
_symmetry_space_group_name_H-M "C C"
_symmetry_group_IT_number 9
_symmetry_cell_setting 'monoclinic'
loop_
_space_group_symop_operation_xyz
x,y,z
x,-y,1/2+z
1/2+x,1/2+y,z
1/2+x,1/2-y,1/2+z
loop_
_atom_site_type_symbol
_atom_site_label
_atom_site_fract_x
_atom_site_fract_y
_atom_site_fract_z
Si Si1 0.842830 0.987472 0.945930
Si Si2 0.346758 0.313310 0.625515
Si Si3 0.058949 0.105782 0.843475
Si Si4 0.108164 0.578917 0.134118
Si Si5 0.250605 0.174085 0.551723
Si Si6 0.463923 0.942102 0.947118
Si Si7 0.307762 0.067347 0.027241
Si Si8 0.065311 0.131590 0.319711
O O1 0.945630 0.042985 0.838974
O O2 0.658270 0.960994 0.939315
O O3 0.770882 0.030939 0.093297
O O4 0.964509 0.926410 0.920222
O O5 0.453722 0.347926 0.474430
O O6 0.172444 0.354143 0.672620
O O7 0.307582 0.242273 0.591660
O O8 0.441034 0.324525 0.753366
O O9 0.114690 0.143841 0.692914
O O10 0.225966 0.084663 0.895676
O O11 0.967959 0.553256 0.276410
O O12 0.006950 0.586925 0.009882
O O13 0.412111 0.126491 0.510218
O O14 0.168407 0.170308 0.414112
O O15 0.323397 0.991768 0.035106
O O16 0.188592 0.099773 0.172743
#
# Coordination Sequence:
#
# PCOD9136450 Si02
#       8
#     4   4   4   4   4   4   4   4
#     4  10  22  38  65  97 133 164 207 271 334 376
#     4  10  25  46  62  89 134 175 212 269 316 384
#     4  10  24  42  64  99 133 169 214 269 322 387
#     4  10  21  41  65  94 132 170 207 268 328 381
#     4  12  26  40  69  94 126 177 228 255 318 399
#     4  11  22  38  66  98 132 166 210 272 321 392
#     4  10  22  40  66  96 135 162 209 273 334 371
#     4  11  22  43  67  93 127 171 215 273 325 380
#
# _framework density 20.664738
#
# number of rings (size 3 to 8) (size 9 to 14) (size 15 to 20)
#    0.000    1.500    2.500    1.500    7.000    1.000 
#    0.000    3.750    0.000    0.000    0.000    0.000 
#    0.000    0.000    0.000    0.000    0.000    0.000 
#
# Total GULP energy -89212.695256 kJ/mol
# GULP energy per Si atom -5575.793453 kJ/mol
# Density = 2.061770 g / cm^3
# Si number density = 20.664738 Si / 1000 Ang^3
#
#
#
# Elastic Constant Matrix: (Units=GPa)
#
#
# Indices 1 2 3 4 5 6 
#
# 1 83.8250 56.8826 26.4631 0.0000 18.5332 0.0000
# 2 56.8826 167.0610 48.8551 0.0000 19.7034 0.0000
# 3 26.4631 48.8551 76.6728 0.0000 1.1213 0.0000
# 4 0.0000 0.0000 0.0000 22.9063 0.0000 2.1123
# 5 18.5332 19.7034 1.1213 0.0000 27.6163 0.0000
# 6 0.0000 0.0000 0.0000 2.1123 0.0000 26.9319
#
#
#
# Elastic Compliance Matrix: (Units=1/GPa)
#
#
# Indices 1 2 3 4 5 6 
#
# 1 0.017671 -0.003960 -0.003446 0.000000 -0.008894 0.000000
# 2 -0.003960 0.009026 -0.004332 0.000000 -0.003606 0.000000
# 3 -0.003446 -0.004332 0.016923 0.000000 0.004716 0.000000
# 4 0.000000 0.000000 0.000000 0.043974 0.000000 -0.003449
# 5 -0.008894 -0.003606 0.004716 0.000000 0.044561 0.000000
# 6 0.000000 0.000000 0.000000 -0.003449 0.000000 0.037401
#
#
# Mechanical properties :
#
#
# Convention : Reuss Voigt Hill
#
# Bulk Modulus (GPa) = 49.64032 65.77337 57.70684
# Shear Modulus (GPa) = 25.03168 28.51477 26.77322
#
# Velocity S-wave (km/s) = 3.48418 3.71870 3.60335
# Velocity P-wave (km/s) = 6.34507 7.09480 6.73038
#
# Compressibility (1/GPa) = 0.02014492
#
# Stress axis : x y z
#
# Youngs Moduli (GPa) = 56.58972 110.78530 59.09138
#
# Poissons Ratio (x) = 0.43874 0.20360
# Poissons Ratio (y) = 0.22411 0.25598
# Poissons Ratio (z) = 0.19498 0.47992
#
# Static dielectric constant tensor:
#      x y z
#    x 1.785370 0.000000 0.019130 
#    y 0.000000 1.725620 0.000000 
#    z 0.019130 0.000000 1.806360 
# 
# From -- ./inp_files/5758.got.cif
#   From: 2010.05.17/outbox.cif.g08.bks.cpg/sg9_3_cif.got.tgz:5758.got - 2010.06.03 20:04:27.
