data_PCOD9136111
_publ_section_title
;
Structure prediction by ZEFSAII (Michael W. Deem and Ramdas Pophale) SiO2 
 PCOD9136111
Probable space group: C C
;
_chemical_formula_sum "Si O2"
_cell_formula_units_Z 32
_cell_length_a 15.137667
_cell_length_b 15.979679
_cell_length_c 11.591281
_cell_angle_alpha 90.000000
_cell_angle_beta 27.598304
_cell_angle_gamma 90.000000
_cell_volume 1298.949972
_symmetry_space_group_name_H-M "C C"
_symmetry_group_IT_number 9
_symmetry_cell_setting 'monoclinic'
loop_
_space_group_symop_operation_xyz
x,y,z
x,-y,1/2+z
1/2+x,1/2+y,z
1/2+x,1/2-y,1/2+z
loop_
_atom_site_type_symbol
_atom_site_label
_atom_site_fract_x
_atom_site_fract_y
_atom_site_fract_z
Si Si1 0.147990 0.175588 0.129710
Si Si2 0.233893 0.337464 0.363451
Si Si3 0.241072 0.644619 0.590843
Si Si4 0.355042 0.050768 0.036527
Si Si5 0.501055 0.155781 0.549406
Si Si6 0.443141 0.985790 0.689112
Si Si7 0.519753 0.681993 0.709761
Si Si8 0.236729 0.195608 0.668588
O O1 0.131086 0.274676 0.169351
O O2 0.956059 0.137685 0.293990
O O3 0.218339 0.129244 0.164393
O O4 0.328601 0.169452 0.836453
O O5 0.292799 0.336813 0.163390
O O6 0.059057 0.401197 0.573447
O O7 0.400798 0.368900 0.254591
O O8 0.163623 0.244257 0.477450
O O9 0.083143 0.572701 0.771382
O O10 0.337255 0.003284 0.932742
O O11 0.323260 0.025217 0.208037
O O12 0.391783 0.141456 0.555187
O O13 0.622520 0.239747 0.385428
O O14 0.580767 0.066760 0.500798
O O15 0.609586 0.646600 0.723390
O O16 0.359390 0.741061 0.951236
#
# Coordination Sequence:
#
# PCOD9136111 Si02
#       8
#     4   4   4   4   4   4   4   4
#     4  11  21  38  65  96 125 164 219 272 326 388
#     4  10  21  39  61  94 126 164 215 266 324 388
#     4  11  21  38  65  96 125 164 219 272 326 388
#     4  10  24  44  64  94 132 174 214 272 332 398
#     4  10  21  39  61  94 126 164 215 266 324 388
#     4  10  24  42  66  88 134 178 204 266 338 388
#     4   9  19  35  62  92 119 162 211 263 313 377
#     4   9  19  35  62  92 119 162 211 263 313 377
#
# _framework density 24.635283000000001
#
# number of rings (size 3 to 8) (size 9 to 14) (size 15 to 20)
#    0.000    2.000    1.250    1.500    8.750    0.000 
#    0.000    6.250    0.000    0.000    0.000    0.000 
#    0.000    0.000    0.000    0.000    0.000    0.000 
#
# Total GULP energy -89166.756632 kJ/mol
# GULP energy per Si atom -5572.922289 kJ/mol
# Density = 2.457921 g / cm^3
# Si number density = 24.635283 Si / 1000 Ang^3
#
#
#
# Elastic Constant Matrix: (Units=GPa)
#
#
# Indices 1 2 3 4 5 6 
#
# 1 122.3521 12.3048 16.6069 -0.0054 8.9926 -0.0023
# 2 12.3048 52.4920 7.1161 0.0062 1.5771 -0.0124
# 3 16.6069 7.1161 74.4425 0.0109 0.8756 -0.0203
# 4 -0.0054 0.0062 0.0109 20.5524 -0.0013 14.4247
# 5 8.9926 1.5771 0.8756 -0.0013 40.2866 0.0106
# 6 -0.0023 -0.0124 -0.0203 14.4247 0.0106 -38.2675
#
#
#
# Elastic Compliance Matrix: (Units=1/GPa)
#
#
# Indices 1 2 3 4 5 6 
#
# 1 0.008723 -0.001751 -0.001757 0.000003 -0.001840 0.000001
# 2 -0.001751 0.019673 -0.001486 -0.000001 -0.000347 -0.000006
# 3 -0.001757 -0.001486 0.013965 -0.000002 0.000147 -0.000008
# 4 0.000003 -0.000001 -0.000002 0.038477 -0.000003 0.014504
# 5 -0.001840 -0.000347 0.000147 -0.000003 0.025243 0.000006
# 6 0.000001 -0.000006 -0.000008 0.014504 0.000006 -0.020665
#
#
# Mechanical properties :
#
#
# Convention : Reuss Voigt Hill
#
# Bulk Modulus (GPa) = 30.88966 35.70469 33.29717
# Shear Modulus (GPa) = 47.08288 18.73156 32.90722
#
# Velocity S-wave (km/s) = 4.37647 2.76045 3.65879
# Velocity P-wave (km/s) = 6.17284 4.96839 5.60307
#
# Compressibility (1/GPa) = 0.03237329
#
# Stress axis : x y z
#
# Youngs Moduli (GPa) = 114.63960 50.83132 71.60540
#
# Poissons Ratio (x) = 0.08902 0.12580
# Poissons Ratio (y) = 0.20077 0.10639
# Poissons Ratio (z) = 0.20141 0.07553
#
# Static dielectric constant tensor:
#      x y z
#    x 2.062630 0.000000 -0.000770 
#    y 0.000000 2.113750 0.000000 
#    z -0.000770 0.000000 1.993800 
# 
# From -- ./inp_files/18536.got.cif
#   From: 2010.05.17/outbox.cif.g08.bks.cpg/sg9_10_cif.got.tgz:18536.got - 2010.06.03 20:04:27.
