data_PCOD9136923
_publ_section_title
;
Structure prediction by ZEFSAII (Michael W. Deem and Ramdas Pophale) SiO2 
 PCOD9136923
Probable space group: C C
;
_chemical_formula_sum "Si O2"
_cell_formula_units_Z 24
_cell_length_a 14.096878
_cell_length_b 7.216314
_cell_length_c 13.946529
_cell_angle_alpha 90.000000
_cell_angle_beta 38.363719
_cell_angle_gamma 90.000000
_cell_volume 880.546386
_symmetry_space_group_name_H-M "C C"
_symmetry_group_IT_number 9
_symmetry_cell_setting 'monoclinic'
loop_
_space_group_symop_operation_xyz
x,y,z
x,-y,1/2+z
1/2+x,1/2+y,z
1/2+x,1/2-y,1/2+z
loop_
_atom_site_type_symbol
_atom_site_label
_atom_site_fract_x
_atom_site_fract_y
_atom_site_fract_z
Si Si1 0.146710 0.759098 0.754560
Si Si2 0.052930 0.150938 0.835589
Si Si3 0.370802 0.087110 0.613852
Si Si4 0.131454 0.906070 0.055339
Si Si5 0.633338 0.839078 0.057973
Si Si6 0.797760 0.115704 0.806424
O O1 0.115139 0.637838 0.686230
O O2 0.172778 0.622890 0.822103
O O3 0.303930 0.887508 0.631503
O O4 0.025584 0.927536 0.863944
O O5 0.760283 0.297582 0.897617
O O6 0.933049 0.287734 0.977246
O O7 0.095390 0.172667 0.689931
O O8 0.488036 0.099748 0.608994
O O9 0.209378 0.179913 0.771505
O O10 0.164522 0.121242 0.031122
O O11 0.967984 0.888033 0.133002
O O12 0.771607 0.951537 0.901847
#
# Coordination Sequence:
#
# PCOD9136923 Si02
#       6
#     4   4   4   4   4   4
#     4   9  24  49  73 117 160 204 277 319 398 499
#     4   9  21  44  75 114 160 201 258 329 397 484
#     4  10  21  45  78 113 162 206 258 338 395 478
#     4  11  26  48  79 117 154 207 272 318 412 487
#     4  11  26  48  74 115 157 212 257 331 400 475
#     4  12  26  50  79 110 161 206 256 345 396 477
#
# _framework density 27.255804000000001
#
# number of rings (size 3 to 8) (size 9 to 14) (size 15 to 20)
#    1.000    0.667    0.000    3.000    2.333    2.667 
#   15.000    1.667    0.000    0.000    0.000    0.000 
#    0.000    0.000    0.000    0.000    0.000    0.000 
#
# Total GULP energy -67223.393574 kJ/mol
# GULP energy per Si atom -5601.949464 kJ/mol
# Density = 2.719377 g / cm^3
# Si number density = 27.255804 Si / 1000 Ang^3
#
#
#
# Elastic Constant Matrix: (Units=GPa)
#
#
# Indices 1 2 3 4 5 6 
#
# 1 158.1130 25.0062 19.9650 0.0000 30.5055 0.0000
# 2 25.0062 132.9358 37.0391 0.0000 9.2491 0.0000
# 3 19.9650 37.0391 65.3320 0.0000 8.4537 0.0000
# 4 0.0000 0.0000 0.0000 37.2375 0.0000 7.3419
# 5 30.5055 9.2491 8.4537 0.0000 56.0466 0.0000
# 6 0.0000 0.0000 0.0000 7.3419 0.0000 30.9859
#
#
#
# Elastic Compliance Matrix: (Units=1/GPa)
#
#
# Indices 1 2 3 4 5 6 
#
# 1 0.007318 -0.000749 -0.001338 0.000000 -0.003657 0.000000
# 2 -0.000749 0.009039 -0.004850 0.000000 -0.000352 0.000000
# 3 -0.001338 -0.004850 0.018631 0.000000 -0.001281 0.000000
# 4 0.000000 0.000000 0.000000 0.028171 0.000000 -0.006675
# 5 -0.003657 -0.000352 -0.001281 0.000000 0.020084 0.000000
# 6 0.000000 0.000000 0.000000 -0.006675 0.000000 0.033854
#
#
# Mechanical properties :
#
#
# Convention : Reuss Voigt Hill
#
# Bulk Modulus (GPa) = 47.36479 57.82240 52.59360
# Shear Modulus (GPa) = 36.22925 43.14536 39.68731
#
# Velocity S-wave (km/s) = 3.64982 3.98298 3.82003
# Velocity P-wave (km/s) = 5.93103 6.51252 6.22857
#
# Compressibility (1/GPa) = 0.02111273
#
# Stress axis : x y z
#
# Youngs Moduli (GPa) = 136.65486 110.62882 53.67423
#
# Poissons Ratio (x) = 0.08288 0.07183
# Poissons Ratio (y) = 0.10238 0.26033
# Poissons Ratio (z) = 0.18288 0.53657
#
# Static dielectric constant tensor:
#      x y z
#    x 2.173150 0.000000 0.014860 
#    y 0.000000 2.096680 0.000000 
#    z 0.014860 0.000000 2.102800 
# 
# From -- ./inp_files/25637.got.cif
#   From: 2010.05.17/outbox.cif.g08.bks.cpg/sg9_13_cif.got.tgz:25637.got - 2010.06.03 20:04:27.
