data_PCOD9136439
_publ_section_title
;
Structure prediction by ZEFSAII (Michael W. Deem and Ramdas Pophale) SiO2 
 PCOD9136439
Probable space group: C C
;
_chemical_formula_sum "Si O2"
_cell_formula_units_Z 32
_cell_length_a 10.935096
_cell_length_b 9.673707
_cell_length_c 23.523540
_cell_angle_alpha 90.000000
_cell_angle_beta 143.812716
_cell_angle_gamma 90.000000
_cell_volume 1469.210735
_symmetry_space_group_name_H-M "C C"
_symmetry_group_IT_number 9
_symmetry_cell_setting 'monoclinic'
loop_
_space_group_symop_operation_xyz
x,y,z
x,-y,1/2+z
1/2+x,1/2+y,z
1/2+x,1/2-y,1/2+z
loop_
_atom_site_type_symbol
_atom_site_label
_atom_site_fract_x
_atom_site_fract_y
_atom_site_fract_z
Si Si1 0.896570 0.730122 0.656130
Si Si2 0.333883 0.320915 0.758414
Si Si3 0.796354 0.947240 0.522579
Si Si4 0.317497 0.126488 0.856469
Si Si5 0.436686 0.008589 0.090631
Si Si6 0.822969 0.332606 0.831094
Si Si7 0.749344 0.761104 0.955247
Si Si8 0.331521 0.197580 0.457582
O O1 0.815290 0.747771 0.689544
O O2 0.860126 0.867222 0.604160
O O3 0.830957 0.592078 0.597834
O O4 0.144203 0.723461 0.752888
O O5 0.265217 0.230866 0.786641
O O6 0.583387 0.340574 0.861761
O O7 0.168213 0.444087 0.693669
O O8 0.549778 0.928230 0.433580
O O9 0.863104 0.844476 0.497796
O O10 0.850079 0.101103 0.521725
O O11 0.308105 0.198969 0.914786
O O12 0.209515 0.980105 0.801134
O O13 0.301639 0.139094 0.019338
O O14 0.446565 0.913660 0.038579
O O15 0.920069 0.300132 0.928425
O O16 0.009566 0.309134 0.857962
#
# Coordination Sequence:
#
# PCOD9136439 Si02
#       8
#     4   4   4   4   4   4   4   4
#     4  10  23  42  65  95 132 173 218 270 342 387
#     4  10  23  40  70  91 134 176 219 276 325 392
#     4   9  21  42  65  91 130 169 218 277 327 390
#     4  10  21  41  64  93 131 173 218 268 331 390
#     4  11  23  40  67 101 126 175 228 270 332 396
#     4  10  22  39  63  92 137 170 211 272 333 396
#     4  11  23  40  67  98 127 173 224 269 335 392
#     4   9  20  44  63  93 133 177 212 270 337 389
#
# _framework density 21.780403
#
# number of rings (size 3 to 8) (size 9 to 14) (size 15 to 20)
#    0.000    2.000    1.250    0.750    5.250    4.000 
#    6.750    2.500    0.000    0.000    0.000    0.000 
#    0.000    0.000    0.000    0.000    0.000    0.000 
#
# Total GULP energy -89071.656951 kJ/mol
# GULP energy per Si atom -5566.978559 kJ/mol
# Density = 2.173083 g / cm^3
# Si number density = 21.780403 Si / 1000 Ang^3
#
#
#
# Elastic Constant Matrix: (Units=GPa)
#
#
# Indices 1 2 3 4 5 6 
#
# 1 53.6844 45.9326 15.8384 0.0000 -22.4345 0.0000
# 2 45.9326 162.6521 52.5017 0.0000 -22.3804 0.0000
# 3 15.8384 52.5017 62.6558 0.0000 -30.2027 0.0000
# 4 0.0000 0.0000 0.0000 31.6229 0.0000 6.3036
# 5 -22.4345 -22.3804 -30.2027 0.0000 30.3157 0.0000
# 6 0.0000 0.0000 0.0000 6.3036 0.0000 16.8197
#
#
#
# Elastic Compliance Matrix: (Units=1/GPa)
#
#
# Indices 1 2 3 4 5 6 
#
# 1 0.039740 -0.011914 0.018997 0.000000 0.039540 0.000000
# 2 -0.011914 0.012038 -0.013548 0.000000 -0.013427 0.000000
# 3 0.018997 -0.013548 0.047072 0.000000 0.050954 0.000000
# 4 0.000000 0.000000 0.000000 0.034176 0.000000 -0.012808
# 5 0.039540 -0.013427 0.050954 0.000000 0.103098 0.000000
# 6 0.000000 0.000000 0.000000 -0.012808 0.000000 0.064254
#
#
# Mechanical properties :
#
#
# Convention : Reuss Voigt Hill
#
# Bulk Modulus (GPa) = 11.63861 56.39307 34.01584
# Shear Modulus (GPa) = 14.62214 26.73298 20.67756
#
# Velocity S-wave (km/s) = 2.59384 3.50721 3.08452
# Velocity P-wave (km/s) = 3.78496 6.50758 5.32327
#
# Compressibility (1/GPa) = 0.08592092
#
# Stress axis : x y z
#
# Youngs Moduli (GPa) = 25.16374 83.06944 21.24401
#
# Poissons Ratio (x) = 0.98968 -0.40358
# Poissons Ratio (y) = 0.29980 0.28781
# Poissons Ratio (z) = -0.47805 1.12542
#
# Static dielectric constant tensor:
#      x y z
#    x 1.811180 0.000000 0.064360 
#    y 0.000000 2.069000 0.000000 
#    z 0.064360 0.000000 1.907560 
# 
# From -- ./inp_files/35325.got.cif
#   From: 2010.05.17/outbox.cif.g08.bks.cpg/sg9_18_cif.got.tgz:35325.got - 2010.06.03 20:04:27.
