data_PCOD9136609
_publ_section_title
;
Structure prediction by ZEFSAII (Michael W. Deem and Ramdas Pophale) SiO2 
 PCOD9136609
Probable space group: C C
;
_chemical_formula_sum "Si O2"
_cell_formula_units_Z 28
_cell_length_a 13.244799
_cell_length_b 18.087832
_cell_length_c 4.993835
_cell_angle_alpha 90.000000
_cell_angle_beta 78.255246
_cell_angle_gamma 90.000000
_cell_volume 1171.324450
_symmetry_space_group_name_H-M "C C"
_symmetry_group_IT_number 9
_symmetry_cell_setting 'monoclinic'
loop_
_space_group_symop_operation_xyz
x,y,z
x,-y,1/2+z
1/2+x,1/2+y,z
1/2+x,1/2-y,1/2+z
loop_
_atom_site_type_symbol
_atom_site_label
_atom_site_fract_x
_atom_site_fract_y
_atom_site_fract_z
Si Si1 0.989430 0.549475 0.558770
Si Si2 0.319129 0.881431 0.892735
Si Si3 0.657488 0.694987 0.852548
Si Si4 0.834064 0.811367 0.807664
Si Si5 0.150569 0.048682 0.194048
Si Si6 0.710238 0.050509 0.544093
Si Si7 0.444091 0.741332 0.729712
O O1 0.991129 0.519461 0.256121
O O2 0.883576 0.592664 0.617726
O O3 0.097613 0.587987 0.562360
O O4 0.218477 0.842808 0.072165
O O5 0.398929 0.823551 0.726692
O O6 0.272306 0.940123 0.709749
O O7 0.740919 0.753544 0.920087
O O8 0.627676 0.628448 0.072099
O O9 0.557450 0.735171 0.788611
O O10 0.794835 0.891941 0.905537
O O11 0.929768 0.793523 0.947799
O O12 0.868900 0.799654 0.483757
O O13 0.115977 0.011943 0.492642
O O14 0.715884 0.980166 0.341166
#
# Coordination Sequence:
#
# PCOD9136609 Si02
#       7
#     4   4   4   4   4   4   4
#     4  10  22  35  61  97 128 164 214 269 345 410
#     4  11  23  43  67 100 132 182 220 293 346 404
#     4  11  26  46  69 102 141 184 233 284 357 414
#     4  11  24  45  69  99 132 181 227 291 341 413
#     4  12  24  41  67  97 138 180 225 280 346 410
#     4  10  21  42  67  96 132 173 222 287 348 400
#     4  11  26  42  70  97 133 176 241 276 339 423
#
# _framework density 23.904565000000002
#
# number of rings (size 3 to 8) (size 9 to 14) (size 15 to 20)
#    0.000    1.143    2.857    2.571    4.000    0.000 
#    0.000    7.143    0.000    0.000    0.000    0.000 
#    0.000    0.000    0.000    0.000    0.000    0.000 
#
# Total GULP energy -78188.980796 kJ/mol
# GULP energy per Si atom -5584.927200 kJ/mol
# Density = 2.385016 g / cm^3
# Si number density = 23.904565 Si / 1000 Ang^3
#
#
#
# Elastic Constant Matrix: (Units=GPa)
#
#
# Indices 1 2 3 4 5 6 
#
# 1 62.4541 9.1711 -3.2453 0.0000 7.9372 0.0000
# 2 9.1711 40.1221 5.9206 0.0000 1.7351 0.0000
# 3 -3.2453 5.9206 90.6290 0.0000 9.5162 0.0000
# 4 0.0000 0.0000 0.0000 23.3957 0.0000 5.4321
# 5 7.9372 1.7351 9.5162 0.0000 33.2854 0.0000
# 6 0.0000 0.0000 0.0000 5.4321 0.0000 21.9186
#
#
#
# Elastic Compliance Matrix: (Units=1/GPa)
#
#
# Indices 1 2 3 4 5 6 
#
# 1 0.017203 -0.003942 0.001322 0.000000 -0.004275 0.000000
# 2 -0.003942 0.026094 -0.001858 0.000000 0.000111 0.000000
# 3 0.001322 -0.001858 0.011573 0.000000 -0.003527 0.000000
# 4 0.000000 0.000000 0.000000 0.045353 0.000000 -0.011240
# 5 -0.004275 0.000111 -0.003527 0.000000 0.032065 0.000000
# 6 0.000000 0.000000 0.000000 -0.011240 0.000000 0.048409
#
#
# Mechanical properties :
#
#
# Convention : Reuss Voigt Hill
#
# Bulk Modulus (GPa) = 21.77940 24.09979 22.93960
# Shear Modulus (GPa) = 24.39537 27.81054 26.10295
#
# Velocity S-wave (km/s) = 3.19804 3.41456 3.30807
# Velocity P-wave (km/s) = 4.77152 5.06451 4.92019
#
# Compressibility (1/GPa) = 0.04591495
#
# Stress axis : x y z
#
# Youngs Moduli (GPa) = 58.13044 38.32244 86.40760
#
# Poissons Ratio (x) = 0.15109 -0.11427
# Poissons Ratio (y) = 0.22918 0.16050
# Poissons Ratio (z) = -0.07687 0.07118
#
# Static dielectric constant tensor:
#      x y z
#    x 1.947840 0.000000 -0.021280 
#    y 0.000000 1.979870 0.000000 
#    z -0.021280 0.000000 1.903680 
# 
# From -- ./inp_files/1638.got.cif
#   From: 2010.05.17/outbox.cif.g08.bks.cpg/sg9_1_cif.got.tgz:1638.got - 2010.06.03 20:04:27.
