data_PCOD9136214
_publ_section_title
;
Structure prediction by ZEFSAII (Michael W. Deem and Ramdas Pophale) SiO2 
 PCOD9136214
Probable space group: C C
;
_chemical_formula_sum "Si O2"
_cell_formula_units_Z 28
_cell_length_a 18.446410
_cell_length_b 7.275152
_cell_length_c 9.284104
_cell_angle_alpha 90.000000
_cell_angle_beta 76.912371
_cell_angle_gamma 90.000000
_cell_volume 1213.567610
_symmetry_space_group_name_H-M "C C"
_symmetry_group_IT_number 9
_symmetry_cell_setting 'monoclinic'
loop_
_space_group_symop_operation_xyz
x,y,z
x,-y,1/2+z
1/2+x,1/2+y,z
1/2+x,1/2-y,1/2+z
loop_
_atom_site_type_symbol
_atom_site_label
_atom_site_fract_x
_atom_site_fract_y
_atom_site_fract_z
Si Si1 0.927420 0.257887 0.298010
Si Si2 0.948898 0.103171 0.966715
Si Si3 0.578579 0.933091 0.226817
Si Si4 0.789702 0.851039 0.484954
Si Si5 0.635916 0.766328 0.491825
Si Si6 0.266514 0.725074 0.327045
Si Si7 0.605106 0.642693 0.965681
O O1 0.842787 0.330262 0.334622
O O2 0.989463 0.415086 0.277076
O O3 0.942342 0.109218 0.418220
O O4 0.938360 0.144705 0.142372
O O5 0.096746 0.071148 0.506512
O O6 0.031700 0.180134 0.902018
O O7 0.876541 0.190908 0.921469
O O8 0.613682 0.888462 0.364583
O O9 0.611617 0.112185 0.137887
O O10 0.600192 0.765440 0.110517
O O11 0.724273 0.727564 0.450816
O O12 0.778424 0.847791 0.660754
O O13 0.769532 0.051098 0.432139
O O14 0.187161 0.823255 0.367327
#
# Coordination Sequence:
#
# PCOD9136214 Si02
#       7
#     4   4   4   4   4   4   4
#     4   9  19  41  65  97 136 173 219 280 328 402
#     4   9  19  39  67  94 132 173 219 267 336 391
#     4  11  25  44  67 103 138 176 226 277 338 393
#     4  10  21  39  68  97 132 180 215 275 334 397
#     4  12  25  42  72  98 135 180 222 279 333 399
#     4  10  21  40  70  96 139 172 227 273 336 397
#     4  11  24  41  73  99 130 176 228 277 327 403
#
# _framework density 23.072465999999999
#
# number of rings (size 3 to 8) (size 9 to 14) (size 15 to 20)
#    0.000    1.714    2.857    0.857    2.000    0.000 
#    2.571    4.286   12.571    0.000    0.000    0.000 
#    0.000    0.000    0.000    0.000    0.000    0.000 
#
# Total GULP energy -78208.538225 kJ/mol
# GULP energy per Si atom -5586.324159 kJ/mol
# Density = 2.301995 g / cm^3
# Si number density = 23.072466 Si / 1000 Ang^3
#
#
#
# Elastic Constant Matrix: (Units=GPa)
#
#
# Indices 1 2 3 4 5 6 
#
# 1 236.8908 35.0744 53.6549 0.0000 -18.2915 0.0000
# 2 35.0744 61.1156 36.3982 0.0000 3.7864 0.0000
# 3 53.6549 36.3982 52.4488 0.0000 -4.2294 0.0000
# 4 0.0000 0.0000 0.0000 9.2760 0.0000 2.4035
# 5 -18.2915 3.7864 -4.2294 0.0000 34.3450 0.0000
# 6 0.0000 0.0000 0.0000 2.4035 0.0000 27.0140
#
#
#
# Elastic Compliance Matrix: (Units=1/GPa)
#
#
# Indices 1 2 3 4 5 6 
#
# 1 0.005674 -0.000099 -0.005546 0.000000 0.002350 0.000000
# 2 -0.000099 0.028964 -0.020465 0.000000 -0.005766 0.000000
# 3 -0.005546 -0.020465 0.039276 0.000000 0.004139 0.000000
# 4 0.000000 0.000000 0.000000 0.110349 0.000000 -0.009818
# 5 0.002350 -0.005766 0.004139 0.000000 0.031513 0.000000
# 6 0.000000 0.000000 0.000000 -0.009818 0.000000 0.037891
#
#
# Mechanical properties :
#
#
# Convention : Reuss Voigt Hill
#
# Bulk Modulus (GPa) = 46.09412 66.74556 56.41984
# Shear Modulus (GPa) = 15.96852 29.14886 22.55869
#
# Velocity S-wave (km/s) = 2.63364 3.55824 3.13026
# Velocity P-wave (km/s) = 5.41012 6.77295 6.12953
#
# Compressibility (1/GPa) = 0.02169474
#
# Stress axis : x y z
#
# Youngs Moduli (GPa) = 176.25662 34.52551 25.46116
#
# Poissons Ratio (x) = 0.00340 0.14121
# Poissons Ratio (y) = 0.01737 0.52105
# Poissons Ratio (z) = 0.97755 0.70655
#
# Static dielectric constant tensor:
#      x y z
#    x 1.928020 0.000000 -0.047550 
#    y 0.000000 1.834410 0.000000 
#    z -0.047550 0.000000 1.842230 
# 
# From -- ./inp_files/8994.got.cif
#   From: 2010.05.17/outbox.cif.g08.bks.cpg/sg9_5_cif.got.tgz:8994.got - 2010.06.03 20:04:27.
