data_PCOD9136213
_publ_section_title
;
Structure prediction by ZEFSAII (Michael W. Deem and Ramdas Pophale) SiO2 
 PCOD9136213
Probable space group: C C
;
_chemical_formula_sum "Si O2"
_cell_formula_units_Z 32
_cell_length_a 11.153517
_cell_length_b 15.039911
_cell_length_c 14.187617
_cell_angle_alpha 90.000000
_cell_angle_beta 143.150957
_cell_angle_gamma 90.000000
_cell_volume 1427.272700
_symmetry_space_group_name_H-M "C C"
_symmetry_group_IT_number 9
_symmetry_cell_setting 'monoclinic'
loop_
_space_group_symop_operation_xyz
x,y,z
x,-y,1/2+z
1/2+x,1/2+y,z
1/2+x,1/2-y,1/2+z
loop_
_atom_site_type_symbol
_atom_site_label
_atom_site_fract_x
_atom_site_fract_y
_atom_site_fract_z
Si Si1 0.929080 0.125409 0.363180
Si Si2 0.635287 0.910057 0.848367
Si Si3 0.244004 0.839630 0.665671
Si Si4 0.727507 0.477509 0.518713
Si Si5 0.570274 0.813781 0.372387
Si Si6 0.452119 0.776185 0.088830
Si Si7 0.172854 0.473374 0.543761
Si Si8 0.803574 0.561982 0.385953
O O1 0.785849 0.123589 0.363989
O O2 0.819376 0.078243 0.205541
O O3 0.988438 0.225220 0.371663
O O4 0.118452 0.060896 0.498074
O O5 0.483392 0.835708 0.797123
O O6 0.463996 0.971876 0.691534
O O7 0.739626 0.966076 0.997308
O O8 0.150394 0.884574 0.513608
O O9 0.134412 0.754409 0.637950
O O10 0.221144 0.915840 0.731776
O O11 0.705222 0.490885 0.393062
O O12 0.509015 0.815333 0.225229
O O13 0.525036 0.899874 0.404971
O O14 0.812007 0.808156 0.521930
O O15 0.309190 0.844475 0.944339
O O16 0.034093 0.536067 0.519202
#
# Coordination Sequence:
#
# PCOD9136213 Si02
#       8
#     4   4   4   4   4   4   4   4
#     4  12  23  42  66 101 135 168 225 273 326 395
#     4   9  23  42  66  94 137 173 212 268 333 389
#     4   9  22  41  63  96 134 167 216 269 326 382
#     4  10  21  39  68  97 130 176 213 267 329 392
#     4  12  26  38  67  99 129 173 223 272 329 382
#     4  12  22  42  68  97 128 168 227 277 315 393
#     4  11  24  42  67  95 133 175 217 272 328 391
#     4  11  21  42  67  97 130 170 217 270 324 390
#
# _framework density 22.420383000000001
#
# number of rings (size 3 to 8) (size 9 to 14) (size 15 to 20)
#    0.750    0.500    5.000    0.750    1.750    0.000 
#    0.000    5.000    0.000    0.000    0.000    0.000 
#    0.000    0.000    0.000    0.000    0.000    0.000 
#
# Total GULP energy -89233.538082 kJ/mol
# GULP energy per Si atom -5577.096130 kJ/mol
# Density = 2.236935 g / cm^3
# Si number density = 22.420383 Si / 1000 Ang^3
#
#
#
# Elastic Constant Matrix: (Units=GPa)
#
#
# Indices 1 2 3 4 5 6 
#
# 1 152.7351 32.6025 24.6488 0.0010 -7.6383 0.0003
# 2 32.6025 54.4872 -2.8598 0.0015 1.3551 0.0009
# 3 24.6488 -2.8598 39.8433 0.0027 -6.7274 0.0018
# 4 0.0010 0.0015 0.0027 18.7397 0.0014 0.7086
# 5 -7.6383 1.3551 -6.7274 0.0014 29.3536 0.0007
# 6 0.0003 0.0009 0.0018 0.7086 0.0007 21.8219
#
#
#
# Elastic Compliance Matrix: (Units=1/GPa)
#
#
# Indices 1 2 3 4 5 6 
#
# 1 0.008685 -0.005519 -0.005559 0.000001 0.001241 0.000000
# 2 -0.005519 0.021939 0.004760 -0.000002 -0.001358 -0.000001
# 3 -0.005559 0.004760 0.029749 -0.000005 0.005152 -0.000003
# 4 0.000001 -0.000002 -0.000005 0.053428 -0.000003 -0.001735
# 5 0.001241 -0.001358 0.005152 -0.000003 0.035634 -0.000001
# 6 0.000000 -0.000001 -0.000003 -0.001735 -0.000001 0.045882
#
#
# Mechanical properties :
#
#
# Convention : Reuss Voigt Hill
#
# Bulk Modulus (GPa) = 20.94896 39.53875 30.24385
# Shear Modulus (GPa) = 22.33484 26.82796 24.58140
#
# Velocity S-wave (km/s) = 3.15966 3.46293 3.31476
# Velocity P-wave (km/s) = 4.76186 5.80195 5.30744
#
# Compressibility (1/GPa) = 0.04773507
#
# Stress axis : x y z
#
# Youngs Moduli (GPa) = 115.14645 45.58121 33.61453
#
# Poissons Ratio (x) = 0.25157 0.18687
# Poissons Ratio (y) = 0.63550 -0.16000
# Poissons Ratio (z) = 0.64014 -0.21695
#
# Static dielectric constant tensor:
#      x y z
#    x 1.835320 0.000000 0.005250 
#    y 0.000000 1.805560 0.000000 
#    z 0.005250 0.000000 1.863770 
# 
# From -- ./inp_files/24861.got.cif
#   From: 2010.05.17/outbox.cif.g08.bks.cpg/sg9_13_cif.got.tgz:24861.got - 2010.06.03 20:04:27.
