data_PCOD9136017
_publ_section_title
;
Structure prediction by ZEFSAII (Michael W. Deem and Ramdas Pophale) SiO2 
 PCOD9136017
Probable space group: C C
;
_chemical_formula_sum "Si O2"
_cell_formula_units_Z 28
_cell_length_a 5.486491
_cell_length_b 9.742523
_cell_length_c 20.849596
_cell_angle_alpha 90.000000
_cell_angle_beta 107.533965
_cell_angle_gamma 90.000000
_cell_volume 1062.678757
_symmetry_space_group_name_H-M "C C"
_symmetry_group_IT_number 9
_symmetry_cell_setting 'monoclinic'
loop_
_space_group_symop_operation_xyz
x,y,z
x,-y,1/2+z
1/2+x,1/2+y,z
1/2+x,1/2-y,1/2+z
loop_
_atom_site_type_symbol
_atom_site_label
_atom_site_fract_x
_atom_site_fract_y
_atom_site_fract_z
Si Si1 0.694620 0.278285 0.440990
Si Si2 0.236576 0.227442 0.482018
Si Si3 0.185371 0.687100 0.721543
Si Si4 0.307822 0.054566 0.374584
Si Si5 0.542151 0.009796 0.591780
Si Si6 0.075948 0.064165 0.122982
Si Si7 0.720938 0.394881 0.250776
O O1 0.574326 0.137683 0.401996
O O2 0.450769 0.324855 0.465278
O O3 0.783345 0.400631 0.400856
O O4 0.967875 0.250871 0.495775
O O5 0.142860 0.144017 0.410801
O O6 0.412776 0.129628 0.540073
O O7 0.155544 0.558480 0.669735
O O8 0.075065 0.810424 0.671566
O O9 0.007993 0.662507 0.769022
O O10 0.488102 0.698148 0.756864
O O11 0.226196 0.030212 0.295372
O O12 0.790467 0.954063 0.574799
O O13 0.306788 0.914601 0.592711
O O14 0.154791 0.931821 0.171742
#
# Coordination Sequence:
#
# PCOD9136017 Si02
#       7
#     4   4   4   4   4   4   4
#     4  10  25  40  65  92 131 165 227 263 345 390
#     4  10  24  41  65  94 131 171 221 273 335 402
#     4  10  22  38  60  91 122 163 208 262 325 385
#     4  10  26  42  65  96 131 177 220 280 335 410
#     4  10  21  40  61  92 122 159 211 259 322 395
#     4  10  21  38  62  91 122 164 202 265 319 388
#     4  10  23  37  60  86 127 157 219 252 329 386
#
# _framework density 26.348510999999998
#
# number of rings (size 3 to 8) (size 9 to 14) (size 15 to 20)
#    0.857    1.143    0.000    1.714    6.000    3.429 
#    0.000    0.000    0.000    0.000    0.000    0.000 
#    0.000    0.000    0.000    0.000    0.000    0.000 
#
# Total GULP energy -78090.172732 kJ/mol
# GULP energy per Si atom -5577.869481 kJ/mol
# Density = 2.628854 g / cm^3
# Si number density = 26.348511 Si / 1000 Ang^3
#
#
#
# Elastic Constant Matrix: (Units=GPa)
#
#
# Indices 1 2 3 4 5 6 
#
# 1 237.5093 44.4244 47.2546 0.0000 -6.8564 0.0000
# 2 44.4244 67.4188 23.3206 0.0000 0.5650 0.0000
# 3 47.2546 23.3206 72.2591 0.0000 -7.2839 0.0000
# 4 0.0000 0.0000 0.0000 53.8759 0.0000 1.8070
# 5 -6.8564 0.5650 -7.2839 0.0000 20.6685 0.0000
# 6 0.0000 0.0000 0.0000 1.8070 0.0000 27.2980
#
#
#
# Elastic Compliance Matrix: (Units=1/GPa)
#
#
# Indices 1 2 3 4 5 6 
#
# 1 0.005215 -0.002585 -0.002482 0.000000 0.000926 0.000000
# 2 -0.002585 0.018098 -0.004444 0.000000 -0.002919 0.000000
# 3 -0.002482 -0.004444 0.017446 0.000000 0.005446 0.000000
# 4 0.000000 0.000000 0.000000 0.018602 0.000000 -0.001231
# 5 0.000926 -0.002919 0.005446 0.000000 0.050689 0.000000
# 6 0.000000 0.000000 0.000000 -0.001231 0.000000 0.036714
#
#
# Mechanical properties :
#
#
# Convention : Reuss Voigt Hill
#
# Bulk Modulus (GPa) = 46.01039 67.46514 56.73777
# Shear Modulus (GPa) = 28.89623 37.84765 33.37194
#
# Velocity S-wave (km/s) = 3.31523 3.79413 3.56274
# Velocity P-wave (km/s) = 5.67049 6.69734 6.20519
#
# Compressibility (1/GPa) = 0.02173422
#
# Stress axis : x y z
#
# Youngs Moduli (GPa) = 191.77244 55.25513 57.31994
#
# Poissons Ratio (x) = 0.14284 0.14230
# Poissons Ratio (y) = 0.49574 0.25476
# Poissons Ratio (z) = 0.47607 0.24558
#
# Static dielectric constant tensor:
#      x y z
#    x 2.101980 0.000000 -0.020650 
#    y 0.000000 2.156700 0.000000 
#    z -0.020650 0.000000 2.121190 
# 
# From -- ./inp_files/31932.got.cif
#   From: 2010.05.17/outbox.cif.g08.bks.cpg/sg9_16_cif.got.tgz:31932.got - 2010.06.03 20:04:27.
