data_PCOD9136828
_publ_section_title
;
Structure prediction by ZEFSAII (Michael W. Deem and Ramdas Pophale) SiO2 
 PCOD9136828
Probable space group: C C
;
_chemical_formula_sum "Si O2"
_cell_formula_units_Z 28
_cell_length_a 5.029813
_cell_length_b 16.884377
_cell_length_c 13.562148
_cell_angle_alpha 90.000000
_cell_angle_beta 86.380826
_cell_angle_gamma 90.000000
_cell_volume 1149.471911
_symmetry_space_group_name_H-M "C C"
_symmetry_group_IT_number 9
_symmetry_cell_setting 'monoclinic'
loop_
_space_group_symop_operation_xyz
x,y,z
x,-y,1/2+z
1/2+x,1/2+y,z
1/2+x,1/2-y,1/2+z
loop_
_atom_site_type_symbol
_atom_site_label
_atom_site_fract_x
_atom_site_fract_y
_atom_site_fract_z
Si Si1 0.920550 0.603128 0.321130
Si Si2 0.775476 0.745903 0.431158
Si Si3 0.648585 0.546031 0.710211
Si Si4 0.735382 0.035106 0.867662
Si Si5 0.322144 0.166571 0.849637
Si Si6 0.551898 0.562545 0.051187
Si Si7 0.047106 0.658091 0.115455
O O1 0.801061 0.653271 0.412517
O O2 0.763732 0.531475 0.268171
O O3 0.161066 0.555680 0.364531
O O4 0.000835 0.665665 0.233491
O O5 0.666216 0.774590 0.540467
O O6 0.051680 0.793162 0.399121
O O7 0.551885 0.769646 0.356254
O O8 0.349333 0.555618 0.757854
O O9 0.775601 0.627632 0.743904
O O10 0.653861 0.517925 0.598796
O O11 0.486807 0.091955 0.896984
O O12 0.965969 0.050317 0.940887
O O13 0.269456 0.588754 0.104953
O O14 0.764507 0.629209 0.077915
#
# Coordination Sequence:
#
# PCOD9136828 Si02
#       7
#     4   4   4   4   4   4   4
#     4  10  26  41  71 100 144 179 228 286 349 394
#     4  12  24  43  70 100 135 189 227 277 340 416
#     4  10  21  44  68  99 133 175 226 288 341 406
#     4  11  21  43  67 104 131 178 225 290 332 410
#     4  11  23  40  72  95 136 175 232 274 339 405
#     4  11  23  38  72 100 130 178 234 278 345 404
#     4  11  22  43  66 102 133 188 226 275 342 425
#
# _framework density 24.359010999999999
#
# number of rings (size 3 to 8) (size 9 to 14) (size 15 to 20)
#    0.000    1.143    4.286    1.714    4.000    0.000 
#    0.000    2.857    3.143    3.429    0.000    0.000 
#    0.000    0.000    0.000    0.000    0.000    0.000 
#
# Total GULP energy -78062.572759 kJ/mol
# GULP energy per Si atom -5575.898054 kJ/mol
# Density = 2.430357 g / cm^3
# Si number density = 24.359011 Si / 1000 Ang^3
#
#
#
# Elastic Constant Matrix: (Units=GPa)
#
#
# Indices 1 2 3 4 5 6 
#
# 1 155.5770 25.9840 11.9926 0.0000 1.4128 0.0000
# 2 25.9840 50.6572 23.0084 0.0000 6.2699 0.0000
# 3 11.9926 23.0084 51.3834 0.0000 -2.5617 0.0000
# 4 0.0000 0.0000 0.0000 41.0180 0.0000 -4.6294
# 5 1.4128 6.2699 -2.5617 0.0000 24.7215 0.0000
# 6 0.0000 0.0000 0.0000 -4.6294 0.0000 29.7140
#
#
#
# Elastic Compliance Matrix: (Units=1/GPa)
#
#
# Indices 1 2 3 4 5 6 
#
# 1 0.007037 -0.003693 0.000038 0.000000 0.000539 0.000000
# 2 -0.003693 0.028173 -0.012162 0.000000 -0.008195 0.000000
# 3 0.000038 -0.012162 0.025182 0.000000 0.005692 0.000000
# 4 0.000000 0.000000 0.000000 0.024816 0.000000 0.003866
# 5 0.000539 -0.008195 0.005692 0.000000 0.043088 0.000000
# 6 0.000000 0.000000 0.000000 0.003866 0.000000 0.034257
#
#
# Mechanical properties :
#
#
# Convention : Reuss Voigt Hill
#
# Bulk Modulus (GPa) = 34.77276 42.17641 38.47459
# Shear Modulus (GPa) = 24.53716 32.19953 28.36835
#
# Velocity S-wave (km/s) = 3.17726 3.63970 3.41632
# Velocity P-wave (km/s) = 5.26936 5.91738 5.60274
#
# Compressibility (1/GPa) = 0.02875814
#
# Stress axis : x y z
#
# Youngs Moduli (GPa) = 142.11180 35.49470 39.71063
#
# Poissons Ratio (x) = 0.13110 -0.00152
# Poissons Ratio (y) = 0.52489 0.48296
# Poissons Ratio (z) = -0.00546 0.43168
#
# Static dielectric constant tensor:
#      x y z
#    x 1.979970 0.000000 -0.008080 
#    y 0.000000 2.009840 0.000000 
#    z -0.008080 0.000000 2.031980 
# 
# From -- ./inp_files/21778.got.cif
#   From: 2010.05.17/outbox.cif.g08.bks.cpg/sg9_11_cif.got.tgz:21778.got - 2010.06.03 20:04:27.
