data_PCOD9136388
_publ_section_title
;
Structure prediction by ZEFSAII (Michael W. Deem and Ramdas Pophale) SiO2 
 PCOD9136388
Probable space group: C C
;
_chemical_formula_sum "Si O2"
_cell_formula_units_Z 28
_cell_length_a 7.128999
_cell_length_b 13.281730
_cell_length_c 14.564808
_cell_angle_alpha 90.000000
_cell_angle_beta 56.821266
_cell_angle_gamma 90.000000
_cell_volume 1154.241153
_symmetry_space_group_name_H-M "C C"
_symmetry_group_IT_number 9
_symmetry_cell_setting 'monoclinic'
loop_
_space_group_symop_operation_xyz
x,y,z
x,-y,1/2+z
1/2+x,1/2+y,z
1/2+x,1/2-y,1/2+z
loop_
_atom_site_type_symbol
_atom_site_label
_atom_site_fract_x
_atom_site_fract_y
_atom_site_fract_z
Si Si1 0.641110 0.832603 0.619850
Si Si2 0.428828 0.368143 0.968293
Si Si3 0.557023 0.145684 0.340160
Si Si4 0.448964 0.506407 0.288842
Si Si5 0.657398 0.596958 0.578203
Si Si6 0.074975 0.651083 0.930197
Si Si7 0.133696 0.797639 0.465492
O O1 0.514192 0.866465 0.744189
O O2 0.638581 0.711069 0.619008
O O3 0.100788 0.772801 0.918407
O O4 0.907523 0.851321 0.555384
O O5 0.877736 0.407404 0.955328
O O6 0.493811 0.453232 0.878674
O O7 0.200463 0.306890 0.003168
O O8 0.446431 0.411843 0.065162
O O9 0.590210 0.258110 0.373714
O O10 0.799925 0.096284 0.288726
O O11 0.643910 0.477041 0.167260
O O12 0.051868 0.369346 0.545336
O O13 0.281702 0.588516 0.838639
O O14 0.850905 0.636209 0.929926
#
# Coordination Sequence:
#
# PCOD9136388 Si02
#       7
#     4   4   4   4   4   4   4
#     4  10  21  40  71  95 140 180 226 290 349 414
#     4   8  20  44  61 100 142 168 237 290 334 431
#     4  10  23  43  64 100 141 174 236 298 340 426
#     4  11  23  42  69  97 143 181 236 289 356 422
#     4  10  23  42  67 100 136 181 232 284 357 420
#     4   9  21  42  69 100 133 187 232 274 368 413
#     4   8  19  41  63  96 131 175 229 279 346 420
#
# _framework density 24.258362000000002
#
# number of rings (size 3 to 8) (size 9 to 14) (size 15 to 20)
#    0.857    1.714    0.000    0.000    8.000    2.286 
#    7.714    1.429    0.000    0.000    0.000    0.000 
#    0.000    0.000    0.000    0.000    0.000    0.000 
#
# Total GULP energy -78129.573885 kJ/mol
# GULP energy per Si atom -5580.683849 kJ/mol
# Density = 2.420315 g / cm^3
# Si number density = 24.258362 Si / 1000 Ang^3
#
#
#
# Elastic Constant Matrix: (Units=GPa)
#
#
# Indices 1 2 3 4 5 6 
#
# 1 83.3136 11.7042 24.5437 0.0000 -3.0564 0.0000
# 2 11.7042 68.5126 31.4532 0.0000 -9.5704 0.0000
# 3 24.5437 31.4532 119.7190 0.0000 2.4141 0.0000
# 4 0.0000 0.0000 0.0000 30.6219 0.0000 -6.2676
# 5 -3.0564 -9.5704 2.4141 0.0000 26.1252 0.0000
# 6 0.0000 0.0000 0.0000 -6.2676 0.0000 20.8195
#
#
#
# Elastic Compliance Matrix: (Units=1/GPa)
#
#
# Indices 1 2 3 4 5 6 
#
# 1 0.012898 -0.000886 -0.002440 0.000000 0.001410 0.000000
# 2 -0.000886 0.017837 -0.004643 0.000000 0.006859 0.000000
# 3 -0.002440 -0.004643 0.010132 0.000000 -0.002922 0.000000
# 4 0.000000 0.000000 0.000000 0.034801 0.000000 0.010477
# 5 0.001410 0.006859 -0.002922 0.000000 0.041225 0.000000
# 6 0.000000 0.000000 0.000000 0.010477 0.000000 0.051186
#
#
# Mechanical properties :
#
#
# Convention : Reuss Voigt Hill
#
# Bulk Modulus (GPa) = 40.11457 45.21638 42.66548
# Shear Modulus (GPa) = 25.99761 29.10292 27.55026
#
# Velocity S-wave (km/s) = 3.27723 3.46744 3.37367
# Velocity P-wave (km/s) = 5.55811 5.89159 5.72728
#
# Compressibility (1/GPa) = 0.02492860
#
# Stress axis : x y z
#
# Youngs Moduli (GPa) = 77.53249 56.06356 98.69945
#
# Poissons Ratio (x) = 0.04970 0.24080
# Poissons Ratio (y) = 0.06873 0.45824
# Poissons Ratio (z) = 0.18916 0.26029
#
# Static dielectric constant tensor:
#      x y z
#    x 2.010910 0.000000 -0.024680 
#    y 0.000000 1.984180 0.000000 
#    z -0.024680 0.000000 1.919660 
# 
# From -- ./inp_files/21895.got.cif
#   From: 2010.05.17/outbox.cif.g08.bks.cpg/sg9_11_cif.got.tgz:21895.got - 2010.06.03 20:04:27.
