data_PCOD9136787
_publ_section_title
;
Structure prediction by ZEFSAII (Michael W. Deem and Ramdas Pophale) SiO2 
 PCOD9136787
Probable space group: C C
;
_chemical_formula_sum "Si O2"
_cell_formula_units_Z 32
_cell_length_a 12.638223
_cell_length_b 7.067603
_cell_length_c 33.029618
_cell_angle_alpha 90.000000
_cell_angle_beta 152.405519
_cell_angle_gamma 90.000000
_cell_volume 1366.596380
_symmetry_space_group_name_H-M "C C"
_symmetry_group_IT_number 9
_symmetry_cell_setting 'monoclinic'
loop_
_space_group_symop_operation_xyz
x,y,z
x,-y,1/2+z
1/2+x,1/2+y,z
1/2+x,1/2-y,1/2+z
loop_
_atom_site_type_symbol
_atom_site_label
_atom_site_fract_x
_atom_site_fract_y
_atom_site_fract_z
Si Si1 0.091330 0.471858 0.682800
Si Si2 0.456261 0.447631 0.147253
Si Si3 0.191243 0.598084 0.923733
Si Si4 0.685889 0.656973 0.341829
Si Si5 0.058270 0.341373 0.465910
Si Si6 0.851947 0.733600 0.312192
Si Si7 0.210872 0.463410 0.640681
Si Si8 0.626757 0.593811 0.562058
O O1 0.075537 0.245874 0.675040
O O2 0.316350 0.569386 0.777399
O O3 0.057675 0.543002 0.625046
O O4 0.887564 0.534567 0.643593
O O5 0.282515 0.539017 0.056188
O O6 0.648628 0.598448 0.225582
O O7 0.300453 0.410401 0.134192
O O8 0.165240 0.715443 0.874186
O O9 0.077482 0.389392 0.881594
O O10 0.075052 0.689729 0.923700
O O11 0.459278 0.564935 0.021307
O O12 0.811542 0.757504 0.346329
O O13 0.439056 0.600835 0.241493
O O14 0.840428 0.472335 0.401473
O O15 0.048513 0.158235 0.490678
O O16 0.111043 0.277818 0.585118
#
# Coordination Sequence:
#
# PCOD9136787 Si02
#       8
#     4   4   4   4   4   4   4   4
#     4  12  22  40  71  94 121 178 214 259 337 386
#     4  10  21  44  67  93 135 169 215 277 319 386
#     4  11  24  40  66  92 130 182 206 271 342 373
#     4  10  21  44  63  95 136 168 218 274 321 387
#     4  10  22  42  62  94 137 165 217 277 317 387
#     4  10  23  45  62  99 135 162 227 274 310 404
#     4  10  23  43  66  96 131 171 221 275 317 393
#     4  11  24  44  63  99 133 163 228 273 313 404
#
# _framework density 23.415838999999998
#
# number of rings (size 3 to 8) (size 9 to 14) (size 15 to 20)
#    0.000    1.500    3.750    2.250    1.750    5.000 
#    9.000    0.000    0.000    0.000    0.000    0.000 
#    0.000    0.000    0.000    0.000    0.000    0.000 
#
# Total GULP energy -89480.253433 kJ/mol
# GULP energy per Si atom -5592.515840 kJ/mol
# Density = 2.336254 g / cm^3
# Si number density = 23.415839 Si / 1000 Ang^3
#
#
#
# Elastic Constant Matrix: (Units=GPa)
#
#
# Indices 1 2 3 4 5 6 
#
# 1 122.9895 27.1280 14.2046 0.0007 -16.4320 0.0002
# 2 27.1280 48.6220 3.3669 -0.0018 -5.0261 0.0005
# 3 14.2046 3.3669 60.4759 -0.0026 0.3352 0.0004
# 4 0.0007 -0.0018 -0.0026 33.9832 0.0005 -1.9669
# 5 -16.4320 -5.0261 0.3352 0.0005 35.9580 -0.0001
# 6 0.0002 0.0005 0.0004 -1.9669 -0.0001 25.6734
#
#
#
# Elastic Compliance Matrix: (Units=1/GPa)
#
#
# Indices 1 2 3 4 5 6 
#
# 1 0.010002 -0.005034 -0.002091 -0.000001 0.003886 0.000000
# 2 -0.005034 0.023486 -0.000131 0.000001 0.000984 0.000000
# 3 -0.002091 -0.000131 0.017040 0.000001 -0.001132 0.000000
# 4 -0.000001 0.000001 0.000001 0.029557 -0.000001 0.002265
# 5 0.003886 0.000984 -0.001132 -0.000001 0.029734 0.000000
# 6 0.000000 0.000000 0.000000 0.002265 0.000000 0.039124
#
#
# Mechanical properties :
#
#
# Convention : Reuss Voigt Hill
#
# Bulk Modulus (GPa) = 27.76392 35.72071 31.74232
# Shear Modulus (GPa) = 28.49653 31.61546 30.05600
#
# Velocity S-wave (km/s) = 3.49230 3.67846 3.58659
# Velocity P-wave (km/s) = 5.30511 5.77317 5.54408
#
# Compressibility (1/GPa) = 0.03601797
#
# Stress axis : x y z
#
# Youngs Moduli (GPa) = 99.98209 42.57834 58.68517
#
# Poissons Ratio (x) = 0.21433 0.12268
# Poissons Ratio (y) = 0.50330 0.00767
# Poissons Ratio (z) = 0.20901 0.00556
#
# Static dielectric constant tensor:
#      x y z
#    x 1.921170 0.000000 0.036950 
#    y 0.000000 1.861100 0.000000 
#    z 0.036950 0.000000 1.876910 
# 
# From -- ./inp_files/37290.got.cif
#   From: 2010.05.17/outbox.cif.g08.bks.cpg/sg9_19_cif.got.tgz:37290.got - 2010.06.03 20:04:27.
