data_PCOD9136372
_publ_section_title
;
Structure prediction by ZEFSAII (Michael W. Deem and Ramdas Pophale) SiO2 
 PCOD9136372
Probable space group: C C
;
_chemical_formula_sum "Si O2"
_cell_formula_units_Z 24
_cell_length_a 9.653530
_cell_length_b 21.012591
_cell_length_c 9.764506
_cell_angle_alpha 90.000000
_cell_angle_beta 149.988325
_cell_angle_gamma 90.000000
_cell_volume 990.693425
_symmetry_space_group_name_H-M "C C"
_symmetry_group_IT_number 9
_symmetry_cell_setting 'monoclinic'
loop_
_space_group_symop_operation_xyz
x,y,z
x,-y,1/2+z
1/2+x,1/2+y,z
1/2+x,1/2-y,1/2+z
loop_
_atom_site_type_symbol
_atom_site_label
_atom_site_fract_x
_atom_site_fract_y
_atom_site_fract_z
Si Si1 0.590790 0.542090 0.041160
Si Si2 0.169657 0.895053 0.126487
Si Si3 0.288097 0.139090 0.436649
Si Si4 0.768084 0.847650 0.162689
Si Si5 0.856569 0.791851 0.721882
Si Si6 0.353353 0.133917 0.084374
O O1 0.578062 0.467978 0.054213
O O2 0.807853 0.562984 0.109118
O O3 0.685567 0.580508 0.256718
O O4 0.316787 0.577861 0.750506
O O5 0.354907 0.884562 0.147957
O O6 0.305203 0.873174 0.383366
O O7 0.907303 0.850660 0.866283
O O8 0.542749 0.173707 0.580604
O O9 0.622868 0.158779 0.391455
O O10 0.021057 0.815676 0.728147
O O11 0.087179 0.827174 0.419680
O O12 0.554696 0.764604 0.445582
#
# Coordination Sequence:
#
# PCOD9136372 Si02
#       6
#     4   4   4   4   4   4
#     4   9  19  40  61 102 133 166 208 272 348 394
#     4  10  21  40  69  96 132 174 223 272 333 387
#     4   9  21  39  69  95 129 174 221 276 321 393
#     4   9  20  40  60  89 142 157 210 257 344 396
#     4  10  25  44  65  96 130 177 233 270 313 382
#     4   9  20  39  56  94 134 168 195 271 329 410
#
# _framework density 24.225455
#
# number of rings (size 3 to 8) (size 9 to 14) (size 15 to 20)
#    2.000    0.667    0.000    1.000    2.333    1.333 
#   21.000    0.000    0.000   14.000    0.000    0.000 
#    0.000    0.000    0.000    0.000    0.000    0.000 
#
# Total GULP energy -66880.907391 kJ/mol
# GULP energy per Si atom -5573.408949 kJ/mol
# Density = 2.417032 g / cm^3
# Si number density = 24.225455 Si / 1000 Ang^3
#
#
#
# Elastic Constant Matrix: (Units=GPa)
#
#
# Indices 1 2 3 4 5 6 
#
# 1 83.5081 -0.4245 49.6633 0.0006 -17.7930 0.0004
# 2 -0.4245 90.2079 15.5317 0.0000 -0.8212 -0.0001
# 3 49.6633 15.5317 120.7090 0.0003 -11.5514 0.0002
# 4 0.0006 0.0000 0.0003 13.3186 0.0002 -2.0223
# 5 -17.7930 -0.8212 -11.5514 0.0002 48.2312 0.0004
# 6 0.0004 -0.0001 0.0002 -2.0223 0.0004 16.9603
#
#
#
# Elastic Compliance Matrix: (Units=1/GPa)
#
#
# Indices 1 2 3 4 5 6 
#
# 1 0.016958 0.001275 -0.006694 -0.000001 0.004675 0.000000
# 2 0.001275 0.011434 -0.001977 0.000000 0.000191 0.000000
# 3 -0.006694 -0.001977 0.011313 0.000000 0.000206 0.000000
# 4 -0.000001 0.000000 0.000000 0.076467 -0.000001 0.009118
# 5 0.004675 0.000191 0.000206 -0.000001 0.022511 -0.000001
# 6 0.000000 0.000000 0.000000 0.009118 -0.000001 0.060048
#
#
# Mechanical properties :
#
#
# Convention : Reuss Voigt Hill
#
# Bulk Modulus (GPa) = 40.14145 47.10734 43.62439
# Shear Modulus (GPa) = 22.54002 31.01234 26.77618
#
# Velocity S-wave (km/s) = 3.05360 3.58181 3.32820
# Velocity P-wave (km/s) = 5.38874 6.04925 5.72852
#
# Compressibility (1/GPa) = 0.02491191
#
# Stress axis : x y z
#
# Youngs Moduli (GPa) = 58.96819 87.46073 88.39696
#
# Poissons Ratio (x) = -0.11150 0.59172
# Poissons Ratio (y) = -0.07518 0.17480
# Poissons Ratio (z) = 0.39472 0.17294
#
# Static dielectric constant tensor:
#      x y z
#    x 2.039710 0.000000 -0.000730 
#    y 0.000000 1.946420 0.000000 
#    z -0.000730 0.000000 1.949230 
# 
# From -- ./inp_files/8333.got.cif
#   From: 2010.05.17/outbox.cif.g08.bks.cpg/sg9_5_cif.got.tgz:8333.got - 2010.06.03 20:04:27.
