data_PCOD9136619
_publ_section_title
;
Structure prediction by ZEFSAII (Michael W. Deem and Ramdas Pophale) SiO2 
 PCOD9136619
Probable space group: C C
;
_chemical_formula_sum "Si O2"
_cell_formula_units_Z 32
_cell_length_a 5.228659
_cell_length_b 28.275888
_cell_length_c 11.025832
_cell_angle_alpha 90.000000
_cell_angle_beta 61.640196
_cell_angle_gamma 90.000000
_cell_volume 1434.470916
_symmetry_space_group_name_H-M "C C"
_symmetry_group_IT_number 9
_symmetry_cell_setting 'monoclinic'
loop_
_space_group_symop_operation_xyz
x,y,z
x,-y,1/2+z
1/2+x,1/2+y,z
1/2+x,1/2-y,1/2+z
loop_
_atom_site_type_symbol
_atom_site_label
_atom_site_fract_x
_atom_site_fract_y
_atom_site_fract_z
Si Si1 0.030140 0.506008 0.671610
Si Si2 0.351700 0.477571 0.850788
Si Si3 0.758327 0.871219 0.819653
Si Si4 0.591489 0.199941 0.562781
Si Si5 0.876162 0.659998 0.200018
Si Si6 0.468655 0.736660 0.684784
Si Si7 0.765273 0.147351 0.890069
Si Si8 0.385592 0.110933 0.769635
O O1 0.209467 0.491928 0.752753
O O2 0.202822 0.497703 0.504152
O O3 0.700816 0.485301 0.758541
O O4 0.985791 0.562298 0.690180
O O5 0.284148 0.421599 0.878361
O O6 0.504790 0.872511 0.777290
O O7 0.085402 0.859461 0.704250
O O8 0.689139 0.826495 0.920341
O O9 0.839869 0.226594 0.580679
O O10 0.489017 0.155805 0.668235
O O11 0.316607 0.233818 0.606473
O O12 0.845942 0.713290 0.255308
O O13 0.125786 0.663492 0.045077
O O14 0.361568 0.693528 0.792933
O O15 0.531663 0.118278 0.866138
O O16 0.041003 0.114531 0.850908
#
# Coordination Sequence:
#
# PCOD9136619 Si02
#       8
#     4   4   4   4   4   4   4   4
#     4  12  26  47  74 106 140 187 239 305 349 445
#     4  12  28  47  73 107 144 184 247 290 373 423
#     4  12  26  44  67  97 136 180 216 279 348 409
#     4  10  21  42  68  88 127 166 222 262 315 407
#     4  12  26  41  64 100 137 174 223 281 341 403
#     4  10  23  41  64  96 124 177 216 274 323 390
#     4  10  23  39  64  95 132 167 224 276 330 410
#     4  10  21  43  68  91 122 175 219 267 341 395
#
# _framework density 22.307874999999999
#
# number of rings (size 3 to 8) (size 9 to 14) (size 15 to 20)
#    0.000    1.000    1.250    4.500    3.500    6.000 
#    0.000    0.000    0.000    0.000    0.000    0.000 
#    0.000    0.000    0.000    0.000    0.000    0.000 
#
# Total GULP energy -89433.455378 kJ/mol
# GULP energy per Si atom -5589.590961 kJ/mol
# Density = 2.225710 g / cm^3
# Si number density = 22.307875 Si / 1000 Ang^3
#
#
#
# Elastic Constant Matrix: (Units=GPa)
#
#
# Indices 1 2 3 4 5 6 
#
# 1 127.4594 12.8840 30.9810 0.0000 7.5741 0.0000
# 2 12.8840 69.8949 1.3265 0.0000 -3.3247 0.0000
# 3 30.9810 1.3265 106.7722 0.0000 4.7071 0.0000
# 4 0.0000 0.0000 0.0000 23.0321 0.0000 -4.0172
# 5 7.5741 -3.3247 4.7071 0.0000 23.4998 0.0000
# 6 0.0000 0.0000 0.0000 -4.0172 0.0000 37.3941
#
#
#
# Elastic Compliance Matrix: (Units=1/GPa)
#
#
# Indices 1 2 3 4 5 6 
#
# 1 0.008754 -0.001691 -0.002406 0.000000 -0.002579 0.000000
# 2 -0.001691 0.014738 0.000193 0.000000 0.002591 0.000000
# 3 -0.002406 0.000193 0.010115 0.000000 -0.001223 0.000000
# 4 0.000000 0.000000 0.000000 0.044247 0.000000 0.004753
# 5 -0.002579 0.002591 -0.001223 0.000000 0.043996 0.000000
# 6 0.000000 0.000000 0.000000 0.004753 0.000000 0.027253
#
#
# Mechanical properties :
#
#
# Convention : Reuss Voigt Hill
#
# Bulk Modulus (GPa) = 38.75647 43.83440 41.29543
# Shear Modulus (GPa) = 30.20945 34.04752 32.12849
#
# Velocity S-wave (km/s) = 3.68395 3.91097 3.79915
# Velocity P-wave (km/s) = 5.95873 6.33140 6.14789
#
# Compressibility (1/GPa) = 0.02580215
#
# Stress axis : x y z
#
# Youngs Moduli (GPa) = 114.22709 67.84972 98.86064
#
# Poissons Ratio (x) = 0.11472 0.23781
# Poissons Ratio (y) = 0.19313 -0.01910
# Poissons Ratio (z) = 0.27477 -0.01311
#
# Static dielectric constant tensor:
#      x y z
#    x 1.803940 0.000000 0.005350 
#    y 0.000000 1.817590 0.000000 
#    z 0.005350 0.000000 1.823120 
# 
# From -- ./inp_files/4364.got.cif
#   From: 2010.05.17/outbox.cif.g08.bks.cpg/sg9_3_cif.got.tgz:4364.got - 2010.06.03 20:04:27.
