data_PCOD9136622
_publ_section_title
;
Structure prediction by ZEFSAII (Michael W. Deem and Ramdas Pophale) SiO2 
 PCOD9136622
Probable space group: C C
;
_chemical_formula_sum "Si O2"
_cell_formula_units_Z 28
_cell_length_a 8.363805
_cell_length_b 11.256544
_cell_length_c 11.793520
_cell_angle_alpha 90.000000
_cell_angle_beta 79.959968
_cell_angle_gamma 90.000000
_cell_volume 1093.327484
_symmetry_space_group_name_H-M "C C"
_symmetry_group_IT_number 9
_symmetry_cell_setting 'monoclinic'
loop_
_space_group_symop_operation_xyz
x,y,z
x,-y,1/2+z
1/2+x,1/2+y,z
1/2+x,1/2-y,1/2+z
loop_
_atom_site_type_symbol
_atom_site_label
_atom_site_fract_x
_atom_site_fract_y
_atom_site_fract_z
Si Si1 0.568560 0.371877 0.606800
Si Si2 0.738074 0.095684 0.006285
Si Si3 0.061045 0.410445 0.941181
Si Si4 0.678493 0.697597 0.322906
Si Si5 0.774707 0.437586 0.395704
Si Si6 0.771526 0.387833 0.138034
Si Si7 0.529600 0.814398 0.701338
O O1 0.396854 0.392395 0.565460
O O2 0.552054 0.310123 0.732777
O O3 0.685835 0.339269 0.484773
O O4 0.673332 0.492156 0.620724
O O5 0.587491 0.080273 0.113793
O O6 0.734017 0.965779 0.949425
O O7 0.206092 0.697038 0.912865
O O8 0.069388 0.335172 0.826686
O O9 0.950005 0.524620 0.918579
O O10 0.937982 0.359037 0.050774
O O11 0.685484 0.568511 0.386561
O O12 0.840819 0.707116 0.225494
O O13 0.799820 0.392548 0.267059
O O14 0.638063 0.287685 0.135791
#
# Coordination Sequence:
#
# PCOD9136622 Si02
#       7
#     4   4   4   4   4   4   4
#     4  10  22  41  67  99 136 179 230 282 341 404
#     4  12  24  41  66 102 140 175 225 289 343 406
#     4  10  22  40  63  96 132 175 227 278 338 407
#     4  10  23  43  67  99 135 179 231 277 341 414
#     4   9  18  40  66  89 129 182 223 275 336 399
#     4  10  21  42  68  93 132 182 229 278 340 408
#     4  11  22  41  67  94 130 180 227 281 341 404
#
# _framework density 25.609893
#
# number of rings (size 3 to 8) (size 9 to 14) (size 15 to 20)
#    0.000    1.714    0.000    6.857    0.000    4.571 
#    0.000   14.286    0.000    0.000    0.000    0.000 
#    0.000    0.000    0.000    0.000    0.000    0.000 
#
# Total GULP energy -78036.828860 kJ/mol
# GULP energy per Si atom -5574.059204 kJ/mol
# Density = 2.555160 g / cm^3
# Si number density = 25.609893 Si / 1000 Ang^3
#
#
#
# Elastic Constant Matrix: (Units=GPa)
#
#
# Indices 1 2 3 4 5 6 
#
# 1 96.1757 26.3038 45.0786 0.0000 23.7507 0.0000
# 2 26.3038 61.6027 24.5556 0.0000 2.7723 0.0000
# 3 45.0786 24.5556 160.3681 0.0000 10.5244 0.0000
# 4 0.0000 0.0000 0.0000 30.9382 0.0000 -6.9044
# 5 23.7507 2.7723 10.5244 0.0000 50.3490 0.0000
# 6 0.0000 0.0000 0.0000 -6.9044 0.0000 32.6132
#
#
#
# Elastic Compliance Matrix: (Units=1/GPa)
#
#
# Indices 1 2 3 4 5 6 
#
# 1 0.014575 -0.004768 -0.002974 0.000000 -0.005991 0.000000
# 2 -0.004768 0.018856 -0.001649 0.000000 0.001556 0.000000
# 3 -0.002974 -0.001649 0.007327 0.000000 -0.000038 0.000000
# 4 0.000000 0.000000 0.000000 0.033925 0.000000 0.007182
# 5 -0.005991 0.001556 -0.000038 0.000000 0.022610 0.000000
# 6 0.000000 0.000000 0.000000 0.007182 0.000000 0.032183
#
#
# Mechanical properties :
#
#
# Convention : Reuss Voigt Hill
#
# Bulk Modulus (GPa) = 45.50461 56.66917 51.08689
# Shear Modulus (GPa) = 32.13703 37.59399 34.86551
#
# Velocity S-wave (km/s) = 3.54625 3.83554 3.69373
# Velocity P-wave (km/s) = 5.88004 6.46460 6.17923
#
# Compressibility (1/GPa) = 0.02197579
#
# Stress axis : x y z
#
# Youngs Moduli (GPa) = 68.61000 53.03222 136.49053
#
# Poissons Ratio (x) = 0.25288 0.40587
# Poissons Ratio (y) = 0.32717 0.22507
# Poissons Ratio (z) = 0.20402 0.08745
#
# Static dielectric constant tensor:
#      x y z
#    x 2.038010 0.000000 0.052900 
#    y 0.000000 2.279220 0.000000 
#    z 0.052900 0.000000 2.118690 
# 
# From -- ./inp_files/14391.got.cif
#   From: 2010.05.17/outbox.cif.g08.bks.cpg/sg9_8_cif.got.tgz:14391.got - 2010.06.03 20:04:27.
