data_PCOD9136446
_publ_section_title
;
Structure prediction by ZEFSAII (Michael W. Deem and Ramdas Pophale) SiO2 
 PCOD9136446
Probable space group: C C
;
_chemical_formula_sum "Si O2"
_cell_formula_units_Z 32
_cell_length_a 12.838989
_cell_length_b 10.226608
_cell_length_c 14.575870
_cell_angle_alpha 90.000000
_cell_angle_beta 40.918969
_cell_angle_gamma 90.000000
_cell_volume 1253.522886
_symmetry_space_group_name_H-M "C C"
_symmetry_group_IT_number 9
_symmetry_cell_setting 'monoclinic'
loop_
_space_group_symop_operation_xyz
x,y,z
x,-y,1/2+z
1/2+x,1/2+y,z
1/2+x,1/2-y,1/2+z
loop_
_atom_site_type_symbol
_atom_site_label
_atom_site_fract_x
_atom_site_fract_y
_atom_site_fract_z
Si Si1 0.365000 0.081466 0.768520
Si Si2 0.217340 0.321680 0.575147
Si Si3 0.426645 0.512360 0.699959
Si Si4 0.535186 0.398195 0.443454
Si Si5 0.418364 0.193482 0.922507
Si Si6 0.152923 0.906429 0.711947
Si Si7 0.371910 0.202735 0.312700
Si Si8 0.687927 0.902619 0.985017
O O1 0.200557 0.158594 0.870446
O O2 0.428626 0.097066 0.829424
O O3 0.502365 0.129857 0.610390
O O4 0.340220 0.926015 0.774633
O O5 0.378611 0.317622 0.524615
O O6 0.241043 0.215972 0.478629
O O7 0.208172 0.460928 0.528815
O O8 0.050361 0.306336 0.735966
O O9 0.477547 0.494706 0.562165
O O10 0.558719 0.444231 0.679515
O O11 0.385478 0.662332 0.748869
O O12 0.268136 0.434434 0.834969
O O13 0.599312 0.473776 0.311251
O O14 0.579225 0.278316 0.811804
O O15 0.286696 0.300333 0.979441
O O16 0.336223 0.120058 0.062301
#
# Coordination Sequence:
#
# PCOD9136446 Si02
#       8
#     4   4   4   4   4   4   4   4
#     4  11  23  38  66 100 125 170 224 265 333 398
#     4  10  21  41  65  91 127 168 217 264 325 388
#     4  10  21  43  68  91 132 174 215 271 339 380
#     4  12  23  41  65 102 128 164 228 274 322 395
#     4  11  20  41  68  89 129 176 213 264 332 392
#     4  11  23  42  66  96 132 173 213 274 330 389
#     4  10  21  43  66  88 131 174 207 267 334 397
#     4   9  20  43  66  89 128 179 213 267 333 391
#
# _framework density 25.528054000000001
#
# number of rings (size 3 to 8) (size 9 to 14) (size 15 to 20)
#    0.000    1.500    6.250    0.750    0.000    1.000 
#    6.750    3.750    0.000    0.000    0.000    0.000 
#    0.000    0.000    0.000    0.000    0.000    0.000 
#
# Total GULP energy -89479.784405 kJ/mol
# GULP energy per Si atom -5592.486525 kJ/mol
# Density = 2.546995 g / cm^3
# Si number density = 25.528054 Si / 1000 Ang^3
#
#
#
# Elastic Constant Matrix: (Units=GPa)
#
#
# Indices 1 2 3 4 5 6 
#
# 1 44.0146 -1.1378 12.0034 0.0000 -9.0881 0.0000
# 2 -1.1378 90.2313 11.5296 0.0000 1.9625 0.0000
# 3 12.0034 11.5296 122.0845 0.0000 -10.5349 0.0000
# 4 0.0000 0.0000 0.0000 33.6671 0.0000 -6.2856
# 5 -9.0881 1.9625 -10.5349 0.0000 42.9597 0.0000
# 6 0.0000 0.0000 0.0000 -6.2856 0.0000 19.4577
#
#
#
# Elastic Compliance Matrix: (Units=1/GPa)
#
#
# Indices 1 2 3 4 5 6 
#
# 1 0.024237 0.000465 -0.002029 0.000000 0.004608 0.000000
# 2 0.000465 0.011253 -0.001169 0.000000 -0.000702 0.000000
# 3 -0.002029 -0.001169 0.008652 0.000000 0.001746 0.000000
# 4 0.000000 0.000000 0.000000 0.031609 0.000000 0.010211
# 5 0.004608 -0.000702 0.001746 0.000000 0.024713 0.000000
# 6 0.000000 0.000000 0.000000 0.010211 0.000000 0.054692
#
#
# Mechanical properties :
#
#
# Convention : Reuss Voigt Hill
#
# Bulk Modulus (GPa) = 25.85696 33.45787 29.65742
# Shear Modulus (GPa) = 28.81618 34.81259 31.81438
#
# Velocity S-wave (km/s) = 3.36341 3.69684 3.53406
# Velocity P-wave (km/s) = 5.02337 5.59972 5.31936
#
# Compressibility (1/GPa) = 0.03867430
#
# Stress axis : x y z
#
# Youngs Moduli (GPa) = 41.25982 88.86408 115.58549
#
# Poissons Ratio (x) = -0.04129 0.23454
# Poissons Ratio (y) = -0.01917 0.13512
# Poissons Ratio (z) = 0.08372 0.10389
#
# Static dielectric constant tensor:
#      x y z
#    x 2.082030 0.000000 -0.014460 
#    y 0.000000 2.034940 0.000000 
#    z -0.014460 0.000000 1.966980 
# 
# From -- ./inp_files/25833.got.cif
#   From: 2010.05.17/outbox.cif.g08.bks.cpg/sg9_13_cif.got.tgz:25833.got - 2010.06.03 20:04:27.
