data_PCOD9136164
_publ_section_title
;
Structure prediction by ZEFSAII (Michael W. Deem and Ramdas Pophale) SiO2 
 PCOD9136164
Probable space group: C C
;
_chemical_formula_sum "Si O2"
_cell_formula_units_Z 32
_cell_length_a 17.736731
_cell_length_b 5.470690
_cell_length_c 12.695417
_cell_angle_alpha 90.000000
_cell_angle_beta 98.768947
_cell_angle_gamma 90.000000
_cell_volume 1217.464626
_symmetry_space_group_name_H-M "C C"
_symmetry_group_IT_number 9
_symmetry_cell_setting 'monoclinic'
loop_
_space_group_symop_operation_xyz
x,y,z
x,-y,1/2+z
1/2+x,1/2+y,z
1/2+x,1/2-y,1/2+z
loop_
_atom_site_type_symbol
_atom_site_label
_atom_site_fract_x
_atom_site_fract_y
_atom_site_fract_z
Si Si1 0.863440 0.817775 0.513270
Si Si2 0.263884 0.719035 0.252237
Si Si3 0.149754 0.622658 0.420945
Si Si4 0.270983 0.772862 0.809768
Si Si5 0.920594 0.665368 0.112048
Si Si6 0.546892 0.727256 0.484377
Si Si7 0.481651 0.656468 0.847721
Si Si8 0.666619 0.556017 0.117323
O O1 0.783926 0.785837 0.434095
O O2 0.875740 0.592450 0.595752
O O3 0.924403 0.782201 0.430934
O O4 0.877165 0.093564 0.556710
O O5 0.201864 0.660087 0.330453
O O6 0.305054 0.460708 0.254984
O O7 0.307597 0.959791 0.299771
O O8 0.216766 0.811318 0.142505
O O9 0.119826 0.360622 0.452154
O O10 0.188034 0.766820 0.526525
O O11 0.067515 0.743582 0.378253
O O12 0.189246 0.816427 0.733514
O O13 0.951265 0.744163 0.231882
O O14 0.993389 0.624066 0.050980
O O15 0.497141 0.630039 0.375764
O O16 0.580864 0.519870 0.571269
#
# Coordination Sequence:
#
# PCOD9136164 Si02
#       8
#     4   4   4   4   4   4   4   4
#     4  11  24  47  65  94 137 171 230 269 321 396
#     4  10  23  40  65  95 129 172 215 259 335 386
#     4  11  21  40  68  97 137 161 219 275 336 397
#     4  10  23  46  63  92 135 175 216 275 315 395
#     4  11  24  42  69  98 130 177 219 275 336 384
#     4  10  21  39  65 102 140 162 219 280 330 404
#     4  10  24  41  67 100 127 179 214 276 336 392
#     4   9  22  39  62  98 125 177 204 271 327 386
#
# _framework density 26.284132
#
# number of rings (size 3 to 8) (size 9 to 14) (size 15 to 20)
#    0.750    1.000    1.250    2.250    5.250    0.000 
#    4.500    0.000    0.000    0.000    0.000    0.000 
#    0.000    0.000    0.000    0.000    0.000    0.000 
#
# Total GULP energy -89303.487871 kJ/mol
# GULP energy per Si atom -5581.467992 kJ/mol
# Density = 2.622431 g / cm^3
# Si number density = 26.284132 Si / 1000 Ang^3
#
#
#
# Elastic Constant Matrix: (Units=GPa)
#
#
# Indices 1 2 3 4 5 6 
#
# 1 96.8041 18.0807 45.9306 0.0000 -14.3703 0.0000
# 2 18.0807 159.1629 41.3935 0.0000 19.3822 0.0000
# 3 45.9306 41.3935 127.8981 0.0000 13.6097 0.0000
# 4 0.0000 0.0000 0.0000 34.5551 0.0000 23.0563
# 5 -14.3703 19.3822 13.6097 0.0000 52.7692 0.0000
# 6 0.0000 0.0000 0.0000 23.0563 0.0000 22.8761
#
#
#
# Elastic Compliance Matrix: (Units=1/GPa)
#
#
# Indices 1 2 3 4 5 6 
#
# 1 0.013787 -0.000862 -0.005250 0.000000 0.005425 0.000000
# 2 -0.000862 0.007126 -0.001741 0.000000 -0.002403 0.000000
# 3 -0.005250 -0.001741 0.010644 0.000000 -0.003535 0.000000
# 4 0.000000 0.000000 0.000000 0.088361 0.000000 -0.089057
# 5 0.005425 -0.002403 -0.003535 0.000000 0.022222 0.000000
# 6 0.000000 0.000000 0.000000 -0.089057 0.000000 0.133472
#
#
# Mechanical properties :
#
#
# Convention : Reuss Voigt Hill
#
# Bulk Modulus (GPa) = 63.08292 66.07495 64.57893
# Shear Modulus (GPa) = 16.85761 40.60411 28.73086
#
# Velocity S-wave (km/s) = 2.53526 3.93468 3.30977
# Velocity P-wave (km/s) = 5.71161 6.77019 6.26331
#
# Compressibility (1/GPa) = 0.01585215
#
# Stress axis : x y z
#
# Youngs Moduli (GPa) = 72.53112 140.32685 93.95227
#
# Poissons Ratio (x) = 0.12090 0.49322
# Poissons Ratio (y) = 0.06249 0.16359
# Poissons Ratio (z) = 0.38076 0.24434
#
# Static dielectric constant tensor:
#      x y z
#    x 2.078620 0.000000 -0.002870 
#    y 0.000000 2.237710 0.000000 
#    z -0.002870 0.000000 2.021920 
# 
# From -- ./inp_files/20604.got.cif
#   From: 2010.05.17/outbox.cif.g08.bks.cpg/sg9_11_cif.got.tgz:20604.got - 2010.06.03 20:04:27.
