data_PCOD9136925
_publ_section_title
;
Structure prediction by ZEFSAII (Michael W. Deem and Ramdas Pophale) SiO2 
 PCOD9136925
Probable space group: C C
;
_chemical_formula_sum "Si O2"
_cell_formula_units_Z 32
_cell_length_a 23.140059
_cell_length_b 5.338780
_cell_length_c 19.057227
_cell_angle_alpha 90.000000
_cell_angle_beta 144.858776
_cell_angle_gamma 90.000000
_cell_volume 1355.134085
_symmetry_space_group_name_H-M "C C"
_symmetry_group_IT_number 9
_symmetry_cell_setting 'monoclinic'
loop_
_space_group_symop_operation_xyz
x,y,z
x,-y,1/2+z
1/2+x,1/2+y,z
1/2+x,1/2-y,1/2+z
loop_
_atom_site_type_symbol
_atom_site_label
_atom_site_fract_x
_atom_site_fract_y
_atom_site_fract_z
Si Si1 0.663330 0.621286 0.453240
Si Si2 0.587875 0.400662 0.243787
Si Si3 0.382957 0.006438 0.219990
Si Si4 0.949742 0.692775 0.939116
Si Si5 0.524846 0.902683 0.230409
Si Si6 0.012966 0.097126 0.906528
Si Si7 0.147881 0.562254 0.617345
Si Si8 0.737884 0.575039 0.762690
O O1 0.644696 0.414939 0.374720
O O2 0.769499 0.569639 0.592221
O O3 0.633396 0.864249 0.377612
O O4 0.575480 0.597591 0.423053
O O5 0.519581 0.650092 0.179102
O O6 0.667714 0.401296 0.260965
O O7 0.524273 0.150645 0.184515
O O8 0.416618 0.294399 0.270146
O O9 0.412688 0.885871 0.324044
O O10 0.443553 0.924406 0.211089
O O11 0.045272 0.525429 0.054071
O O12 0.854326 0.634024 0.891801
O O13 0.986134 0.975590 0.955738
O O14 0.095627 0.319503 0.996861
O O15 0.207719 0.301964 0.679392
O O16 0.214722 0.793794 0.711886
#
# Coordination Sequence:
#
# PCOD9136925 Si02
#       8
#     4   4   4   4   4   4   4   4
#     4  10  23  41  66  99 138 172 221 280 346 393
#     4  10  23  47  67  94 142 175 226 284 323 413
#     4  11  22  39  72 100 137 179 216 284 353 398
#     4  11  25  43  70 105 138 177 235 282 347 424
#     4  10  21  46  63 100 134 171 230 275 330 412
#     4  11  22  44  66 108 140 172 232 292 334 430
#     4  11  26  45  69 101 136 183 229 285 349 393
#     4  12  26  47  71  99 139 191 227 282 348 411
#
# _framework density 23.613902
#
# number of rings (size 3 to 8) (size 9 to 14) (size 15 to 20)
#    0.750    0.500    3.750    1.500    5.250    1.000 
#    4.500    0.000    0.000    0.000    0.000    0.000 
#    0.000    0.000    0.000    0.000    0.000    0.000 
#
# Total GULP energy -89167.563041 kJ/mol
# GULP energy per Si atom -5572.972690 kJ/mol
# Density = 2.356016 g / cm^3
# Si number density = 23.613902 Si / 1000 Ang^3
#
#
#
# Elastic Constant Matrix: (Units=GPa)
#
#
# Indices 1 2 3 4 5 6 
#
# 1 102.2606 39.8552 6.0592 0.0001 24.5761 -0.0001
# 2 39.8552 162.5763 25.2848 -0.0019 15.2281 -0.0010
# 3 6.0592 25.2848 77.6868 0.0000 9.2636 -0.0002
# 4 0.0001 -0.0019 0.0000 14.9752 -0.0004 2.8354
# 5 24.5761 15.2281 9.2636 -0.0004 31.3171 -0.0001
# 6 -0.0001 -0.0010 -0.0002 2.8354 -0.0001 17.7563
#
#
#
# Elastic Compliance Matrix: (Units=1/GPa)
#
#
# Indices 1 2 3 4 5 6 
#
# 1 0.012884 -0.002435 0.000883 -0.000001 -0.009188 0.000000
# 2 -0.002435 0.007153 -0.002023 0.000001 -0.000969 0.000000
# 3 0.000883 -0.002023 0.013918 0.000000 -0.003827 0.000000
# 4 -0.000001 0.000001 0.000000 0.068859 0.000001 -0.010996
# 5 -0.009188 -0.000969 -0.003827 0.000001 0.040745 0.000000
# 6 0.000000 0.000000 0.000000 -0.010996 0.000000 0.058074
#
#
# Mechanical properties :
#
#
# Convention : Reuss Voigt Hill
#
# Bulk Modulus (GPa) = 37.30545 53.88023 45.59284
# Shear Modulus (GPa) = 22.96561 30.89802 26.93182
#
# Velocity S-wave (km/s) = 3.12195 3.62120 3.38080
# Velocity P-wave (km/s) = 5.36915 6.35223 5.88127
#
# Compressibility (1/GPa) = 0.02680573
#
# Stress axis : x y z
#
# Youngs Moduli (GPa) = 77.61702 139.79577 71.84972
#
# Poissons Ratio (x) = 0.34043 -0.06346
# Poissons Ratio (y) = 0.18901 0.14533
# Poissons Ratio (z) = -0.06856 0.28277
#
# Static dielectric constant tensor:
#      x y z
#    x 1.896150 0.000000 -0.031870 
#    y 0.000000 2.062990 0.000000 
#    z -0.031870 0.000000 1.918350 
# 
# From -- ./inp_files/36033.got.cif
#   From: 2010.05.17/outbox.cif.g08.bks.cpg/sg9_19_cif.got.tgz:36033.got - 2010.06.03 20:04:27.
