data_PCOD9136157
_publ_section_title
;
Structure prediction by ZEFSAII (Michael W. Deem and Ramdas Pophale) SiO2 
 PCOD9136157
Probable space group: C C
;
_chemical_formula_sum "Si O2"
_cell_formula_units_Z 24
_cell_length_a 17.032399
_cell_length_b 8.486598
_cell_length_c 8.438961
_cell_angle_alpha 90.000000
_cell_angle_beta 49.401340
_cell_angle_gamma 90.000000
_cell_volume 926.198613
_symmetry_space_group_name_H-M "C C"
_symmetry_group_IT_number 9
_symmetry_cell_setting 'monoclinic'
loop_
_space_group_symop_operation_xyz
x,y,z
x,-y,1/2+z
1/2+x,1/2+y,z
1/2+x,1/2-y,1/2+z
loop_
_atom_site_type_symbol
_atom_site_label
_atom_site_fract_x
_atom_site_fract_y
_atom_site_fract_z
Si Si1 0.344470 0.138018 0.177680
Si Si2 0.277397 0.841774 0.101492
Si Si3 0.551622 0.531555 0.892920
Si Si4 0.199174 0.411084 0.946505
Si Si5 0.919047 0.129875 0.322023
Si Si6 0.628510 0.210156 0.868912
O O1 0.354598 0.168308 0.351408
O O2 0.235949 0.220297 0.286585
O O3 0.331366 0.953454 0.160832
O O4 0.406769 0.220135 0.953521
O O5 0.234235 0.689411 0.247540
O O6 0.169148 0.928182 0.189997
O O7 0.468816 0.504120 0.866081
O O8 0.555121 0.360626 0.975002
O O9 0.503456 0.657832 0.074828
O O10 0.312394 0.433604 0.883718
O O11 0.127178 0.552303 0.975280
O O12 0.139019 0.327941 0.168877
#
# Coordination Sequence:
#
# PCOD9136157 Si02
#       6
#     4   4   4   4   4   4
#     4  10  21  39  65  98 131 176 227 266 327 411
#     4  11  22  44  72  97 132 183 228 271 331 416
#     4  11  23  43  68  97 135 174 223 286 340 386
#     4  11  22  40  68  99 134 180 228 272 330 413
#     4  11  23  39  65 103 137 171 226 288 337 385
#     4  10  21  39  64  96 131 178 224 265 329 411
#
# _framework density 25.912369000000002
#
# number of rings (size 3 to 8) (size 9 to 14) (size 15 to 20)
#    0.000    1.333    0.000    9.000    0.000    2.667 
#    0.000    6.667    0.000    4.000    0.000    0.000 
#    0.000    0.000    0.000    0.000    0.000    0.000 
#
# Total GULP energy -67013.847660 kJ/mol
# GULP energy per Si atom -5584.487305 kJ/mol
# Density = 2.585339 g / cm^3
# Si number density = 25.912369 Si / 1000 Ang^3
#
#
#
# Elastic Constant Matrix: (Units=GPa)
#
#
# Indices 1 2 3 4 5 6 
#
# 1 86.8939 19.8573 10.6475 0.0000 -0.1704 0.0000
# 2 19.8573 91.2345 41.6712 0.0000 8.6761 0.0000
# 3 10.6475 41.6712 118.8004 0.0000 8.6817 0.0000
# 4 0.0000 0.0000 0.0000 44.0700 0.0000 8.4014
# 5 -0.1704 8.6761 8.6817 0.0000 25.5066 0.0000
# 6 0.0000 0.0000 0.0000 8.4014 0.0000 32.3498
#
#
#
# Elastic Compliance Matrix: (Units=1/GPa)
#
#
# Indices 1 2 3 4 5 6 
#
# 1 0.012142 -0.002633 -0.000242 0.000000 0.001059 0.000000
# 2 -0.002633 0.013844 -0.004384 0.000000 -0.003235 0.000000
# 3 -0.000242 -0.004384 0.010120 0.000000 -0.001955 0.000000
# 4 0.000000 0.000000 0.000000 0.023873 0.000000 -0.006200
# 5 0.001059 -0.003235 -0.001955 0.000000 0.040978 0.000000
# 6 0.000000 0.000000 0.000000 -0.006200 0.000000 0.032522
#
#
# Mechanical properties :
#
#
# Convention : Reuss Voigt Hill
#
# Bulk Modulus (GPa) = 46.32191 49.03118 47.67655
# Shear Modulus (GPa) = 32.21827 35.36879 33.79353
#
# Velocity S-wave (km/s) = 3.52995 3.69852 3.61521
# Velocity P-wave (km/s) = 5.87616 6.09932 5.98878
#
# Compressibility (1/GPa) = 0.02158806
#
# Stress axis : x y z
#
# Youngs Moduli (GPa) = 82.36092 72.23575 98.81780
#
# Poissons Ratio (x) = 0.19018 0.02392
# Poissons Ratio (y) = 0.21684 0.43317
# Poissons Ratio (z) = 0.01994 0.31665
#
# Static dielectric constant tensor:
#      x y z
#    x 2.065120 0.000000 0.023640 
#    y 0.000000 2.080780 0.000000 
#    z 0.023640 0.000000 2.052310 
# 
# From -- ./inp_files/10407.got.cif
#   From: 2010.05.17/outbox.cif.g08.bks.cpg/sg9_6_cif.got.tgz:10407.got - 2010.06.03 20:04:27.
