data_PCOD9136067
_publ_section_title
;
Structure prediction by ZEFSAII (Michael W. Deem and Ramdas Pophale) SiO2 
 PCOD9136067
Probable space group: C C
;
_chemical_formula_sum "Si O2"
_cell_formula_units_Z 32
_cell_length_a 13.443041
_cell_length_b 10.058577
_cell_length_c 25.621226
_cell_angle_alpha 90.000000
_cell_angle_beta 158.596280
_cell_angle_gamma 90.000000
_cell_volume 1264.305860
_symmetry_space_group_name_H-M "C C"
_symmetry_group_IT_number 9
_symmetry_cell_setting 'monoclinic'
loop_
_space_group_symop_operation_xyz
x,y,z
x,-y,1/2+z
1/2+x,1/2+y,z
1/2+x,1/2-y,1/2+z
loop_
_atom_site_type_symbol
_atom_site_label
_atom_site_fract_x
_atom_site_fract_y
_atom_site_fract_z
Si Si1 0.562200 0.430489 0.454030
Si Si2 0.546660 0.262336 0.223941
Si Si3 0.454351 0.782468 0.030654
Si Si4 0.116844 0.308058 0.462103
Si Si5 0.013263 0.152252 0.823793
Si Si6 0.734012 0.907075 0.987553
Si Si7 0.057906 0.715339 0.755505
Si Si8 0.147869 0.019746 0.600243
O O1 0.609271 0.451038 0.415400
O O2 0.277167 0.350441 0.323040
O O3 0.528903 0.538807 0.483572
O O4 0.842260 0.361097 0.612743
O O5 0.622704 0.308073 0.319868
O O6 0.370327 0.375298 0.109336
O O7 0.820803 0.249489 0.325563
O O8 0.288816 0.763333 0.001773
O O9 0.246585 0.809895 0.882750
O O10 0.601666 0.638646 0.089253
O O11 0.701362 0.881559 0.158606
O O12 0.077854 0.457454 0.421665
O O13 0.315027 0.293469 0.608945
O O14 0.051210 0.287364 0.876759
O O15 0.968052 0.918591 0.058141
O O16 0.933538 0.598631 0.732607
#
# Coordination Sequence:
#
# PCOD9136067 Si02
#       8
#     4   4   4   4   4   4   4   4
#     4  10  23  40  63  94 137 176 219 279 343 398
#     4  11  23  40  64 100 135 175 218 288 344 395
#     4  10  22  37  65  95 127 171 214 280 332 394
#     4  11  24  39  65 100 129 174 226 280 328 399
#     4  11  21  43  66  96 135 176 215 279 350 401
#     4  10  25  40  68 101 134 170 232 277 331 407
#     4  11  21  39  63  98 129 169 222 276 331 394
#     4  10  21  38  66  98 128 169 228 275 329 394
#
# _framework density 25.310331000000001
#
# number of rings (size 3 to 8) (size 9 to 14) (size 15 to 20)
#    0.000    1.500    3.750    1.500    8.750    3.000 
#    0.000    2.500    0.000    0.000    0.000    0.000 
#    0.000    0.000    0.000    0.000    0.000    0.000 
#
# Total GULP energy -89281.922696 kJ/mol
# GULP energy per Si atom -5580.120168 kJ/mol
# Density = 2.525272 g / cm^3
# Si number density = 25.310331 Si / 1000 Ang^3
#
#
#
# Elastic Constant Matrix: (Units=GPa)
#
#
# Indices 1 2 3 4 5 6 
#
# 1 122.5175 14.7813 36.8887 0.0022 -10.8359 0.0010
# 2 14.7813 57.4932 11.6171 0.0064 -6.1034 0.0010
# 3 36.8887 11.6171 105.5823 0.0104 -8.5655 0.0068
# 4 0.0022 0.0064 0.0104 3.4150 0.0015 -6.4735
# 5 -10.8359 -6.1034 -8.5655 0.0015 59.5710 0.0006
# 6 0.0010 0.0010 0.0068 -6.4735 0.0006 17.7693
#
#
#
# Elastic Compliance Matrix: (Units=1/GPa)
#
#
# Indices 1 2 3 4 5 6 
#
# 1 0.009365 -0.001685 -0.002997 0.000023 0.001100 0.000009
# 2 -0.001685 0.018236 -0.001306 -0.000099 0.001374 -0.000037
# 3 -0.002997 -0.001306 0.010732 -0.000116 0.000864 -0.000046
# 4 0.000023 -0.000099 -0.000116 0.946424 -0.000051 0.344791
# 5 0.001100 0.001374 0.000864 -0.000051 0.017252 -0.000020
# 6 0.000009 -0.000037 -0.000046 0.344791 -0.000020 0.181887
#
#
# Mechanical properties :
#
#
# Convention : Reuss Voigt Hill
#
# Bulk Modulus (GPa) = 37.94185 45.79636 41.86910
# Shear Modulus (GPa) = 4.15055 30.97146 17.56100
#
# Velocity S-wave (km/s) = 1.28196 3.50189 2.63692
# Velocity P-wave (km/s) = 4.14903 5.87233 5.08422
#
# Compressibility (1/GPa) = 0.02635612
#
# Stress axis : x y z
#
# Youngs Moduli (GPa) = 106.77850 54.83519 93.17617
#
# Poissons Ratio (x) = 0.09242 0.27928
# Poissons Ratio (y) = 0.17996 0.12171
# Poissons Ratio (z) = 0.32006 0.07163
#
# Static dielectric constant tensor:
#      x y z
#    x 2.015630 0.000000 -0.035710 
#    y 0.000000 2.175180 -0.000010 
#    z -0.035710 -0.000010 2.016750 
# 
# From -- ./inp_files/36768.got.cif
#   From: 2010.05.17/outbox.cif.g08.bks.cpg/sg9_19_cif.got.tgz:36768.got - 2010.06.03 20:04:27.
