data_PCOD9136523
_publ_section_title
;
Structure prediction by ZEFSAII (Michael W. Deem and Ramdas Pophale) SiO2 
 PCOD9136523
Probable space group: C C
;
_chemical_formula_sum "Si O2"
_cell_formula_units_Z 28
_cell_length_a 9.738152
_cell_length_b 9.855140
_cell_length_c 13.580648
_cell_angle_alpha 90.000000
_cell_angle_beta 66.302730
_cell_angle_gamma 90.000000
_cell_volume 1193.450459
_symmetry_space_group_name_H-M "C C"
_symmetry_group_IT_number 9
_symmetry_cell_setting 'monoclinic'
loop_
_space_group_symop_operation_xyz
x,y,z
x,-y,1/2+z
1/2+x,1/2+y,z
1/2+x,1/2-y,1/2+z
loop_
_atom_site_type_symbol
_atom_site_label
_atom_site_fract_x
_atom_site_fract_y
_atom_site_fract_z
Si Si1 0.291280 0.638364 0.252650
Si Si2 0.812995 0.328360 0.411532
Si Si3 0.495485 0.615872 0.941803
Si Si4 0.384183 0.876498 0.084220
Si Si5 0.375090 0.662370 0.572335
Si Si6 0.069126 0.452292 0.202948
Si Si7 0.554374 0.575170 0.692608
O O1 0.268944 0.686353 0.369868
O O2 0.335270 0.770991 0.182083
O O3 0.153596 0.574109 0.234036
O O4 0.437653 0.545967 0.209497
O O5 0.653734 0.400901 0.452524
O O6 0.885969 0.282673 0.491659
O O7 0.935578 0.409625 0.314039
O O8 0.529564 0.610186 0.815121
O O9 0.431167 0.766699 0.987060
O O10 0.402550 0.484606 0.008677
O O11 0.508248 0.963343 0.108106
O O12 0.227015 0.953405 0.115904
O O13 0.203223 0.658338 0.659287
O O14 0.488594 0.679660 0.630679
#
# Coordination Sequence:
#
# PCOD9136523 Si02
#       7
#     4   4   4   4   4   4   4
#     4  10  21  43  65  93 134 167 213 280 318 387
#     4  11  23  43  71  94 134 180 216 278 335 387
#     4  12  22  42  72  93 134 180 217 269 341 384
#     4  11  22  42  67  94 136 171 213 274 331 389
#     4  11  24  43  68  98 134 174 220 283 326 392
#     4  10  21  41  70  97 127 175 220 263 341 387
#     4  11  23  40  67 101 127 173 225 267 330 394
#
# _framework density 23.461386999999998
#
# number of rings (size 3 to 8) (size 9 to 14) (size 15 to 20)
#    0.000    1.143    8.571    0.000    0.000    2.286 
#    2.571   10.000    0.000    0.000    0.000    0.000 
#    0.000    0.000    0.000    0.000    0.000    0.000 
#
# Total GULP energy -78086.132481 kJ/mol
# GULP energy per Si atom -5577.580891 kJ/mol
# Density = 2.340799 g / cm^3
# Si number density = 23.461387 Si / 1000 Ang^3
#
#
#
# Elastic Constant Matrix: (Units=GPa)
#
#
# Indices 1 2 3 4 5 6 
#
# 1 161.3725 39.6450 38.4928 0.0000 11.6508 0.0000
# 2 39.6450 59.2030 20.2758 0.0000 7.8754 0.0000
# 3 38.4928 20.2758 78.7380 0.0000 11.3766 0.0000
# 4 0.0000 0.0000 0.0000 35.0005 0.0000 6.5057
# 5 11.6508 7.8754 11.3766 0.0000 57.2280 0.0000
# 6 0.0000 0.0000 0.0000 6.5057 0.0000 33.2095
#
#
#
# Elastic Compliance Matrix: (Units=1/GPa)
#
#
# Indices 1 2 3 4 5 6 
#
# 1 0.007938 -0.004328 -0.002696 0.000000 -0.000485 0.000000
# 2 -0.004328 0.021037 -0.003099 0.000000 -0.001398 0.000000
# 3 -0.002696 -0.003099 0.015110 0.000000 -0.002028 0.000000
# 4 0.000000 0.000000 0.000000 0.029651 0.000000 -0.005808
# 5 -0.000485 -0.001398 -0.002028 0.000000 0.018168 0.000000
# 6 0.000000 0.000000 0.000000 -0.005808 0.000000 0.031250
#
#
# Mechanical properties :
#
#
# Convention : Reuss Voigt Hill
#
# Bulk Modulus (GPa) = 41.95105 55.12674 48.53889
# Shear Modulus (GPa) = 33.03688 38.48093 35.75890
#
# Velocity S-wave (km/s) = 3.75659 4.05431 3.90828
# Velocity P-wave (km/s) = 6.06099 6.74273 6.41093
#
# Compressibility (1/GPa) = 0.02383731
#
# Stress axis : x y z
#
# Youngs Moduli (GPa) = 125.97255 47.53619 66.18278
#
# Poissons Ratio (x) = 0.20573 0.17845
# Poissons Ratio (y) = 0.54520 0.20513
# Poissons Ratio (z) = 0.33966 0.14733
#
# Static dielectric constant tensor:
#      x y z
#    x 1.997260 0.000000 0.082060 
#    y 0.000000 1.871840 0.000000 
#    z 0.082060 0.000000 1.988330 
# 
# From -- ./inp_files/22567.got.cif
#   From: 2010.05.17/outbox.cif.g08.bks.cpg/sg9_12_cif.got.tgz:22567.got - 2010.06.03 20:04:27.
