data_PCOD9136301
_publ_section_title
;
Structure prediction by ZEFSAII (Michael W. Deem and Ramdas Pophale) SiO2 
 PCOD9136301
Probable space group: C C
;
_chemical_formula_sum "Si O2"
_cell_formula_units_Z 24
_cell_length_a 4.857152
_cell_length_b 13.909707
_cell_length_c 13.641423
_cell_angle_alpha 90.000000
_cell_angle_beta 103.447537
_cell_angle_gamma 90.000000
_cell_volume 896.367591
_symmetry_space_group_name_H-M "C C"
_symmetry_group_IT_number 9
_symmetry_cell_setting 'monoclinic'
loop_
_space_group_symop_operation_xyz
x,y,z
x,-y,1/2+z
1/2+x,1/2+y,z
1/2+x,1/2-y,1/2+z
loop_
_atom_site_type_symbol
_atom_site_label
_atom_site_fract_x
_atom_site_fract_y
_atom_site_fract_z
Si Si1 0.168890 0.620356 0.741390
Si Si2 0.193101 0.363135 0.704614
Si Si3 0.930249 0.724761 0.563804
Si Si4 0.008400 0.759737 0.883402
Si Si5 0.119008 0.101378 0.938497
Si Si6 0.666885 0.518127 0.144179
O O1 0.406584 0.573014 0.832410
O O2 0.176702 0.657854 0.628568
O O3 0.165596 0.721671 0.799759
O O4 0.862316 0.565806 0.708215
O O5 0.259838 0.276062 0.637294
O O6 0.277156 0.330439 0.819531
O O7 0.369768 0.453490 0.671226
O O8 0.869319 0.390944 0.679881
O O9 0.692110 0.680741 0.474511
O O10 0.016217 0.810382 0.498392
O O11 0.890074 0.656977 0.915021
O O12 0.151277 0.019937 0.024402
#
# Coordination Sequence:
#
# PCOD9136301 Si02
#       6
#     4   4   4   4   4   4
#     4  10  24  40  66  93 135 171 220 271 338 388
#     4  10  23  40  66  90 132 173 218 262 329 387
#     4   9  20  41  61  95 120 176 215 274 313 394
#     4  10  21  40  65  94 124 176 224 271 312 397
#     4  10  22  40  68  94 132 172 228 270 327 393
#     4  11  24  45  62  98 135 172 207 278 333 389
#
# _framework density 26.774732
#
# number of rings (size 3 to 8) (size 9 to 14) (size 15 to 20)
#    0.000    2.000    1.667    0.000   11.667    1.333 
#    0.000    0.000    0.000    0.000    0.000    0.000 
#    0.000    0.000    0.000    0.000    0.000    0.000 
#
# Total GULP energy -66838.335517 kJ/mol
# GULP energy per Si atom -5569.861293 kJ/mol
# Density = 2.671379 g / cm^3
# Si number density = 26.774732 Si / 1000 Ang^3
#
#
#
# Elastic Constant Matrix: (Units=GPa)
#
#
# Indices 1 2 3 4 5 6 
#
# 1 60.4911 10.1980 28.3399 0.0000 -1.3076 0.0000
# 2 10.1980 73.9050 37.4236 0.0000 3.3668 0.0000
# 3 28.3399 37.4236 254.2300 0.0000 40.2892 0.0000
# 4 0.0000 0.0000 0.0000 55.2381 0.0000 5.2215
# 5 -1.3076 3.3668 40.2892 0.0000 36.2037 0.0000
# 6 0.0000 0.0000 0.0000 5.2215 0.0000 19.7072
#
#
#
# Elastic Compliance Matrix: (Units=1/GPa)
#
#
# Indices 1 2 3 4 5 6 
#
# 1 0.017935 -0.001454 -0.002318 0.000000 0.003363 0.000000
# 2 -0.001454 0.014786 -0.002171 0.000000 0.000989 0.000000
# 3 -0.002318 -0.002171 0.005455 0.000000 -0.005952 0.000000
# 4 0.000000 0.000000 0.000000 0.018569 0.000000 -0.004920
# 5 0.003363 0.000989 -0.005952 0.000000 0.034275 0.000000
# 6 0.000000 0.000000 0.000000 -0.004920 0.000000 0.052046
#
#
# Mechanical properties :
#
#
# Convention : Reuss Voigt Hill
#
# Bulk Modulus (GPa) = 38.03873 60.06098 49.04985
# Shear Modulus (GPa) = 30.54081 43.07412 36.80746
#
# Velocity S-wave (km/s) = 3.38103 4.01529 3.71173
# Velocity P-wave (km/s) = 5.42951 6.63154 6.06040
#
# Compressibility (1/GPa) = 0.02628900
#
# Stress axis : x y z
#
# Youngs Moduli (GPa) = 55.75607 67.63206 183.32782
#
# Poissons Ratio (x) = 0.09835 0.42498
# Poissons Ratio (y) = 0.08108 0.39802
# Poissons Ratio (z) = 0.12925 0.14684
#
# Static dielectric constant tensor:
#      x y z
#    x 2.256000 0.000000 0.049400 
#    y 0.000000 2.211920 0.000000 
#    z 0.049400 0.000000 2.288060 
# 
# From -- ./inp_files/12885.got.cif
#   From: 2010.05.17/outbox.cif.g08.bks.cpg/sg9_7_cif.got.tgz:12885.got - 2010.06.03 20:04:27.
