data_PCOD9136274
_publ_section_title
;
Structure prediction by ZEFSAII (Michael W. Deem and Ramdas Pophale) SiO2 
 PCOD9136274
Probable space group: C C
;
_chemical_formula_sum "Si O2"
_cell_formula_units_Z 32
_cell_length_a 11.966078
_cell_length_b 10.300898
_cell_length_c 9.429820
_cell_angle_alpha 90.000000
_cell_angle_beta 86.857846
_cell_angle_gamma 90.000000
_cell_volume 1160.584898
_symmetry_space_group_name_H-M "C C"
_symmetry_group_IT_number 9
_symmetry_cell_setting 'monoclinic'
loop_
_space_group_symop_operation_xyz
x,y,z
x,-y,1/2+z
1/2+x,1/2+y,z
1/2+x,1/2-y,1/2+z
loop_
_atom_site_type_symbol
_atom_site_label
_atom_site_fract_x
_atom_site_fract_y
_atom_site_fract_z
Si Si1 0.439250 0.264765 0.818510
Si Si2 0.715111 0.501411 0.205453
Si Si3 0.665740 0.027934 0.444938
Si Si4 0.651882 0.655152 0.473495
Si Si5 0.879481 0.229992 0.872625
Si Si6 0.812101 0.988492 0.191767
Si Si7 0.573600 0.716288 0.049764
Si Si8 0.917038 0.481986 0.481364
O O1 0.530045 0.314467 0.925299
O O2 0.375192 0.387022 0.753330
O O3 0.506492 0.208877 0.678745
O O4 0.377812 0.144334 0.895273
O O5 0.692596 0.532919 0.370888
O O6 0.646442 0.616008 0.132181
O O7 0.659873 0.374571 0.139339
O O8 0.837492 0.505786 0.124054
O O9 0.694622 0.989809 0.283970
O O10 0.646559 0.181992 0.459778
O O11 0.775465 0.004563 0.533053
O O12 0.549455 0.962935 0.500805
O O13 0.750068 0.757865 0.433497
O O14 0.914146 0.381896 0.892018
O O15 0.871031 0.147532 0.729156
O O16 0.975767 0.159944 0.957722
#
# Coordination Sequence:
#
# PCOD9136274 Si02
#       8
#     4   4   4   4   4   4   4   4
#     4  11  23  41  68  98 133 174 225 279 339 401
#     4  10  21  40  63  94 131 170 220 274 335 400
#     4  11  24  42  68  97 135 175 225 278 340 408
#     4  10  22  40  64  95 132 174 221 277 333 404
#     4  10  22  39  65  93 132 173 217 269 334 395
#     4  12  24  43  68 101 133 176 225 282 338 403
#     4  10  21  41  66  98 134 174 219 281 338 405
#     4  10  23  42  66  96 132 180 222 274 339 410
#
# _framework density 27.572305
#
# number of rings (size 3 to 8) (size 9 to 14) (size 15 to 20)
#    0.000    1.500    0.000    5.250    0.000   10.000 
#    0.000    5.000    0.000    6.000    0.000    0.000 
#    0.000    0.000    0.000    0.000    0.000    0.000 
#
# Total GULP energy -89529.122906 kJ/mol
# GULP energy per Si atom -5595.570182 kJ/mol
# Density = 2.750955 g / cm^3
# Si number density = 27.572305 Si / 1000 Ang^3
#
#
#
# Elastic Constant Matrix: (Units=GPa)
#
#
# Indices 1 2 3 4 5 6 
#
# 1 130.2992 36.1585 8.4332 0.0000 13.6017 0.0000
# 2 36.1585 113.1606 20.2483 0.0000 6.8882 0.0000
# 3 8.4332 20.2483 100.0992 0.0000 1.6945 0.0000
# 4 0.0000 0.0000 0.0000 36.0767 0.0000 4.6663
# 5 13.6017 6.8882 1.6945 0.0000 40.8969 0.0000
# 6 0.0000 0.0000 0.0000 4.6663 0.0000 52.0660
#
#
#
# Elastic Compliance Matrix: (Units=1/GPa)
#
#
# Indices 1 2 3 4 5 6 
#
# 1 0.008658 -0.002589 -0.000165 0.000000 -0.002437 0.000000
# 2 -0.002589 0.010032 -0.001798 0.000000 -0.000754 0.000000
# 3 -0.000165 -0.001798 0.010369 0.000000 -0.000072 0.000000
# 4 0.000000 0.000000 0.000000 0.028044 0.000000 -0.002513
# 5 -0.002437 -0.000754 -0.000072 0.000000 0.025392 0.000000
# 6 0.000000 0.000000 0.000000 -0.002513 0.000000 0.019432
#
#
# Mechanical properties :
#
#
# Convention : Reuss Voigt Hill
#
# Bulk Modulus (GPa) = 50.11149 52.58214 51.34681
# Shear Modulus (GPa) = 42.48750 44.38920 43.43835
#
# Velocity S-wave (km/s) = 3.92975 4.01673 3.97348
# Velocity P-wave (km/s) = 6.22933 6.37371 6.30194
#
# Compressibility (1/GPa) = 0.01995550
#
# Stress axis : x y z
#
# Youngs Moduli (GPa) = 115.49954 99.68208 96.44176
#
# Poissons Ratio (x) = 0.25805 0.01587
# Poissons Ratio (y) = 0.29900 0.17344
# Poissons Ratio (z) = 0.01900 0.17927
#
# Static dielectric constant tensor:
#      x y z
#    x 2.206340 0.000000 0.013750 
#    y 0.000000 2.234470 0.000000 
#    z 0.013750 0.000000 2.086140 
# 
# From -- ./inp_files/16205.got.cif
#   From: 2010.05.17/outbox.cif.g08.bks.cpg/sg9_9_cif.got.tgz:16205.got - 2010.06.03 20:04:27.
