data_PCOD9136874
_publ_section_title
;
Structure prediction by ZEFSAII (Michael W. Deem and Ramdas Pophale) SiO2 
 PCOD9136874
Probable space group: C C
;
_chemical_formula_sum "Si O2"
_cell_formula_units_Z 32
_cell_length_a 10.278369
_cell_length_b 13.914922
_cell_length_c 15.128303
_cell_angle_alpha 90.000000
_cell_angle_beta 37.173421
_cell_angle_gamma 90.000000
_cell_volume 1307.365903
_symmetry_space_group_name_H-M "C C"
_symmetry_group_IT_number 9
_symmetry_cell_setting 'monoclinic'
loop_
_space_group_symop_operation_xyz
x,y,z
x,-y,1/2+z
1/2+x,1/2+y,z
1/2+x,1/2-y,1/2+z
loop_
_atom_site_type_symbol
_atom_site_label
_atom_site_fract_x
_atom_site_fract_y
_atom_site_fract_z
Si Si1 0.877110 0.741424 0.224810
Si Si2 0.719144 0.667588 0.678101
Si Si3 0.115311 0.347347 0.835088
Si Si4 0.776607 0.095946 0.540017
Si Si5 0.420118 0.797056 0.508593
Si Si6 0.894634 0.536509 0.291734
Si Si7 0.484362 0.508815 0.096745
Si Si8 0.103402 0.028954 0.217675
O O1 0.652307 0.799046 0.335839
O O2 0.990388 0.735538 0.069075
O O3 0.817794 0.629492 0.277555
O O4 0.043698 0.782405 0.205942
O O5 0.693340 0.740885 0.771579
O O6 0.675241 0.561082 0.737107
O O7 0.950199 0.660289 0.505282
O O8 0.335587 0.406451 0.712721
O O9 0.989966 0.406904 0.825827
O O10 0.771656 0.211162 0.551880
O O11 0.917275 0.077051 0.375985
O O12 0.568312 0.028174 0.647985
O O13 0.875850 0.055985 0.579776
O O14 0.285725 0.894819 0.590763
O O15 0.709851 0.467940 0.429094
O O16 0.542604 0.468893 0.161789
#
# Coordination Sequence:
#
# PCOD9136874 Si02
#       8
#     4   4   4   4   4   4   4   4
#     4  11  23  43  76 104 138 189 244 304 366 416
#     4  11  24  45  71 108 139 188 252 295 358 435
#     4  10  24  44  70 103 142 187 234 304 357 431
#     4  11  26  48  72 106 148 187 245 306 356 442
#     4  12  24  45  67 108 144 184 240 303 362 424
#     4  10  21  44  75 106 136 185 243 300 364 429
#     4  11  23  49  71 102 146 190 235 296 381 419
#     4  12  27  46  72 109 145 192 245 296 366 438
#
# _framework density 24.476696
#
# number of rings (size 3 to 8) (size 9 to 14) (size 15 to 20)
#    0.000    1.000    3.750    2.250    8.750    1.000 
#    6.750    0.000    0.000    0.000    0.000    0.000 
#    0.000    0.000    0.000    0.000    0.000    0.000 
#
# Total GULP energy -89313.126008 kJ/mol
# GULP energy per Si atom -5582.070376 kJ/mol
# Density = 2.442099 g / cm^3
# Si number density = 24.476696 Si / 1000 Ang^3
#
#
#
# Elastic Constant Matrix: (Units=GPa)
#
#
# Indices 1 2 3 4 5 6 
#
# 1 47.6933 -10.3290 6.1331 -0.0007 4.2930 0.0001
# 2 -10.3290 118.5370 45.2337 -0.0025 -20.5187 0.0012
# 3 6.1331 45.2337 124.5947 -0.0088 -6.9203 0.0038
# 4 -0.0007 -0.0025 -0.0088 41.5761 0.0025 15.5763
# 5 4.2930 -20.5187 -6.9203 0.0025 31.0686 -0.0006
# 6 0.0001 0.0012 0.0038 15.5763 -0.0006 -18.2414
#
#
#
# Elastic Compliance Matrix: (Units=1/GPa)
#
#
# Indices 1 2 3 4 5 6 
#
# 1 0.021913 0.002354 -0.002040 0.000000 -0.001927 0.000000
# 2 0.002354 0.011176 -0.003829 0.000000 0.006203 -0.000001
# 3 -0.002040 -0.003829 0.009509 0.000001 -0.000129 0.000002
# 4 0.000000 0.000000 0.000001 0.018223 -0.000001 0.015560
# 5 -0.001927 0.006203 -0.000129 -0.000001 0.036521 -0.000002
# 6 0.000000 -0.000001 0.000002 0.015560 -0.000002 -0.041533
#
#
# Mechanical properties :
#
#
# Convention : Reuss Voigt Hill
#
# Bulk Modulus (GPa) = 28.11445 41.43337 34.77391
# Shear Modulus (GPa) = 66.93890 27.53314 47.23602
#
# Velocity S-wave (km/s) = 5.23521 3.35755 4.39776
# Velocity P-wave (km/s) = 6.93212 5.65644 6.32652
#
# Compressibility (1/GPa) = 0.03556889
#
# Stress axis : x y z
#
# Youngs Moduli (GPa) = 45.63480 89.47630 105.15946
#
# Poissons Ratio (x) = -0.21067 0.21458
# Poissons Ratio (y) = -0.10745 0.40264
# Poissons Ratio (z) = 0.09312 0.34259
#
# Static dielectric constant tensor:
#      x y z
#    x 2.208910 0.000000 -0.103910 
#    y 0.000000 1.949200 0.000000 
#    z -0.103910 0.000000 1.874600 
# 
# From -- ./inp_files/7399.got.cif
#   From: 2010.05.17/outbox.cif.g08.bks.cpg/sg9_4_cif.got.tgz:7399.got - 2010.06.03 20:04:27.
