data_PCOD9136337
_publ_section_title
;
Structure prediction by ZEFSAII (Michael W. Deem and Ramdas Pophale) SiO2 
 PCOD9136337
Probable space group: C C
;
_chemical_formula_sum "Si O2"
_cell_formula_units_Z 32
_cell_length_a 9.783239
_cell_length_b 11.989835
_cell_length_c 14.139707
_cell_angle_alpha 90.000000
_cell_angle_beta 46.048368
_cell_angle_gamma 90.000000
_cell_volume 1194.054405
_symmetry_space_group_name_H-M "C C"
_symmetry_group_IT_number 9
_symmetry_cell_setting 'monoclinic'
loop_
_space_group_symop_operation_xyz
x,y,z
x,-y,1/2+z
1/2+x,1/2+y,z
1/2+x,1/2-y,1/2+z
loop_
_atom_site_type_symbol
_atom_site_label
_atom_site_fract_x
_atom_site_fract_y
_atom_site_fract_z
Si Si1 0.661540 0.088927 0.756650
Si Si2 0.198817 0.069117 0.294611
Si Si3 0.063010 0.603617 0.013633
Si Si4 0.928313 0.358940 0.866802
Si Si5 0.739882 0.767452 0.606798
Si Si6 0.297730 0.855385 0.348255
Si Si7 0.815771 0.106696 0.384489
Si Si8 0.984641 0.052338 0.103354
O O1 0.623732 0.138095 0.878757
O O2 0.527190 0.148113 0.745177
O O3 0.568729 0.964793 0.803250
O O4 0.880647 0.064861 0.628884
O O5 0.284968 0.121731 0.349053
O O6 0.983388 0.102650 0.380288
O O7 0.228700 0.935358 0.296878
O O8 0.339971 0.105925 0.143051
O O9 0.158864 0.673792 0.051179
O O10 0.150201 0.479924 0.986173
O O11 0.066691 0.259180 0.763818
O O12 0.835213 0.339043 0.013021
O O13 0.890128 0.850667 0.583861
O O14 0.242710 0.728148 0.390712
O O15 0.204957 0.924379 0.480438
O O16 0.926327 0.064900 0.238644
#
# Coordination Sequence:
#
# PCOD9136337 Si02
#       8
#     4   4   4   4   4   4   4   4
#     4   9  21  43  63  91 139 170 225 286 347 415
#     4  10  23  45  65 100 145 180 232 299 353 420
#     4  10  22  43  66  93 137 181 223 289 355 414
#     4   9  21  41  64  98 134 182 231 290 360 430
#     4  10  21  40  67  94 137 183 232 291 358 430
#     4  11  24  41  69  99 134 184 230 287 348 422
#     4  11  25  43  70 103 134 187 240 285 359 430
#     4  10  23  42  62 102 136 171 241 285 346 431
#
# _framework density 26.799448999999999
#
# number of rings (size 3 to 8) (size 9 to 14) (size 15 to 20)
#    0.000    2.000    0.000    2.250    8.750    0.000 
#   11.250    0.000    0.000    0.000    0.000    0.000 
#    0.000    0.000    0.000    0.000    0.000    0.000 
#
# Total GULP energy -89525.737958 kJ/mol
# GULP energy per Si atom -5595.358622 kJ/mol
# Density = 2.673845 g / cm^3
# Si number density = 26.799449 Si / 1000 Ang^3
#
#
#
# Elastic Constant Matrix: (Units=GPa)
#
#
# Indices 1 2 3 4 5 6 
#
# 1 115.4540 4.8669 11.5070 0.0000 2.9912 0.0000
# 2 4.8669 66.1349 -11.3185 0.0000 -11.3191 0.0000
# 3 11.5070 -11.3185 102.2038 0.0000 0.9555 0.0000
# 4 0.0000 0.0000 0.0000 32.5889 0.0000 5.7569
# 5 2.9912 -11.3191 0.9555 0.0000 41.2928 0.0000
# 6 0.0000 0.0000 0.0000 5.7569 0.0000 23.9130
#
#
#
# Elastic Compliance Matrix: (Units=1/GPa)
#
#
# Indices 1 2 3 4 5 6 
#
# 1 0.008835 -0.000989 -0.001096 0.000000 -0.000886 0.000000
# 2 -0.000989 0.016283 0.001873 0.000000 0.004492 0.000000
# 3 -0.001096 0.001873 0.010112 0.000000 0.000359 0.000000
# 4 0.000000 0.000000 0.000000 0.032048 0.000000 -0.007715
# 5 -0.000886 0.004492 0.000359 0.000000 0.025504 0.000000
# 6 0.000000 0.000000 0.000000 -0.007715 0.000000 0.043676
#
#
# Mechanical properties :
#
#
# Convention : Reuss Voigt Hill
#
# Bulk Modulus (GPa) = 28.73221 32.65595 30.69408
# Shear Modulus (GPa) = 33.67339 38.14144 35.90741
#
# Velocity S-wave (km/s) = 3.54855 3.77665 3.66438
# Velocity P-wave (km/s) = 5.24730 5.58831 5.42048
#
# Compressibility (1/GPa) = 0.03480415
#
# Stress axis : x y z
#
# Youngs Moduli (GPa) = 113.18158 61.41502 98.89437
#
# Poissons Ratio (x) = 0.06076 0.10839
# Poissons Ratio (y) = 0.11198 -0.18519
# Poissons Ratio (z) = 0.12405 -0.11501
#
# Static dielectric constant tensor:
#      x y z
#    x 2.141210 0.000000 -0.060990 
#    y 0.000000 2.172180 0.000000 
#    z -0.060990 0.000000 2.115410 
# 
# From -- ./inp_files/30067.got.cif
#   From: 2010.05.17/outbox.cif.g08.bks.cpg/sg9_16_cif.got.tgz:30067.got - 2010.06.03 20:04:27.
