data_PCOD9136770
_publ_section_title
;
Structure prediction by ZEFSAII (Michael W. Deem and Ramdas Pophale) SiO2 
 PCOD9136770
Probable space group: C C
;
_chemical_formula_sum "Si O2"
_cell_formula_units_Z 28
_cell_length_a 9.214619
_cell_length_b 23.888856
_cell_length_c 9.172486
_cell_angle_alpha 90.000000
_cell_angle_beta 143.176893
_cell_angle_gamma 90.000000
_cell_volume 1210.145950
_symmetry_space_group_name_H-M "C C"
_symmetry_group_IT_number 9
_symmetry_cell_setting 'monoclinic'
loop_
_space_group_symop_operation_xyz
x,y,z
x,-y,1/2+z
1/2+x,1/2+y,z
1/2+x,1/2-y,1/2+z
loop_
_atom_site_type_symbol
_atom_site_label
_atom_site_fract_x
_atom_site_fract_y
_atom_site_fract_z
Si Si1 0.587670 0.029607 0.163990
Si Si2 0.166473 0.425770 0.053451
Si Si3 0.637021 0.773510 0.692897
Si Si4 0.656851 0.394281 0.331330
Si Si5 0.393995 0.815113 0.757409
Si Si6 0.098339 0.780475 0.791572
Si Si7 0.904593 0.874365 0.831124
O O1 0.600722 0.044379 0.346126
O O2 0.805888 0.062163 0.254348
O O3 0.591678 0.965124 0.125568
O O4 0.337639 0.058582 0.919021
O O5 0.453019 0.421031 0.269918
O O6 0.051601 0.363868 0.963284
O O7 0.416262 0.747865 0.422937
O O8 0.565322 0.773428 0.805780
O O9 0.665351 0.836565 0.656503
O O10 0.768682 0.347930 0.524397
O O11 0.538260 0.367738 0.093297
O O12 0.205015 0.788996 0.715680
O O13 0.830863 0.750590 0.557400
O O14 0.052913 0.842403 0.825459
#
# Coordination Sequence:
#
# PCOD9136770 Si02
#       7
#     4   4   4   4   4   4   4
#     4  10  23  41  68 102 134 183 236 291 359 428
#     4  10  23  41  68 102 134 183 236 291 359 428
#     4  12  23  38  72  98 128 180 232 283 344 412
#     4  10  21  43  72  94 140 178 243 285 354 422
#     4  11  24  44  68 102 138 183 235 299 352 428
#     4  12  30  47  68 108 150 190 239 298 372 424
#     4  11  24  44  68 102 138 183 235 299 352 428
#
# _framework density 23.137706999999999
#
# number of rings (size 3 to 8) (size 9 to 14) (size 15 to 20)
#    0.000    1.143    4.286    2.571    4.000    8.000 
#    0.000    0.000    0.000    0.000    0.000    0.000 
#    0.000    0.000    0.000    0.000    0.000    0.000 
#
# Total GULP energy -78147.908150 kJ/mol
# GULP energy per Si atom -5581.993439 kJ/mol
# Density = 2.308504 g / cm^3
# Si number density = 23.137707 Si / 1000 Ang^3
#
#
#
# Elastic Constant Matrix: (Units=GPa)
#
#
# Indices 1 2 3 4 5 6 
#
# 1 80.4993 -4.3396 24.5264 0.0000 21.2342 0.0000
# 2 -4.3396 25.5004 31.6552 0.0000 14.6924 0.0000
# 3 24.5264 31.6552 82.8796 0.0000 27.9877 0.0000
# 4 0.0000 0.0000 0.0000 21.7051 0.0000 -2.4910
# 5 21.2342 14.6924 27.9877 0.0000 31.4858 0.0000
# 6 0.0000 0.0000 0.0000 -2.4910 0.0000 53.1816
#
#
#
# Elastic Compliance Matrix: (Units=1/GPa)
#
#
# Indices 1 2 3 4 5 6 
#
# 1 0.022079 0.027958 -0.011115 0.000000 -0.018057 0.000000
# 2 0.027958 0.114250 -0.039353 0.000000 -0.037188 0.000000
# 3 -0.011115 -0.039353 0.030940 0.000000 -0.001644 0.000000
# 4 0.000000 0.000000 0.000000 0.046321 0.000000 0.002170
# 5 -0.018057 -0.037188 -0.001644 0.000000 0.062752 0.000000
# 6 0.000000 0.000000 0.000000 0.002170 0.000000 0.018905
#
#
# Mechanical properties :
#
#
# Convention : Reuss Voigt Hill
#
# Bulk Modulus (GPa) = 8.17982 32.50704 20.34343
# Shear Modulus (GPa) = 13.12279 30.41033 21.76656
#
# Velocity S-wave (km/s) = 2.38410 3.62929 3.07048
# Velocity P-wave (km/s) = 3.33489 5.62514 4.62405
#
# Compressibility (1/GPa) = 0.12225211
#
# Stress axis : x y z
#
# Youngs Moduli (GPa) = 45.29170 8.75272 32.32035
#
# Poissons Ratio (x) = -0.24471 0.35923
# Poissons Ratio (y) = -1.26629 1.27189
# Poissons Ratio (z) = 0.50340 0.34444
#
# Static dielectric constant tensor:
#      x y z
#    x 1.916800 0.000000 0.033840 
#    y 0.000000 1.916910 0.000000 
#    z 0.033840 0.000000 1.920100 
# 
# From -- ./inp_files/833.got.cif
#   From: 2010.05.17/outbox.cif.g08.bks.cpg/sg9_1_cif.got.tgz:833.got - 2010.06.03 20:04:27.
