data_PCOD9136218
_publ_section_title
;
Structure prediction by ZEFSAII (Michael W. Deem and Ramdas Pophale) SiO2 
 PCOD9136218
Probable space group: C C
;
_chemical_formula_sum "Si O2"
_cell_formula_units_Z 32
_cell_length_a 20.955976
_cell_length_b 16.295356
_cell_length_c 13.268813
_cell_angle_alpha 90.000000
_cell_angle_beta 159.157955
_cell_angle_gamma 90.000000
_cell_volume 1612.133683
_symmetry_space_group_name_H-M "C C"
_symmetry_group_IT_number 9
_symmetry_cell_setting 'monoclinic'
loop_
_space_group_symop_operation_xyz
x,y,z
x,-y,1/2+z
1/2+x,1/2+y,z
1/2+x,1/2-y,1/2+z
loop_
_atom_site_type_symbol
_atom_site_label
_atom_site_fract_x
_atom_site_fract_y
_atom_site_fract_z
Si Si1 0.396810 0.874794 0.641330
Si Si2 0.598550 0.315787 0.765071
Si Si3 0.892153 0.190648 0.146422
Si Si4 0.732031 0.512233 0.536617
Si Si5 0.358415 0.565946 0.469194
Si Si6 0.254919 0.606482 0.763357
Si Si7 0.509373 0.893481 0.580189
Si Si8 0.515132 0.701693 0.551491
O O1 0.482278 0.895424 0.659613
O O2 0.228736 0.813556 0.382496
O O3 0.319667 0.953985 0.583591
O O4 0.565972 0.853281 0.960527
O O5 0.549602 0.280285 0.803782
O O6 0.406844 0.337942 0.433691
O O7 0.737128 0.257616 0.917891
O O8 0.682633 0.403815 0.908678
O O9 0.963681 0.173713 0.362566
O O10 0.806913 0.115512 0.958493
O O11 0.546554 0.467297 0.293393
O O12 0.869041 0.541702 0.824698
O O13 0.280630 0.490726 0.284790
O O14 0.205046 0.586583 0.323642
O O15 0.410095 0.644837 0.476997
O O16 0.471730 0.798261 0.495044
#
# Coordination Sequence:
#
# PCOD9136218 Si02
#       8
#     4   4   4   4   4   4   4   4
#     4  11  24  43  65  97 137 177 214 282 355 394
#     4   9  20  39  64  94 129 165 225 277 316 399
#     4  10  21  39  69  95 130 172 228 274 328 394
#     4  10  21  45  61  93 137 172 223 279 323 409
#     4  10  23  42  65  95 139 171 226 279 335 396
#     4   9  22  42  61  90 140 175 219 270 337 413
#     4  12  23  42  71  99 133 177 233 277 339 404
#     4  11  24  40  72 101 133 175 222 292 337 401
#
# _framework density 19.849471999999999
#
# number of rings (size 3 to 8) (size 9 to 14) (size 15 to 20)
#    0.750    1.000    2.500    1.500    1.750    2.000 
#    6.750    0.000    0.000    0.000    0.000    0.000 
#    0.000    0.000    0.000    0.000    0.000    0.000 
#
# Total GULP energy -89111.341800 kJ/mol
# GULP energy per Si atom -5569.458862 kJ/mol
# Density = 1.980429 g / cm^3
# Si number density = 19.849472 Si / 1000 Ang^3
#
#
#
# Elastic Constant Matrix: (Units=GPa)
#
#
# Indices 1 2 3 4 5 6 
#
# 1 320.3545 69.5474 71.8434 0.0000 113.1127 0.0000
# 2 69.5474 78.5316 32.4825 0.0000 26.1529 0.0000
# 3 71.8434 32.4825 112.8888 0.0000 28.4236 0.0000
# 4 0.0000 0.0000 0.0000 29.0935 0.0000 8.9516
# 5 113.1127 26.1529 28.4236 0.0000 75.5656 0.0000
# 6 0.0000 0.0000 0.0000 8.9516 0.0000 31.0793
#
#
#
# Elastic Compliance Matrix: (Units=1/GPa)
#
#
# Indices 1 2 3 4 5 6 
#
# 1 0.007475 -0.002772 -0.001529 0.000000 -0.009655 0.000000
# 2 -0.002772 0.016541 -0.002870 0.000000 -0.000495 0.000000
# 3 -0.001529 -0.002870 0.010859 0.000000 -0.000803 0.000000
# 4 0.000000 0.000000 0.000000 0.037714 0.000000 -0.010863
# 5 -0.009655 -0.000495 -0.000803 0.000000 0.028160 0.000000
# 6 0.000000 0.000000 0.000000 -0.010863 0.000000 0.035304
#
#
# Mechanical properties :
#
#
# Convention : Reuss Voigt Hill
#
# Bulk Modulus (GPa) = 48.70289 95.50237 72.10263
# Shear Modulus (GPa) = 31.79828 49.67447 40.73638
#
# Velocity S-wave (km/s) = 4.00681 5.00799 4.53511
# Velocity P-wave (km/s) = 6.78199 9.03646 7.98915
#
# Compressibility (1/GPa) = 0.02053266
#
# Stress axis : x y z
#
# Youngs Moduli (GPa) = 133.77288 60.45524 92.08759
#
# Poissons Ratio (x) = 0.16761 0.14077
# Poissons Ratio (y) = 0.37088 0.26433
# Poissons Ratio (z) = 0.20449 0.17353
#
# Static dielectric constant tensor:
#      x y z
#    x 1.687050 0.000000 0.016160 
#    y 0.000000 1.687930 0.000000 
#    z 0.016160 0.000000 1.750300 
# 
# From -- ./inp_files/27822.got.cif
#   From: 2010.05.17/outbox.cif.g08.bks.cpg/sg9_14_cif.got.tgz:27822.got - 2010.06.03 20:04:27.
