data_PCOD9136796
_publ_section_title
;
Structure prediction by ZEFSAII (Michael W. Deem and Ramdas Pophale) SiO2 
 PCOD9136796
Probable space group: C C
;
_chemical_formula_sum "Si O2"
_cell_formula_units_Z 32
_cell_length_a 10.341585
_cell_length_b 10.918267
_cell_length_c 12.245088
_cell_angle_alpha 90.000000
_cell_angle_beta 107.472962
_cell_angle_gamma 90.000000
_cell_volume 1318.823855
_symmetry_space_group_name_H-M "C C"
_symmetry_group_IT_number 9
_symmetry_cell_setting 'monoclinic'
loop_
_space_group_symop_operation_xyz
x,y,z
x,-y,1/2+z
1/2+x,1/2+y,z
1/2+x,1/2-y,1/2+z
loop_
_atom_site_type_symbol
_atom_site_label
_atom_site_fract_x
_atom_site_fract_y
_atom_site_fract_z
Si Si1 0.175290 0.901457 0.547300
Si Si2 0.138776 0.064333 0.782430
Si Si3 0.295261 0.182556 0.273948
Si Si4 0.273541 0.412389 0.920492
Si Si5 0.373474 0.759625 0.278372
Si Si6 0.100684 0.414705 0.242084
Si Si7 0.455998 0.561164 0.117059
Si Si8 0.035316 0.327414 0.004848
O O1 0.168103 0.908411 0.418813
O O2 0.304895 0.858137 0.648517
O O3 0.047348 0.811484 0.556609
O O4 0.096973 0.006784 0.591374
O O5 0.231833 0.168176 0.750449
O O6 0.193914 0.923352 0.790152
O O7 0.978561 0.045995 0.720487
O O8 0.216619 0.310215 0.261312
O O9 0.423096 0.173320 0.384226
O O10 0.377721 0.323117 0.887612
O O11 0.171239 0.464333 0.802718
O O12 0.340684 0.523248 0.002101
O O13 0.179259 0.344255 0.984155
O O14 0.489489 0.863430 0.298414
O O15 0.396532 0.670950 0.180911
O O16 0.026855 0.417402 0.104968
#
# Coordination Sequence:
#
# PCOD9136796 Si02
#       8
#     4   4   4   4   4   4   4   4
#     4  10  21  44  64  95 136 182 227 282 353 417
#     4  11  23  43  71 103 139 182 241 291 346 434
#     4  10  23  43  72  98 135 191 230 288 361 416
#     4  12  26  43  70 108 141 187 242 294 353 431
#     4  12  24  46  71 107 144 182 245 290 360 423
#     4  11  25  47  71 101 148 184 235 302 355 418
#     4  11  24  44  69 101 143 192 236 288 361 421
#     4  11  22  44  66  95 140 182 228 289 357 416
#
# _framework density 24.264043999999998
#
# number of rings (size 3 to 8) (size 9 to 14) (size 15 to 20)
#    0.000    1.000    5.000    3.000    0.000    6.000 
#    0.000    2.500    0.000    0.000    0.000    0.000 
#    0.000    0.000    0.000    0.000    0.000    0.000 
#
# Total GULP energy -89086.024660 kJ/mol
# GULP energy per Si atom -5567.876541 kJ/mol
# Density = 2.420882 g / cm^3
# Si number density = 24.264044 Si / 1000 Ang^3
#
#
#
# Elastic Constant Matrix: (Units=GPa)
#
#
# Indices 1 2 3 4 5 6 
#
# 1 70.3272 17.1706 38.1817 0.0000 -17.9746 0.0000
# 2 17.1706 60.2881 19.5307 0.0000 -11.7855 0.0000
# 3 38.1817 19.5307 109.0815 0.0000 14.7057 0.0000
# 4 0.0000 0.0000 0.0000 26.5445 0.0000 14.2647
# 5 -17.9746 -11.7855 14.7057 0.0000 46.6968 0.0000
# 6 0.0000 0.0000 0.0000 14.2647 0.0000 13.6737
#
#
#
# Elastic Compliance Matrix: (Units=1/GPa)
#
#
# Indices 1 2 3 4 5 6 
#
# 1 0.022298 -0.001231 -0.009086 0.000000 0.011134 0.000000
# 2 -0.001231 0.019246 -0.003766 0.000000 0.005570 0.000000
# 3 -0.009086 -0.003766 0.014226 0.000000 -0.008928 0.000000
# 4 0.000000 0.000000 0.000000 0.085739 0.000000 -0.089444
# 5 0.011134 0.005570 -0.008928 0.000000 0.029917 0.000000
# 6 0.000000 0.000000 0.000000 -0.089444 0.000000 0.166443
#
#
# Mechanical properties :
#
#
# Convention : Reuss Voigt Hill
#
# Bulk Modulus (GPa) = 36.22529 43.27366 39.74948
# Shear Modulus (GPa) = 13.32496 28.37059 20.84777
#
# Velocity S-wave (km/s) = 2.34597 3.42313 2.93440
# Velocity P-wave (km/s) = 4.72230 5.78766 5.28191
#
# Compressibility (1/GPa) = 0.02760502
#
# Stress axis : x y z
#
# Youngs Moduli (GPa) = 44.84698 51.95775 70.29613
#
# Poissons Ratio (x) = 0.06396 0.63868
# Poissons Ratio (y) = 0.05520 0.26474
# Poissons Ratio (z) = 0.40746 0.19567
#
# Static dielectric constant tensor:
#      x y z
#    x 1.998170 0.000000 -0.031550 
#    y 0.000000 2.114490 0.000000 
#    z -0.031550 0.000000 2.283670 
# 
# From -- ./inp_files/16561.got.cif
#   From: 2010.05.17/outbox.cif.g08.bks.cpg/sg9_9_cif.got.tgz:16561.got - 2010.06.03 20:04:27.
