data_PCOD9136315
_publ_section_title
;
Structure prediction by ZEFSAII (Michael W. Deem and Ramdas Pophale) SiO2 
 PCOD9136315
Probable space group: C C
;
_chemical_formula_sum "Si O2"
_cell_formula_units_Z 32
_cell_length_a 4.910330
_cell_length_b 22.801857
_cell_length_c 11.378994
_cell_angle_alpha 90.000000
_cell_angle_beta 93.077381
_cell_angle_gamma 90.000000
_cell_volume 1272.207748
_symmetry_space_group_name_H-M "C C"
_symmetry_group_IT_number 9
_symmetry_cell_setting 'monoclinic'
loop_
_space_group_symop_operation_xyz
x,y,z
x,-y,1/2+z
1/2+x,1/2+y,z
1/2+x,1/2-y,1/2+z
loop_
_atom_site_type_symbol
_atom_site_label
_atom_site_fract_x
_atom_site_fract_y
_atom_site_fract_z
Si Si1 0.592910 0.333908 0.487760
Si Si2 0.092594 0.740430 0.900589
Si Si3 0.623941 0.463084 0.079959
Si Si4 0.275455 0.160610 0.543719
Si Si5 0.329845 0.422641 0.306063
Si Si6 0.723743 0.047456 0.351123
Si Si7 0.766555 0.188624 0.678022
Si Si8 0.223185 0.082582 0.194838
O O1 0.315848 0.295932 0.482706
O O2 0.506683 0.391720 0.410799
O O3 0.696978 0.359792 0.613509
O O4 0.814982 0.293754 0.425548
O O5 0.195150 0.737616 0.769228
O O6 0.111776 0.808333 0.936055
O O7 0.809258 0.408989 0.042999
O O8 0.517391 0.445623 0.205583
O O9 0.754856 0.526775 0.104258
O O10 0.375755 0.455769 0.980945
O O11 0.571371 0.188765 0.562639
O O12 0.078029 0.180050 0.648164
O O13 0.151815 0.478201 0.336040
O O14 0.167340 0.368938 0.246886
O O15 0.463458 0.082301 0.296564
O O16 0.952314 0.068253 0.262692
#
# Coordination Sequence:
#
# PCOD9136315 Si02
#       8
#     4   4   4   4   4   4   4   4
#     4  11  22  43  67  94 128 168 220 264 320 389
#     4  11  23  41  67  94 124 170 216 265 318 377
#     4  10  22  43  65  97 129 169 215 268 322 386
#     4  11  23  42  65  94 129 165 217 267 320 379
#     4   9  20  40  67  93 125 169 216 265 308 386
#     4  11  23  39  63  97 131 169 206 264 335 383
#     4  10  21  40  66  93 122 170 219 263 310 381
#     4  11  24  42  64  96 132 168 209 266 331 389
#
# _framework density 25.153124999999999
#
# number of rings (size 3 to 8) (size 9 to 14) (size 15 to 20)
#    0.000    1.500    1.250    4.500    0.000    7.000 
#    6.750    0.000    0.000    0.000    0.000    0.000 
#    0.000    0.000    0.000    0.000    0.000    0.000 
#
# Total GULP energy -89349.072585 kJ/mol
# GULP energy per Si atom -5584.317037 kJ/mol
# Density = 2.509587 g / cm^3
# Si number density = 25.153125 Si / 1000 Ang^3
#
#
#
# Elastic Constant Matrix: (Units=GPa)
#
#
# Indices 1 2 3 4 5 6 
#
# 1 100.3112 -11.0752 11.6177 0.0000 9.6232 0.0000
# 2 -11.0752 43.9782 11.6852 0.0000 -4.0437 0.0000
# 3 11.6177 11.6852 65.3284 0.0000 24.3546 0.0000
# 4 0.0000 0.0000 0.0000 45.2794 0.0000 5.7173
# 5 9.6232 -4.0437 24.3546 0.0000 31.9109 0.0000
# 6 0.0000 0.0000 0.0000 5.7173 0.0000 18.1947
#
#
#
# Elastic Compliance Matrix: (Units=1/GPa)
#
#
# Indices 1 2 3 4 5 6 
#
# 1 0.010663 0.003080 -0.001948 0.000000 -0.001338 0.000000
# 2 0.003080 0.026664 -0.008708 0.000000 0.009096 0.000000
# 3 -0.001948 -0.008708 0.024325 0.000000 -0.019081 0.000000
# 4 0.000000 0.000000 0.000000 0.022998 0.000000 -0.007227
# 5 -0.001338 0.009096 -0.019081 0.000000 0.047456 0.000000
# 6 0.000000 0.000000 0.000000 -0.007227 0.000000 0.057232
#
#
# Mechanical properties :
#
#
# Convention : Reuss Voigt Hill
#
# Bulk Modulus (GPa) = 21.50578 26.00812 23.75695
# Shear Modulus (GPa) = 22.72827 32.23635 27.48231
#
# Velocity S-wave (km/s) = 3.00925 3.58383 3.30904
# Velocity P-wave (km/s) = 4.54341 5.24285 4.90562
#
# Compressibility (1/GPa) = 0.04649912
#
# Stress axis : x y z
#
# Youngs Moduli (GPa) = 93.78170 37.50326 41.11044
#
# Poissons Ratio (x) = -0.11551 0.08009
# Poissons Ratio (y) = -0.28884 0.35800
# Poissons Ratio (z) = 0.18270 0.32659
#
# Static dielectric constant tensor:
#      x y z
#    x 1.946260 0.000000 -0.006400 
#    y 0.000000 2.082430 0.000000 
#    z -0.006400 0.000000 2.073720 
# 
# From -- ./inp_files/13787.got.cif
#   From: 2010.05.17/outbox.cif.g08.bks.cpg/sg9_7_cif.got.tgz:13787.got - 2010.06.03 20:04:27.
