data_PCOD9136631
_publ_section_title
;
Structure prediction by ZEFSAII (Michael W. Deem and Ramdas Pophale) SiO2 
 PCOD9136631
Probable space group: C C
;
_chemical_formula_sum "Si O2"
_cell_formula_units_Z 32
_cell_length_a 5.260387
_cell_length_b 32.371851
_cell_length_c 8.753966
_cell_angle_alpha 90.000000
_cell_angle_beta 95.409285
_cell_angle_gamma 90.000000
_cell_volume 1484.060895
_symmetry_space_group_name_H-M "C C"
_symmetry_group_IT_number 9
_symmetry_cell_setting 'monoclinic'
loop_
_space_group_symop_operation_xyz
x,y,z
x,-y,1/2+z
1/2+x,1/2+y,z
1/2+x,1/2-y,1/2+z
loop_
_atom_site_type_symbol
_atom_site_label
_atom_site_fract_x
_atom_site_fract_y
_atom_site_fract_z
Si Si1 0.601420 0.929193 0.468260
Si Si2 0.232332 0.124909 0.506992
Si Si3 0.773741 0.776246 0.189267
Si Si4 0.775391 0.872462 0.212762
Si Si5 0.187504 0.984177 0.301385
Si Si6 0.448765 0.063936 0.285085
Si Si7 0.233724 0.220837 0.486501
Si Si8 0.351241 0.518633 0.517426
O O1 0.751171 0.897583 0.369033
O O2 0.350630 0.945360 0.362969
O O3 0.541477 0.913656 0.635695
O O4 0.748934 0.971981 0.505492
O O5 0.502059 0.123207 0.612221
O O6 0.260859 0.094348 0.365337
O O7 0.191076 0.172102 0.452660
O O8 0.002131 0.114611 0.609847
O O9 0.817830 0.823693 0.244149
O O10 0.504764 0.775196 0.086293
O O11 0.751114 0.746692 0.332980
O O12 0.004463 0.765477 0.086433
O O13 0.934909 0.972323 0.193745
O O14 0.344389 0.019353 0.219684
O O15 0.109536 0.013287 0.437423
O O16 0.665973 0.049269 0.417579
#
# Coordination Sequence:
#
# PCOD9136631 Si02
#       8
#     4   4   4   4   4   4   4   4
#     4  11  25  41  62  95 124 166 227 274 326 395
#     4  10  25  43  66  97 134 177 216 268 334 396
#     4  10  21  42  69 102 136 173 219 264 326 398
#     4  10  25  43  66  97 134 177 216 268 334 396
#     4  11  24  41  62  88 127 169 218 277 338 385
#     4  11  25  41  62  95 124 166 227 274 326 395
#     4  10  21  42  69 102 136 173 219 264 326 398
#     4  11  24  41  62  88 127 169 218 277 338 385
#
# _framework density 21.562459
#
# number of rings (size 3 to 8) (size 9 to 14) (size 15 to 20)
#    0.000    1.500    2.500    0.750    7.000    1.000 
#    0.000    1.250    0.000    0.000    0.000    0.000 
#    0.000    0.000    0.000    0.000    0.000    0.000 
#
# Total GULP energy -89412.429193 kJ/mol
# GULP energy per Si atom -5588.276825 kJ/mol
# Density = 2.151338 g / cm^3
# Si number density = 21.562459 Si / 1000 Ang^3
#
#
#
# Elastic Constant Matrix: (Units=GPa)
#
#
# Indices 1 2 3 4 5 6 
#
# 1 118.4255 38.5608 57.1290 0.0000 -20.5131 0.0000
# 2 38.5608 113.5150 83.7343 0.0000 -19.9047 0.0000
# 3 57.1290 83.7343 147.8267 0.0000 -22.5916 0.0000
# 4 0.0000 0.0000 0.0000 35.2715 0.0000 -17.3049
# 5 -20.5131 -19.9047 -22.5916 0.0000 47.0092 0.0000
# 6 0.0000 0.0000 0.0000 -17.3049 0.0000 15.2435
#
#
#
# Elastic Compliance Matrix: (Units=1/GPa)
#
#
# Indices 1 2 3 4 5 6 
#
# 1 0.010767 -0.000709 -0.003332 0.000000 0.002797 0.000000
# 2 -0.000709 0.015449 -0.008121 0.000000 0.002329 0.000000
# 3 -0.003332 -0.008121 0.012848 0.000000 0.001282 0.000000
# 4 0.000000 0.000000 0.000000 0.063994 0.000000 0.072648
# 5 0.002797 0.002329 0.001282 0.000000 0.024095 0.000000
# 6 0.000000 0.000000 0.000000 0.072648 0.000000 0.148074
#
#
# Mechanical properties :
#
#
# Convention : Reuss Voigt Hill
#
# Bulk Modulus (GPa) = 67.84179 82.06835 74.95507
# Shear Modulus (GPa) = 16.42225 32.86105 24.64165
#
# Velocity S-wave (km/s) = 2.76273 3.90807 3.38421
# Velocity P-wave (km/s) = 6.45818 7.64901 7.07868
#
# Compressibility (1/GPa) = 0.01474018
#
# Stress axis : x y z
#
# Youngs Moduli (GPa) = 92.87845 64.72848 77.83260
#
# Poissons Ratio (x) = 0.04592 0.25931
# Poissons Ratio (y) = 0.06589 0.63206
# Poissons Ratio (z) = 0.30944 0.52565
#
# Static dielectric constant tensor:
#      x y z
#    x 1.870940 0.000000 -0.059310 
#    y 0.000000 1.783560 0.000000 
#    z -0.059310 0.000000 1.822070 
# 
# From -- ./inp_files/4375.got.cif
#   From: 2010.05.17/outbox.cif.g08.bks.cpg/sg9_3_cif.got.tgz:4375.got - 2010.06.03 20:04:27.
