data_PCOD9136924
_publ_section_title
;
Structure prediction by ZEFSAII (Michael W. Deem and Ramdas Pophale) SiO2 
 PCOD9136924
Probable space group: C C
;
_chemical_formula_sum "Si O2"
_cell_formula_units_Z 28
_cell_length_a 8.560490
_cell_length_b 21.363506
_cell_length_c 8.219572
_cell_angle_alpha 90.000000
_cell_angle_beta 135.190923
_cell_angle_gamma 90.000000
_cell_volume 1059.383863
_symmetry_space_group_name_H-M "C C"
_symmetry_group_IT_number 9
_symmetry_cell_setting 'monoclinic'
loop_
_space_group_symop_operation_xyz
x,y,z
x,-y,1/2+z
1/2+x,1/2+y,z
1/2+x,1/2-y,1/2+z
loop_
_atom_site_type_symbol
_atom_site_label
_atom_site_fract_x
_atom_site_fract_y
_atom_site_fract_z
Si Si1 0.419050 0.727347 0.456260
Si Si2 0.425146 0.982377 0.054639
Si Si3 0.307312 0.905878 0.644376
Si Si4 0.592311 0.611522 0.427958
Si Si5 0.827609 0.094540 0.917482
Si Si6 0.475058 0.794950 0.148146
Si Si7 0.529863 0.769706 0.839604
O O1 0.639288 0.758562 0.723830
O O2 0.477035 0.652820 0.482354
O O3 0.474606 0.761646 0.321939
O O4 0.680576 0.966826 0.277463
O O5 0.373085 0.055280 0.033326
O O6 0.375274 0.948904 0.847528
O O7 0.258987 0.947226 0.060876
O O8 0.043050 0.898181 0.463542
O O9 0.437889 0.841051 0.751675
O O10 0.410432 0.592470 0.163299
O O11 0.754337 0.663421 0.470201
O O12 0.663786 0.152575 0.780210
O O13 0.481264 0.752265 0.993595
O O14 0.815823 0.768553 0.082691
#
# Coordination Sequence:
#
# PCOD9136924 Si02
#       7
#     4   4   4   4   4   4   4
#     4  12  27  44  76 113 151 208 250 315 386 467
#     4  10  24  46  76 103 147 202 255 325 384 454
#     4  11  25  48  70 114 147 196 267 316 388 458
#     4  10  22  47  70 109 147 198 253 304 392 448
#     4  10  21  45  78  96 145 210 236 316 394 437
#     4  11  24  49  71 103 160 197 247 315 384 453
#     4  12  27  47  73 114 151 201 264 309 386 473
#
# _framework density 26.430458000000002
#
# number of rings (size 3 to 8) (size 9 to 14) (size 15 to 20)
#    0.000    1.143    5.714    0.857    2.000    8.000 
#    2.571    0.000    0.000    0.000    0.000    0.000 
#    0.000    0.000    0.000    0.000    0.000    0.000 
#
# Total GULP energy -78300.763842 kJ/mol
# GULP energy per Si atom -5592.911703 kJ/mol
# Density = 2.637030 g / cm^3
# Si number density = 26.430458 Si / 1000 Ang^3
#
#
#
# Elastic Constant Matrix: (Units=GPa)
#
#
# Indices 1 2 3 4 5 6 
#
# 1 124.9001 27.6661 78.9402 0.0000 -4.2366 0.0000
# 2 27.6661 87.9037 30.6523 0.0000 13.5987 0.0000
# 3 78.9402 30.6523 173.9479 0.0000 6.4107 0.0000
# 4 0.0000 0.0000 0.0000 30.6325 0.0000 -5.3975
# 5 -4.2366 13.5987 6.4107 0.0000 76.9442 0.0000
# 6 0.0000 0.0000 0.0000 -5.3975 0.0000 53.4266
#
#
#
# Elastic Compliance Matrix: (Units=1/GPa)
#
#
# Indices 1 2 3 4 5 6 
#
# 1 0.011676 -0.002164 -0.004970 0.000000 0.001440 0.000000
# 2 -0.002164 0.012827 -0.001194 0.000000 -0.002287 0.000000
# 3 -0.004970 -0.001194 0.008243 0.000000 -0.000749 0.000000
# 4 0.000000 0.000000 0.000000 0.033237 0.000000 0.003358
# 5 0.001440 -0.002287 -0.000749 0.000000 0.013542 0.000000
# 6 0.000000 0.000000 0.000000 0.003358 0.000000 0.019056
#
#
# Mechanical properties :
#
#
# Convention : Reuss Voigt Hill
#
# Bulk Modulus (GPa) = 62.15581 73.47433 67.81507
# Shear Modulus (GPa) = 41.45881 48.83355 45.14618
#
# Velocity S-wave (km/s) = 3.96485 4.30306 4.13741
# Velocity P-wave (km/s) = 6.67292 7.24899 6.96691
#
# Compressibility (1/GPa) = 0.01608860
#
# Stress axis : x y z
#
# Youngs Moduli (GPa) = 85.64504 77.95850 121.32217
#
# Poissons Ratio (x) = 0.16873 0.60303
# Poissons Ratio (y) = 0.18536 0.14485
# Poissons Ratio (z) = 0.42569 0.09307
#
# Static dielectric constant tensor:
#      x y z
#    x 2.099590 0.000000 0.041980 
#    y 0.000000 2.064450 0.000000 
#    z 0.041980 0.000000 2.124740 
# 
# From -- ./inp_files/17196.got.cif
#   From: 2010.05.17/outbox.cif.g08.bks.cpg/sg9_9_cif.got.tgz:17196.got - 2010.06.03 20:04:27.
