data_PCOD9136415
_publ_section_title
;
Structure prediction by ZEFSAII (Michael W. Deem and Ramdas Pophale) SiO2 
 PCOD9136415
Probable space group: C C
;
_chemical_formula_sum "Si O2"
_cell_formula_units_Z 32
_cell_length_a 12.879157
_cell_length_b 21.204151
_cell_length_c 7.870363
_cell_angle_alpha 90.000000
_cell_angle_beta 40.617915
_cell_angle_gamma 90.000000
_cell_volume 1399.238707
_symmetry_space_group_name_H-M "C C"
_symmetry_group_IT_number 9
_symmetry_cell_setting 'monoclinic'
loop_
_space_group_symop_operation_xyz
x,y,z
x,-y,1/2+z
1/2+x,1/2+y,z
1/2+x,1/2-y,1/2+z
loop_
_atom_site_type_symbol
_atom_site_label
_atom_site_fract_x
_atom_site_fract_y
_atom_site_fract_z
Si Si1 0.076680 0.848678 0.113330
Si Si2 0.437103 0.955352 0.511185
Si Si3 0.296701 0.677094 0.180982
Si Si4 0.257658 0.944632 0.070688
Si Si5 0.770180 0.944905 0.914366
Si Si6 0.554628 0.268567 0.612752
Si Si7 0.480764 0.545334 0.459587
Si Si8 0.304563 0.823858 0.560934
O O1 0.907056 0.822736 0.378774
O O2 0.044441 0.904811 0.017179
O O3 0.159531 0.880135 0.176659
O O4 0.204698 0.807270 0.854983
O O5 0.393518 0.937868 0.757643
O O6 0.359518 0.896800 0.502968
O O7 0.354097 0.024105 0.602815
O O8 0.612609 0.959853 0.217696
O O9 0.239949 0.607962 0.309297
O O10 0.414491 0.697396 0.187071
O O11 0.153536 0.726048 0.357019
O O12 0.118457 0.997665 0.223853
O O13 0.848888 0.003866 0.721472
O O14 0.899583 0.924443 0.895794
O O15 0.681818 0.309755 0.559647
O O16 0.461205 0.219118 0.849837
#
# Coordination Sequence:
#
# PCOD9136415 Si02
#       8
#     4   4   4   4   4   4   4   4
#     4  11  23  38  64  93 121 156 202 247 301 368
#     4  11  23  36  58  89 126 155 196 243 292 357
#     4  11  23  40  65  88 120 156 208 254 305 356
#     4  11  20  37  59  87 122 157 193 233 293 368
#     4  12  22  38  59  90 125 161 197 245 301 357
#     4  10  23  42  65  85 113 164 204 260 305 346
#     4  12  21  38  62  91 123 162 197 236 298 375
#     4  10  21  41  62  87 116 155 205 248 305 353
#
# _framework density 22.869579000000002
#
# number of rings (size 3 to 8) (size 9 to 14) (size 15 to 20)
#    0.000    1.000    6.250    1.500    0.000    1.000 
#    0.000    0.000   11.000    0.000    0.000    0.000 
#    0.000    0.000    0.000    0.000    0.000    0.000 
#
# Total GULP energy -89300.785917 kJ/mol
# GULP energy per Si atom -5581.299120 kJ/mol
# Density = 2.281753 g / cm^3
# Si number density = 22.869579 Si / 1000 Ang^3
#
#
#
# Elastic Constant Matrix: (Units=GPa)
#
#
# Indices 1 2 3 4 5 6 
#
# 1 21.7111 0.6238 -17.3449 0.0000 -6.7760 0.0000
# 2 0.6238 36.2293 24.0814 0.0000 3.0486 0.0000
# 3 -17.3449 24.0814 169.3242 0.0000 -4.0128 0.0000
# 4 0.0000 0.0000 0.0000 35.8158 0.0000 -1.7777
# 5 -6.7760 3.0486 -4.0128 0.0000 26.5639 0.0000
# 6 0.0000 0.0000 0.0000 -1.7777 0.0000 2.0967
#
#
#
# Elastic Compliance Matrix: (Units=1/GPa)
#
#
# Indices 1 2 3 4 5 6 
#
# 1 0.057243 -0.007217 0.007282 0.000000 0.016530 0.000000
# 2 -0.007217 0.031860 -0.005420 0.000000 -0.006316 0.000000
# 3 0.007282 -0.005420 0.007508 0.000000 0.003614 0.000000
# 4 0.000000 0.000000 0.000000 0.029147 0.000000 0.024713
# 5 0.016530 -0.006316 0.003614 0.000000 0.043132 0.000000
# 6 0.000000 0.000000 0.000000 0.024713 0.000000 0.497883
#
#
# Mechanical properties :
#
#
# Convention : Reuss Voigt Hill
#
# Bulk Modulus (GPa) = 11.64116 26.88722 19.26419
# Shear Modulus (GPa) = 7.08096 27.55557 17.31827
#
# Velocity S-wave (km/s) = 1.76152 3.47493 2.75482
# Velocity P-wave (km/s) = 3.03950 5.28039 4.30819
#
# Compressibility (1/GPa) = 0.08590209
#
# Stress axis : x y z
#
# Youngs Moduli (GPa) = 17.46927 31.38684 133.18655
#
# Poissons Ratio (x) = 0.22651 -0.96985
# Poissons Ratio (y) = 0.12607 0.72189
# Poissons Ratio (z) = -0.12721 0.17012
#
# Static dielectric constant tensor:
#      x y z
#    x 1.900310 0.000000 -0.008930 
#    y 0.000000 1.879070 0.000000 
#    z -0.008930 0.000000 1.849390 
# 
# From -- ./inp_files/6148.got.cif
#   From: 2010.05.17/outbox.cif.g08.bks.cpg/sg9_4_cif.got.tgz:6148.got - 2010.06.03 20:04:27.
