data_PCOD9136686
_publ_section_title
;
Structure prediction by ZEFSAII (Michael W. Deem and Ramdas Pophale) SiO2 
 PCOD9136686
Probable space group: C C
;
_chemical_formula_sum "Si O2"
_cell_formula_units_Z 32
_cell_length_a 19.605398
_cell_length_b 5.262668
_cell_length_c 16.950464
_cell_angle_alpha 90.000000
_cell_angle_beta 43.621290
_cell_angle_gamma 90.000000
_cell_volume 1206.541282
_symmetry_space_group_name_H-M "C C"
_symmetry_group_IT_number 9
_symmetry_cell_setting 'monoclinic'
loop_
_space_group_symop_operation_xyz
x,y,z
x,-y,1/2+z
1/2+x,1/2+y,z
1/2+x,1/2-y,1/2+z
loop_
_atom_site_type_symbol
_atom_site_label
_atom_site_fract_x
_atom_site_fract_y
_atom_site_fract_z
Si Si1 0.000000 0.602230 0.254570
Si Si2 0.510011 0.120660 0.492039
Si Si3 0.861618 0.092131 0.216863
Si Si4 0.687191 0.668776 0.955228
Si Si5 0.047671 0.224892 0.559880
Si Si6 0.283416 0.699428 0.635164
Si Si7 0.606772 0.373649 0.696386
Si Si8 0.873109 0.705757 0.484302
O O1 0.017360 0.324647 0.275863
O O2 0.020693 0.559989 0.145014
O O3 0.893041 0.690445 0.374513
O O4 0.076058 0.833953 0.210492
O O5 0.406976 0.195611 0.621128
O O6 0.606177 0.229880 0.456962
O O7 0.484688 0.229197 0.428068
O O8 0.522446 0.820572 0.494218
O O9 0.789413 0.217196 0.340073
O O10 0.964976 0.973032 0.158947
O O11 0.809400 0.885494 0.202767
O O12 0.658995 0.370246 0.971274
O O13 0.667221 0.705304 0.065326
O O14 0.172600 0.797958 0.715969
O O15 0.307185 0.441625 0.566117
O O16 0.338676 0.935991 0.547558
#
# Coordination Sequence:
#
# PCOD9136686 Si02
#       8
#     4   4   4   4   4   4   4   4
#     4  11  24  43  69  96 132 180 224 277 350 405
#     4  10  21  43  63  93 134 169 231 282 328 415
#     4  10  23  41  66  99 132 180 225 285 346 407
#     4  10  23  41  66  96 132 178 226 283 349 401
#     4  10  21  43  67  94 137 175 232 288 333 422
#     4  11  24  44  64  98 139 169 226 281 335 414
#     4  11  24  44  64  99 137 170 227 285 335 419
#     4  11  24  43  67  95 131 181 219 277 344 401
#
# _framework density 26.522093000000002
#
# number of rings (size 3 to 8) (size 9 to 14) (size 15 to 20)
#    0.000    1.500    2.500    1.500    3.500    2.000 
#    0.000    0.000    0.000    0.000    0.000    0.000 
#    0.000    0.000    0.000    0.000    0.000    0.000 
#
# Total GULP energy -89232.302291 kJ/mol
# GULP energy per Si atom -5577.018893 kJ/mol
# Density = 2.646173 g / cm^3
# Si number density = 26.522093 Si / 1000 Ang^3
#
#
#
# Elastic Constant Matrix: (Units=GPa)
#
#
# Indices 1 2 3 4 5 6 
#
# 1 66.0063 20.0812 5.8015 0.0317 -9.2727 0.0209
# 2 20.0812 93.0336 9.6102 -0.0020 5.7851 0.0547
# 3 5.8015 9.6102 94.1786 0.0027 17.2840 0.0275
# 4 0.0317 -0.0020 0.0027 25.3905 -0.0104 -2.3373
# 5 -9.2727 5.7851 17.2840 -0.0104 27.5140 0.0017
# 6 0.0209 0.0547 0.0275 -2.3373 0.0017 42.6623
#
#
#
# Elastic Compliance Matrix: (Units=1/GPa)
#
#
# Indices 1 2 3 4 5 6 
#
# 1 0.017749 -0.004117 -0.002181 -0.000019 0.008217 -0.000003
# 2 -0.004117 0.011897 -0.000279 0.000003 -0.003714 -0.000013
# 3 -0.002181 -0.000279 0.012326 -0.000003 -0.008420 -0.000006
# 4 -0.000019 0.000003 -0.000003 0.039584 0.000009 0.002169
# 5 0.008217 -0.003714 -0.008420 0.000009 0.045185 0.000005
# 6 -0.000003 -0.000013 -0.000006 0.002169 0.000005 0.023559
#
#
# Mechanical properties :
#
#
# Convention : Reuss Voigt Hill
#
# Bulk Modulus (GPa) = 34.70039 36.02271 35.36155
# Shear Modulus (GPa) = 28.89179 33.62839 31.26009
#
# Velocity S-wave (km/s) = 3.30411 3.56468 3.43686
# Velocity P-wave (km/s) = 5.26005 5.52758 5.39548
#
# Compressibility (1/GPa) = 0.02881812
#
# Stress axis : x y z
#
# Youngs Moduli (GPa) = 56.34238 84.05393 81.12817
#
# Poissons Ratio (x) = 0.34602 0.17697
# Poissons Ratio (y) = 0.23194 0.02262
# Poissons Ratio (z) = 0.12290 0.02344
#
# Static dielectric constant tensor:
#      x y z
#    x 2.299120 -0.000090 0.031410 
#    y -0.000090 2.264490 -0.000030 
#    z 0.031410 -0.000030 2.044090 
# 
# From -- ./inp_files/19845.got.cif
#   From: 2010.05.17/outbox.cif.g08.bks.cpg/sg9_10_cif.got.tgz:19845.got - 2010.06.03 20:04:27.
