data_PCOD9136121
_publ_section_title
;
Structure prediction by ZEFSAII (Michael W. Deem and Ramdas Pophale) SiO2 
 PCOD9136121
Probable space group: C C
;
_chemical_formula_sum "Si O2"
_cell_formula_units_Z 32
_cell_length_a 9.157709
_cell_length_b 29.503161
_cell_length_c 4.877140
_cell_angle_alpha 90.000000
_cell_angle_beta 77.315078
_cell_angle_gamma 90.000000
_cell_volume 1285.550091
_symmetry_space_group_name_H-M "C C"
_symmetry_group_IT_number 9
_symmetry_cell_setting 'monoclinic'
loop_
_space_group_symop_operation_xyz
x,y,z
x,-y,1/2+z
1/2+x,1/2+y,z
1/2+x,1/2-y,1/2+z
loop_
_atom_site_type_symbol
_atom_site_label
_atom_site_fract_x
_atom_site_fract_y
_atom_site_fract_z
Si Si1 0.926200 0.837849 0.878150
Si Si2 0.490022 0.280557 0.342990
Si Si3 0.070982 0.967814 0.450519
Si Si4 0.577996 0.846126 0.101136
Si Si5 0.489742 0.898784 0.632604
Si Si6 0.231228 0.528592 0.014239
Si Si7 0.684808 0.609225 0.526796
Si Si8 0.808897 0.293374 0.179920
O O1 0.939211 0.822688 0.557666
O O2 0.033519 0.879413 0.919791
O O3 0.989432 0.795954 0.029843
O O4 0.755426 0.842614 0.043432
O O5 0.661119 0.269677 0.363291
O O6 0.371110 0.240876 0.428313
O O7 0.896805 0.953028 0.503418
O O8 0.094783 0.988396 0.741139
O O9 0.160061 0.926682 0.277886
O O10 0.521732 0.888141 0.304788
O O11 0.466580 0.806769 0.256011
O O12 0.541877 0.856330 0.798333
O O13 0.598782 0.939469 0.662249
O O14 0.318279 0.906779 0.775163
O O15 0.221841 0.516772 0.699152
O O16 0.742423 0.657609 0.621758
#
# Coordination Sequence:
#
# PCOD9136121 Si02
#       8
#     4   4   4   4   4   4   4   4
#     4  11  24  42  67  95 128 172 216 268 323 394
#     4  11  24  42  64  93 128 169 217 266 329 386
#     4  10  23  41  64  93 128 172 221 276 331 392
#     4  11  23  40  63  91 124 166 215 260 318 380
#     4  11  23  39  62  92 126 164 209 265 320 388
#     4  10  21  39  62  90 124 164 212 267 331 391
#     4  10  24  43  66  98 136 174 222 273 334 395
#     4  10  24  44  66  96 134 175 220 275 328 396
#
# _framework density 24.892067999999998
#
# number of rings (size 3 to 8) (size 9 to 14) (size 15 to 20)
#    0.000    1.500    0.000    3.750    0.000   15.000 
#    0.000    0.000    0.000    0.000    0.000    0.000 
#    0.000    0.000    0.000    0.000    0.000    0.000 
#
# Total GULP energy -89452.785143 kJ/mol
# GULP energy per Si atom -5590.799071 kJ/mol
# Density = 2.483541 g / cm^3
# Si number density = 24.892068 Si / 1000 Ang^3
#
#
#
# Elastic Constant Matrix: (Units=GPa)
#
#
# Indices 1 2 3 4 5 6 
#
# 1 147.6450 38.6316 44.9251 0.0000 -48.3322 0.0000
# 2 38.6316 57.1852 9.8100 0.0000 -20.0934 0.0000
# 3 44.9251 9.8100 93.3450 0.0000 -17.1378 0.0000
# 4 0.0000 0.0000 0.0000 45.1033 0.0000 -15.2924
# 5 -48.3322 -20.0934 -17.1378 0.0000 55.8375 0.0000
# 6 0.0000 0.0000 0.0000 -15.2924 0.0000 35.5252
#
#
#
# Elastic Compliance Matrix: (Units=1/GPa)
#
#
# Indices 1 2 3 4 5 6 
#
# 1 0.011428 -0.004588 -0.003714 0.000000 0.007101 0.000000
# 2 -0.004588 0.021921 0.000661 0.000000 0.004120 0.000000
# 3 -0.003714 0.000661 0.012594 0.000000 0.000888 0.000000
# 4 0.000000 0.000000 0.000000 0.025960 0.000000 0.011175
# 5 0.007101 0.004120 0.000888 0.000000 0.025811 0.000000
# 6 0.000000 0.000000 0.000000 0.011175 0.000000 0.032960
#
#
# Mechanical properties :
#
#
# Convention : Reuss Voigt Hill
#
# Bulk Modulus (GPa) = 32.61580 53.87873 43.24726
# Shear Modulus (GPa) = 32.01501 40.94710 36.48105
#
# Velocity S-wave (km/s) = 3.59019 4.06024 3.83243
# Velocity P-wave (km/s) = 5.50611 6.60853 6.08235
#
# Compressibility (1/GPa) = 0.03065999
#
# Stress axis : x y z
#
# Youngs Moduli (GPa) = 87.50278 45.61899 79.40184
#
# Poissons Ratio (x) = 0.20930 0.29492
# Poissons Ratio (y) = 0.40147 -0.05246
# Poissons Ratio (z) = 0.32501 -0.03014
#
# Static dielectric constant tensor:
#      x y z
#    x 2.022910 0.000000 0.017350 
#    y 0.000000 2.032980 0.000000 
#    z 0.017350 0.000000 1.913870 
# 
# From -- ./inp_files/1240.got.cif
#   From: 2010.05.17/outbox.cif.g08.bks.cpg/sg9_1_cif.got.tgz:1240.got - 2010.06.03 20:04:27.
