data_PCOD9136200
_publ_section_title
;
Structure prediction by ZEFSAII (Michael W. Deem and Ramdas Pophale) SiO2 
 PCOD9136200
Probable space group: C C
;
_chemical_formula_sum "Si O2"
_cell_formula_units_Z 32
_cell_length_a 24.262624
_cell_length_b 8.580786
_cell_length_c 14.279723
_cell_angle_alpha 90.000000
_cell_angle_beta 24.459151
_cell_angle_gamma 90.000000
_cell_volume 1230.924787
_symmetry_space_group_name_H-M "C C"
_symmetry_group_IT_number 9
_symmetry_cell_setting 'monoclinic'
loop_
_space_group_symop_operation_xyz
x,y,z
x,-y,1/2+z
1/2+x,1/2+y,z
1/2+x,1/2-y,1/2+z
loop_
_atom_site_type_symbol
_atom_site_label
_atom_site_fract_x
_atom_site_fract_y
_atom_site_fract_z
Si Si1 0.130570 0.628999 0.876700
Si Si2 0.232996 0.405389 0.422688
Si Si3 0.301648 0.201719 0.579193
Si Si4 0.210537 0.965608 0.929548
Si Si5 0.768910 0.374519 0.527120
Si Si6 0.539663 0.195892 0.518806
Si Si7 0.447584 0.605727 0.724038
Si Si8 0.496020 0.091989 0.415884
O O1 0.207447 0.571973 0.850947
O O2 0.205713 0.743337 0.690692
O O3 0.063150 0.478723 0.933344
O O4 0.006449 0.727805 0.104428
O O5 0.225554 0.214731 0.441071
O O6 0.376035 0.460331 0.242321
O O7 0.122772 0.482054 0.661802
O O8 0.322800 0.355112 0.482984
O O9 0.442713 0.184110 0.405386
O O10 0.268780 0.040879 0.578541
O O11 0.178736 0.241683 0.836372
O O12 0.074315 0.972185 0.078290
O O13 0.206264 0.086417 0.022729
O O14 0.351893 0.000281 0.658173
O O15 0.920338 0.319972 0.272814
O O16 0.507771 0.250758 0.464704
#
# Coordination Sequence:
#
# PCOD9136200 Si02
#       8
#     4   4   4   4   4   4   4   4
#     4  11  24  44  71 105 148 190 241 304 366 436
#     4  11  20  42  70 101 140 193 242 289 366 436
#     4  12  21  42  74  97 139 189 238 296 364 430
#     4  10  21  39  68 101 146 186 243 296 358 439
#     4  11  23  47  70 102 146 193 235 301 371 433
#     4  11  24  46  70 104 145 188 246 299 362 439
#     4  11  20  40  71 103 136 188 238 294 359 429
#     4  11  21  40  70  97 140 191 231 295 364 426
#
# _framework density 25.996714999999998
#
# number of rings (size 3 to 8) (size 9 to 14) (size 15 to 20)
#    0.000    1.000    6.250    2.250    0.000    0.000 
#    6.750    7.500    0.000    0.000    0.000    0.000 
#    0.000    0.000    0.000    0.000    0.000    0.000 
#
# Total GULP energy -89229.421040 kJ/mol
# GULP energy per Si atom -5576.838815 kJ/mol
# Density = 2.593754 g / cm^3
# Si number density = 25.996715 Si / 1000 Ang^3
#
#
#
# Elastic Constant Matrix: (Units=GPa)
#
#
# Indices 1 2 3 4 5 6 
#
# 1 145.9407 32.5011 62.8085 0.0000 -24.1761 0.0000
# 2 32.5011 68.0235 53.8494 0.0000 7.0180 0.0000
# 3 62.8085 53.8494 159.6854 0.0000 -8.0080 0.0000
# 4 0.0000 0.0000 0.0000 31.8452 0.0000 19.2531
# 5 -24.1761 7.0180 -8.0080 0.0000 58.2870 0.0000
# 6 0.0000 0.0000 0.0000 19.2531 0.0000 7.7070
#
#
#
# Elastic Compliance Matrix: (Units=1/GPa)
#
#
# Indices 1 2 3 4 5 6 
#
# 1 0.009172 -0.002824 -0.002464 0.000000 0.003806 0.000000
# 2 -0.002824 0.021602 -0.006407 0.000000 -0.004653 0.000000
# 3 -0.002464 -0.006407 0.009445 0.000000 0.001047 0.000000
# 4 0.000000 0.000000 0.000000 -0.061533 0.000000 0.153717
# 5 0.003806 -0.004653 0.001047 0.000000 0.019439 0.000000
# 6 0.000000 0.000000 0.000000 0.153717 0.000000 -0.254252
#
#
# Mechanical properties :
#
#
# Convention : Reuss Voigt Hill
#
# Bulk Modulus (GPa) = 59.42611 74.66306 67.04458
# Shear Modulus (GPa) = -22.01429 34.53389 6.25980
#
# Velocity S-wave (km/s) = -2.91316 3.64867 1.55343
# Velocity P-wave (km/s) = 3.40491 6.82150 5.39103
#
# Compressibility (1/GPa) = 0.01682762
#
# Stress axis : x y z
#
# Youngs Moduli (GPa) = 109.02627 46.29120 105.87805
#
# Poissons Ratio (x) = 0.13073 0.26093
# Poissons Ratio (y) = 0.30790 0.67840
# Poissons Ratio (z) = 0.26869 0.29660
#
# Static dielectric constant tensor:
#      x y z
#    x 2.193340 0.000000 0.007790 
#    y 0.000000 2.182510 0.000000 
#    z 0.007790 0.000000 1.997890 
# 
# From -- ./inp_files/31851.got.cif
#   From: 2010.05.17/outbox.cif.g08.bks.cpg/sg9_16_cif.got.tgz:31851.got - 2010.06.03 20:04:27.
