data_PCOD9136563
_publ_section_title
;
Structure prediction by ZEFSAII (Michael W. Deem and Ramdas Pophale) SiO2 
 PCOD9136563
Probable space group: C C
;
_chemical_formula_sum "Si O2"
_cell_formula_units_Z 20
_cell_length_a 6.804819
_cell_length_b 13.547338
_cell_length_c 10.238918
_cell_angle_alpha 90.000000
_cell_angle_beta 127.918511
_cell_angle_gamma 90.000000
_cell_volume 744.626740
_symmetry_space_group_name_H-M "C C"
_symmetry_group_IT_number 9
_symmetry_cell_setting 'monoclinic'
loop_
_space_group_symop_operation_xyz
x,y,z
x,-y,1/2+z
1/2+x,1/2+y,z
1/2+x,1/2-y,1/2+z
loop_
_atom_site_type_symbol
_atom_site_label
_atom_site_fract_x
_atom_site_fract_y
_atom_site_fract_z
Si Si1 0.278650 0.438004 0.235400
Si Si2 0.572565 0.284584 0.217012
Si Si3 0.822087 0.450444 0.441140
Si Si4 0.793586 0.368354 0.777318
Si Si5 0.405226 0.779885 0.106893
O O1 0.363862 0.371501 0.143242
O O2 0.548812 0.475503 0.394894
O O3 0.125672 0.353538 0.248985
O O4 0.075472 0.519503 0.115673
O O5 0.781809 0.336120 0.394865
O O6 0.471276 0.188808 0.249859
O O7 0.696524 0.276164 0.129202
O O8 0.822113 0.515441 0.307727
O O9 0.522347 0.327388 0.630856
O O10 0.828899 0.329102 0.939889
#
# Coordination Sequence:
#
# PCOD9136563 Si02
#       5
#     4   4   4   4   4
#     4   8  19  40  61  95 138 175 232 280 340 425
#     4   9  21  42  65 101 145 177 229 304 332 430
#     4   9  19  42  66  94 138 186 219 293 345 411
#     4  10  22  42  66 101 140 180 236 286 353 419
#     4  10  21  42  64 101 141 182 230 295 346 421
#
# _framework density 26.859096000000001
#
# number of rings (size 3 to 8) (size 9 to 14) (size 15 to 20)
#    1.200    1.600    0.000    0.000    0.000    6.400 
#   18.000    0.000    0.000    0.000    0.000    0.000 
#    0.000    0.000    0.000    0.000    0.000    0.000 
#
# Total GULP energy -55845.394316 kJ/mol
# GULP energy per Si atom -5584.539432 kJ/mol
# Density = 2.679796 g / cm^3
# Si number density = 26.859096 Si / 1000 Ang^3
#
#
#
# Elastic Constant Matrix: (Units=GPa)
#
#
# Indices 1 2 3 4 5 6 
#
# 1 227.8467 76.4479 64.6028 0.0000 1.5128 0.0000
# 2 76.4479 90.4245 10.4349 0.0000 7.2680 0.0000
# 3 64.6028 10.4349 96.8481 0.0000 17.3593 0.0000
# 4 0.0000 0.0000 0.0000 44.9138 0.0000 3.1705
# 5 1.5128 7.2680 17.3593 0.0000 50.7228 0.0000
# 6 0.0000 0.0000 0.0000 3.1705 0.0000 31.6112
#
#
#
# Elastic Compliance Matrix: (Units=1/GPa)
#
#
# Indices 1 2 3 4 5 6 
#
# 1 0.007913 -0.006301 -0.005027 0.000000 0.002387 0.000000
# 2 -0.006301 0.016294 0.003018 0.000000 -0.003180 0.000000
# 3 -0.005027 0.003018 0.014280 0.000000 -0.005170 0.000000
# 4 0.000000 0.000000 0.000000 0.022424 0.000000 -0.002249
# 5 0.002387 -0.003180 -0.005170 0.000000 0.021869 0.000000
# 6 0.000000 0.000000 0.000000 -0.002249 0.000000 0.031860
#
#
# Mechanical properties :
#
#
# Convention : Reuss Voigt Hill
#
# Bulk Modulus (GPa) = 45.73515 79.78782 62.76148
# Shear Modulus (GPa) = 36.08827 43.02515 39.55671
#
# Velocity S-wave (km/s) = 3.66951 4.00670 3.84180
# Velocity P-wave (km/s) = 5.91764 7.15370 6.56483
#
# Compressibility (1/GPa) = 0.02186502
#
# Stress axis : x y z
#
# Youngs Moduli (GPa) = 126.37838 61.37327 70.02631
#
# Poissons Ratio (x) = 0.38674 0.35204
# Poissons Ratio (y) = 0.79637 -0.21132
# Poissons Ratio (z) = 0.63533 -0.18521
#
# Static dielectric constant tensor:
#      x y z
#    x 2.075040 0.000000 0.067120 
#    y 0.000000 2.172290 0.000000 
#    z 0.067120 0.000000 2.224780 
# 
# From -- ./inp_files/3672.got.cif
#   From: 2010.05.17/outbox.cif.g08.bks.cpg/sg9_2_cif.got.tgz:3672.got - 2010.06.03 20:04:27.
