data_PCOD9136076
_publ_section_title
;
Structure prediction by ZEFSAII (Michael W. Deem and Ramdas Pophale) SiO2 
 PCOD9136076
Probable space group: C C
;
_chemical_formula_sum "Si O2"
_cell_formula_units_Z 32
_cell_length_a 8.877446
_cell_length_b 19.650866
_cell_length_c 14.200974
_cell_angle_alpha 90.000000
_cell_angle_beta 32.508675
_cell_angle_gamma 90.000000
_cell_volume 1331.397042
_symmetry_space_group_name_H-M "C C"
_symmetry_group_IT_number 9
_symmetry_cell_setting 'monoclinic'
loop_
_space_group_symop_operation_xyz
x,y,z
x,-y,1/2+z
1/2+x,1/2+y,z
1/2+x,1/2-y,1/2+z
loop_
_atom_site_type_symbol
_atom_site_label
_atom_site_fract_x
_atom_site_fract_y
_atom_site_fract_z
Si Si1 0.153950 0.944307 0.865350
Si Si2 0.719399 0.847647 0.996987
Si Si3 0.276673 0.199109 0.589145
Si Si4 0.639459 0.234604 0.727427
Si Si5 0.603674 0.847025 0.732097
Si Si6 0.913022 0.968131 0.664017
Si Si7 0.908153 0.525888 0.052626
Si Si8 0.625091 0.174795 0.933681
O O1 0.380369 0.888142 0.783766
O O2 0.304369 0.995802 0.711826
O O3 0.905523 0.910627 0.934006
O O4 0.013100 0.978496 0.031146
O O5 0.934015 0.798306 0.828189
O O6 0.448455 0.845183 0.074943
O O7 0.639869 0.809732 0.134997
O O8 0.416957 0.179643 0.417017
O O9 0.268671 0.281076 0.606337
O O10 0.954468 0.179135 0.768923
O O11 0.558061 0.190270 0.859824
O O12 0.946172 0.267705 0.581242
O O13 0.829906 0.900229 0.652362
O O14 0.157020 0.964704 0.611654
O O15 0.642420 0.986808 0.869709
O O16 0.028661 0.600437 0.009570
#
# Coordination Sequence:
#
# PCOD9136076 Si02
#       8
#     4   4   4   4   4   4   4   4
#     4  12  27  54  83 114 161 215 273 331 405 481
#     4  11  22  42  71 113 152 205 255 321 397 476
#     4  12  26  45  77 116 165 200 260 334 407 479
#     4  10  21  38  68 107 155 198 251 314 399 465
#     4  12  28  52  75 121 160 210 268 335 403 486
#     4  12  29  56  79 118 161 209 279 337 396 484
#     4  12  28  51  83 112 152 214 268 337 402 470
#     4  11  23  44  72 109 152 203 252 327 391 485
#
# _framework density 24.034904000000001
#
# number of rings (size 3 to 8) (size 9 to 14) (size 15 to 20)
#    0.000    0.500    2.500    6.000    7.000    0.000 
#    4.500    0.000    0.000    0.000    0.000    0.000 
#    0.000    0.000    0.000    0.000    0.000    0.000 
#
# Total GULP energy -89611.113652 kJ/mol
# GULP energy per Si atom -5600.694603 kJ/mol
# Density = 2.398020 g / cm^3
# Si number density = 24.034904 Si / 1000 Ang^3
#
#
#
# Elastic Constant Matrix: (Units=GPa)
#
#
# Indices 1 2 3 4 5 6 
#
# 1 92.3536 45.2238 37.5295 -0.0735 -3.4353 -0.0069
# 2 45.2238 77.6104 34.8720 0.0048 13.8055 0.0003
# 3 37.5295 34.8720 97.5055 -0.0343 16.2614 0.0255
# 4 -0.0735 0.0048 -0.0343 40.6673 -0.0206 6.9934
# 5 -3.4353 13.8055 16.2614 -0.0206 37.1866 0.0033
# 6 -0.0069 0.0003 0.0255 6.9934 0.0033 32.5930
#
#
#
# Elastic Compliance Matrix: (Units=1/GPa)
#
#
# Indices 1 2 3 4 5 6 
#
# 1 0.017586 -0.009461 -0.004575 0.000033 0.007138 0.000000
# 2 -0.009461 0.020891 -0.002579 -0.000027 -0.007502 0.000006
# 3 -0.004575 -0.002579 0.013861 0.000003 -0.005527 -0.000012
# 4 0.000033 -0.000027 0.000003 0.025532 0.000026 -0.005478
# 5 0.007138 -0.007502 -0.005527 0.000026 0.032753 -0.000003
# 6 0.000000 0.000006 -0.000012 -0.005478 -0.000003 0.031857
#
#
# Mechanical properties :
#
#
# Convention : Reuss Voigt Hill
#
# Bulk Modulus (GPa) = 52.33673 55.85779 54.09726
# Shear Modulus (GPa) = 27.46065 32.07902 29.76983
#
# Velocity S-wave (km/s) = 3.38380 3.65730 3.52320
# Velocity P-wave (km/s) = 6.09011 6.41289 6.25358
#
# Compressibility (1/GPa) = 0.01910704
#
# Stress axis : x y z
#
# Youngs Moduli (GPa) = 56.86447 47.86729 72.14562
#
# Poissons Ratio (x) = 0.45288 0.33009
# Poissons Ratio (y) = 0.53800 0.18605
# Poissons Ratio (z) = 0.26018 0.12344
#
# Static dielectric constant tensor:
#      x y z
#    x 1.915550 0.000010 -0.002090 
#    y 0.000010 1.932740 0.000010 
#    z -0.002090 0.000010 1.936230 
# 
# From -- ./inp_files/23793.got.cif
#   From: 2010.05.17/outbox.cif.g08.bks.cpg/sg9_12_cif.got.tgz:23793.got - 2010.06.03 20:04:27.
