data_PCOD9136162
_publ_section_title
;
Structure prediction by ZEFSAII (Michael W. Deem and Ramdas Pophale) SiO2 
 PCOD9136162
Probable space group: C C
;
_chemical_formula_sum "Si O2"
_cell_formula_units_Z 28
_cell_length_a 7.594593
_cell_length_b 28.656549
_cell_length_c 5.009970
_cell_angle_alpha 90.000000
_cell_angle_beta 91.435097
_cell_angle_gamma 90.000000
_cell_volume 1090.001950
_symmetry_space_group_name_H-M "C C"
_symmetry_group_IT_number 9
_symmetry_cell_setting 'monoclinic'
loop_
_space_group_symop_operation_xyz
x,y,z
x,-y,1/2+z
1/2+x,1/2+y,z
1/2+x,1/2-y,1/2+z
loop_
_atom_site_type_symbol
_atom_site_label
_atom_site_fract_x
_atom_site_fract_y
_atom_site_fract_z
Si Si1 0.754970 0.695964 0.018390
Si Si2 0.601502 0.786732 0.254136
Si Si3 0.450525 0.336170 0.204463
Si Si4 0.363164 0.030416 0.561221
Si Si5 0.829885 0.883901 0.684829
Si Si6 0.462126 0.868744 0.858888
Si Si7 0.937900 0.026933 0.521517
O O1 0.635507 0.736026 0.137468
O O2 0.793248 0.650197 0.194896
O O3 0.647404 0.681395 0.752007
O O4 0.949342 0.716124 0.968141
O O5 0.799140 0.803358 0.326954
O O6 0.528316 0.826926 0.052579
O O7 0.425968 0.380174 0.404968
O O8 0.402380 0.345337 0.897899
O O9 0.430046 0.082611 0.508056
O O10 0.150081 0.032458 0.533633
O O11 0.418305 0.007300 0.840459
O O12 0.620351 0.877185 0.654587
O O13 0.860426 0.929559 0.862366
O O14 0.886733 0.015583 0.821251
#
# Coordination Sequence:
#
# PCOD9136162 Si02
#       7
#     4   4   4   4   4   4   4
#     4  12  27  47  78 104 156 202 257 320 388 456
#     4  11  28  47  73 111 151 200 263 314 386 463
#     4  11  26  45  72 102 146 192 248 304 374 449
#     4  10  24  42  71 107 146 194 253 310 378 453
#     4  11  24  45  68 106 143 191 250 305 372 458
#     4  11  26  45  74 109 154 200 256 315 384 455
#     4  10  21  39  64  99 140 185 241 306 376 442
#
# _framework density 25.688025
#
# number of rings (size 3 to 8) (size 9 to 14) (size 15 to 20)
#    0.000    1.143    1.429    2.571   10.000    4.571 
#    0.000    0.000    0.000    0.000    0.000    0.000 
#    0.000    0.000    0.000    0.000    0.000    0.000 
#
# Total GULP energy -78397.974031 kJ/mol
# GULP energy per Si atom -5599.855288 kJ/mol
# Density = 2.562956 g / cm^3
# Si number density = 25.688025 Si / 1000 Ang^3
#
#
#
# Elastic Constant Matrix: (Units=GPa)
#
#
# Indices 1 2 3 4 5 6 
#
# 1 108.1319 22.4307 14.6358 0.0000 4.1896 0.0000
# 2 22.4307 93.2555 -1.5150 0.0000 1.4287 0.0000
# 3 14.6358 -1.5150 76.9329 0.0000 4.6116 0.0000
# 4 0.0000 0.0000 0.0000 33.8468 0.0000 3.8138
# 5 4.1896 1.4287 4.6116 0.0000 35.0597 0.0000
# 6 0.0000 0.0000 0.0000 3.8138 0.0000 37.8029
#
#
#
# Elastic Compliance Matrix: (Units=1/GPa)
#
#
# Indices 1 2 3 4 5 6 
#
# 1 0.010044 -0.002434 -0.001908 0.000000 -0.000850 0.000000
# 2 -0.002434 0.011324 0.000702 0.000000 -0.000263 0.000000
# 3 -0.001908 0.000702 0.013469 0.000000 -0.001572 0.000000
# 4 0.000000 0.000000 0.000000 0.029885 0.000000 -0.003015
# 5 -0.000850 -0.000263 -0.001572 0.000000 0.028842 0.000000
# 6 0.000000 0.000000 0.000000 -0.003015 0.000000 0.026757
#
#
# Mechanical properties :
#
#
# Convention : Reuss Voigt Hill
#
# Bulk Modulus (GPa) = 36.28740 38.82480 37.55610
# Shear Modulus (GPa) = 36.55328 37.52647 37.03988
#
# Velocity S-wave (km/s) = 3.77632 3.82626 3.80137
# Velocity P-wave (km/s) = 5.75942 5.88788 5.82401
#
# Compressibility (1/GPa) = 0.02755778
#
# Stress axis : x y z
#
# Youngs Moduli (GPa) = 99.56204 88.30745 74.24271
#
# Poissons Ratio (x) = 0.21493 0.14164
# Poissons Ratio (y) = 0.24232 -0.05210
# Poissons Ratio (z) = 0.18994 -0.06197
#
# Static dielectric constant tensor:
#      x y z
#    x 1.996420 0.000000 -0.028400 
#    y 0.000000 2.130610 0.000000 
#    z -0.028400 0.000000 2.016810 
# 
# From -- ./inp_files/1056.got.cif
#   From: 2010.05.17/outbox.cif.g08.bks.cpg/sg9_1_cif.got.tgz:1056.got - 2010.06.03 20:04:27.
