data_PCOD9136754
_publ_section_title
;
Structure prediction by ZEFSAII (Michael W. Deem and Ramdas Pophale) SiO2 
 PCOD9136754
Probable space group: C C
;
_chemical_formula_sum "Si O2"
_cell_formula_units_Z 32
_cell_length_a 18.517758
_cell_length_b 8.939734
_cell_length_c 11.964240
_cell_angle_alpha 90.000000
_cell_angle_beta 139.344954
_cell_angle_gamma 90.000000
_cell_volume 1290.371572
_symmetry_space_group_name_H-M "C C"
_symmetry_group_IT_number 9
_symmetry_cell_setting 'monoclinic'
loop_
_space_group_symop_operation_xyz
x,y,z
x,-y,1/2+z
1/2+x,1/2+y,z
1/2+x,1/2-y,1/2+z
loop_
_atom_site_type_symbol
_atom_site_label
_atom_site_fract_x
_atom_site_fract_y
_atom_site_fract_z
Si Si1 0.811640 0.239530 0.259220
Si Si2 0.347683 0.312260 0.429223
Si Si3 0.445690 0.011397 0.056653
Si Si4 0.191816 0.452804 0.811061
Si Si5 0.506948 0.447247 0.023055
Si Si6 0.784720 0.770353 0.115398
Si Si7 0.007276 0.780057 0.255101
Si Si8 0.188972 0.009114 0.565169
O O1 0.863690 0.382357 0.387973
O O2 0.744478 0.139626 0.269847
O O3 0.913895 0.137307 0.337186
O O4 0.724592 0.322284 0.075514
O O5 0.275645 0.409477 0.429615
O O6 0.456563 0.401892 0.515925
O O7 0.270244 0.316351 0.226886
O O8 0.384682 0.145886 0.502947
O O9 0.566711 0.994326 0.141255
O O10 0.481641 0.103075 0.209575
O O11 0.198744 0.342339 0.927065
O O12 0.627911 0.464911 0.113024
O O13 0.507970 0.335673 0.128557
O O14 0.899838 0.825187 0.200613
O O15 0.789674 0.592076 0.138216
O O16 0.098549 0.889665 0.413872
#
# Coordination Sequence:
#
# PCOD9136754 Si02
#       8
#     4   4   4   4   4   4   4   4
#     4  10  21  43  70 107 148 198 239 310 377 456
#     4  11  24  42  70 103 150 189 253 311 369 453
#     4  11  22  42  70 104 139 199 242 304 374 452
#     4  11  24  46  74 105 157 197 244 318 391 437
#     4  10  23  44  72 100 154 194 241 311 378 446
#     4  12  23  43  73 111 146 194 252 311 372 456
#     4  11  23  45  75 104 148 193 244 306 387 446
#     4  12  24  41  78 110 142 202 253 303 380 460
#
# _framework density 24.799057000000001
#
# number of rings (size 3 to 8) (size 9 to 14) (size 15 to 20)
#    0.000    1.000    7.500    1.500    1.750    0.000 
#    0.000    6.250    0.000    0.000    0.000    0.000 
#    0.000    0.000    0.000    0.000    0.000    0.000 
#
# Total GULP energy -89068.262720 kJ/mol
# GULP energy per Si atom -5566.766420 kJ/mol
# Density = 2.474261 g / cm^3
# Si number density = 24.799057 Si / 1000 Ang^3
#
#
#
# Elastic Constant Matrix: (Units=GPa)
#
#
# Indices 1 2 3 4 5 6 
#
# 1 96.1850 42.6387 27.0848 0.0000 19.8085 0.0000
# 2 42.6387 190.6022 48.0403 0.0000 7.7840 0.0000
# 3 27.0848 48.0403 46.3708 0.0000 13.8693 0.0000
# 4 0.0000 0.0000 0.0000 200.0418 0.0000 -34.5355
# 5 19.8085 7.7840 13.8693 0.0000 28.4938 0.0000
# 6 0.0000 0.0000 0.0000 -34.5355 0.0000 39.1033
#
#
#
# Elastic Compliance Matrix: (Units=1/GPa)
#
#
# Indices 1 2 3 4 5 6 
#
# 1 0.013799 -0.001761 -0.004108 0.000000 -0.007112 0.000000
# 2 -0.001761 0.007416 -0.007508 0.000000 0.002853 0.000000
# 3 -0.004108 -0.007508 0.035434 0.000000 -0.012340 0.000000
# 4 0.000000 0.000000 0.000000 0.005898 0.000000 0.005209
# 5 -0.007112 0.002853 -0.012340 0.000000 0.045267 0.000000
# 6 0.000000 0.000000 0.000000 0.005209 0.000000 0.030174
#
#
# Mechanical properties :
#
#
# Convention : Reuss Voigt Hill
#
# Bulk Modulus (GPa) = 33.45058 63.18730 48.31894
# Shear Modulus (GPa) = 28.61924 67.88739 48.25332
#
# Velocity S-wave (km/s) = 3.40081 5.23779 4.41588
# Velocity P-wave (km/s) = 5.37946 7.88126 6.74733
#
# Compressibility (1/GPa) = 0.02989485
#
# Stress axis : x y z
#
# Youngs Moduli (GPa) = 72.47042 134.83784 28.22137
#
# Poissons Ratio (x) = 0.23744 0.11594
# Poissons Ratio (y) = 0.12762 0.21189
# Poissons Ratio (z) = 0.29772 1.01236
#
# Static dielectric constant tensor:
#      x y z
#    x 1.955480 0.000000 0.052130 
#    y 0.000000 2.041170 0.000000 
#    z 0.052130 0.000000 2.308300 
# 
# From -- ./inp_files/27304.got.cif
#   From: 2010.05.17/outbox.cif.g08.bks.cpg/sg9_14_cif.got.tgz:27304.got - 2010.06.03 20:04:27.
