data_PCOD9136807
_publ_section_title
;
Structure prediction by ZEFSAII (Michael W. Deem and Ramdas Pophale) SiO2 
 PCOD9136807
Probable space group: C C
;
_chemical_formula_sum "Si O2"
_cell_formula_units_Z 32
_cell_length_a 10.863368
_cell_length_b 7.627036
_cell_length_c 21.903418
_cell_angle_alpha 90.000000
_cell_angle_beta 136.083763
_cell_angle_gamma 90.000000
_cell_volume 1258.766042
_symmetry_space_group_name_H-M "C C"
_symmetry_group_IT_number 9
_symmetry_cell_setting 'monoclinic'
loop_
_space_group_symop_operation_xyz
x,y,z
x,-y,1/2+z
1/2+x,1/2+y,z
1/2+x,1/2-y,1/2+z
loop_
_atom_site_type_symbol
_atom_site_label
_atom_site_fract_x
_atom_site_fract_y
_atom_site_fract_z
Si Si1 0.875000 0.395144 0.840820
Si Si2 0.573043 0.153693 0.301389
Si Si3 0.347554 0.078960 0.580678
Si Si4 0.011165 0.053317 0.697152
Si Si5 0.247625 0.463778 0.250402
Si Si6 0.840268 0.261301 0.491527
Si Si7 0.717963 0.727288 0.655861
Si Si8 0.202456 0.432790 0.508761
O O1 0.671773 0.438563 0.780713
O O2 0.872181 0.191352 0.819491
O O3 0.962776 0.467197 0.808711
O O4 0.010158 0.473281 0.938612
O O5 0.454824 0.288445 0.220492
O O6 0.713922 0.273577 0.388662
O O7 0.684612 0.054065 0.290441
O O8 0.561972 0.104531 0.653180
O O9 0.310428 0.099446 0.640021
O O10 0.232296 0.228359 0.505002
O O11 0.298301 0.893417 0.532387
O O12 0.111000 0.133047 0.673174
O O13 0.836768 0.954890 0.613650
O O14 0.314584 0.616177 0.228185
O O15 0.802943 0.059317 0.496063
O O16 0.047081 0.291884 0.554512
#
# Coordination Sequence:
#
# PCOD9136807 Si02
#       8
#     4   4   4   4   4   4   4   4
#     4  11  23  42  65 100 134 183 225 284 358 401
#     4  10  23  43  65  97 142 177 232 289 337 420
#     4  11  21  43  69  98 136 178 233 282 343 414
#     4  10  21  44  66  94 137 176 230 290 339 409
#     4  10  22  42  66  98 134 182 235 283 345 414
#     4   9  22  43  62  99 139 178 221 288 345 406
#     4   9  21  39  69  95 128 182 226 279 352 400
#     4  10  23  42  64  99 134 172 234 279 335 418
#
# _framework density 25.421720000000001
#
# number of rings (size 3 to 8) (size 9 to 14) (size 15 to 20)
#    0.000    2.000    1.250    1.500    3.500    2.000 
#    9.000    2.500    0.000    0.000    0.000    0.000 
#    0.000    0.000    0.000    0.000    0.000    0.000 
#
# Total GULP energy -89234.415362 kJ/mol
# GULP energy per Si atom -5577.150960 kJ/mol
# Density = 2.536386 g / cm^3
# Si number density = 25.421720 Si / 1000 Ang^3
#
#
#
# Elastic Constant Matrix: (Units=GPa)
#
#
# Indices 1 2 3 4 5 6 
#
# 1 86.9368 25.1938 25.6177 0.0000 7.0521 0.0000
# 2 25.1938 79.6968 22.4784 0.0000 -2.1473 0.0000
# 3 25.6177 22.4784 120.0507 0.0000 26.5356 0.0000
# 4 0.0000 0.0000 0.0000 48.6368 0.0000 0.6688
# 5 7.0521 -2.1473 26.5356 0.0000 42.5957 0.0000
# 6 0.0000 0.0000 0.0000 0.6688 0.0000 40.1839
#
#
#
# Elastic Compliance Matrix: (Units=1/GPa)
#
#
# Indices 1 2 3 4 5 6 
#
# 1 0.013218 -0.003686 -0.001862 0.000000 -0.001214 0.000000
# 2 -0.003686 0.014521 -0.002585 0.000000 0.002953 0.000000
# 3 -0.001862 -0.002585 0.010636 0.000000 -0.006448 0.000000
# 4 0.000000 0.000000 0.000000 0.020565 0.000000 -0.000342
# 5 -0.001214 0.002953 -0.006448 0.000000 0.027843 0.000000
# 6 0.000000 0.000000 0.000000 -0.000342 0.000000 0.024891
#
#
# Mechanical properties :
#
#
# Convention : Reuss Voigt Hill
#
# Bulk Modulus (GPa) = 45.22924 48.14046 46.68485
# Shear Modulus (GPa) = 36.95162 40.50957 38.73060
#
# Velocity S-wave (km/s) = 3.81668 3.99620 3.90747
# Velocity P-wave (km/s) = 6.10351 6.34592 6.22590
#
# Compressibility (1/GPa) = 0.02210959
#
# Stress axis : x y z
#
# Youngs Moduli (GPa) = 75.65457 68.86357 94.01610
#
# Poissons Ratio (x) = 0.25383 0.17506
# Poissons Ratio (y) = 0.27886 0.24304
# Poissons Ratio (z) = 0.14087 0.17802
#
# Static dielectric constant tensor:
#      x y z
#    x 2.100070 0.000000 -0.011720 
#    y 0.000000 2.079190 0.000000 
#    z -0.011720 0.000000 2.079580 
# 
# From -- ./inp_files/35334.got.cif
#   From: 2010.05.17/outbox.cif.g08.bks.cpg/sg9_18_cif.got.tgz:35334.got - 2010.06.03 20:04:27.
