data_PCOD9136406
_publ_section_title
;
Structure prediction by ZEFSAII (Michael W. Deem and Ramdas Pophale) SiO2 
 PCOD9136406
Probable space group: C C
;
_chemical_formula_sum "Si O2"
_cell_formula_units_Z 24
_cell_length_a 7.063649
_cell_length_b 11.994033
_cell_length_c 12.793758
_cell_angle_alpha 90.000000
_cell_angle_beta 100.341075
_cell_angle_gamma 90.000000
_cell_volume 1066.301799
_symmetry_space_group_name_H-M "C C"
_symmetry_group_IT_number 9
_symmetry_cell_setting 'monoclinic'
loop_
_space_group_symop_operation_xyz
x,y,z
x,-y,1/2+z
1/2+x,1/2+y,z
1/2+x,1/2-y,1/2+z
loop_
_atom_site_type_symbol
_atom_site_label
_atom_site_fract_x
_atom_site_fract_y
_atom_site_fract_z
Si Si1 0.706310 0.360300 0.877640
Si Si2 0.874309 0.587488 0.940897
Si Si3 0.278293 0.760820 0.099249
Si Si4 0.688236 0.011162 0.108222
Si Si5 0.371945 0.322260 0.990223
Si Si6 0.612095 0.848119 0.272905
O O1 0.767536 0.487414 0.872748
O O2 0.723409 0.269925 0.787864
O O3 0.822249 0.306498 0.987276
O O4 0.485400 0.359753 0.897038
O O5 0.770349 0.295509 0.454374
O O6 0.055538 0.620111 0.885214
O O7 0.967896 0.542017 0.056955
O O8 0.299377 0.628052 0.112970
O O9 0.051704 0.791850 0.085108
O O10 0.412804 0.821780 0.194266
O O11 0.707145 0.948358 0.219892
O O12 0.754728 0.920884 0.029234
#
# Coordination Sequence:
#
# PCOD9136406 Si02
#       6
#     4   4   4   4   4   4
#     4   9  20  42  57  84 124 154 202 244 293 354
#     4  10  21  41  60  86 126 156 201 249 291 360
#     4   9  21  40  57  84 124 150 198 255 281 359
#     4  11  20  39  65  84 124 158 198 253 295 350
#     4   8  20  37  60  86 115 158 195 245 298 341
#     4  11  22  37  63  92 115 168 196 238 314 348
#
# _framework density 22.507697
#
# number of rings (size 3 to 8) (size 9 to 14) (size 15 to 20)
#    1.000    1.333    3.333    0.000    0.000    8.000 
#    0.000    0.000    0.000    0.000    0.000    0.000 
#    0.000    0.000    0.000    0.000    0.000    0.000 
#
# Total GULP energy -66856.456232 kJ/mol
# GULP energy per Si atom -5571.371353 kJ/mol
# Density = 2.245647 g / cm^3
# Si number density = 22.507697 Si / 1000 Ang^3
#
#
#
# Elastic Constant Matrix: (Units=GPa)
#
#
# Indices 1 2 3 4 5 6 
#
# 1 18.5283 31.3314 -6.4063 0.0000 0.0305 0.0000
# 2 31.3314 162.3986 0.7208 0.0000 -0.5787 0.0000
# 3 -6.4063 0.7208 44.6288 0.0000 7.7309 0.0000
# 4 0.0000 0.0000 0.0000 45.8345 0.0000 4.6213
# 5 0.0305 -0.5787 7.7309 0.0000 23.1255 0.0000
# 6 0.0000 0.0000 0.0000 4.6213 0.0000 30.6955
#
#
#
# Elastic Compliance Matrix: (Units=1/GPa)
#
#
# Indices 1 2 3 4 5 6 
#
# 1 0.087346 -0.016931 0.013698 0.000000 -0.005118 0.000000
# 2 -0.016931 0.009441 -0.002789 0.000000 0.001191 0.000000
# 3 0.013698 -0.002789 0.025936 0.000000 -0.008758 0.000000
# 4 0.000000 0.000000 0.000000 0.022154 0.000000 -0.003335
# 5 -0.005118 0.001191 -0.008758 0.000000 0.046207 0.000000
# 6 0.000000 0.000000 0.000000 -0.003335 0.000000 0.033080
#
#
# Mechanical properties :
#
#
# Convention : Reuss Voigt Hill
#
# Bulk Modulus (GPa) = 9.03512 30.76083 19.89798
# Shear Modulus (GPa) = 18.30839 33.25844 25.78341
#
# Velocity S-wave (km/s) = 2.85516 3.84819 3.38825
# Velocity P-wave (km/s) = 3.85904 5.78284 4.91596
#
# Compressibility (1/GPa) = 0.11067918
#
# Stress axis : x y z
#
# Youngs Moduli (GPa) = 11.44875 105.92428 38.55708
#
# Poissons Ratio (x) = 1.79336 -0.52816
# Poissons Ratio (y) = 0.19383 0.10754
# Poissons Ratio (z) = -0.15683 0.29543
#
# Static dielectric constant tensor:
#      x y z
#    x 1.857010 0.000000 0.010780 
#    y 0.000000 1.859410 0.000000 
#    z 0.010780 0.000000 1.866040 
# 
# From -- ./inp_files/14263.got.cif
#   From: 2010.05.17/outbox.cif.g08.bks.cpg/sg9_8_cif.got.tgz:14263.got - 2010.06.03 20:04:27.
