data_PCOD9136960
_publ_section_title
;
Structure prediction by ZEFSAII (Michael W. Deem and Ramdas Pophale) SiO2 
 PCOD9136960
Probable space group: C C
;
_chemical_formula_sum "Si O2"
_cell_formula_units_Z 24
_cell_length_a 22.686472
_cell_length_b 9.247651
_cell_length_c 9.658364
_cell_angle_alpha 90.000000
_cell_angle_beta 28.555617
_cell_angle_gamma 90.000000
_cell_volume 968.590940
_symmetry_space_group_name_H-M "C C"
_symmetry_group_IT_number 9
_symmetry_cell_setting 'monoclinic'
loop_
_space_group_symop_operation_xyz
x,y,z
x,-y,1/2+z
1/2+x,1/2+y,z
1/2+x,1/2-y,1/2+z
loop_
_atom_site_type_symbol
_atom_site_label
_atom_site_fract_x
_atom_site_fract_y
_atom_site_fract_z
Si Si1 0.864210 0.416292 0.349160
Si Si2 0.446158 0.634283 0.127941
Si Si3 0.813332 0.177952 0.663328
Si Si4 0.904534 0.255433 0.783118
Si Si5 0.725205 0.116084 0.375387
Si Si6 0.114072 0.879178 0.727812
O O1 0.802970 0.329496 0.603998
O O2 0.909805 0.573559 0.289568
O O3 0.754088 0.423356 0.466224
O O4 0.968792 0.306435 0.077242
O O5 0.541832 0.529738 0.857849
O O6 0.421095 0.606513 0.342738
O O7 0.312844 0.614106 0.330844
O O8 0.856406 0.212517 0.728854
O O9 0.707792 0.054069 0.880222
O O10 0.039486 0.186037 0.512592
O O11 0.808546 0.187443 0.085799
O O12 0.619555 0.235544 0.619160
#
# Coordination Sequence:
#
# PCOD9136960 Si02
#       6
#     4   4   4   4   4   4
#     4   9  25  43  68 105 140 185 238 295 350 428
#     4   9  21  44  69  99 146 177 233 297 351 423
#     4  10  21  47  68 100 151 180 230 314 345 408
#     4  12  24  45  74 103 145 183 247 302 346 439
#     4  11  22  43  75 103 144 186 237 301 354 430
#     4  11  23  46  74  98 138 199 231 281 382 412
#
# _framework density 24.778262000000002
#
# number of rings (size 3 to 8) (size 9 to 14) (size 15 to 20)
#    1.000    0.667    3.333    0.000    4.667    2.667 
#    6.000    0.000    0.000    0.000    0.000    0.000 
#    0.000    0.000    0.000    0.000    0.000    0.000 
#
# Total GULP energy -66881.387285 kJ/mol
# GULP energy per Si atom -5573.448940 kJ/mol
# Density = 2.472187 g / cm^3
# Si number density = 24.778262 Si / 1000 Ang^3
#
#
#
# Elastic Constant Matrix: (Units=GPa)
#
#
# Indices 1 2 3 4 5 6 
#
# 1 70.2273 24.7622 18.4490 0.0000 21.6900 0.0000
# 2 24.7622 203.0855 49.0860 0.0000 1.3935 0.0000
# 3 18.4490 49.0860 97.6907 0.0000 15.0607 0.0000
# 4 0.0000 0.0000 0.0000 50.6606 0.0000 9.0015
# 5 21.6900 1.3935 15.0607 0.0000 29.3465 0.0000
# 6 0.0000 0.0000 0.0000 9.0015 0.0000 24.1339
#
#
#
# Elastic Compliance Matrix: (Units=1/GPa)
#
#
# Indices 1 2 3 4 5 6 
#
# 1 0.019460 -0.002177 -0.000413 0.000000 -0.014068 0.000000
# 2 -0.002177 0.005893 -0.002991 0.000000 0.002864 0.000000
# 3 -0.000413 -0.002991 0.012758 0.000000 -0.006100 0.000000
# 4 0.000000 0.000000 0.000000 0.021140 0.000000 -0.007885
# 5 -0.014068 0.002864 -0.006100 0.000000 0.047468 0.000000
# 6 0.000000 0.000000 0.000000 -0.007885 0.000000 0.044376
#
#
# Mechanical properties :
#
#
# Convention : Reuss Voigt Hill
#
# Bulk Modulus (GPa) = 37.10615 61.73313 49.41964
# Shear Modulus (GPa) = 29.19881 39.40862 34.30372
#
# Velocity S-wave (km/s) = 3.43651 3.99237 3.72483
# Velocity P-wave (km/s) = 5.54563 6.79856 6.20380
#
# Compressibility (1/GPa) = 0.02694971
#
# Stress axis : x y z
#
# Youngs Moduli (GPa) = 51.38677 169.69877 78.38300
#
# Poissons Ratio (x) = 0.36935 0.03235
# Poissons Ratio (y) = 0.11184 0.23448
# Poissons Ratio (z) = 0.02121 0.50764
#
# Static dielectric constant tensor:
#      x y z
#    x 2.051910 0.000000 -0.028010 
#    y 0.000000 2.033990 0.000000 
#    z -0.028010 0.000000 1.967400 
# 
# From -- ./inp_files/21409.got.cif
#   From: 2010.05.17/outbox.cif.g08.bks.cpg/sg9_11_cif.got.tgz:21409.got - 2010.06.03 20:04:27.
