data_PCOD9136330
_publ_section_title
;
Structure prediction by ZEFSAII (Michael W. Deem and Ramdas Pophale) SiO2 
 PCOD9136330
Probable space group: C C
;
_chemical_formula_sum "Si O2"
_cell_formula_units_Z 28
_cell_length_a 7.889096
_cell_length_b 29.286059
_cell_length_c 5.684102
_cell_angle_alpha 90.000000
_cell_angle_beta 62.872047
_cell_angle_gamma 90.000000
_cell_volume 1168.787030
_symmetry_space_group_name_H-M "C C"
_symmetry_group_IT_number 9
_symmetry_cell_setting 'monoclinic'
loop_
_space_group_symop_operation_xyz
x,y,z
x,-y,1/2+z
1/2+x,1/2+y,z
1/2+x,1/2-y,1/2+z
loop_
_atom_site_type_symbol
_atom_site_label
_atom_site_fract_x
_atom_site_fract_y
_atom_site_fract_z
Si Si1 0.868620 0.304517 0.504950
Si Si2 0.889505 0.882359 0.213391
Si Si3 0.367379 0.011134 0.820147
Si Si4 0.774161 0.199404 0.503488
Si Si5 0.264685 0.888522 0.287520
Si Si6 0.440776 0.478050 0.037094
Si Si7 0.078862 0.648607 0.250215
O O1 0.806662 0.252933 0.504231
O O2 0.745990 0.345148 0.472196
O O3 0.067754 0.308159 0.244653
O O4 0.925051 0.316862 0.733754
O O5 0.909136 0.833941 0.067032
O O6 0.880483 0.925464 0.046276
O O7 0.693295 0.880525 0.485824
O O8 0.072004 0.890905 0.260232
O O9 0.304914 0.063740 0.886760
O O10 0.463056 0.004805 0.502532
O O11 0.170607 0.982793 0.913060
O O12 0.744936 0.179071 0.263638
O O13 0.450546 0.880747 0.006084
O O14 0.381667 0.495158 0.337310
#
# Coordination Sequence:
#
# PCOD9136330 Si02
#       7
#     4   4   4   4   4   4   4
#     4  10  25  43  66 100 134 178 236 290 354 425
#     4  11  24  42  72  98 135 189 227 294 357 419
#     4  10  21  40  67 106 141 179 243 291 352 433
#     4  10  25  43  66 100 134 178 236 290 354 425
#     4  11  24  42  72  98 135 189 227 294 357 419
#     4  10  21  40  67 106 141 179 243 291 352 433
#     4  10  26  44  62  98 142 172 238 286 354 426
#
# _framework density 23.956461999999998
#
# number of rings (size 3 to 8) (size 9 to 14) (size 15 to 20)
#    0.000    1.714    2.857    0.000   10.000    2.286 
#    0.000    1.429    0.000    0.000    0.000    0.000 
#    0.000    0.000    0.000    0.000    0.000    0.000 
#
# Total GULP energy -78243.058337 kJ/mol
# GULP energy per Si atom -5588.789881 kJ/mol
# Density = 2.390194 g / cm^3
# Si number density = 23.956462 Si / 1000 Ang^3
#
#
#
# Elastic Constant Matrix: (Units=GPa)
#
#
# Indices 1 2 3 4 5 6 
#
# 1 77.2326 16.5476 27.2862 0.0000 -5.6436 0.0000
# 2 16.5476 141.8997 37.6604 0.0000 12.6081 0.0000
# 3 27.2862 37.6604 88.4129 0.0000 17.9383 0.0000
# 4 0.0000 0.0000 0.0000 31.9367 0.0000 0.1710
# 5 -5.6436 12.6081 17.9383 0.0000 23.9729 0.0000
# 6 0.0000 0.0000 0.0000 0.1710 0.0000 9.1056
#
#
#
# Elastic Compliance Matrix: (Units=1/GPa)
#
#
# Indices 1 2 3 4 5 6 
#
# 1 0.016079 -0.000988 -0.006384 0.000000 0.009082 0.000000
# 2 -0.000988 0.008083 -0.002628 0.000000 -0.002518 0.000000
# 3 -0.006384 -0.002628 0.017007 0.000000 -0.012847 0.000000
# 4 0.000000 0.000000 0.000000 0.031315 0.000000 -0.000588
# 5 0.009082 -0.002518 -0.012847 0.000000 0.054789 0.000000
# 6 0.000000 0.000000 0.000000 -0.000588 0.000000 0.109834
#
#
# Mechanical properties :
#
#
# Convention : Reuss Voigt Hill
#
# Bulk Modulus (GPa) = 47.23672 52.28151 49.75912
# Shear Modulus (GPa) = 18.92780 28.07309 23.50044
#
# Velocity S-wave (km/s) = 2.81391 3.42693 3.13543
# Velocity P-wave (km/s) = 5.50618 6.12612 5.82440
#
# Compressibility (1/GPa) = 0.02116997
#
# Stress axis : x y z
#
# Youngs Moduli (GPa) = 62.19443 123.70917 58.80076
#
# Poissons Ratio (x) = 0.12217 0.37539
# Poissons Ratio (y) = 0.06142 0.15451
# Poissons Ratio (z) = 0.39706 0.32506
#
# Static dielectric constant tensor:
#      x y z
#    x 1.950180 0.000000 0.089670 
#    y 0.000000 1.946830 0.000000 
#    z 0.089670 0.000000 2.072930 
# 
# From -- ./inp_files/1173.got.cif
#   From: 2010.05.17/outbox.cif.g08.bks.cpg/sg9_1_cif.got.tgz:1173.got - 2010.06.03 20:04:27.
