data_PCOD9136041
_publ_section_title
;
Structure prediction by ZEFSAII (Michael W. Deem and Ramdas Pophale) SiO2 
 PCOD9136041
Probable space group: C C
;
_chemical_formula_sum "Si O2"
_cell_formula_units_Z 24
_cell_length_a 11.543776
_cell_length_b 9.159008
_cell_length_c 8.303683
_cell_angle_alpha 90.000000
_cell_angle_beta 97.528314
_cell_angle_gamma 90.000000
_cell_volume 870.376884
_symmetry_space_group_name_H-M "C C"
_symmetry_group_IT_number 9
_symmetry_cell_setting 'monoclinic'
loop_
_space_group_symop_operation_xyz
x,y,z
x,-y,1/2+z
1/2+x,1/2+y,z
1/2+x,1/2-y,1/2+z
loop_
_atom_site_type_symbol
_atom_site_label
_atom_site_fract_x
_atom_site_fract_y
_atom_site_fract_z
Si Si1 0.845250 0.290387 0.377670
Si Si2 0.611166 0.024920 0.035866
Si Si3 0.046011 0.827394 0.110677
Si Si4 0.305180 0.892892 0.021520
Si Si5 0.088188 0.228858 0.940740
Si Si6 0.205330 0.696797 0.754278
O O1 0.864126 0.328447 0.193853
O O2 0.837419 0.444261 0.473839
O O3 0.713350 0.238306 0.378760
O O4 0.935299 0.176200 0.472086
O O5 0.634685 0.116089 0.880927
O O6 0.532934 0.885785 0.975633
O O7 0.559175 0.150316 0.135901
O O8 0.721492 0.943645 0.139626
O O9 0.164980 0.887621 0.051405
O O10 0.029785 0.872784 0.295404
O O11 0.303356 0.784743 0.866425
O O12 0.129725 0.190571 0.131160
#
# Coordination Sequence:
#
# PCOD9136041 Si02
#       6
#     4   4   4   4   4   4
#     4  11  23  38  63  89 125 168 203 255 323 369
#     4   9  16  32  59  85 116 156 195 251 307 357
#     4  10  21  38  64  93 121 159 209 256 311 378
#     4  10  23  39  62  90 129 161 209 267 305 378
#     4   9  18  36  58  86 126 155 203 257 306 379
#     4   9  17  33  58  87 119 161 195 260 316 353
#
# _framework density 27.574262999999998
#
# number of rings (size 3 to 8) (size 9 to 14) (size 15 to 20)
#    1.000    1.333    1.667    1.000    2.333    0.000 
#    0.000    0.000   29.333    0.000    0.000    0.000 
#    0.000    0.000    0.000    0.000    0.000    0.000 
#
# Total GULP energy -66802.922719 kJ/mol
# GULP energy per Si atom -5566.910227 kJ/mol
# Density = 2.751150 g / cm^3
# Si number density = 27.574263 Si / 1000 Ang^3
#
#
#
# Elastic Constant Matrix: (Units=GPa)
#
#
# Indices 1 2 3 4 5 6 
#
# 1 85.6737 8.4199 36.7115 0.0000 21.4819 0.0000
# 2 8.4199 69.9137 22.7437 0.0000 4.4498 0.0000
# 3 36.7115 22.7437 215.6288 0.0000 13.7072 0.0000
# 4 0.0000 0.0000 0.0000 47.5815 0.0000 0.6796
# 5 21.4819 4.4498 13.7072 0.0000 43.8266 0.0000
# 6 0.0000 0.0000 0.0000 0.6796 0.0000 39.0302
#
#
#
# Elastic Compliance Matrix: (Units=1/GPa)
#
#
# Indices 1 2 3 4 5 6 
#
# 1 0.014137 -0.000674 -0.001938 0.000000 -0.006255 0.000000
# 2 -0.000674 0.014890 -0.001409 0.000000 -0.000741 0.000000
# 3 -0.001938 -0.001409 0.005149 0.000000 -0.000517 0.000000
# 4 0.000000 0.000000 0.000000 0.021022 0.000000 -0.000366
# 5 -0.006255 -0.000741 -0.000517 0.000000 0.026120 0.000000
# 6 0.000000 0.000000 0.000000 -0.000366 0.000000 0.025628
#
#
# Mechanical properties :
#
#
# Convention : Reuss Voigt Hill
#
# Bulk Modulus (GPa) = 38.26351 56.32960 47.29656
# Shear Modulus (GPa) = 40.42066 46.31039 43.36552
#
# Velocity S-wave (km/s) = 3.83284 4.10259 3.97001
# Velocity P-wave (km/s) = 5.78742 6.55090 6.18096
#
# Compressibility (1/GPa) = 0.02613456
#
# Stress axis : x y z
#
# Youngs Moduli (GPa) = 70.73468 67.15944 194.21022
#
# Poissons Ratio (x) = 0.04526 0.37642
# Poissons Ratio (y) = 0.04767 0.27358
# Poissons Ratio (z) = 0.13710 0.09461
#
# Static dielectric constant tensor:
#      x y z
#    x 2.291230 0.000000 0.032390 
#    y 0.000000 2.179700 0.000000 
#    z 0.032390 0.000000 2.371800 
# 
# From -- ./inp_files/8984.got.cif
#   From: 2010.05.17/outbox.cif.g08.bks.cpg/sg9_5_cif.got.tgz:8984.got - 2010.06.03 20:04:27.
