data_PCOD9136643
_publ_section_title
;
Structure prediction by ZEFSAII (Michael W. Deem and Ramdas Pophale) SiO2 
 PCOD9136643
Probable space group: C C
;
_chemical_formula_sum "Si O2"
_cell_formula_units_Z 32
_cell_length_a 18.728500
_cell_length_b 8.475533
_cell_length_c 9.535231
_cell_angle_alpha 90.000000
_cell_angle_beta 127.859106
_cell_angle_gamma 90.000000
_cell_volume 1194.993783
_symmetry_space_group_name_H-M "C C"
_symmetry_group_IT_number 9
_symmetry_cell_setting 'monoclinic'
loop_
_space_group_symop_operation_xyz
x,y,z
x,-y,1/2+z
1/2+x,1/2+y,z
1/2+x,1/2-y,1/2+z
loop_
_atom_site_type_symbol
_atom_site_label
_atom_site_fract_x
_atom_site_fract_y
_atom_site_fract_z
Si Si1 0.007650 0.796501 0.187300
Si Si2 0.969986 0.036979 0.362292
Si Si3 0.326609 0.966439 0.626827
Si Si4 0.371117 0.266402 0.519599
Si Si5 0.668807 0.662408 0.527662
Si Si6 0.496070 0.048000 0.526659
Si Si7 0.190331 0.381984 0.291433
Si Si8 0.207312 0.717642 0.367834
O O1 0.117207 0.807175 0.312352
O O2 0.993325 0.614834 0.116545
O O3 0.974725 0.863529 0.297359
O O4 0.964487 0.918503 0.020244
O O5 0.068343 0.107781 0.441662
O O6 0.894611 0.135203 0.186567
O O7 0.332621 0.095563 0.513547
O O8 0.242945 0.024061 0.620507
O O9 0.296916 0.802403 0.526481
O O10 0.420983 0.976520 0.818983
O O11 0.287361 0.346837 0.337475
O O12 0.463913 0.208875 0.563151
O O13 0.670066 0.744064 0.378028
O O14 0.700349 0.776343 0.690866
O O15 0.598066 0.080328 0.597753
O O16 0.204209 0.536737 0.403059
#
# Coordination Sequence:
#
# PCOD9136643 Si02
#       8
#     4   4   4   4   4   4   4   4
#     4  10  23  44  75 108 150 191 247 310 375 446
#     4  11  21  46  71 106 145 196 242 308 371 442
#     4  11  22  42  69 103 137 194 240 297 371 445
#     4  11  24  43  70  99 144 195 240 300 379 434
#     4  10  21  42  69  98 147 185 241 307 366 435
#     4  11  23  45  71 105 148 190 248 308 378 442
#     4  10  24  44  68 101 141 194 245 303 370 442
#     4  10  22  42  71 104 140 193 243 303 372 444
#
# _framework density 26.778379999999999
#
# number of rings (size 3 to 8) (size 9 to 14) (size 15 to 20)
#    0.000    1.500    3.750    0.750    0.000    3.000 
#    4.500    3.750    0.000    0.000    0.000    0.000 
#    0.000    0.000    0.000    0.000    0.000    0.000 
#
# Total GULP energy -89526.118889 kJ/mol
# GULP energy per Si atom -5595.382431 kJ/mol
# Density = 2.671743 g / cm^3
# Si number density = 26.778380 Si / 1000 Ang^3
#
#
#
# Elastic Constant Matrix: (Units=GPa)
#
#
# Indices 1 2 3 4 5 6 
#
# 1 61.6817 17.6605 45.3106 0.0000 14.4405 0.0000
# 2 17.6605 83.1099 69.2765 0.0000 17.4600 0.0000
# 3 45.3106 69.2765 151.1778 0.0000 36.4849 0.0000
# 4 0.0000 0.0000 0.0000 47.0621 0.0000 9.4881
# 5 14.4405 17.4600 36.4849 0.0000 50.2213 0.0000
# 6 0.0000 0.0000 0.0000 9.4881 0.0000 36.4389
#
#
#
# Elastic Compliance Matrix: (Units=1/GPa)
#
#
# Indices 1 2 3 4 5 6 
#
# 1 0.021004 0.001295 -0.006454 0.000000 -0.001801 0.000000
# 2 0.001295 0.019554 -0.009238 0.000000 -0.000459 0.000000
# 3 -0.006454 -0.009238 0.014017 0.000000 -0.005116 0.000000
# 4 0.000000 0.000000 0.000000 0.022426 0.000000 -0.005839
# 5 -0.001801 -0.000459 -0.005116 0.000000 0.024306 0.000000
# 6 0.000000 0.000000 0.000000 -0.005839 0.000000 0.028964
#
#
# Mechanical properties :
#
#
# Convention : Reuss Voigt Hill
#
# Bulk Modulus (GPa) = 38.78816 62.27386 50.53101
# Shear Modulus (GPa) = 29.82275 37.65924 33.74099
#
# Velocity S-wave (km/s) = 3.34082 3.75417 3.55351
# Velocity P-wave (km/s) = 5.42197 6.48826 5.97893
#
# Compressibility (1/GPa) = 0.02578107
#
# Stress axis : x y z
#
# Youngs Moduli (GPa) = 47.60946 51.14141 71.34301
#
# Poissons Ratio (x) = -0.06622 0.46045
# Poissons Ratio (y) = -0.06165 0.65904
# Poissons Ratio (z) = 0.30727 0.47242
#
# Static dielectric constant tensor:
#      x y z
#    x 2.165850 0.000000 -0.022900 
#    y 0.000000 2.104440 0.000000 
#    z -0.022900 0.000000 2.049630 
# 
# From -- ./inp_files/17843.got.cif
#   From: 2010.05.17/outbox.cif.g08.bks.cpg/sg9_9_cif.got.tgz:17843.got - 2010.06.03 20:04:27.
