data_PCOD9136995
_publ_section_title
;
Structure prediction by ZEFSAII (Michael W. Deem and Ramdas Pophale) SiO2 
 PCOD9136995
Probable space group: C C
;
_chemical_formula_sum "Si O2"
_cell_formula_units_Z 32
_cell_length_a 27.059354
_cell_length_b 7.540414
_cell_length_c 9.058060
_cell_angle_alpha 90.000000
_cell_angle_beta 131.624615
_cell_angle_gamma 90.000000
_cell_volume 1381.549457
_symmetry_space_group_name_H-M "C C"
_symmetry_group_IT_number 9
_symmetry_cell_setting 'monoclinic'
loop_
_space_group_symop_operation_xyz
x,y,z
x,-y,1/2+z
1/2+x,1/2+y,z
1/2+x,1/2-y,1/2+z
loop_
_atom_site_type_symbol
_atom_site_label
_atom_site_fract_x
_atom_site_fract_y
_atom_site_fract_z
Si Si1 0.800200 0.271617 0.943550
Si Si2 0.620303 0.616911 0.046638
Si Si3 0.935524 0.104717 0.179576
Si Si4 0.191646 0.568176 0.840433
Si Si5 0.196540 0.254030 0.663298
Si Si6 0.527422 0.498783 0.122539
Si Si7 0.329709 0.950741 0.726365
Si Si8 0.356638 0.758908 0.500494
O O1 0.769284 0.097913 0.954823
O O2 0.785261 0.331464 0.747282
O O3 0.878689 0.247500 0.086288
O O4 0.785490 0.427027 0.030565
O O5 0.662064 0.790645 0.164882
O O6 0.663231 0.439042 0.100923
O O7 0.578830 0.586996 0.113629
O O8 0.568089 0.631342 0.810234
O O9 0.973894 0.086584 0.408506
O O10 0.989165 0.130587 0.157674
O O11 0.896496 0.922073 0.060755
O O12 0.173269 0.370980 0.757206
O O13 0.178850 0.637101 0.979106
O O14 0.276615 0.251418 0.825776
O O15 0.369436 0.828764 0.691772
O O16 0.371134 0.088709 0.908165
#
# Coordination Sequence:
#
# PCOD9136995 Si02
#       8
#     4   4   4   4   4   4   4   4
#     4  11  22  40  64 105 139 173 222 283 363 420
#     4  11  24  50  72  96 140 189 244 280 346 411
#     4  11  22  42  74  94 136 177 236 280 342 427
#     4  12  27  42  72 108 140 182 228 300 356 417
#     4  12  27  42  72 108 140 182 228 300 356 417
#     4  10  24  43  74  90 128 199 236 274 330 418
#     4  10  22  35  60  90 148 177 206 270 346 430
#     4  11  22  40  64 105 139 173 222 283 363 420
#
# _framework density 23.162399000000001
#
# number of rings (size 3 to 8) (size 9 to 14) (size 15 to 20)
#    0.000    1.000    3.750    3.000    3.500    0.000 
#    0.000    0.000   55.000    0.000    0.000    0.000 
#    0.000    0.000    0.000    0.000    0.000    0.000 
#
# Total GULP energy -89396.906390 kJ/mol
# GULP energy per Si atom -5587.306649 kJ/mol
# Density = 2.310968 g / cm^3
# Si number density = 23.162399 Si / 1000 Ang^3
#
#
#
# Elastic Constant Matrix: (Units=GPa)
#
#
# Indices 1 2 3 4 5 6 
#
# 1 95.9280 4.4410 30.9749 0.0000 -19.9823 0.0000
# 2 4.4410 61.1213 21.3640 0.0000 1.9499 0.0000
# 3 30.9749 21.3640 116.2476 0.0000 -12.7535 0.0000
# 4 0.0000 0.0000 0.0000 17.6019 0.0000 -6.4912
# 5 -19.9823 1.9499 -12.7535 0.0000 41.8764 0.0000
# 6 0.0000 0.0000 0.0000 -6.4912 0.0000 19.5049
#
#
#
# Elastic Compliance Matrix: (Units=1/GPa)
#
#
# Indices 1 2 3 4 5 6 
#
# 1 0.012365 -0.000111 -0.002717 0.000000 0.005078 0.000000
# 2 -0.000111 0.017625 -0.003420 0.000000 -0.001915 0.000000
# 3 -0.002717 -0.003420 0.010170 0.000000 0.001960 0.000000
# 4 0.000000 0.000000 0.000000 0.064760 0.000000 0.021552
# 5 0.005078 -0.001915 0.001960 0.000000 0.026989 0.000000
# 6 0.000000 0.000000 0.000000 0.021552 0.000000 0.058442
#
#
# Mechanical properties :
#
#
# Convention : Reuss Voigt Hill
#
# Bulk Modulus (GPa) = 36.14726 42.98407 39.56567
# Shear Modulus (GPa) = 23.57745 30.23112 26.90428
#
# Velocity S-wave (km/s) = 3.19395 3.61665 3.41185
# Velocity P-wave (km/s) = 5.40755 6.00318 5.71313
#
# Compressibility (1/GPa) = 0.02766461
#
# Stress axis : x y z
#
# Youngs Moduli (GPa) = 80.87525 56.73641 98.32971
#
# Poissons Ratio (x) = 0.00628 0.26719
# Poissons Ratio (y) = 0.00895 0.33627
# Poissons Ratio (z) = 0.21976 0.19403
#
# Static dielectric constant tensor:
#      x y z
#    x 1.897370 0.000000 0.003280 
#    y 0.000000 1.900620 0.000000 
#    z 0.003280 0.000000 1.927000 
# 
# From -- ./inp_files/11227.got.cif
#   From: 2010.05.17/outbox.cif.g08.bks.cpg/sg9_6_cif.got.tgz:11227.got - 2010.06.03 20:04:27.
