data_PCOD9136194
_publ_section_title
;
Structure prediction by ZEFSAII (Michael W. Deem and Ramdas Pophale) SiO2 
 PCOD9136194
Probable space group: C C
;
_chemical_formula_sum "Si O2"
_cell_formula_units_Z 32
_cell_length_a 7.436478
_cell_length_b 23.334477
_cell_length_c 9.067885
_cell_angle_alpha 90.000000
_cell_angle_beta 69.865035
_cell_angle_gamma 90.000000
_cell_volume 1477.350270
_symmetry_space_group_name_H-M "C C"
_symmetry_group_IT_number 9
_symmetry_cell_setting 'monoclinic'
loop_
_space_group_symop_operation_xyz
x,y,z
x,-y,1/2+z
1/2+x,1/2+y,z
1/2+x,1/2-y,1/2+z
loop_
_atom_site_type_symbol
_atom_site_label
_atom_site_fract_x
_atom_site_fract_y
_atom_site_fract_z
Si Si1 0.176430 0.924162 0.876940
Si Si2 0.039420 0.370779 0.665512
Si Si3 0.791754 0.361274 0.460864
Si Si4 0.376471 0.241541 0.362299
Si Si5 0.501442 0.480846 0.204620
Si Si6 0.413412 0.427188 0.515331
Si Si7 0.769385 0.281061 0.227473
Si Si8 0.554539 0.697858 0.275134
O O1 0.402601 0.913270 0.795672
O O2 0.073566 0.863780 0.854811
O O3 0.111676 0.973785 0.780631
O O4 0.125284 0.942909 0.056534
O O5 0.263664 0.379861 0.607257
O O6 0.962123 0.377916 0.520973
O O7 0.982381 0.309233 0.743524
O O8 0.633939 0.410116 0.478847
O O9 0.855455 0.335123 0.288972
O O10 0.672180 0.314082 0.591029
O O11 0.539417 0.289419 0.305418
O O12 0.334616 0.224842 0.541688
O O13 0.173113 0.244378 0.338095
O O14 0.389200 0.442140 0.351984
O O15 0.373603 0.518614 0.130769
O O16 0.851865 0.225792 0.293104
#
# Coordination Sequence:
#
# PCOD9136194 Si02
#       8
#     4   4   4   4   4   4   4   4
#     4   9  20  41  62  89 126 159 203 261 315 371
#     4  10  23  43  61  88 126 166 203 261 317 376
#     4  10  22  41  61  88 127 164 203 266 316 364
#     4  10  25  37  63  90 121 165 212 254 318 373
#     4  10  21  39  67  93 119 168 206 255 328 379
#     4  11  22  42  64  89 130 160 208 262 318 380
#     4  12  23  41  63  92 123 171 213 258 320 379
#     4  10  22  42  59  89 130 161 206 267 310 376
#
# _framework density 21.660402000000001
#
# number of rings (size 3 to 8) (size 9 to 14) (size 15 to 20)
#    0.000    2.000    3.750    0.750    7.000    1.000 
#    2.250    0.000    0.000    0.000    0.000    0.000 
#    0.000    0.000    0.000    0.000    0.000    0.000 
#
# Total GULP energy -89243.260105 kJ/mol
# GULP energy per Si atom -5577.703757 kJ/mol
# Density = 2.161110 g / cm^3
# Si number density = 21.660402 Si / 1000 Ang^3
#
#
#
# Elastic Constant Matrix: (Units=GPa)
#
#
# Indices 1 2 3 4 5 6 
#
# 1 70.9514 16.1882 14.5896 0.0000 6.6607 0.0000
# 2 16.1882 40.3989 14.2374 0.0000 1.9769 0.0000
# 3 14.5896 14.2374 103.5070 0.0000 22.5019 0.0000
# 4 0.0000 0.0000 0.0000 33.0245 0.0000 -3.0801
# 5 6.6607 1.9769 22.5019 0.0000 21.0512 0.0000
# 6 0.0000 0.0000 0.0000 -3.0801 0.0000 14.7745
#
#
#
# Elastic Compliance Matrix: (Units=1/GPa)
#
#
# Indices 1 2 3 4 5 6 
#
# 1 0.015944 -0.005994 -0.000584 0.000000 -0.003857 0.000000
# 2 -0.005994 0.028320 -0.003758 0.000000 0.003254 0.000000
# 3 -0.000584 -0.003758 0.013214 0.000000 -0.013587 0.000000
# 4 0.000000 0.000000 0.000000 0.030881 0.000000 0.006438
# 5 -0.003857 0.003254 -0.013587 0.000000 0.062942 0.000000
# 6 0.000000 0.000000 0.000000 0.006438 0.000000 0.069026
#
#
# Mechanical properties :
#
#
# Convention : Reuss Voigt Hill
#
# Bulk Modulus (GPa) = 27.16981 33.87641 30.52311
# Shear Modulus (GPa) = 19.74185 25.09285 22.41735
#
# Velocity S-wave (km/s) = 3.02226 3.40732 3.22055
# Velocity P-wave (km/s) = 4.97489 5.58153 5.28692
#
# Compressibility (1/GPa) = 0.03680556
#
# Stress axis : x y z
#
# Youngs Moduli (GPa) = 62.71929 35.31045 75.67607
#
# Poissons Ratio (x) = 0.21166 0.04422
# Poissons Ratio (y) = 0.37596 0.28439
# Poissons Ratio (z) = 0.03665 0.13269
#
# Static dielectric constant tensor:
#      x y z
#    x 1.824840 0.000000 0.022470 
#    y 0.000000 1.864300 0.000000 
#    z 0.022470 0.000000 1.760020 
# 
# From -- ./inp_files/6147.got.cif
#   From: 2010.05.17/outbox.cif.g08.bks.cpg/sg9_4_cif.got.tgz:6147.got - 2010.06.03 20:04:27.
