data_PCOD9136972
_publ_section_title
;
Structure prediction by ZEFSAII (Michael W. Deem and Ramdas Pophale) SiO2 
 PCOD9136972
Probable space group: C C
;
_chemical_formula_sum "Si O2"
_cell_formula_units_Z 32
_cell_length_a 11.262368
_cell_length_b 7.845493
_cell_length_c 18.678841
_cell_angle_alpha 90.000000
_cell_angle_beta 118.755370
_cell_angle_gamma 90.000000
_cell_volume 1446.910957
_symmetry_space_group_name_H-M "C C"
_symmetry_group_IT_number 9
_symmetry_cell_setting 'monoclinic'
loop_
_space_group_symop_operation_xyz
x,y,z
x,-y,1/2+z
1/2+x,1/2+y,z
1/2+x,1/2-y,1/2+z
loop_
_atom_site_type_symbol
_atom_site_label
_atom_site_fract_x
_atom_site_fract_y
_atom_site_fract_z
Si Si1 0.477960 0.776820 0.442680
Si Si2 0.244979 0.872503 0.979510
Si Si3 0.990995 0.038861 0.856792
Si Si4 0.360200 0.038987 0.156799
Si Si5 0.354813 0.129149 0.366490
Si Si6 0.882781 0.179334 0.195638
Si Si7 0.131081 0.101948 0.186047
Si Si8 0.575526 0.214080 0.127174
O O1 0.635953 0.773182 0.465121
O O2 0.429568 0.592757 0.398912
O O3 0.481057 0.788792 0.529323
O O4 0.407030 0.936606 0.386370
O O5 0.345880 0.816205 0.947234
O O6 0.151226 0.018223 0.915330
O O7 0.297554 0.948617 0.068407
O O8 0.945577 0.952834 0.769874
O O9 0.946183 0.231496 0.853413
O O10 0.392570 0.880273 0.218755
O O11 0.241981 0.154392 0.157693
O O12 0.495945 0.127231 0.169118
O O13 0.212679 0.133468 0.283151
O O14 0.722529 0.138971 0.148441
O O15 0.979890 0.172675 0.153764
O O16 0.105039 0.906087 0.159137
#
# Coordination Sequence:
#
# PCOD9136972 Si02
#       8
#     4   4   4   4   4   4   4   4
#     4  10  21  48  64  95 141 172 229 291 342 407
#     4  10  22  46  65  99 140 175 237 292 333 420
#     4  10  24  44  66 101 133 179 233 285 344 409
#     4  11  24  43  71 100 142 181 226 288 350 404
#     4  12  24  44  72  96 137 188 232 286 347 410
#     4  11  23  44  64 100 140 177 228 285 341 413
#     4  11  24  42  67 102 140 176 233 288 331 421
#     4  11  24  43  69  99 137 184 222 289 352 406
#
# _framework density 22.116081000000001
#
# number of rings (size 3 to 8) (size 9 to 14) (size 15 to 20)
#    0.750    0.500    5.000    1.500    3.500    2.000 
#    4.500    0.000    0.000    0.000    0.000    0.000 
#    0.000    0.000    0.000    0.000    0.000    0.000 
#
# Total GULP energy -89166.129639 kJ/mol
# GULP energy per Si atom -5572.883102 kJ/mol
# Density = 2.206574 g / cm^3
# Si number density = 22.116081 Si / 1000 Ang^3
#
#
#
# Elastic Constant Matrix: (Units=GPa)
#
#
# Indices 1 2 3 4 5 6 
#
# 1 140.9866 15.7272 13.8872 0.0000 -5.7625 0.0000
# 2 15.7272 55.3436 0.0293 0.0000 6.9252 0.0000
# 3 13.8872 0.0293 69.2414 0.0000 -12.7367 0.0000
# 4 0.0000 0.0000 0.0000 13.4580 0.0000 0.4059
# 5 -5.7625 6.9252 -12.7367 0.0000 32.6947 0.0000
# 6 0.0000 0.0000 0.0000 0.4059 0.0000 29.1882
#
#
#
# Elastic Compliance Matrix: (Units=1/GPa)
#
#
# Indices 1 2 3 4 5 6 
#
# 1 0.007529 -0.002304 -0.001266 0.000000 0.001322 0.000000
# 2 -0.002304 0.019306 -0.000402 0.000000 -0.004652 0.000000
# 3 -0.001266 -0.000402 0.015803 0.000000 0.006018 0.000000
# 4 0.000000 0.000000 0.000000 0.074337 0.000000 -0.001034
# 5 0.001322 -0.004652 0.006018 0.000000 0.034149 0.000000
# 6 0.000000 0.000000 0.000000 -0.001034 0.000000 0.034275
#
#
# Mechanical properties :
#
#
# Convention : Reuss Voigt Hill
#
# Bulk Modulus (GPa) = 28.82302 36.09544 32.45923
# Shear Modulus (GPa) = 24.40136 30.79670 27.59903
#
# Velocity S-wave (km/s) = 3.32525 3.73567 3.53642
# Velocity P-wave (km/s) = 5.27294 5.91298 5.60211
#
# Compressibility (1/GPa) = 0.03469450
#
# Stress axis : x y z
#
# Youngs Moduli (GPa) = 132.82654 51.79733 63.27778
#
# Poissons Ratio (x) = 0.11935 0.08010
# Poissons Ratio (y) = 0.30605 0.02542
# Poissons Ratio (z) = 0.16813 0.02081
#
# Static dielectric constant tensor:
#      x y z
#    x 1.908800 0.000000 -0.024460 
#    y 0.000000 1.806380 0.000000 
#    z -0.024460 0.000000 1.827640 
# 
# From -- ./inp_files/29914.got.cif
#   From: 2010.05.17/outbox.cif.g08.bks.cpg/sg9_15_cif.got.tgz:29914.got - 2010.06.03 20:04:27.
