data_PCOD9136705
_publ_section_title
;
Structure prediction by ZEFSAII (Michael W. Deem and Ramdas Pophale) SiO2 
 PCOD9136705
Probable space group: C C
;
_chemical_formula_sum "Si O2"
_cell_formula_units_Z 32
_cell_length_a 7.882989
_cell_length_b 11.119259
_cell_length_c 16.146884
_cell_angle_alpha 90.000000
_cell_angle_beta 72.682411
_cell_angle_gamma 90.000000
_cell_volume 1351.165426
_symmetry_space_group_name_H-M "C C"
_symmetry_group_IT_number 9
_symmetry_cell_setting 'monoclinic'
loop_
_space_group_symop_operation_xyz
x,y,z
x,-y,1/2+z
1/2+x,1/2+y,z
1/2+x,1/2-y,1/2+z
loop_
_atom_site_type_symbol
_atom_site_label
_atom_site_fract_x
_atom_site_fract_y
_atom_site_fract_z
Si Si1 0.694680 0.541111 0.529260
Si Si2 0.588808 0.951852 0.976994
Si Si3 0.275577 0.806100 0.430973
Si Si4 0.334861 0.195735 0.231349
Si Si5 0.021113 0.339611 0.240313
Si Si6 0.599321 0.071714 0.286790
Si Si7 0.570220 0.195962 0.030556
Si Si8 0.510738 0.401692 0.694614
O O1 0.681463 0.434429 0.462928
O O2 0.668032 0.677458 0.505837
O O3 0.559135 0.497232 0.618905
O O4 0.890310 0.544269 0.541565
O O5 0.672804 0.819198 0.962648
O O6 0.562114 0.976953 0.883031
O O7 0.678244 0.069869 0.005560
O O8 0.364461 0.808599 0.327305
O O9 0.429226 0.804107 0.477097
O O10 0.212644 0.313979 0.255417
O O11 0.468543 0.182453 0.288255
O O12 0.459291 0.200308 0.132165
O O13 0.169872 0.100923 0.240050
O O14 0.026967 0.480258 0.226698
O O15 0.020336 0.241152 0.167570
O O16 0.808378 0.084946 0.249510
#
# Coordination Sequence:
#
# PCOD9136705 Si02
#       8
#     4   4   4   4   4   4   4   4
#     4  11  24  44  68 101 145 181 237 293 357 429
#     4  11  23  42  70 106 135 182 245 288 355 435
#     4  11  22  43  72  98 141 182 236 299 352 420
#     4  10  24  45  67 103 140 186 234 298 358 424
#     4  10  21  43  66 100 140 178 232 303 349 419
#     4  12  23  43  74 100 142 186 234 296 366 419
#     4  11  24  46  68 100 145 184 234 304 353 422
#     4  10  23  46  65 104 140 183 238 293 350 434
#
# _framework density 23.683260000000001
#
# number of rings (size 3 to 8) (size 9 to 14) (size 15 to 20)
#    0.750    0.500    6.250    0.750    1.750    5.000 
#    4.500    1.250    0.000    0.000    0.000    0.000 
#    0.000    0.000    0.000    0.000    0.000    0.000 
#
# Total GULP energy -89116.284149 kJ/mol
# GULP energy per Si atom -5569.767759 kJ/mol
# Density = 2.362936 g / cm^3
# Si number density = 23.683260 Si / 1000 Ang^3
#
#
#
# Elastic Constant Matrix: (Units=GPa)
#
#
# Indices 1 2 3 4 5 6 
#
# 1 68.8933 32.0873 19.0432 0.0000 -13.6068 0.0000
# 2 32.0873 162.6274 15.8331 0.0000 -5.9117 0.0000
# 3 19.0432 15.8331 56.1497 0.0000 -1.8222 0.0000
# 4 0.0000 0.0000 0.0000 27.5191 0.0000 1.4245
# 5 -13.6068 -5.9117 -1.8222 0.0000 17.6524 0.0000
# 6 0.0000 0.0000 0.0000 1.4245 0.0000 36.9338
#
#
#
# Elastic Compliance Matrix: (Units=1/GPa)
#
#
# Indices 1 2 3 4 5 6 
#
# 1 0.020184 -0.002932 -0.005564 0.000000 0.014002 0.000000
# 2 -0.002932 0.006815 -0.000930 0.000000 -0.000073 0.000000
# 3 -0.005564 -0.000930 0.019876 0.000000 -0.002549 0.000000
# 4 0.000000 0.000000 0.000000 0.036411 0.000000 -0.001404
# 5 0.014002 -0.000073 -0.002549 0.000000 0.067155 0.000000
# 6 0.000000 0.000000 0.000000 -0.001404 0.000000 0.027130
#
#
# Mechanical properties :
#
#
# Convention : Reuss Voigt Hill
#
# Bulk Modulus (GPa) = 35.68397 46.84416 41.26406
# Shear Modulus (GPa) = 24.29960 31.13487 27.71723
#
# Velocity S-wave (km/s) = 3.20664 3.62972 3.42472
# Velocity P-wave (km/s) = 5.36749 6.11465 5.75321
#
# Compressibility (1/GPa) = 0.02802379
#
# Stress axis : x y z
#
# Youngs Moduli (GPa) = 49.54353 146.72802 50.31149
#
# Poissons Ratio (x) = 0.43017 0.27995
# Poissons Ratio (y) = 0.14525 0.04678
# Poissons Ratio (z) = 0.27568 0.13644
#
# Static dielectric constant tensor:
#      x y z
#    x 1.913670 0.000000 0.004490 
#    y 0.000000 2.117180 0.000000 
#    z 0.004490 0.000000 1.899880 
# 
# From -- ./inp_files/29141.got.cif
#   From: 2010.05.17/outbox.cif.g08.bks.cpg/sg9_15_cif.got.tgz:29141.got - 2010.06.03 20:04:27.
