data_PCOD9136862
_publ_section_title
;
Structure prediction by ZEFSAII (Michael W. Deem and Ramdas Pophale) SiO2 
 PCOD9136862
Probable space group: C C
;
_chemical_formula_sum "Si O2"
_cell_formula_units_Z 28
_cell_length_a 13.789534
_cell_length_b 9.445629
_cell_length_c 13.536808
_cell_angle_alpha 90.000000
_cell_angle_beta 143.065981
_cell_angle_gamma 90.000000
_cell_volume 1059.486141
_symmetry_space_group_name_H-M "C C"
_symmetry_group_IT_number 9
_symmetry_cell_setting 'monoclinic'
loop_
_space_group_symop_operation_xyz
x,y,z
x,-y,1/2+z
1/2+x,1/2+y,z
1/2+x,1/2-y,1/2+z
loop_
_atom_site_type_symbol
_atom_site_label
_atom_site_fract_x
_atom_site_fract_y
_atom_site_fract_z
Si Si1 0.079350 0.882440 0.510190
Si Si2 0.920717 0.273422 0.716168
Si Si3 0.677178 0.574810 0.388061
Si Si4 0.568601 0.358352 0.156872
Si Si5 0.270261 0.772994 0.149242
Si Si6 0.530732 0.808234 0.147381
Si Si7 0.104332 0.446342 0.392403
O O1 0.259291 0.859543 0.611985
O O2 0.952852 0.855473 0.318670
O O3 0.073774 0.741674 0.575169
O O4 0.038254 0.011807 0.553358
O O5 0.059651 0.389937 0.855072
O O6 0.934495 0.222883 0.612991
O O7 0.664642 0.425884 0.326697
O O8 0.667847 0.619228 0.494122
O O9 0.544934 0.667577 0.224675
O O10 0.852430 0.631750 0.500794
O O11 0.686672 0.262304 0.187242
O O12 0.241505 0.622529 0.071942
O O13 0.442341 0.854678 0.292650
O O14 0.635540 0.911633 0.301666
#
# Coordination Sequence:
#
# PCOD9136862 Si02
#       7
#     4   4   4   4   4   4   4
#     4  11  24  49  71 106 154 197 242 321 375 430
#     4  12  27  47  73 111 149 196 259 305 367 463
#     4   9  19  39  69 101 136 189 252 295 372 449
#     4  11  23  42  74 103 145 201 241 306 377 441
#     4  10  21  44  72  99 145 194 240 312 383 427
#     4   9  19  38  73  97 137 198 239 298 388 429
#     4  10  23  45  72 105 144 193 253 307 368 457
#
# _framework density 26.427904999999999
#
# number of rings (size 3 to 8) (size 9 to 14) (size 15 to 20)
#    0.000    1.714    1.429    2.571    2.000    2.286 
#   23.143    0.000    0.000    0.000    0.000    0.000 
#    0.000    0.000    0.000    0.000    0.000    0.000 
#
# Total GULP energy -78074.796008 kJ/mol
# GULP energy per Si atom -5576.771143 kJ/mol
# Density = 2.636775 g / cm^3
# Si number density = 26.427905 Si / 1000 Ang^3
#
#
#
# Elastic Constant Matrix: (Units=GPa)
#
#
# Indices 1 2 3 4 5 6 
#
# 1 136.1435 39.3127 21.2092 0.0000 -43.2160 0.0000
# 2 39.3127 114.2784 45.6374 0.0000 -7.3845 0.0000
# 3 21.2092 45.6374 54.4854 0.0000 -6.7907 0.0000
# 4 0.0000 0.0000 0.0000 52.8549 0.0000 -2.5651
# 5 -43.2160 -7.3845 -6.7907 0.0000 40.9606 0.0000
# 6 0.0000 0.0000 0.0000 -2.5651 0.0000 28.1325
#
#
#
# Elastic Compliance Matrix: (Units=1/GPa)
#
#
# Indices 1 2 3 4 5 6 
#
# 1 0.012244 -0.003196 -0.000563 0.000000 0.012248 0.000000
# 2 -0.003196 0.013995 -0.010808 0.000000 -0.002640 0.000000
# 3 -0.000563 -0.010808 0.027885 0.000000 0.002081 0.000000
# 4 0.000000 0.000000 0.000000 0.019004 0.000000 0.001733
# 5 0.012248 -0.002640 0.002081 0.000000 0.037206 0.000000
# 6 0.000000 0.000000 0.000000 0.001733 0.000000 0.035704
#
#
# Mechanical properties :
#
#
# Convention : Reuss Voigt Hill
#
# Bulk Modulus (GPa) = 40.01397 57.46956 48.74176
# Shear Modulus (GPa) = 27.24799 37.63947 32.44373
#
# Velocity S-wave (km/s) = 3.21445 3.77799 3.50756
# Velocity P-wave (km/s) = 5.38058 6.38936 5.90655
#
# Compressibility (1/GPa) = 0.02499127
#
# Stress axis : x y z
#
# Youngs Moduli (GPa) = 81.67497 71.45199 35.86215
#
# Poissons Ratio (x) = 0.22834 0.02018
# Poissons Ratio (y) = 0.26101 0.38759
# Poissons Ratio (z) = 0.04596 0.77224
#
# Static dielectric constant tensor:
#      x y z
#    x 2.157840 0.000000 -0.004500 
#    y 0.000000 2.193070 0.000000 
#    z -0.004500 0.000000 2.057560 
# 
# From -- ./inp_files/25737.got.cif
#   From: 2010.05.17/outbox.cif.g08.bks.cpg/sg9_13_cif.got.tgz:25737.got - 2010.06.03 20:04:27.
