data_PCOD9136785
_publ_section_title
;
Structure prediction by ZEFSAII (Michael W. Deem and Ramdas Pophale) SiO2 
 PCOD9136785
Probable space group: C C
;
_chemical_formula_sum "Si O2"
_cell_formula_units_Z 32
_cell_length_a 9.521141
_cell_length_b 12.449925
_cell_length_c 10.325578
_cell_angle_alpha 90.000000
_cell_angle_beta 89.470198
_cell_angle_gamma 90.000000
_cell_volume 1223.915787
_symmetry_space_group_name_H-M "C C"
_symmetry_group_IT_number 9
_symmetry_cell_setting 'monoclinic'
loop_
_space_group_symop_operation_xyz
x,y,z
x,-y,1/2+z
1/2+x,1/2+y,z
1/2+x,1/2-y,1/2+z
loop_
_atom_site_type_symbol
_atom_site_label
_atom_site_fract_x
_atom_site_fract_y
_atom_site_fract_z
Si Si1 0.830250 0.648538 0.289870
Si Si2 0.701742 0.973312 0.938360
Si Si3 0.824590 0.594653 0.819057
Si Si4 0.534662 0.150409 0.048683
Si Si5 0.968822 0.681086 0.561530
Si Si6 0.472877 0.390022 0.001359
Si Si7 0.788490 0.878444 0.254543
Si Si8 0.049763 0.114640 0.947747
O O1 0.781075 0.526487 0.278854
O O2 0.865860 0.665405 0.439963
O O3 0.742468 0.754067 0.249478
O O4 0.965598 0.652183 0.191858
O O5 0.674949 0.080366 0.029639
O O6 0.674350 0.035664 0.802153
O O7 0.598775 0.890826 0.009713
O O8 0.844622 0.907389 0.902388
O O9 0.921769 0.598951 0.947582
O O10 0.900864 0.645822 0.695697
O O11 0.681217 0.652545 0.862233
O O12 0.543866 0.275067 0.006425
O O13 0.018870 0.803749 0.562109
O O14 0.373552 0.406476 0.126742
O O15 0.572435 0.492454 0.991391
O O16 0.911074 0.882820 0.361391
#
# Coordination Sequence:
#
# PCOD9136785 Si02
#       8
#     4   4   4   4   4   4   4   4
#     4  10  21  44  62  99 134 172 230 279 348 417
#     4  11  22  41  68  99 137 181 228 291 345 427
#     4  12  23  43  68 101 137 179 227 295 352 425
#     4  11  24  42  68 106 135 183 234 291 351 421
#     4  11  24  43  67  99 135 182 232 279 357 423
#     4  10  24  44  67  99 140 183 238 291 356 423
#     4   9  23  42  66  97 131 182 232 284 355 419
#     4  10  25  45  64  98 137 180 231 292 358 423
#
# _framework density 26.145591
#
# number of rings (size 3 to 8) (size 9 to 14) (size 15 to 20)
#    0.000    1.500    2.500    0.750    5.250    5.000 
#   15.750    0.000    0.000    0.000    0.000    0.000 
#    0.000    0.000    0.000    0.000    0.000    0.000 
#
# Total GULP energy -89372.413146 kJ/mol
# GULP energy per Si atom -5585.775822 kJ/mol
# Density = 2.608608 g / cm^3
# Si number density = 26.145591 Si / 1000 Ang^3
#
#
#
# Elastic Constant Matrix: (Units=GPa)
#
#
# Indices 1 2 3 4 5 6 
#
# 1 79.8959 13.7714 29.5825 0.0000 -13.4130 0.0000
# 2 13.7714 165.2001 8.6583 0.0000 -16.4377 0.0000
# 3 29.5825 8.6583 92.5779 0.0000 -16.2902 0.0000
# 4 0.0000 0.0000 0.0000 38.6481 0.0000 -11.0644
# 5 -13.4130 -16.4377 -16.2902 0.0000 42.3231 0.0000
# 6 0.0000 0.0000 0.0000 -11.0644 0.0000 13.0486
#
#
#
# Elastic Compliance Matrix: (Units=1/GPa)
#
#
# Indices 1 2 3 4 5 6 
#
# 1 0.014632 -0.000728 -0.004120 0.000000 0.002768 0.000000
# 2 -0.000728 0.006335 0.000035 0.000000 0.002243 0.000000
# 3 -0.004120 0.000035 0.012751 0.000000 0.003616 0.000000
# 4 0.000000 0.000000 0.000000 0.034169 0.000000 0.028973
# 5 0.002768 0.002243 0.003616 0.000000 0.026768 0.000000
# 6 0.000000 0.000000 0.000000 0.028973 0.000000 0.101204
#
#
# Mechanical properties :
#
#
# Convention : Reuss Voigt Hill
#
# Bulk Modulus (GPa) = 41.50868 49.07760 45.29314
# Shear Modulus (GPa) = 23.41722 37.84806 30.63264
#
# Velocity S-wave (km/s) = 2.99598 3.80885 3.42660
# Velocity P-wave (km/s) = 5.27999 6.17695 5.74600
#
# Compressibility (1/GPa) = 0.02409135
#
# Stress axis : x y z
#
# Youngs Moduli (GPa) = 68.34235 157.84442 78.42338
#
# Poissons Ratio (x) = 0.11497 0.32313
# Poissons Ratio (y) = 0.04978 -0.00274
# Poissons Ratio (z) = 0.28159 -0.00552
#
# Static dielectric constant tensor:
#      x y z
#    x 2.231120 0.000000 0.111180 
#    y 0.000000 2.107400 0.000000 
#    z 0.111180 0.000000 2.071390 
# 
# From -- ./inp_files/16578.got.cif
#   From: 2010.05.17/outbox.cif.g08.bks.cpg/sg9_9_cif.got.tgz:16578.got - 2010.06.03 20:04:27.
