data_PCOD9136395
_publ_section_title
;
Structure prediction by ZEFSAII (Michael W. Deem and Ramdas Pophale) SiO2 
 PCOD9136395
Probable space group: C C
;
_chemical_formula_sum "Si O2"
_cell_formula_units_Z 28
_cell_length_a 13.126895
_cell_length_b 15.078297
_cell_length_c 5.423608
_cell_angle_alpha 90.000000
_cell_angle_beta 93.316223
_cell_angle_gamma 90.000000
_cell_volume 1071.703754
_symmetry_space_group_name_H-M "C C"
_symmetry_group_IT_number 9
_symmetry_cell_setting 'monoclinic'
loop_
_space_group_symop_operation_xyz
x,y,z
x,-y,1/2+z
1/2+x,1/2+y,z
1/2+x,1/2-y,1/2+z
loop_
_atom_site_type_symbol
_atom_site_label
_atom_site_fract_x
_atom_site_fract_y
_atom_site_fract_z
Si Si1 0.271340 0.546837 0.711710
Si Si2 0.749324 0.207515 0.375478
Si Si3 0.137066 0.207597 0.460258
Si Si4 0.945408 0.737341 0.666551
Si Si5 0.490136 0.382765 0.316604
Si Si6 0.198095 0.098884 0.068747
Si Si7 0.895580 0.541833 0.857511
O O1 0.241854 0.478928 0.486204
O O2 0.231116 0.637329 0.584527
O O3 0.394711 0.444344 0.246342
O O4 0.684693 0.210796 0.116098
O O5 0.867308 0.203763 0.316131
O O6 0.723904 0.306810 0.447945
O O7 0.062028 0.250007 0.251873
O O8 0.214498 0.137239 0.348709
O O9 0.061222 0.146013 0.604282
O O10 0.918004 0.636589 0.732730
O O11 0.941535 0.788279 0.405296
O O12 0.577706 0.421960 0.515187
O O13 0.274474 0.038309 0.917931
O O14 0.934090 0.525554 0.146806
#
# Coordination Sequence:
#
# PCOD9136395 Si02
#       7
#     4   4   4   4   4   4   4
#     4  12  27  42  65 102 145 184 221 291 373 429
#     4  10  22  41  68  95 131 185 243 291 344 428
#     4  10  21  40  72  98 127 181 257 293 340 413
#     4  10  22  43  72  98 136 185 251 301 344 435
#     4  10  22  42  68 101 130 184 246 292 349 426
#     4   9  23  41  70  97 132 182 246 293 348 426
#     4  11  27  43  67 105 147 185 226 299 386 437
#
# _framework density 26.126622999999999
#
# number of rings (size 3 to 8) (size 9 to 14) (size 15 to 20)
#    0.000    1.714    1.429    0.857   14.000    1.143 
#    0.000    1.429    0.000    0.000    0.000    0.000 
#    0.000    0.000    0.000    0.000    0.000    0.000 
#
# Total GULP energy -77998.368509 kJ/mol
# GULP energy per Si atom -5571.312036 kJ/mol
# Density = 2.606716 g / cm^3
# Si number density = 26.126623 Si / 1000 Ang^3
#
#
#
# Elastic Constant Matrix: (Units=GPa)
#
#
# Indices 1 2 3 4 5 6 
#
# 1 39.3749 -0.0379 2.9418 0.0000 2.5117 0.0000
# 2 -0.0379 63.1923 11.1268 0.0000 -3.2716 0.0000
# 3 2.9418 11.1268 128.2621 0.0000 -8.1222 0.0000
# 4 0.0000 0.0000 0.0000 43.6135 0.0000 -3.8370
# 5 2.5117 -3.2716 -8.1222 0.0000 41.2823 0.0000
# 6 0.0000 0.0000 0.0000 -3.8370 0.0000 31.4511
#
#
#
# Elastic Compliance Matrix: (Units=1/GPa)
#
#
# Indices 1 2 3 4 5 6 
#
# 1 0.025557 0.000051 -0.000697 0.000000 -0.001688 0.000000
# 2 0.000051 0.016112 -0.001335 0.000000 0.001011 0.000000
# 3 -0.000697 -0.001335 0.008024 0.000000 0.001515 0.000000
# 4 0.000000 0.000000 0.000000 0.023177 0.000000 0.002828
# 5 -0.001688 0.001011 0.001515 0.000000 0.024704 0.000000
# 6 0.000000 0.000000 0.000000 0.002828 0.000000 0.032140
#
#
# Mechanical properties :
#
#
# Convention : Reuss Voigt Hill
#
# Bulk Modulus (GPa) = 21.86748 28.76563 25.31655
# Shear Modulus (GPa) = 33.57463 37.72261 35.64862
#
# Velocity S-wave (km/s) = 3.58868 3.80391 3.69786
# Velocity P-wave (km/s) = 5.05564 5.50699 5.28613
#
# Compressibility (1/GPa) = 0.04573001
#
# Stress axis : x y z
#
# Youngs Moduli (GPa) = 39.12860 62.06501 124.62153
#
# Poissons Ratio (x) = -0.00315 0.08692
# Poissons Ratio (y) = -0.00199 0.16635
# Poissons Ratio (z) = 0.02729 0.08285
#
# Static dielectric constant tensor:
#      x y z
#    x 2.066530 0.000000 0.094410 
#    y 0.000000 2.117860 0.000000 
#    z 0.094410 0.000000 2.364790 
# 
# From -- ./inp_files/2402.got.cif
#   From: 2010.05.17/outbox.cif.g08.bks.cpg/sg9_2_cif.got.tgz:2402.got - 2010.06.03 20:04:27.
