data_PCOD9136608
_publ_section_title
;
Structure prediction by ZEFSAII (Michael W. Deem and Ramdas Pophale) SiO2 
 PCOD9136608
Probable space group: C C
;
_chemical_formula_sum "Si O2"
_cell_formula_units_Z 32
_cell_length_a 12.684439
_cell_length_b 14.239214
_cell_length_c 8.086195
_cell_angle_alpha 90.000000
_cell_angle_beta 100.442291
_cell_angle_gamma 90.000000
_cell_volume 1436.310908
_symmetry_space_group_name_H-M "C C"
_symmetry_group_IT_number 9
_symmetry_cell_setting 'monoclinic'
loop_
_space_group_symop_operation_xyz
x,y,z
x,-y,1/2+z
1/2+x,1/2+y,z
1/2+x,1/2-y,1/2+z
loop_
_atom_site_type_symbol
_atom_site_label
_atom_site_fract_x
_atom_site_fract_y
_atom_site_fract_z
Si Si1 0.693150 0.692638 0.074300
Si Si2 0.644288 0.491434 0.727418
Si Si3 0.370031 0.696998 0.250044
Si Si4 0.350246 0.098346 0.859028
Si Si5 0.225424 0.702418 0.921604
Si Si6 0.081670 0.868808 0.994786
Si Si7 0.155514 0.634272 0.372775
Si Si8 0.082518 0.454704 0.513510
O O1 0.626462 0.606029 0.126751
O O2 0.735951 0.752139 0.244252
O O3 0.789157 0.645857 0.997545
O O4 0.626998 0.764828 0.941897
O O5 0.764405 0.531824 0.746680
O O6 0.634150 0.455309 0.911164
O O7 0.567988 0.579878 0.666003
O O8 0.378427 0.809880 0.260399
O O9 0.477296 0.659708 0.364688
O O10 0.275005 0.653820 0.337191
O O11 0.332687 0.675339 0.052219
O O12 0.457526 0.043775 0.934930
O O13 0.163245 0.781922 0.014513
O O14 0.146199 0.614076 0.906660
O O15 0.138342 0.555302 0.507207
O O16 0.093728 0.593308 0.196390
#
# Coordination Sequence:
#
# PCOD9136608 Si02
#       8
#     4   4   4   4   4   4   4   4
#     4  10  23  44  63  98 135 180 219 288 333 395
#     4  11  23  41  65  95 137 166 226 276 327 402
#     4  10  22  42  68  94 132 177 217 274 339 397
#     4  11  22  41  67  97 131 178 225 271 339 395
#     4  10  21  42  67  95 137 170 226 283 333 395
#     4  11  22  40  65  99 126 178 214 274 333 397
#     4  10  24  43  66  95 141 171 226 276 337 402
#     4  11  23  41  71 101 135 182 223 282 341 405
#
# _framework density 22.279298000000001
#
# number of rings (size 3 to 8) (size 9 to 14) (size 15 to 20)
#    0.000    1.500    3.750    0.750    1.750    2.000 
#    4.500    1.250    0.000    0.000    0.000    0.000 
#    0.000    0.000    0.000    0.000    0.000    0.000 
#
# Total GULP energy -89278.643672 kJ/mol
# GULP energy per Si atom -5579.915229 kJ/mol
# Density = 2.222859 g / cm^3
# Si number density = 22.279298 Si / 1000 Ang^3
#
#
#
# Elastic Constant Matrix: (Units=GPa)
#
#
# Indices 1 2 3 4 5 6 
#
# 1 42.6584 26.7498 20.1907 0.0000 29.8080 0.0000
# 2 26.7498 125.4735 41.7240 0.0000 7.1553 0.0000
# 3 20.1907 41.7240 91.3515 0.0000 13.6532 0.0000
# 4 0.0000 0.0000 0.0000 51.4147 0.0000 -4.5100
# 5 29.8080 7.1553 13.6532 0.0000 37.9957 0.0000
# 6 0.0000 0.0000 0.0000 -4.5100 0.0000 27.2028
#
#
#
# Elastic Compliance Matrix: (Units=1/GPa)
#
#
# Indices 1 2 3 4 5 6 
#
# 1 0.064235 -0.010169 -0.002438 0.000000 -0.047602 0.000000
# 2 -0.010169 0.011009 -0.003871 0.000000 0.007295 0.000000
# 3 -0.002438 -0.003871 0.013589 0.000000 -0.002241 0.000000
# 4 0.000000 0.000000 0.000000 0.019737 0.000000 0.003272
# 5 -0.047602 0.007295 -0.002241 0.000000 0.063095 0.000000
# 6 0.000000 0.000000 0.000000 0.003272 0.000000 0.037303
#
#
# Mechanical properties :
#
#
# Convention : Reuss Voigt Hill
#
# Bulk Modulus (GPa) = 17.89671 48.53472 33.21572
# Shear Modulus (GPa) = 19.19020 34.71056 26.95038
#
# Velocity S-wave (km/s) = 2.93805 3.95140 3.48179
# Velocity P-wave (km/s) = 4.42266 6.53070 5.57718
#
# Compressibility (1/GPa) = 0.05587618
#
# Stress axis : x y z
#
# Youngs Moduli (GPa) = 15.56777 90.83520 73.59085
#
# Poissons Ratio (x) = 0.92370 0.17944
# Poissons Ratio (y) = 0.15831 0.28487
# Poissons Ratio (z) = 0.03796 0.35163
#
# Static dielectric constant tensor:
#      x y z
#    x 1.805670 0.000000 -0.065980 
#    y 0.000000 1.819140 0.000000 
#    z -0.065980 0.000000 1.942670 
# 
# From -- ./inp_files/9286.got.cif
#   From: 2010.05.17/outbox.cif.g08.bks.cpg/sg9_5_cif.got.tgz:9286.got - 2010.06.03 20:04:27.
