data_PCOD9136553
_publ_section_title
;
Structure prediction by ZEFSAII (Michael W. Deem and Ramdas Pophale) SiO2 
 PCOD9136553
Probable space group: C C
;
_chemical_formula_sum "Si O2"
_cell_formula_units_Z 28
_cell_length_a 17.636904
_cell_length_b 10.365723
_cell_length_c 8.565976
_cell_angle_alpha 90.000000
_cell_angle_beta 133.672213
_cell_angle_gamma 90.000000
_cell_volume 1132.709498
_symmetry_space_group_name_H-M "C C"
_symmetry_group_IT_number 9
_symmetry_cell_setting 'monoclinic'
loop_
_space_group_symop_operation_xyz
x,y,z
x,-y,1/2+z
1/2+x,1/2+y,z
1/2+x,1/2-y,1/2+z
loop_
_atom_site_type_symbol
_atom_site_label
_atom_site_fract_x
_atom_site_fract_y
_atom_site_fract_z
Si Si1 0.985930 0.058874 0.769450
Si Si2 0.821819 0.635281 0.330359
Si Si3 0.356114 0.378208 0.792645
Si Si4 0.760404 0.404152 0.424035
Si Si5 0.018718 0.809298 0.629066
Si Si6 0.933340 0.375947 0.446498
Si Si7 0.638160 0.808145 0.567954
O O1 0.941926 0.124287 0.552330
O O2 0.890049 0.988608 0.724061
O O3 0.040724 0.935734 0.767008
O O4 0.035923 0.148490 0.973888
O O5 0.897601 0.757185 0.461695
O O6 0.898791 0.522833 0.369980
O O7 0.763500 0.556174 0.385948
O O8 0.742584 0.645531 0.072516
O O9 0.240942 0.394605 0.694825
O O10 0.372022 0.231699 0.755807
O O11 0.681376 0.326858 0.199996
O O12 0.877337 0.360453 0.535207
O O13 0.086640 0.705969 0.822634
O O14 0.052616 0.360156 0.567546
#
# Coordination Sequence:
#
# PCOD9136553 Si02
#       7
#     4   4   4   4   4   4   4
#     4  10  23  42  64  85 134 173 206 257 328 380
#     4  10  21  42  68  92 128 169 211 261 328 373
#     4  10  21  42  62  91 127 166 208 260 314 376
#     4   9  22  38  66  93 128 166 208 261 315 375
#     4  11  22  40  67  93 123 175 213 261 324 380
#     4   9  20  38  64  90 129 157 207 262 313 361
#     4  11  21  38  67  94 129 160 213 262 312 373
#
# _framework density 24.719487999999998
#
# number of rings (size 3 to 8) (size 9 to 14) (size 15 to 20)
#    0.857    1.143    1.429    2.571    0.000    2.286 
#    0.000    0.000   12.571    0.000    0.000    0.000 
#    0.000    0.000    0.000    0.000    0.000    0.000 
#
# Total GULP energy -77957.968718 kJ/mol
# GULP energy per Si atom -5568.426337 kJ/mol
# Density = 2.466322 g / cm^3
# Si number density = 24.719488 Si / 1000 Ang^3
#
#
#
# Elastic Constant Matrix: (Units=GPa)
#
#
# Indices 1 2 3 4 5 6 
#
# 1 117.7092 -1.7786 23.8025 0.0000 2.9875 0.0000
# 2 -1.7786 43.6843 2.1651 0.0000 -8.7601 0.0000
# 3 23.8025 2.1651 103.1345 0.0000 -18.1782 0.0000
# 4 0.0000 0.0000 0.0000 23.2616 0.0000 -1.6543
# 5 2.9875 -8.7601 -18.1782 0.0000 32.7622 0.0000
# 6 0.0000 0.0000 0.0000 -1.6543 0.0000 26.3261
#
#
#
# Elastic Compliance Matrix: (Units=1/GPa)
#
#
# Indices 1 2 3 4 5 6 
#
# 1 0.009052 0.000053 -0.002475 0.000000 -0.002185 0.000000
# 2 0.000053 0.024235 0.000687 0.000000 0.006857 0.000000
# 3 -0.002475 0.000687 0.011444 0.000000 0.006759 0.000000
# 4 0.000000 0.000000 0.000000 0.043182 0.000000 0.002714
# 5 -0.002185 0.006857 0.006759 0.000000 0.036306 0.000000
# 6 0.000000 0.000000 0.000000 0.002714 0.000000 0.038156
#
#
# Mechanical properties :
#
#
# Convention : Reuss Voigt Hill
#
# Bulk Modulus (GPa) = 24.23554 34.76734 29.50144
# Shear Modulus (GPa) = 27.83985 32.49257 30.16621
#
# Velocity S-wave (km/s) = 3.35958 3.62947 3.49713
# Velocity P-wave (km/s) = 4.98744 5.62666 5.31667
#
# Compressibility (1/GPa) = 0.04126171
#
# Stress axis : x y z
#
# Youngs Moduli (GPa) = 110.46891 41.26342 87.37947
#
# Poissons Ratio (x) = -0.00219 0.21630
# Poissons Ratio (y) = -0.00587 -0.06007
# Poissons Ratio (z) = 0.27345 -0.02837
#
# Static dielectric constant tensor:
#      x y z
#    x 2.014920 0.000000 -0.008960 
#    y 0.000000 2.125410 0.000000 
#    z -0.008960 0.000000 2.026830 
# 
# From -- ./inp_files/11639.got.cif
#   From: 2010.05.17/outbox.cif.g08.bks.cpg/sg9_6_cif.got.tgz:11639.got - 2010.06.03 20:04:27.
