data_PCOD9136671
_publ_section_title
;
Structure prediction by ZEFSAII (Michael W. Deem and Ramdas Pophale) SiO2 
 PCOD9136671
Probable space group: C C
;
_chemical_formula_sum "Si O2"
_cell_formula_units_Z 24
_cell_length_a 19.312065
_cell_length_b 8.086023
_cell_length_c 8.728767
_cell_angle_alpha 90.000000
_cell_angle_beta 40.649779
_cell_angle_gamma 90.000000
_cell_volume 887.946427
_symmetry_space_group_name_H-M "C C"
_symmetry_group_IT_number 9
_symmetry_cell_setting 'monoclinic'
loop_
_space_group_symop_operation_xyz
x,y,z
x,-y,1/2+z
1/2+x,1/2+y,z
1/2+x,1/2-y,1/2+z
loop_
_atom_site_type_symbol
_atom_site_label
_atom_site_fract_x
_atom_site_fract_y
_atom_site_fract_z
Si Si1 0.135910 0.460564 0.803880
Si Si2 0.707307 0.453846 0.613492
Si Si3 0.499910 0.124048 0.251191
Si Si4 0.341715 0.158572 0.139788
Si Si5 0.881514 0.072016 0.820106
Si Si6 0.573813 0.343450 0.570288
O O1 0.085394 0.366703 0.743312
O O2 0.260438 0.469650 0.566898
O O3 0.061716 0.611564 0.984504
O O4 0.105484 0.346503 0.000463
O O5 0.787026 0.551319 0.367477
O O6 0.763858 0.318508 0.625367
O O7 0.608026 0.396868 0.680544
O O8 0.661755 0.577552 0.813378
O O9 0.429219 0.289023 0.355412
O O10 0.425903 0.969412 0.424318
O O11 0.375340 0.328847 0.166890
O O12 0.961286 0.915426 0.701672
#
# Coordination Sequence:
#
# PCOD9136671 Si02
#       6
#     4   4   4   4   4   4
#     4  12  28  52  74 113 155 200 257 326 381 469
#     4  10  21  42  75 110 147 209 246 308 390 462
#     4  12  26  49  77 107 154 206 255 309 394 467
#     4  11  20  46  75 110 149 206 252 313 381 459
#     4  12  26  48  78 113 156 200 262 322 385 464
#     4  11  25  45  77 111 153 201 258 320 385 457
#
# _framework density 27.028659000000001
#
# number of rings (size 3 to 8) (size 9 to 14) (size 15 to 20)
#    0.000    0.667    5.000    2.000    4.667    2.667 
#    0.000    1.667    0.000    0.000    0.000    0.000 
#    0.000    0.000    0.000    0.000    0.000    0.000 
#
# Total GULP energy -67197.331122 kJ/mol
# GULP energy per Si atom -5599.777594 kJ/mol
# Density = 2.696714 g / cm^3
# Si number density = 27.028659 Si / 1000 Ang^3
#
#
#
# Elastic Constant Matrix: (Units=GPa)
#
#
# Indices 1 2 3 4 5 6 
#
# 1 141.9433 9.1799 35.1069 0.0000 -4.4784 0.0000
# 2 9.1799 75.2300 41.3690 0.0000 -17.0262 0.0000
# 3 35.1069 41.3690 175.5683 0.0000 -28.6553 0.0000
# 4 0.0000 0.0000 0.0000 41.9868 0.0000 -5.3015
# 5 -4.4784 -17.0262 -28.6553 0.0000 55.4269 0.0000
# 6 0.0000 0.0000 0.0000 -5.3015 0.0000 37.6641
#
#
#
# Elastic Compliance Matrix: (Units=1/GPa)
#
#
# Indices 1 2 3 4 5 6 
#
# 1 0.007414 -0.000136 -0.001485 0.000000 -0.000210 0.000000
# 2 -0.000136 0.015775 -0.003168 0.000000 0.003197 0.000000
# 3 -0.001485 -0.003168 0.007165 0.000000 0.002611 0.000000
# 4 0.000000 0.000000 0.000000 0.024248 0.000000 0.003413
# 5 -0.000210 0.003197 0.002611 0.000000 0.020357 0.000000
# 6 0.000000 0.000000 0.000000 0.003413 0.000000 0.027031
#
#
# Mechanical properties :
#
#
# Convention : Reuss Voigt Hill
#
# Bulk Modulus (GPa) = 48.12995 62.67260 55.40128
# Shear Modulus (GPa) = 42.19635 47.48795 44.84215
#
# Velocity S-wave (km/s) = 3.95545 4.19614 4.07757
# Velocity P-wave (km/s) = 6.22145 6.83481 6.53533
#
# Compressibility (1/GPa) = 0.02077708
#
# Stress axis : x y z
#
# Youngs Moduli (GPa) = 134.87112 63.39233 139.55930
#
# Poissons Ratio (x) = 0.00861 0.20724
# Poissons Ratio (y) = 0.01831 0.44213
# Poissons Ratio (z) = 0.20028 0.20083
#
# Static dielectric constant tensor:
#      x y z
#    x 2.184180 0.000000 -0.039550 
#    y 0.000000 2.261170 0.000000 
#    z -0.039550 0.000000 2.048590 
# 
# From -- ./inp_files/6759.got.cif
#   From: 2010.05.17/outbox.cif.g08.bks.cpg/sg9_4_cif.got.tgz:6759.got - 2010.06.03 20:04:27.
