data_PCOD9136934
_publ_section_title
;
Structure prediction by ZEFSAII (Michael W. Deem and Ramdas Pophale) SiO2 
 PCOD9136934
Probable space group: C C
;
_chemical_formula_sum "Si O2"
_cell_formula_units_Z 32
_cell_length_a 6.421977
_cell_length_b 16.699012
_cell_length_c 14.302105
_cell_angle_alpha 90.000000
_cell_angle_beta 109.594106
_cell_angle_gamma 90.000000
_cell_volume 1444.949870
_symmetry_space_group_name_H-M "C C"
_symmetry_group_IT_number 9
_symmetry_cell_setting 'monoclinic'
loop_
_space_group_symop_operation_xyz
x,y,z
x,-y,1/2+z
1/2+x,1/2+y,z
1/2+x,1/2-y,1/2+z
loop_
_atom_site_type_symbol
_atom_site_label
_atom_site_fract_x
_atom_site_fract_y
_atom_site_fract_z
Si Si1 0.909510 0.529992 0.312530
Si Si2 0.729336 0.096841 0.911860
Si Si3 0.003781 0.947340 0.283844
Si Si4 0.323653 0.142935 0.132994
Si Si5 0.626712 0.869580 0.987370
Si Si6 0.862904 0.764853 0.531915
Si Si7 0.562485 0.305353 0.144256
Si Si8 0.156183 0.477129 0.593390
O O1 0.700640 0.506274 0.343170
O O2 0.812760 0.575121 0.210124
O O3 0.034358 0.445733 0.325191
O O4 0.088106 0.589290 0.383152
O O5 0.920285 0.096225 0.864130
O O6 0.683888 0.183031 0.948883
O O7 0.773190 0.044511 0.012250
O O8 0.079136 0.878412 0.220896
O O9 0.822534 0.004022 0.203649
O O10 0.463124 0.223982 0.175167
O O11 0.475110 0.092266 0.082281
O O12 0.076791 0.177062 0.079395
O O13 0.452776 0.800206 0.974636
O O14 0.869800 0.837035 0.045152
O O15 0.561435 0.935646 0.055636
O O16 0.768223 0.724379 0.611781
#
# Coordination Sequence:
#
# PCOD9136934 Si02
#       8
#     4   4   4   4   4   4   4   4
#     4  11  25  41  67 105 134 175 235 299 342 425
#     4  11  24  42  67 102 138 178 233 286 356 414
#     4  11  25  43  70 102 138 184 235 293 353 421
#     4  11  23  43  70  99 140 181 234 290 355 422
#     4   9  24  42  66  96 137 180 231 289 348 423
#     4  11  24  43  70  95 135 193 227 284 361 425
#     4  10  24  46  67  95 139 186 228 287 356 426
#     4  10  21  46  67  98 143 181 229 294 355 418
#
# _framework density 22.146096
#
# number of rings (size 3 to 8) (size 9 to 14) (size 15 to 20)
#    0.000    1.500    2.500    0.750    7.000    4.000 
#    0.000    0.000    0.000    0.000    0.000    0.000 
#    0.000    0.000    0.000    0.000    0.000    0.000 
#
# Total GULP energy -89086.175574 kJ/mol
# GULP energy per Si atom -5567.885973 kJ/mol
# Density = 2.209569 g / cm^3
# Si number density = 22.146096 Si / 1000 Ang^3
#
#
#
# Elastic Constant Matrix: (Units=GPa)
#
#
# Indices 1 2 3 4 5 6 
#
# 1 83.9372 39.2730 32.2943 0.0000 -14.0588 0.0000
# 2 39.2730 98.0675 19.6830 0.0000 11.2830 0.0000
# 3 32.2943 19.6830 43.9761 0.0000 -15.1057 0.0000
# 4 0.0000 0.0000 0.0000 29.3080 0.0000 1.0065
# 5 -14.0588 11.2830 -15.1057 0.0000 25.3727 0.0000
# 6 0.0000 0.0000 0.0000 1.0065 0.0000 33.4018
#
#
#
# Elastic Compliance Matrix: (Units=1/GPa)
#
#
# Indices 1 2 3 4 5 6 
#
# 1 0.020216 -0.007594 -0.008094 0.000000 0.009759 0.000000
# 2 -0.007594 0.016528 -0.007279 0.000000 -0.015891 0.000000
# 3 -0.008094 -0.007279 0.039614 0.000000 0.022337 0.000000
# 4 0.000000 0.000000 0.000000 0.034156 0.000000 -0.001029
# 5 0.009759 -0.015891 0.022337 0.000000 0.065185 0.000000
# 6 0.000000 0.000000 0.000000 -0.001029 0.000000 0.029969
#
#
# Mechanical properties :
#
#
# Convention : Reuss Voigt Hill
#
# Bulk Modulus (GPa) = 32.87053 45.38684 39.12869
# Shear Modulus (GPa) = 19.10264 26.59854 22.85059
#
# Velocity S-wave (km/s) = 2.94015 3.46937 3.21567
# Velocity P-wave (km/s) = 5.13817 6.04876 5.61196
#
# Compressibility (1/GPa) = 0.03042239
#
# Stress axis : x y z
#
# Youngs Moduli (GPa) = 49.46671 60.50486 25.24329
#
# Poissons Ratio (x) = 0.45947 0.20433
# Poissons Ratio (y) = 0.37565 0.18376
# Poissons Ratio (z) = 0.40040 0.44044
#
# Static dielectric constant tensor:
#      x y z
#    x 1.893850 0.000000 0.016780 
#    y 0.000000 1.865550 0.000000 
#    z 0.016780 0.000000 1.829420 
# 
# From -- ./inp_files/22007.got.cif
#   From: 2010.05.17/outbox.cif.g08.bks.cpg/sg9_12_cif.got.tgz:22007.got - 2010.06.03 20:04:27.
