data_PCOD9136660
_publ_section_title
;
Structure prediction by ZEFSAII (Michael W. Deem and Ramdas Pophale) SiO2 
 PCOD9136660
Probable space group: C C
;
_chemical_formula_sum "Si O2"
_cell_formula_units_Z 32
_cell_length_a 13.230116
_cell_length_b 8.691266
_cell_length_c 11.766201
_cell_angle_alpha 90.000000
_cell_angle_beta 112.192208
_cell_angle_gamma 90.000000
_cell_volume 1252.729608
_symmetry_space_group_name_H-M "C C"
_symmetry_group_IT_number 9
_symmetry_cell_setting 'monoclinic'
loop_
_space_group_symop_operation_xyz
x,y,z
x,-y,1/2+z
1/2+x,1/2+y,z
1/2+x,1/2-y,1/2+z
loop_
_atom_site_type_symbol
_atom_site_label
_atom_site_fract_x
_atom_site_fract_y
_atom_site_fract_z
Si Si1 0.854710 0.705239 0.370190
Si Si2 0.234802 0.039639 0.960628
Si Si3 0.870148 0.185948 0.103473
Si Si4 0.908749 0.209721 0.482123
Si Si5 0.973458 0.417932 0.305011
Si Si6 0.172837 0.776582 0.630346
Si Si7 0.697251 0.022788 0.453490
Si Si8 0.045354 0.014958 0.711086
O O1 0.773249 0.617643 0.422500
O O2 0.913118 0.809756 0.488626
O O3 0.921718 0.572637 0.335828
O O4 0.780124 0.779268 0.242706
O O5 0.342575 0.145222 0.004240
O O6 0.133186 0.085947 0.834433
O O7 0.193620 0.064489 0.069244
O O8 0.900911 0.347514 0.173513
O O9 0.929766 0.052679 0.203351
O O10 0.747769 0.121282 0.043232
O O11 0.964664 0.283759 0.395908
O O12 0.802043 0.095946 0.432379
O O13 0.002251 0.137025 0.600549
O O14 0.098280 0.463806 0.334029
O O15 0.151944 0.647659 0.525996
O O16 0.093448 0.849491 0.689630
#
# Coordination Sequence:
#
# PCOD9136660 Si02
#       8
#     4   4   4   4   4   4   4   4
#     4  10  22  42  66  99 138 177 229 285 340 424
#     4   9  20  40  64  95 135 173 228 276 341 407
#     4  11  25  43  65 100 140 172 233 289 341 422
#     4   9  22  44  61 102 135 175 228 282 336 418
#     4  11  24  44  71  99 137 188 225 286 365 405
#     4  10  21  42  71  96 135 184 225 278 349 413
#     4  10  24  45  66 102 137 180 233 284 346 420
#     4  10  22  40  68  99 137 181 225 284 346 413
#
# _framework density 25.544218999999998
#
# number of rings (size 3 to 8) (size 9 to 14) (size 15 to 20)
#    0.000    2.000    0.000    1.500    5.250    5.000 
#   29.250    0.000    0.000    0.000    0.000    0.000 
#    0.000    0.000    0.000    0.000    0.000    0.000 
#
# Total GULP energy -89162.618575 kJ/mol
# GULP energy per Si atom -5572.663661 kJ/mol
# Density = 2.548608 g / cm^3
# Si number density = 25.544219 Si / 1000 Ang^3
#
#
#
# Elastic Constant Matrix: (Units=GPa)
#
#
# Indices 1 2 3 4 5 6 
#
# 1 54.3494 23.2808 9.8118 0.0000 12.6204 0.0000
# 2 23.2808 95.7528 21.6676 0.0000 7.6516 0.0000
# 3 9.8118 21.6676 86.0508 0.0000 23.1389 0.0000
# 4 0.0000 0.0000 0.0000 51.2002 0.0000 6.2395
# 5 12.6204 7.6516 23.1389 0.0000 27.8929 0.0000
# 6 0.0000 0.0000 0.0000 6.2395 0.0000 36.0483
#
#
#
# Elastic Compliance Matrix: (Units=1/GPa)
#
#
# Indices 1 2 3 4 5 6 
#
# 1 0.022620 -0.005011 0.001371 0.000000 -0.009997 0.000000
# 2 -0.005011 0.012204 -0.002846 0.000000 0.001280 0.000000
# 3 0.001371 -0.002846 0.015623 0.000000 -0.012800 0.000000
# 4 0.000000 0.000000 0.000000 0.019952 0.000000 -0.003453
# 5 -0.009997 0.001280 -0.012800 0.000000 0.050642 0.000000
# 6 0.000000 0.000000 0.000000 -0.003453 0.000000 0.028338
#
#
# Mechanical properties :
#
#
# Convention : Reuss Voigt Hill
#
# Bulk Modulus (GPa) = 26.68469 38.40815 32.54642
# Shear Modulus (GPa) = 28.59718 35.12113 31.85915
#
# Velocity S-wave (km/s) = 3.34955 3.71201 3.53543
# Velocity P-wave (km/s) = 5.04266 5.78278 5.42536
#
# Compressibility (1/GPa) = 0.03747467
#
# Stress axis : x y z
#
# Youngs Moduli (GPa) = 44.20885 81.94334 64.00743
#
# Poissons Ratio (x) = 0.41062 -0.08774
# Poissons Ratio (y) = 0.22153 0.18215
# Poissons Ratio (z) = -0.06060 0.23319
#
# Static dielectric constant tensor:
#      x y z
#    x 2.105760 0.000000 0.052890 
#    y 0.000000 2.119250 0.000000 
#    z 0.052890 0.000000 2.111110 
# 
# From -- ./inp_files/17989.got.cif
#   From: 2010.05.17/outbox.cif.g08.bks.cpg/sg9_9_cif.got.tgz:17989.got - 2010.06.03 20:04:27.
