data_PCOD9136899
_publ_section_title
;
Structure prediction by ZEFSAII (Michael W. Deem and Ramdas Pophale) SiO2 
 PCOD9136899
Probable space group: C C
;
_chemical_formula_sum "Si O2"
_cell_formula_units_Z 32
_cell_length_a 12.679385
_cell_length_b 7.807891
_cell_length_c 15.030799
_cell_angle_alpha 90.000000
_cell_angle_beta 57.435912
_cell_angle_gamma 90.000000
_cell_volume 1254.103364
_symmetry_space_group_name_H-M "C C"
_symmetry_group_IT_number 9
_symmetry_cell_setting 'monoclinic'
loop_
_space_group_symop_operation_xyz
x,y,z
x,-y,1/2+z
1/2+x,1/2+y,z
1/2+x,1/2-y,1/2+z
loop_
_atom_site_type_symbol
_atom_site_label
_atom_site_fract_x
_atom_site_fract_y
_atom_site_fract_z
Si Si1 0.363770 0.001052 0.795910
Si Si2 0.208959 0.528147 0.730727
Si Si3 0.591368 0.854683 0.617946
Si Si4 0.118010 0.885502 0.849524
Si Si5 0.163123 0.995088 0.646074
Si Si6 0.137068 0.613148 0.449075
Si Si7 0.946022 0.185444 0.137160
Si Si8 0.862111 0.714971 0.959556
O O1 0.380759 0.154263 0.716449
O O2 0.412984 0.073140 0.866910
O O3 0.448083 0.849017 0.717339
O O4 0.219072 0.950694 0.874151
O O5 0.149657 0.489139 0.662036
O O6 0.180557 0.718552 0.775393
O O7 0.159746 0.415768 0.835950
O O8 0.351303 0.465049 0.658356
O O9 0.662385 0.678292 0.599230
O O10 0.603470 0.935875 0.515192
O O11 0.977025 0.833998 0.936619
O O12 0.126469 0.020196 0.765049
O O13 0.289089 0.888964 0.568659
O O14 0.050647 0.885697 0.655818
O O15 0.260261 0.683134 0.445122
O O16 0.022065 0.739944 0.519525
#
# Coordination Sequence:
#
# PCOD9136899 Si02
#       8
#     4   4   4   4   4   4   4   4
#     4  11  22  45  69 100 141 183 234 308 356 432
#     4  12  22  43  71 102 143 188 237 303 369 436
#     4  11  25  46  70 105 146 185 245 307 363 450
#     4  12  25  43  72  99 142 190 239 299 371 431
#     4  11  24  46  69 101 145 186 235 306 366 435
#     4  10  24  45  73 100 145 188 239 300 374 433
#     4  10  21  45  69 102 140 180 237 299 355 447
#     4  11  23  47  69 101 146 190 242 304 364 440
#
# _framework density 25.516235999999999
#
# number of rings (size 3 to 8) (size 9 to 14) (size 15 to 20)
#    0.000    1.000    3.750    3.000    1.750    3.000 
#    9.000    0.000    0.000    0.000    0.000    0.000 
#    0.000    0.000    0.000    0.000    0.000    0.000 
#
# Total GULP energy -89662.331070 kJ/mol
# GULP energy per Si atom -5603.895692 kJ/mol
# Density = 2.545816 g / cm^3
# Si number density = 25.516236 Si / 1000 Ang^3
#
#
#
# Elastic Constant Matrix: (Units=GPa)
#
#
# Indices 1 2 3 4 5 6 
#
# 1 93.6384 13.4019 23.2453 0.0000 -23.4746 0.0000
# 2 13.4019 76.1767 20.9172 0.0000 -8.1414 0.0000
# 3 23.2453 20.9172 119.6283 0.0000 -7.4978 0.0000
# 4 0.0000 0.0000 0.0000 32.1801 0.0000 -1.9619
# 5 -23.4746 -8.1414 -7.4978 0.0000 40.8118 0.0000
# 6 0.0000 0.0000 0.0000 -1.9619 0.0000 46.9771
#
#
#
# Elastic Compliance Matrix: (Units=1/GPa)
#
#
# Indices 1 2 3 4 5 6 
#
# 1 0.013044 -0.001025 -0.001920 0.000000 0.006946 0.000000
# 2 -0.001025 0.014093 -0.002151 0.000000 0.001827 0.000000
# 3 -0.001920 -0.002151 0.009117 0.000000 0.000142 0.000000
# 4 0.000000 0.000000 0.000000 0.031154 0.000000 0.001301
# 5 0.006946 0.001827 0.000142 0.000000 0.028888 0.000000
# 6 0.000000 0.000000 0.000000 0.001301 0.000000 0.021341
#
#
# Mechanical properties :
#
#
# Convention : Reuss Voigt Hill
#
# Bulk Modulus (GPa) = 38.36876 44.95248 41.66062
# Shear Modulus (GPa) = 36.62523 39.45240 38.03881
#
# Velocity S-wave (km/s) = 3.79274 3.93640 3.86524
# Velocity P-wave (km/s) = 5.85230 6.18997 6.02351
#
# Compressibility (1/GPa) = 0.02606287
#
# Stress axis : x y z
#
# Youngs Moduli (GPa) = 76.66379 70.95474 109.68265
#
# Poissons Ratio (x) = 0.07275 0.21059
# Poissons Ratio (y) = 0.07861 0.23588
# Poissons Ratio (z) = 0.14720 0.15259
#
# Static dielectric constant tensor:
#      x y z
#    x 2.022890 0.000000 -0.040610 
#    y 0.000000 2.015490 0.000000 
#    z -0.040610 0.000000 1.991690 
# 
# From -- ./inp_files/24340.got.cif
#   From: 2010.05.17/outbox.cif.g08.bks.cpg/sg9_13_cif.got.tgz:24340.got - 2010.06.03 20:04:27.
