data_PCOD9136014
_publ_section_title
;
Structure prediction by ZEFSAII (Michael W. Deem and Ramdas Pophale) SiO2 
 PCOD9136014
Probable space group: C C
;
_chemical_formula_sum "Si O2"
_cell_formula_units_Z 32
_cell_length_a 9.667545
_cell_length_b 22.961401
_cell_length_c 5.746440
_cell_angle_alpha 90.000000
_cell_angle_beta 105.787850
_cell_angle_gamma 90.000000
_cell_volume 1227.475933
_symmetry_space_group_name_H-M "C C"
_symmetry_group_IT_number 9
_symmetry_cell_setting 'monoclinic'
loop_
_space_group_symop_operation_xyz
x,y,z
x,-y,1/2+z
1/2+x,1/2+y,z
1/2+x,1/2-y,1/2+z
loop_
_atom_site_type_symbol
_atom_site_label
_atom_site_fract_x
_atom_site_fract_y
_atom_site_fract_z
Si Si1 0.375000 0.028552 0.563960
Si Si2 0.591151 0.160843 0.585706
Si Si3 0.800564 0.245287 0.355002
Si Si4 0.559947 0.287286 0.659599
Si Si5 0.195534 0.141936 0.610280
Si Si6 0.705041 0.988481 0.686626
Si Si7 0.090898 0.641455 0.106194
Si Si8 0.414551 0.650303 0.713220
O O1 0.294797 0.088611 0.586853
O O2 0.335573 0.008549 0.281593
O O3 0.550782 0.023335 0.633534
O O4 0.625948 0.230307 0.566811
O O5 0.505242 0.142895 0.313866
O O6 0.750127 0.130429 0.650275
O O7 0.536738 0.147877 0.818967
O O8 0.745245 0.312117 0.335004
O O9 0.697048 0.195895 0.192499
O O10 0.926681 0.244407 0.218921
O O11 0.896343 0.216315 0.605119
O O12 0.487954 0.340773 0.492716
O O13 0.673189 0.314242 0.886301
O O14 0.034070 0.120935 0.606498
O O15 0.666161 0.920649 0.650080
O O16 0.777770 0.002493 0.471711
#
# Coordination Sequence:
#
# PCOD9136014 Si02
#       8
#     4   4   4   4   4   4   4   4
#     4  10  25  48  66  98 133 181 240 282 341 407
#     4  11  23  39  64 102 139 177 220 279 349 413
#     4  10  22  39  61 106 141 180 220 284 364 413
#     4  11  21  37  63  97 142 182 223 275 349 425
#     4  11  23  41  69  97 142 183 228 296 344 423
#     4  10  22  43  68  96 131 179 225 282 337 401
#     4  11  21  41  64  94 142 171 226 280 340 413
#     4  10  21  38  61  96 140 181 226 272 348 423
#
# _framework density 26.069758
#
# number of rings (size 3 to 8) (size 9 to 14) (size 15 to 20)
#    0.000    1.500    2.500    2.250    3.500    4.000 
#    0.000    1.250    0.000   19.500    0.000    0.000 
#    0.000    0.000    0.000    0.000    0.000    0.000 
#
# Total GULP energy -89235.946993 kJ/mol
# GULP energy per Si atom -5577.246687 kJ/mol
# Density = 2.601042 g / cm^3
# Si number density = 26.069758 Si / 1000 Ang^3
#
#
#
# Elastic Constant Matrix: (Units=GPa)
#
#
# Indices 1 2 3 4 5 6 
#
# 1 90.6485 33.6239 2.5940 0.0000 7.1301 0.0000
# 2 33.6239 107.3019 39.5599 0.0000 0.9889 0.0000
# 3 2.5940 39.5599 179.8934 0.0000 -29.1031 0.0000
# 4 0.0000 0.0000 0.0000 38.6620 0.0000 -7.0619
# 5 7.1301 0.9889 -29.1031 0.0000 23.2087 0.0000
# 6 0.0000 0.0000 0.0000 -7.0619 0.0000 33.4325
#
#
#
# Elastic Compliance Matrix: (Units=1/GPa)
#
#
# Indices 1 2 3 4 5 6 
#
# 1 0.012805 -0.004021 0.000114 0.000000 -0.003619 0.000000
# 2 -0.004021 0.011717 -0.003010 0.000000 -0.003039 0.000000
# 3 0.000114 -0.003010 0.007821 0.000000 0.009900 0.000000
# 4 0.000000 0.000000 0.000000 0.026903 0.000000 0.005683
# 5 -0.003619 -0.003039 0.009900 0.000000 0.056744 0.000000
# 6 0.000000 0.000000 0.000000 0.005683 0.000000 0.031111
#
#
# Mechanical properties :
#
#
# Convention : Reuss Voigt Hill
#
# Bulk Modulus (GPa) = 54.03050 58.82215 56.42633
# Shear Modulus (GPa) = 29.92124 39.19836 34.55980
#
# Velocity S-wave (km/s) = 3.39150 3.88183 3.64492
# Velocity P-wave (km/s) = 6.00889 6.53481 6.27736
#
# Compressibility (1/GPa) = 0.01850806
#
# Stress axis : x y z
#
# Youngs Moduli (GPa) = 78.09709 85.34301 127.86245
#
# Poissons Ratio (x) = 0.34317 -0.01459
# Poissons Ratio (y) = 0.31404 0.38492
# Poissons Ratio (z) = -0.00891 0.25692
#
# Static dielectric constant tensor:
#      x y z
#    x 2.141650 0.000000 -0.115610 
#    y 0.000000 2.075100 0.000000 
#    z -0.115610 0.000000 2.171710 
# 
# From -- ./inp_files/2073.got.cif
#   From: 2010.05.17/outbox.cif.g08.bks.cpg/sg9_2_cif.got.tgz:2073.got - 2010.06.03 20:04:27.
