data_PCOD9136283
_publ_section_title
;
Structure prediction by ZEFSAII (Michael W. Deem and Ramdas Pophale) SiO2 
 PCOD9136283
Probable space group: C C
;
_chemical_formula_sum "Si O2"
_cell_formula_units_Z 28
_cell_length_a 8.553968
_cell_length_b 10.936528
_cell_length_c 13.827924
_cell_angle_alpha 90.000000
_cell_angle_beta 60.697897
_cell_angle_gamma 90.000000
_cell_volume 1128.096139
_symmetry_space_group_name_H-M "C C"
_symmetry_group_IT_number 9
_symmetry_cell_setting 'monoclinic'
loop_
_space_group_symop_operation_xyz
x,y,z
x,-y,1/2+z
1/2+x,1/2+y,z
1/2+x,1/2-y,1/2+z
loop_
_atom_site_type_symbol
_atom_site_label
_atom_site_fract_x
_atom_site_fract_y
_atom_site_fract_z
Si Si1 0.432810 0.859439 0.670170
Si Si2 0.053505 0.738063 0.320054
Si Si3 0.244609 0.554720 0.542680
Si Si4 0.711326 0.542511 0.092122
Si Si5 0.826352 0.057292 0.203287
Si Si6 0.928592 0.300412 0.051666
Si Si7 0.651308 0.483227 0.380284
O O1 0.496936 0.755868 0.725603
O O2 0.607110 0.938093 0.585635
O O3 0.320368 0.844885 0.606063
O O4 0.296089 0.931648 0.783880
O O5 0.151476 0.606738 0.308711
O O6 0.902296 0.735893 0.447454
O O7 0.166375 0.851755 0.324397
O O8 0.281670 0.555872 0.647389
O O9 0.128252 0.660694 0.527617
O O10 0.443634 0.530653 0.439804
O O11 0.513234 0.536432 0.197885
O O12 0.693761 0.536559 0.981587
O O13 0.816504 0.423157 0.094050
O O14 0.872272 0.182128 0.129035
#
# Coordination Sequence:
#
# PCOD9136283 Si02
#       7
#     4   4   4   4   4   4   4
#     4  10  22  40  63  93 126 165 210 258 308 374
#     4  11  21  38  67  88 122 168 201 257 322 360
#     4   9  21  38  61  93 123 159 208 255 305 371
#     4  10  21  40  64  91 124 163 210 258 304 375
#     4  10  22  42  61  88 126 161 206 258 305 370
#     4  11  20  40  64  88 123 165 201 253 315 364
#     4  11  21  42  66  91 128 167 206 257 317 370
#
# _framework density 24.820581000000001
#
# number of rings (size 3 to 8) (size 9 to 14) (size 15 to 20)
#    0.000    1.714    4.286    1.714    2.000    0.000 
#    0.000   17.143    0.000    0.000    0.000    0.000 
#    0.000    0.000    0.000    0.000    0.000    0.000 
#
# Total GULP energy -78070.010592 kJ/mol
# GULP energy per Si atom -5576.429328 kJ/mol
# Density = 2.476409 g / cm^3
# Si number density = 24.820581 Si / 1000 Ang^3
#
#
#
# Elastic Constant Matrix: (Units=GPa)
#
#
# Indices 1 2 3 4 5 6 
#
# 1 168.6930 29.5290 32.9641 0.0000 8.1663 0.0000
# 2 29.5290 80.9421 17.5572 0.0000 4.5128 0.0000
# 3 32.9641 17.5572 104.5158 0.0000 10.8166 0.0000
# 4 0.0000 0.0000 0.0000 37.4509 0.0000 -0.6183
# 5 8.1663 4.5128 10.8166 0.0000 46.4898 0.0000
# 6 0.0000 0.0000 0.0000 -0.6183 0.0000 49.0977
#
#
#
# Elastic Compliance Matrix: (Units=1/GPa)
#
#
# Indices 1 2 3 4 5 6 
#
# 1 0.006641 -0.002023 -0.001695 0.000000 -0.000576 0.000000
# 2 -0.002023 0.013464 -0.001563 0.000000 -0.000588 0.000000
# 3 -0.001695 -0.001563 0.010573 0.000000 -0.002011 0.000000
# 4 0.000000 0.000000 0.000000 0.026707 0.000000 0.000336
# 5 -0.000576 -0.000588 -0.002011 0.000000 0.022136 0.000000
# 6 0.000000 0.000000 0.000000 0.000336 0.000000 0.020372
#
#
# Mechanical properties :
#
#
# Convention : Reuss Voigt Hill
#
# Bulk Modulus (GPa) = 49.71042 57.13904 53.42473
# Shear Modulus (GPa) = 42.67614 44.88106 43.77860
#
# Velocity S-wave (km/s) = 4.15105 4.25693 4.20432
# Velocity P-wave (km/s) = 6.56097 6.87261 6.71859
#
# Compressibility (1/GPa) = 0.02011651
#
# Stress axis : x y z
#
# Youngs Moduli (GPa) = 150.57580 74.27035 94.57864
#
# Poissons Ratio (x) = 0.15025 0.16033
# Poissons Ratio (y) = 0.30461 0.14782
# Poissons Ratio (z) = 0.25525 0.11608
#
# Static dielectric constant tensor:
#      x y z
#    x 2.047810 0.000000 -0.036420 
#    y 0.000000 1.995220 0.000000 
#    z -0.036420 0.000000 2.028850 
# 
# From -- ./inp_files/22563.got.cif
#   From: 2010.05.17/outbox.cif.g08.bks.cpg/sg9_12_cif.got.tgz:22563.got - 2010.06.03 20:04:27.
