data_PCOD9136267
_publ_section_title
;
Structure prediction by ZEFSAII (Michael W. Deem and Ramdas Pophale) SiO2 
 PCOD9136267
Probable space group: C C
;
_chemical_formula_sum "Si O2"
_cell_formula_units_Z 32
_cell_length_a 27.395513
_cell_length_b 11.424139
_cell_length_c 16.166146
_cell_angle_alpha 90.000000
_cell_angle_beta 161.317365
_cell_angle_gamma 90.000000
_cell_volume 1620.695648
_symmetry_space_group_name_H-M "C C"
_symmetry_group_IT_number 9
_symmetry_cell_setting 'monoclinic'
loop_
_space_group_symop_operation_xyz
x,y,z
x,-y,1/2+z
1/2+x,1/2+y,z
1/2+x,1/2-y,1/2+z
loop_
_atom_site_type_symbol
_atom_site_label
_atom_site_fract_x
_atom_site_fract_y
_atom_site_fract_z
Si Si1 0.695590 0.763364 0.062950
Si Si2 0.689550 0.409386 0.706936
Si Si3 0.965735 0.429177 0.621103
Si Si4 0.262118 0.278600 0.749389
Si Si5 0.674378 0.130957 0.929617
Si Si6 0.526066 0.344536 0.609992
Si Si7 0.522072 0.361127 0.962608
Si Si8 0.055744 0.094182 0.713665
O O1 0.695522 0.685686 0.144899
O O2 0.847179 0.842101 0.300934
O O3 0.548510 0.846839 0.820546
O O4 0.678566 0.671258 0.959654
O O5 0.628535 0.354310 0.693096
O O6 0.575093 0.517441 0.505854
O O7 0.851081 0.475408 0.974526
O O8 0.864603 0.340864 0.402443
O O9 0.102211 0.503290 0.799751
O O10 0.193955 0.335114 0.557426
O O11 0.127725 0.240356 0.594891
O O12 0.390963 0.369494 0.986007
O O13 0.560231 0.223669 0.708304
O O14 0.842330 0.150082 0.162360
O O15 0.569768 0.454795 0.737361
O O16 0.551961 0.373908 0.109530
#
# Coordination Sequence:
#
# PCOD9136267 Si02
#       8
#     4   4   4   4   4   4   4   4
#     4  11  22  41  69  86 125 167 202 252 308 362
#     4  10  22  40  58  93 123 158 209 254 301 364
#     4  10  21  40  63  88 123 161 202 256 298 355
#     4   9  20  38  65  84 118 162 207 243 310 357
#     4  11  22  38  64  89 127 163 200 254 306 364
#     4  11  24  38  61  94 129 158 207 254 304 365
#     4   9  20  39  62  89 122 158 204 257 302 360
#     4   9  21  40  62  91 119 165 203 254 305 361
#
# _framework density 19.744607999999999
#
# number of rings (size 3 to 8) (size 9 to 14) (size 15 to 20)
#    0.000    2.000    1.250    2.250    5.250    4.000 
#    0.000    3.750    2.750    0.000    0.000    0.000 
#    0.000    0.000    0.000    0.000    0.000    0.000 
#
# Total GULP energy -89201.718074 kJ/mol
# GULP energy per Si atom -5575.107380 kJ/mol
# Density = 1.969967 g / cm^3
# Si number density = 19.744608 Si / 1000 Ang^3
#
#
#
# Elastic Constant Matrix: (Units=GPa)
#
#
# Indices 1 2 3 4 5 6 
#
# 1 38.0975 21.0769 5.7960 0.0000 19.1558 0.0000
# 2 21.0769 77.0622 12.9964 0.0000 -0.5974 0.0000
# 3 5.7960 12.9964 56.6043 0.0000 10.0821 0.0000
# 4 0.0000 0.0000 0.0000 35.0645 0.0000 2.1064
# 5 19.1558 -0.5974 10.0821 0.0000 22.4194 0.0000
# 6 0.0000 0.0000 0.0000 2.1064 0.0000 26.3165
#
#
#
# Elastic Compliance Matrix: (Units=1/GPa)
#
#
# Indices 1 2 3 4 5 6 
#
# 1 0.067459 -0.020426 0.008855 0.000000 -0.062165 0.000000
# 2 -0.020426 0.019759 -0.006139 0.000000 0.020740 0.000000
# 3 0.008855 -0.006139 0.021248 0.000000 -0.017285 0.000000
# 4 0.000000 0.000000 0.000000 0.028657 0.000000 -0.002294
# 5 -0.062165 0.020740 -0.017285 0.000000 0.106046 0.000000
# 6 0.000000 0.000000 0.000000 -0.002294 0.000000 0.038183
#
#
# Mechanical properties :
#
#
# Convention : Reuss Voigt Hill
#
# Bulk Modulus (GPa) = 13.68999 27.94473 20.81736
# Shear Modulus (GPa) = 14.65760 25.55306 20.10533
#
# Velocity S-wave (km/s) = 2.72758 3.60137 3.19450
# Velocity P-wave (km/s) = 4.10709 5.61044 4.91656
#
# Compressibility (1/GPa) = 0.07304608
#
# Stress axis : x y z
#
# Youngs Moduli (GPa) = 14.82387 50.60930 47.06296
#
# Poissons Ratio (x) = 1.03373 -0.41674
# Poissons Ratio (y) = 0.30279 0.28894
# Poissons Ratio (z) = -0.13126 0.31071
#
# Static dielectric constant tensor:
#      x y z
#    x 1.679940 0.000000 0.017510 
#    y 0.000000 1.706830 0.000000 
#    z 0.017510 0.000000 1.722610 
# 
# From -- ./inp_files/16141.got.cif
#   From: 2010.05.17/outbox.cif.g08.bks.cpg/sg9_9_cif.got.tgz:16141.got - 2010.06.03 20:04:27.
