data_PCOD9136096
_publ_section_title
;
Structure prediction by ZEFSAII (Michael W. Deem and Ramdas Pophale) SiO2 
 PCOD9136096
Probable space group: C C
;
_chemical_formula_sum "Si O2"
_cell_formula_units_Z 32
_cell_length_a 7.825244
_cell_length_b 21.600561
_cell_length_c 8.800969
_cell_angle_alpha 90.000000
_cell_angle_beta 67.414988
_cell_angle_gamma 90.000000
_cell_volume 1373.539916
_symmetry_space_group_name_H-M "C C"
_symmetry_group_IT_number 9
_symmetry_cell_setting 'monoclinic'
loop_
_space_group_symop_operation_xyz
x,y,z
x,-y,1/2+z
1/2+x,1/2+y,z
1/2+x,1/2-y,1/2+z
loop_
_atom_site_type_symbol
_atom_site_label
_atom_site_fract_x
_atom_site_fract_y
_atom_site_fract_z
Si Si1 0.021760 0.394059 0.723230
Si Si2 0.701367 0.550459 0.532144
Si Si3 0.019768 0.262298 0.027639
Si Si4 0.342205 0.083768 0.987199
Si Si5 0.674170 0.659744 0.762598
Si Si6 0.924011 0.043960 0.358480
Si Si7 0.690379 0.975544 0.201558
Si Si8 0.837816 0.828786 0.787671
O O1 0.131887 0.457614 0.656751
O O2 0.173478 0.344309 0.722368
O O3 0.885479 0.416050 0.904348
O O4 0.905819 0.378598 0.613521
O O5 0.750264 0.481534 0.576667
O O6 0.615097 0.602884 0.672262
O O7 0.582243 0.532424 0.425185
O O8 0.838741 0.305819 0.111445
O O9 0.987916 0.219807 0.183852
O O10 0.039753 0.214102 0.876558
O O11 0.211007 0.300133 0.963144
O O12 0.241306 0.124037 0.892825
O O13 0.525083 0.058815 0.839018
O O14 0.753920 0.059746 0.530712
O O15 0.949330 0.108171 0.266462
O O16 0.850480 0.992692 0.268020
#
# Coordination Sequence:
#
# PCOD9136096 Si02
#       8
#     4   4   4   4   4   4   4   4
#     4  10  21  39  62  92 131 176 220 269 340 405
#     4  11  24  40  65 101 141 178 221 285 349 421
#     4  10  23  46  71  96 130 188 229 295 331 400
#     4  11  23  39  68 101 137 179 221 280 352 416
#     4  11  24  45  72  99 140 182 237 281 352 404
#     4  11  24  38  63  98 137 172 223 272 346 411
#     4  10  21  39  59  92 138 179 210 270 338 420
#     4  10  22  44  68  91 132 172 231 282 336 397
#
# _framework density 23.297466
#
# number of rings (size 3 to 8) (size 9 to 14) (size 15 to 20)
#    0.000    1.500    2.500    2.250    7.000    2.000 
#    0.000    7.500    0.000    0.000    0.000    0.000 
#    0.000    0.000    0.000    0.000    0.000    0.000 
#
# Total GULP energy -89228.361841 kJ/mol
# GULP energy per Si atom -5576.772615 kJ/mol
# Density = 2.324444 g / cm^3
# Si number density = 23.297466 Si / 1000 Ang^3
#
#
#
# Elastic Constant Matrix: (Units=GPa)
#
#
# Indices 1 2 3 4 5 6 
#
# 1 54.6178 14.1826 24.4219 0.0000 14.7956 0.0000
# 2 14.1826 106.5155 39.1319 0.0000 -2.2886 0.0000
# 3 24.4219 39.1319 90.3519 0.0000 -2.6679 0.0000
# 4 0.0000 0.0000 0.0000 51.0582 0.0000 -8.1741
# 5 14.7956 -2.2886 -2.6679 0.0000 41.1847 0.0000
# 6 0.0000 0.0000 0.0000 -8.1741 0.0000 25.1617
#
#
#
# Elastic Compliance Matrix: (Units=1/GPa)
#
#
# Indices 1 2 3 4 5 6 
#
# 1 0.023822 -0.001073 -0.006241 0.000000 -0.009022 0.000000
# 2 -0.001073 0.011217 -0.004547 0.000000 0.000714 0.000000
# 3 -0.006241 -0.004547 0.014811 0.000000 0.002949 0.000000
# 4 0.000000 0.000000 0.000000 0.020660 0.000000 0.006712
# 5 -0.009022 0.000714 0.002949 0.000000 0.027753 0.000000
# 6 0.000000 0.000000 0.000000 0.006712 0.000000 0.041923
#
#
# Mechanical properties :
#
#
# Convention : Reuss Voigt Hill
#
# Bulk Modulus (GPa) = 38.27212 45.21757 41.74484
# Shear Modulus (GPa) = 28.96578 35.06418 32.01498
#
# Velocity S-wave (km/s) = 3.52987 3.88372 3.71102
# Velocity P-wave (km/s) = 5.75123 6.28983 6.02655
#
# Compressibility (1/GPa) = 0.02612868
#
# Stress axis : x y z
#
# Youngs Moduli (GPa) = 41.97769 89.15018 67.51681
#
# Poissons Ratio (x) = 0.09566 0.42136
# Poissons Ratio (y) = 0.04504 0.30700
# Poissons Ratio (z) = 0.26197 0.40537
#
# Static dielectric constant tensor:
#      x y z
#    x 1.906550 0.000000 -0.074880 
#    y 0.000000 1.870960 0.000000 
#    z -0.074880 0.000000 1.925210 
# 
# From -- ./inp_files/6014.got.cif
#   From: 2010.05.17/outbox.cif.g08.bks.cpg/sg9_4_cif.got.tgz:6014.got - 2010.06.03 20:04:27.
