data_PCOD9136360
_publ_section_title
;
Structure prediction by ZEFSAII (Michael W. Deem and Ramdas Pophale) SiO2 
 PCOD9136360
Probable space group: C C
;
_chemical_formula_sum "Si O2"
_cell_formula_units_Z 28
_cell_length_a 16.206819
_cell_length_b 9.823380
_cell_length_c 8.072700
_cell_angle_alpha 90.000000
_cell_angle_beta 89.498176
_cell_angle_gamma 90.000000
_cell_volume 1285.170896
_symmetry_space_group_name_H-M "C C"
_symmetry_group_IT_number 9
_symmetry_cell_setting 'monoclinic'
loop_
_space_group_symop_operation_xyz
x,y,z
x,-y,1/2+z
1/2+x,1/2+y,z
1/2+x,1/2-y,1/2+z
loop_
_atom_site_type_symbol
_atom_site_label
_atom_site_fract_x
_atom_site_fract_y
_atom_site_fract_z
Si Si1 0.289750 0.916587 0.961110
Si Si2 0.360508 0.839752 0.275656
Si Si3 0.741619 0.118613 0.366204
Si Si4 0.512816 0.703076 0.360050
Si Si5 0.297231 0.653495 0.737380
Si Si6 0.633068 0.295749 0.135573
Si Si7 0.979460 0.965507 0.166379
O O1 0.294731 0.800496 0.821878
O O2 0.300969 0.063029 0.881607
O O3 0.363156 0.894034 0.090523
O O4 0.207693 0.892026 0.071453
O O5 0.320075 0.690411 0.275075
O O6 0.448499 0.824747 0.357251
O O7 0.753953 0.155488 0.558134
O O8 0.667300 0.183030 0.260921
O O9 0.749202 0.957578 0.347801
O O10 0.592928 0.749176 0.459493
O O11 0.506283 0.623229 0.187167
O O12 0.479572 0.576486 0.472151
O O13 0.391277 0.596552 0.722979
O O14 0.559256 0.378449 0.224120
#
# Coordination Sequence:
#
# PCOD9136360 Si02
#       7
#     4   4   4   4   4   4   4
#     4  11  26  39  66  96 135 177 220 277 349 389
#     4  11  22  41  62  96 132 172 225 276 329 409
#     4  11  21  40  67  96 134 169 229 276 329 399
#     4  10  22  40  65  98 133 172 223 280 333 408
#     4  12  22  43  70  98 131 184 225 277 334 415
#     4   9  24  41  62 101 136 171 224 279 345 392
#     4  10  21  40  68  97 131 171 230 273 333 400
#
# _framework density 21.786985000000001
#
# number of rings (size 3 to 8) (size 9 to 14) (size 15 to 20)
#    0.857    0.571    2.857    2.571    6.000    0.000 
#    2.571    5.714    0.000    0.000    0.000    0.000 
#    0.000    0.000    0.000    0.000    0.000    0.000 
#
# Total GULP energy -77980.265887 kJ/mol
# GULP energy per Si atom -5570.018992 kJ/mol
# Density = 2.173740 g / cm^3
# Si number density = 21.786985 Si / 1000 Ang^3
#
#
#
# Elastic Constant Matrix: (Units=GPa)
#
#
# Indices 1 2 3 4 5 6 
#
# 1 104.4960 36.8388 30.2869 0.0000 28.2753 0.0000
# 2 36.8388 73.7861 19.9659 0.0000 4.1563 0.0000
# 3 30.2869 19.9659 87.8296 0.0000 23.0220 0.0000
# 4 0.0000 0.0000 0.0000 35.4568 0.0000 5.6773
# 5 28.2753 4.1563 23.0220 0.0000 33.0462 0.0000
# 6 0.0000 0.0000 0.0000 5.6773 0.0000 30.7476
#
#
#
# Elastic Compliance Matrix: (Units=1/GPa)
#
#
# Indices 1 2 3 4 5 6 
#
# 1 0.015369 -0.006832 -0.000642 0.000000 -0.011844 0.000000
# 2 -0.006832 0.017487 -0.003150 0.000000 0.005841 0.000000
# 3 -0.000642 -0.003150 0.014773 0.000000 -0.009346 0.000000
# 4 0.000000 0.000000 0.000000 0.029063 0.000000 -0.005366
# 5 -0.011844 0.005841 -0.009346 0.000000 0.046171 0.000000
# 6 0.000000 0.000000 0.000000 -0.005366 0.000000 0.033514
#
#
# Mechanical properties :
#
#
# Convention : Reuss Voigt Hill
#
# Bulk Modulus (GPa) = 37.90799 48.92167 43.41483
# Shear Modulus (GPa) = 26.82112 31.78480 29.30296
#
# Velocity S-wave (km/s) = 3.51246 3.82368 3.67137
# Velocity P-wave (km/s) = 5.82125 6.48054 6.15972
#
# Compressibility (1/GPa) = 0.02637966
#
# Stress axis : x y z
#
# Youngs Moduli (GPa) = 65.06456 57.18435 67.69038
#
# Poissons Ratio (x) = 0.39071 0.04347
# Poissons Ratio (y) = 0.44455 0.21325
# Poissons Ratio (z) = 0.04179 0.18015
#
# Static dielectric constant tensor:
#      x y z
#    x 1.828190 0.000000 0.010070 
#    y 0.000000 1.826720 0.000000 
#    z 0.010070 0.000000 1.852400 
# 
# From -- ./inp_files/10360.got.cif
#   From: 2010.05.17/outbox.cif.g08.bks.cpg/sg9_6_cif.got.tgz:10360.got - 2010.06.03 20:04:27.
