data_PCOD9136783
_publ_section_title
;
Structure prediction by ZEFSAII (Michael W. Deem and Ramdas Pophale) SiO2 
 PCOD9136783
Probable space group: C C
;
_chemical_formula_sum "Si O2"
_cell_formula_units_Z 24
_cell_length_a 11.907215
_cell_length_b 7.636268
_cell_length_c 18.472408
_cell_angle_alpha 90.000000
_cell_angle_beta 39.467190
_cell_angle_gamma 90.000000
_cell_volume 1067.636781
_symmetry_space_group_name_H-M "C C"
_symmetry_group_IT_number 9
_symmetry_cell_setting 'monoclinic'
loop_
_space_group_symop_operation_xyz
x,y,z
x,-y,1/2+z
1/2+x,1/2+y,z
1/2+x,1/2-y,1/2+z
loop_
_atom_site_type_symbol
_atom_site_label
_atom_site_fract_x
_atom_site_fract_y
_atom_site_fract_z
Si Si1 0.680990 0.954334 0.333380
Si Si2 0.748251 0.198263 0.005830
Si Si3 0.870789 0.389737 0.706653
Si Si4 0.896512 0.372201 0.069024
Si Si5 0.975367 0.485616 0.810496
Si Si6 0.280901 0.341501 0.914914
O O1 0.735152 0.754350 0.300801
O O2 0.658590 0.027178 0.263367
O O3 0.494188 0.987081 0.467033
O O4 0.809434 0.066554 0.321702
O O5 0.541538 0.210459 0.089579
O O6 0.784431 0.255251 0.070377
O O7 0.858637 0.327751 0.900196
O O8 0.800820 0.998878 0.961770
O O9 0.801889 0.525304 0.681043
O O10 0.956329 0.481954 0.733963
O O11 0.073352 0.284281 0.014783
O O12 0.898930 0.675238 0.869605
#
# Coordination Sequence:
#
# PCOD9136783 Si02
#       6
#     4   4   4   4   4   4
#     4   9  21  41  59  92 123 156 210 245 299 369
#     4  10  21  44  61  87 132 159 198 263 299 354
#     4  11  20  40  62  94 126 156 207 259 291 364
#     4   8  20  41  60  90 125 160 205 241 310 363
#     4  11  22  41  66  86 124 169 199 248 314 360
#     4   9  20  41  60  85 118 162 203 240 307 360
#
# _framework density 22.479555000000001
#
# number of rings (size 3 to 8) (size 9 to 14) (size 15 to 20)
#    1.000    1.333    1.667    0.000    0.000    4.000 
#   21.000    0.000    0.000    0.000    0.000    0.000 
#    0.000    0.000    0.000    0.000    0.000    0.000 
#
# Total GULP energy -66883.896619 kJ/mol
# GULP energy per Si atom -5573.658052 kJ/mol
# Density = 2.242839 g / cm^3
# Si number density = 22.479555 Si / 1000 Ang^3
#
#
#
# Elastic Constant Matrix: (Units=GPa)
#
#
# Indices 1 2 3 4 5 6 
#
# 1 102.3422 35.2265 12.8002 0.0000 28.5255 0.0000
# 2 35.2265 74.7696 11.9273 0.0000 -0.5319 0.0000
# 3 12.8002 11.9273 24.2162 0.0000 15.5171 0.0000
# 4 0.0000 0.0000 0.0000 12.9271 0.0000 3.7388
# 5 28.5255 -0.5319 15.5171 0.0000 31.4401 0.0000
# 6 0.0000 0.0000 0.0000 3.7388 0.0000 34.4999
#
#
#
# Elastic Compliance Matrix: (Units=1/GPa)
#
#
# Indices 1 2 3 4 5 6 
#
# 1 0.017875 -0.009958 0.008711 0.000000 -0.020686 0.000000
# 2 -0.009958 0.020749 -0.016044 0.000000 0.017304 0.000000
# 3 0.008711 -0.016044 0.072878 0.000000 -0.044144 0.000000
# 4 0.000000 0.000000 0.000000 0.079860 0.000000 -0.008655
# 5 -0.020686 0.017304 -0.044144 0.000000 0.072654 0.000000
# 6 0.000000 0.000000 0.000000 -0.008655 0.000000 0.029923
#
#
# Mechanical properties :
#
#
# Convention : Reuss Voigt Hill
#
# Bulk Modulus (GPa) = 13.00046 35.69290 24.34668
# Shear Modulus (GPa) = 14.11784 25.19834 19.65809
#
# Velocity S-wave (km/s) = 2.50877 3.35168 2.96038
# Velocity P-wave (km/s) = 3.76666 5.55795 4.74755
#
# Compressibility (1/GPa) = 0.07692034
#
# Stress axis : x y z
#
# Youngs Moduli (GPa) = 55.94436 48.19619 13.72147
#
# Poissons Ratio (x) = 0.47995 -0.11953
# Poissons Ratio (y) = 0.55711 0.22015
# Poissons Ratio (z) = -0.48735 0.77325
#
# Static dielectric constant tensor:
#      x y z
#    x 1.880570 0.000000 0.024180 
#    y 0.000000 1.785070 0.000000 
#    z 0.024180 0.000000 1.907800 
# 
# From -- ./inp_files/33519.got.cif
#   From: 2010.05.17/outbox.cif.g08.bks.cpg/sg9_17_cif.got.tgz:33519.got - 2010.06.03 20:04:27.
