data_PCOD9136233
_publ_section_title
;
Structure prediction by ZEFSAII (Michael W. Deem and Ramdas Pophale) SiO2 
 PCOD9136233
Probable space group: C C
;
_chemical_formula_sum "Si O2"
_cell_formula_units_Z 32
_cell_length_a 7.839611
_cell_length_b 23.100377
_cell_length_c 12.537903
_cell_angle_alpha 90.000000
_cell_angle_beta 38.599071
_cell_angle_gamma 90.000000
_cell_volume 1416.545238
_symmetry_space_group_name_H-M "C C"
_symmetry_group_IT_number 9
_symmetry_cell_setting 'monoclinic'
loop_
_space_group_symop_operation_xyz
x,y,z
x,-y,1/2+z
1/2+x,1/2+y,z
1/2+x,1/2-y,1/2+z
loop_
_atom_site_type_symbol
_atom_site_label
_atom_site_fract_x
_atom_site_fract_y
_atom_site_fract_z
Si Si1 0.347710 0.527894 0.514080
Si Si2 0.581728 0.780894 0.013414
Si Si3 0.551620 0.577693 0.791037
Si Si4 0.019801 0.599513 0.932080
Si Si5 0.865052 0.509227 0.381178
Si Si6 0.524822 0.366851 0.800648
Si Si7 0.742687 0.662196 0.870713
Si Si8 0.534231 0.113956 0.409828
O O1 0.446114 0.485830 0.371928
O O2 0.543701 0.510610 0.516775
O O3 0.420858 0.593114 0.447340
O O4 0.037361 0.516721 0.698286
O O5 0.416881 0.805123 0.194362
O O6 0.482590 0.817993 0.957970
O O7 0.895966 0.803081 0.875366
O O8 0.562120 0.712880 0.010800
O O9 0.570587 0.614336 0.891032
O O10 0.845224 0.583217 0.591978
O O11 0.332064 0.603459 0.815361
O O12 0.943643 0.533203 0.939509
O O13 0.931944 0.634642 0.869402
O O14 0.835555 0.623769 0.118909
O O15 0.962394 0.575655 0.344429
O O16 0.351612 0.391806 0.784319
#
# Coordination Sequence:
#
# PCOD9136233 Si02
#       8
#     4   4   4   4   4   4   4   4
#     4  12  22  36  59  93 130 163 214 258 315 378
#     4   9  22  40  70  85 128 172 205 270 311 377
#     4  11  23  41  62  93 129 166 208 265 311 379
#     4  12  23  39  65  92 129 167 210 259 319 375
#     4  12  22  35  60  95 125 170 211 256 316 381
#     4  10  21  40  59  88 125 169 203 260 316 367
#     4  11  22  45  66  94 124 169 217 254 326 371
#     4   9  21  40  59  86 126 166 206 254 320 366
#
# _framework density 22.590171000000002
#
# number of rings (size 3 to 8) (size 9 to 14) (size 15 to 20)
#    0.750    0.500    1.250    6.000    0.000    0.000 
#    0.000    6.250    0.000    0.000    0.000    0.000 
#    0.000    0.000    0.000    0.000    0.000    0.000 
#
# Total GULP energy -89329.884867 kJ/mol
# GULP energy per Si atom -5583.117804 kJ/mol
# Density = 2.253875 g / cm^3
# Si number density = 22.590171 Si / 1000 Ang^3
#
#
#
# Elastic Constant Matrix: (Units=GPa)
#
#
# Indices 1 2 3 4 5 6 
#
# 1 78.0177 21.2804 -12.7491 0.0000 0.2333 0.0000
# 2 21.2804 92.0678 -1.8162 0.0000 6.4367 0.0000
# 3 -12.7491 -1.8162 66.2320 0.0000 -0.3105 0.0000
# 4 0.0000 0.0000 0.0000 34.6577 0.0000 13.5157
# 5 0.2333 6.4367 -0.3105 0.0000 20.1572 0.0000
# 6 0.0000 0.0000 0.0000 13.5157 0.0000 25.5891
#
#
#
# Elastic Compliance Matrix: (Units=1/GPa)
#
#
# Indices 1 2 3 4 5 6 
#
# 1 0.014141 -0.003281 0.002636 0.000000 0.000925 0.000000
# 2 -0.003281 0.011876 -0.000324 0.000000 -0.003759 0.000000
# 3 0.002636 -0.000324 0.015599 0.000000 0.000313 0.000000
# 4 0.000000 0.000000 0.000000 0.036339 0.000000 -0.019193
# 5 0.000925 -0.003759 0.000313 0.000000 0.050805 0.000000
# 6 0.000000 0.000000 0.000000 -0.019193 0.000000 0.049217
#
#
# Mechanical properties :
#
#
# Convention : Reuss Voigt Hill
#
# Bulk Modulus (GPa) = 25.20229 27.74973 26.47601
# Shear Modulus (GPa) = 25.88816 31.38763 28.63790
#
# Velocity S-wave (km/s) = 3.38892 3.73156 3.56436
# Velocity P-wave (km/s) = 5.14719 5.55668 5.35585
#
# Compressibility (1/GPa) = 0.03967894
#
# Stress axis : x y z
#
# Youngs Moduli (GPa) = 70.71837 84.20061 64.10866
#
# Poissons Ratio (x) = 0.27627 -0.16901
# Poissons Ratio (y) = 0.23203 0.02074
# Poissons Ratio (z) = -0.18644 0.02724
#
# Static dielectric constant tensor:
#      x y z
#    x 1.853110 0.000000 0.060170 
#    y 0.000000 1.829680 0.000000 
#    z 0.060170 0.000000 1.842520 
# 
# From -- ./inp_files/23742.got.cif
#   From: 2010.05.17/outbox.cif.g08.bks.cpg/sg9_12_cif.got.tgz:23742.got - 2010.06.03 20:04:27.
