data_PCOD9136507
_publ_section_title
;
Structure prediction by ZEFSAII (Michael W. Deem and Ramdas Pophale) SiO2 
 PCOD9136507
Probable space group: C C
;
_chemical_formula_sum "Si O2"
_cell_formula_units_Z 32
_cell_length_a 11.060395
_cell_length_b 8.927367
_cell_length_c 23.696252
_cell_angle_alpha 90.000000
_cell_angle_beta 145.764465
_cell_angle_gamma 90.000000
_cell_volume 1316.347343
_symmetry_space_group_name_H-M "C C"
_symmetry_group_IT_number 9
_symmetry_cell_setting 'monoclinic'
loop_
_space_group_symop_operation_xyz
x,y,z
x,-y,1/2+z
1/2+x,1/2+y,z
1/2+x,1/2-y,1/2+z
loop_
_atom_site_type_symbol
_atom_site_label
_atom_site_fract_x
_atom_site_fract_y
_atom_site_fract_z
Si Si1 0.378800 0.672486 0.693080
Si Si2 0.233016 0.989050 0.115026
Si Si3 0.494188 0.040966 0.002605
Si Si4 0.283568 0.530422 0.972714
Si Si5 0.052992 0.924853 0.382376
Si Si6 0.173932 0.192357 0.494523
Si Si7 0.104057 0.066801 0.680223
Si Si8 0.874027 0.630008 0.347451
O O1 0.302927 0.843876 0.657639
O O2 0.188316 0.556339 0.603107
O O3 0.459501 0.618436 0.785112
O O4 0.576779 0.665552 0.724641
O O5 0.246271 0.898254 0.179649
O O6 0.974066 0.997455 0.003369
O O7 0.319139 0.910268 0.092344
O O8 0.312038 0.088472 0.976796
O O9 0.571233 0.187143 0.997897
O O10 0.373678 0.940799 0.908908
O O11 0.285435 0.703480 0.990618
O O12 0.048926 0.463121 0.877018
O O13 0.371003 0.444584 0.062114
O O14 0.948693 0.798110 0.380556
O O15 0.020992 0.085982 0.398187
O O16 0.161936 0.905465 0.729943
#
# Coordination Sequence:
#
# PCOD9136507 Si02
#       8
#     4   4   4   4   4   4   4   4
#     4  12  22  44  69  97 129 177 214 267 334 380
#     4  10  22  42  68  90 130 168 216 268 315 384
#     4  11  24  43  67  90 139 173 211 273 325 380
#     4   9  21  43  63  91 134 168 210 269 321 376
#     4  12  25  40  68 100 128 169 225 265 322 393
#     4  11  23  41  64 100 124 170 223 259 323 390
#     4  10  21  41  68  94 132 171 214 263 327 383
#     4  11  20  42  69  92 130 174 213 264 325 386
#
# _framework density 24.309691999999998
#
# number of rings (size 3 to 8) (size 9 to 14) (size 15 to 20)
#    0.750    0.500    5.000    2.250    0.000    0.000 
#    4.500    5.000    0.000    0.000    0.000    0.000 
#    0.000    0.000    0.000    0.000    0.000    0.000 
#
# Total GULP energy -89208.182412 kJ/mol
# GULP energy per Si atom -5575.511401 kJ/mol
# Density = 2.425436 g / cm^3
# Si number density = 24.309692 Si / 1000 Ang^3
#
#
#
# Elastic Constant Matrix: (Units=GPa)
#
#
# Indices 1 2 3 4 5 6 
#
# 1 35.0947 13.2885 -0.5654 0.0000 -8.4295 0.0000
# 2 13.2885 89.2850 15.0598 0.0000 -12.5647 0.0000
# 3 -0.5654 15.0598 64.5542 0.0000 -19.0777 0.0000
# 4 0.0000 0.0000 0.0000 19.0541 0.0000 -3.7065
# 5 -8.4295 -12.5647 -19.0777 0.0000 31.6445 0.0000
# 6 0.0000 0.0000 0.0000 -3.7065 0.0000 33.9352
#
#
#
# Elastic Compliance Matrix: (Units=1/GPa)
#
#
# Indices 1 2 3 4 5 6 
#
# 1 0.032401 -0.004180 0.004039 0.000000 0.009406 0.000000
# 2 -0.004180 0.012553 -0.002216 0.000000 0.002535 0.000000
# 3 0.004039 -0.002216 0.019592 0.000000 0.012007 0.000000
# 4 0.000000 0.000000 0.000000 0.053621 0.000000 0.005857
# 5 0.009406 0.002535 0.012007 0.000000 0.042352 0.000000
# 6 0.000000 0.000000 0.000000 0.005857 0.000000 0.030108
#
#
# Mechanical properties :
#
#
# Convention : Reuss Voigt Hill
#
# Bulk Modulus (GPa) = 16.71352 27.16663 21.94007
# Shear Modulus (GPa) = 23.22501 27.67015 25.44758
#
# Velocity S-wave (km/s) = 3.09428 3.37743 3.23895
# Velocity P-wave (km/s) = 4.43354 5.13896 4.79923
#
# Compressibility (1/GPa) = 0.05983180
#
# Stress axis : x y z
#
# Youngs Moduli (GPa) = 30.86277 79.66433 51.04197
#
# Poissons Ratio (x) = 0.33299 -0.20615
# Poissons Ratio (y) = 0.12900 0.11310
# Poissons Ratio (z) = -0.12465 0.17653
#
# Static dielectric constant tensor:
#      x y z
#    x 1.959280 0.000000 0.009880 
#    y 0.000000 1.948490 0.000000 
#    z 0.009880 0.000000 1.911750 
# 
# From -- ./inp_files/35327.got.cif
#   From: 2010.05.17/outbox.cif.g08.bks.cpg/sg9_18_cif.got.tgz:35327.got - 2010.06.03 20:04:27.
