data_PCOD9136936
_publ_section_title
;
Structure prediction by ZEFSAII (Michael W. Deem and Ramdas Pophale) SiO2 
 PCOD9136936
Probable space group: C C
;
_chemical_formula_sum "Si O2"
_cell_formula_units_Z 28
_cell_length_a 9.153778
_cell_length_b 11.505130
_cell_length_c 14.641671
_cell_angle_alpha 90.000000
_cell_angle_beta 52.129322
_cell_angle_gamma 90.000000
_cell_volume 1217.247146
_symmetry_space_group_name_H-M "C C"
_symmetry_group_IT_number 9
_symmetry_cell_setting 'monoclinic'
loop_
_space_group_symop_operation_xyz
x,y,z
x,-y,1/2+z
1/2+x,1/2+y,z
1/2+x,1/2-y,1/2+z
loop_
_atom_site_type_symbol
_atom_site_label
_atom_site_fract_x
_atom_site_fract_y
_atom_site_fract_z
Si Si1 0.139230 0.980817 0.439090
Si Si2 0.187559 0.606871 0.437032
Si Si3 0.620351 0.571392 0.247908
Si Si4 0.702255 0.845763 0.372915
Si Si5 0.550059 0.638546 0.643026
Si Si6 0.881066 0.780528 0.481629
Si Si7 0.797887 0.291811 0.516808
O O1 0.261603 0.884928 0.447711
O O2 0.958546 0.903627 0.484983
O O3 0.192762 0.040171 0.321872
O O4 0.099667 0.077107 0.529299
O O5 0.405560 0.614414 0.326735
O O6 0.146744 0.471454 0.436482
O O7 0.191269 0.672862 0.533144
O O8 0.034314 0.681949 0.442201
O O9 0.614900 0.448693 0.197337
O O10 0.735245 0.654276 0.136783
O O11 0.842841 0.788604 0.389666
O O12 0.516482 0.775616 0.433023
O O13 0.829218 0.854288 0.235341
O O14 0.681310 0.750063 0.600328
#
# Coordination Sequence:
#
# PCOD9136936 Si02
#       7
#     4   4   4   4   4   4   4
#     4  10  21  46  69 100 134 181 226 284 347 405
#     4  10  22  43  68  97 136 178 228 277 341 409
#     4  10  21  46  70  99 145 172 231 297 330 414
#     4  11  24  46  65 102 139 176 231 286 334 412
#     4  10  23  42  69  97 142 170 229 289 329 409
#     4  11  23  42  72  98 135 185 226 271 357 401
#     4  10  24  43  67 103 135 180 231 278 346 410
#
# _framework density 23.002724000000001
#
# number of rings (size 3 to 8) (size 9 to 14) (size 15 to 20)
#    0.000    1.714    2.857    1.714    2.000    5.714 
#    7.714    0.000    0.000    0.000    0.000    0.000 
#    0.000    0.000    0.000    0.000    0.000    0.000 
#
# Total GULP energy -78153.053803 kJ/mol
# GULP energy per Si atom -5582.360986 kJ/mol
# Density = 2.295037 g / cm^3
# Si number density = 23.002724 Si / 1000 Ang^3
#
#
#
# Elastic Constant Matrix: (Units=GPa)
#
#
# Indices 1 2 3 4 5 6 
#
# 1 102.2617 32.5676 18.8448 0.0000 24.2605 0.0000
# 2 32.5676 91.2707 22.4205 0.0000 6.2721 0.0000
# 3 18.8448 22.4205 77.6858 0.0000 26.1044 0.0000
# 4 0.0000 0.0000 0.0000 27.9357 0.0000 4.0991
# 5 24.2605 6.2721 26.1044 0.0000 30.2840 0.0000
# 6 0.0000 0.0000 0.0000 4.0991 0.0000 32.1334
#
#
#
# Elastic Compliance Matrix: (Units=1/GPa)
#
#
# Indices 1 2 3 4 5 6 
#
# 1 0.013628 -0.004533 0.001908 0.000000 -0.011624 0.000000
# 2 -0.004533 0.013310 -0.004274 0.000000 0.004558 0.000000
# 3 0.001908 -0.004274 0.019510 0.000000 -0.017461 0.000000
# 4 0.000000 0.000000 0.000000 0.036479 0.000000 -0.004654
# 5 -0.011624 0.004558 -0.017461 0.000000 0.056439 0.000000
# 6 0.000000 0.000000 0.000000 -0.004654 0.000000 0.031714
#
#
# Mechanical properties :
#
#
# Convention : Reuss Voigt Hill
#
# Bulk Modulus (GPa) = 30.62571 46.54265 38.58418
# Shear Modulus (GPa) = 25.54116 31.22966 28.38541
#
# Velocity S-wave (km/s) = 3.33581 3.68863 3.51665
# Velocity P-wave (km/s) = 5.30846 6.19829 5.77055
#
# Compressibility (1/GPa) = 0.03265230
#
# Stress axis : x y z
#
# Youngs Moduli (GPa) = 73.37613 75.12921 51.25527
#
# Poissons Ratio (x) = 0.34055 -0.09780
# Poissons Ratio (y) = 0.33261 0.21904
# Poissons Ratio (z) = -0.14001 0.32107
#
# Static dielectric constant tensor:
#      x y z
#    x 1.879550 0.000000 0.027520 
#    y 0.000000 1.894080 0.000000 
#    z 0.027520 0.000000 1.916710 
# 
# From -- ./inp_files/14222.got.cif
#   From: 2010.05.17/outbox.cif.g08.bks.cpg/sg9_8_cif.got.tgz:14222.got - 2010.06.03 20:04:27.
