data_PCOD9136698
_publ_section_title
;
Structure prediction by ZEFSAII (Michael W. Deem and Ramdas Pophale) SiO2 
 PCOD9136698
Probable space group: C C
;
_chemical_formula_sum "Si O2"
_cell_formula_units_Z 32
_cell_length_a 5.168081
_cell_length_b 29.279468
_cell_length_c 8.013564
_cell_angle_alpha 90.000000
_cell_angle_beta 99.079379
_cell_angle_gamma 90.000000
_cell_volume 1197.408690
_symmetry_space_group_name_H-M "C C"
_symmetry_group_IT_number 9
_symmetry_cell_setting 'monoclinic'
loop_
_space_group_symop_operation_xyz
x,y,z
x,-y,1/2+z
1/2+x,1/2+y,z
1/2+x,1/2-y,1/2+z
loop_
_atom_site_type_symbol
_atom_site_label
_atom_site_fract_x
_atom_site_fract_y
_atom_site_fract_z
Si Si1 0.282240 0.549669 0.597450
Si Si2 0.849397 0.190607 0.859257
Si Si3 0.874275 0.954849 0.733965
Si Si4 0.661938 0.369309 0.184315
Si Si5 0.259378 0.752785 0.580747
Si Si6 0.237401 0.127995 0.332058
Si Si7 0.203546 0.313751 0.760183
Si Si8 0.078516 0.592637 0.902257
O O1 0.441836 0.505477 0.676230
O O2 0.221775 0.541427 0.396194
O O3 0.440910 0.596387 0.603808
O O4 0.097195 0.561151 0.736591
O O5 0.684921 0.229429 0.750236
O O6 0.715902 0.142610 0.891663
O O7 0.050151 0.178350 0.729091
O O8 0.032835 0.211071 0.017268
O O9 0.128347 0.922601 0.783268
O O10 0.695409 0.933296 0.570052
O O11 0.778111 0.392273 0.363194
O O12 0.831078 0.365808 0.034729
O O13 0.537887 0.779480 0.620172
O O14 0.231415 0.716525 0.429804
O O15 0.979099 0.159249 0.281404
O O16 0.483528 0.146271 0.255406
#
# Coordination Sequence:
#
# PCOD9136698 Si02
#       8
#     4   4   4   4   4   4   4   4
#     4  10  23  47  66 103 147 180 250 299 370 441
#     4  10  21  43  64  98 139 184 239 302 368 440
#     4  11  23  46  72 105 138 194 243 301 371 451
#     4  10  23  42  68  98 139 192 232 303 372 436
#     4  10  22  42  67  97 142 187 245 305 369 438
#     4  11  25  44  72 101 149 190 248 302 376 446
#     4  11  24  45  65 106 139 194 242 309 368 443
#     4  11  23  45  72 100 143 191 241 305 372 447
#
# _framework density 26.724375999999999
#
# number of rings (size 3 to 8) (size 9 to 14) (size 15 to 20)
#    0.000    1.500    2.500    1.500    5.250    1.000 
#   15.750    0.000    0.000    0.000    0.000    0.000 
#    0.000    0.000    0.000    0.000    0.000    0.000 
#
# Total GULP energy -89466.454833 kJ/mol
# GULP energy per Si atom -5591.653427 kJ/mol
# Density = 2.666355 g / cm^3
# Si number density = 26.724376 Si / 1000 Ang^3
#
#
#
# Elastic Constant Matrix: (Units=GPa)
#
#
# Indices 1 2 3 4 5 6 
#
# 1 66.5174 21.8125 26.8703 0.0000 14.9558 0.0000
# 2 21.8125 138.8869 48.6957 0.0000 -1.2525 0.0000
# 3 26.8703 48.6957 174.0223 0.0000 8.8039 0.0000
# 4 0.0000 0.0000 0.0000 66.5868 0.0000 10.6700
# 5 14.9558 -1.2525 8.8039 0.0000 28.3052 0.0000
# 6 0.0000 0.0000 0.0000 10.6700 0.0000 18.7313
#
#
#
# Elastic Compliance Matrix: (Units=1/GPa)
#
#
# Indices 1 2 3 4 5 6 
#
# 1 0.018638 -0.002406 -0.001728 0.000000 -0.009417 0.000000
# 2 -0.002406 0.008326 -0.002074 0.000000 0.002285 0.000000
# 3 -0.001728 -0.002074 0.006657 0.000000 -0.001249 0.000000
# 4 0.000000 0.000000 0.000000 0.016527 0.000000 -0.009414
# 5 -0.009417 0.002285 -0.001249 0.000000 0.040795 0.000000
# 6 0.000000 0.000000 0.000000 -0.009414 0.000000 0.058749
#
#
# Mechanical properties :
#
#
# Convention : Reuss Voigt Hill
#
# Bulk Modulus (GPa) = 47.16022 63.79817 55.47920
# Shear Modulus (GPa) = 29.55519 41.52787 35.54153
#
# Velocity S-wave (km/s) = 3.32915 3.94627 3.65078
# Velocity P-wave (km/s) = 5.69762 6.68495 6.21094
#
# Compressibility (1/GPa) = 0.02120431
#
# Stress axis : x y z
#
# Youngs Moduli (GPa) = 53.65348 120.10993 150.22412
#
# Poissons Ratio (x) = 0.28901 0.25961
# Poissons Ratio (y) = 0.12910 0.31153
# Poissons Ratio (z) = 0.09272 0.24908
#
# Static dielectric constant tensor:
#      x y z
#    x 2.214560 0.000000 -0.147400 
#    y 0.000000 2.095790 0.000000 
#    z -0.147400 0.000000 2.261960 
# 
# From -- ./inp_files/4347.got.cif
#   From: 2010.05.17/outbox.cif.g08.bks.cpg/sg9_3_cif.got.tgz:4347.got - 2010.06.03 20:04:27.
